data_PCOD9056771
_publ_section_title
;
Structure prediction by ZEFSAII (Michael W. Deem and Ramdas Pophale) SiO2 
 PCOD9056771
Probable space group: P -1
;
_chemical_formula_sum "Si O2"
_cell_formula_units_Z 14
_cell_length_a 10.005234
_cell_length_b 16.046942
_cell_length_c 10.127657
_cell_angle_alpha 35.837680
_cell_angle_beta 46.810609
_cell_angle_gamma 66.580638
_cell_volume 645.222152
_symmetry_space_group_name_H-M "P -1"
_symmetry_group_IT_number 2
_symmetry_cell_setting 'triclinic'
loop_
_space_group_symop_operation_xyz
x,y,z
-x,-y,-z
loop_
_atom_site_type_symbol
_atom_site_label
_atom_site_fract_x
_atom_site_fract_y
_atom_site_fract_z
Si Si1 0.431981 0.000192 0.790725
Si Si2 0.835126 0.952535 0.286818
Si Si3 0.199818 0.679258 0.495920
Si Si4 0.745842 0.630241 0.884372
Si Si5 0.106946 0.923489 0.627002
Si Si6 0.493974 0.695355 0.496324
Si Si7 0.224802 0.366630 0.829378
O O1 0.340568 0.999678 0.709513
O O2 0.658537 0.016954 0.624387
O O3 0.420114 0.150317 0.677387
O O4 0.298194 0.842650 0.151397
O O5 0.748482 0.773265 0.612906
O O6 0.927640 0.036494 0.251633
O O7 0.000000 0.000000 0.000000
O O8 0.301420 0.696857 0.547176
O O9 0.247197 0.541917 0.572019
O O10 0.966602 0.631314 0.723135
O O11 0.583933 0.466070 0.166825
O O12 0.720487 0.652734 0.030310
O O13 0.000000 0.000000 0.500000
O O14 0.998905 0.743911 0.904393
O O15 0.642984 0.683700 0.297397
#
# Coordination Sequence:
#
# PCOD9056771 Si02
#       7
#     2   2   2   2   2   2   2
#     4  12  26  45  70 105 144 188 229 288 359 423
#     4  12  26  46  70 106 150 183 228 290 363 419
#     4  11  22  40  69 102 141 183 237 291 347 415
#     4  11  22  42  70  98 143 186 231 292 351 413
#     4  12  25  46  76 102 138 188 245 287 342 417
#     4  11  24  41  71 105 139 181 244 288 347 414
#     4  11  23  42  69 106 136 182 242 298 338 407
#
# _framework density 21.697953999999999
#
# number of rings (size 3 to 8) (size 9 to 14) (size 15 to 20)
#    0.000    0.571    2.857    7.714    2.000    0.571 
#    0.000    0.714    0.000    0.000    0.000    0.000 
#    0.000    0.000    0.000    0.000    0.000    0.000 
#
# Total GULP energy -78352.215861 kJ/mol
# GULP energy per Si atom -5596.586847 kJ/mol
# Density = 2.164857 g / cm^3
# Si number density = 21.697954 Si / 1000 Ang^3
#
#
#
# Elastic Constant Matrix: (Units=GPa)
#
#
# Indices 1 2 3 4 5 6 
#
# 1 95.5539 18.3156 41.5532 0.5765 -5.6321 5.1338
# 2 18.3156 105.3942 66.4543 4.0215 -6.4074 16.9741
# 3 41.5532 66.4543 174.6559 -15.6182 6.1529 1.6118
# 4 0.5765 4.0215 -15.6182 42.7250 -12.3614 -11.9698
# 5 -5.6321 -6.4074 6.1529 -12.3614 35.4434 7.5193
# 6 5.1338 16.9741 1.6118 -11.9698 7.5193 26.1646
#
#
#
# Elastic Compliance Matrix: (Units=1/GPa)
#
#
# Indices 1 2 3 4 5 6 
#
# 1 0.012261 0.001182 -0.003614 -0.002041 0.003090 -0.004772
# 2 0.001182 0.017154 -0.007499 -0.007220 0.005416 -0.015758
# 3 -0.003614 -0.007499 0.010002 0.005823 -0.003464 0.008617
# 4 -0.002041 -0.007220 0.005823 0.032794 0.004911 0.018316
# 5 0.003090 0.005416 -0.003464 0.004911 0.034451 -0.011560
# 6 -0.004772 -0.015758 0.008617 0.018316 -0.011560 0.060549
#
#
# Mechanical properties :
#
#
# Convention : Reuss Voigt Hill
#
# Bulk Modulus (GPa) = 51.13794 69.80557 60.47175
# Shear Modulus (GPa) = 25.82772 37.48532 31.65652
#
# Velocity S-wave (km/s) = 3.45386 4.16095 3.82378
# Velocity P-wave (km/s) = 6.28687 7.43814 6.88661
#
# Compressibility (1/GPa) = 0.01955495
#
# Stress axis : x y z
#
# Youngs Moduli (GPa) = 81.55780 58.29695 99.98101
#
# Poissons Ratio (x) = -0.06893 0.36137
# Poissons Ratio (y) = -0.09644 0.74976
# Poissons Ratio (z) = 0.29478 0.43717
#
# Static dielectric constant tensor:
#      x y z
#    x 1.784760 -0.013070 -0.016850 
#    y -0.013070 1.825790 -0.010750 
#    z -0.016850 -0.010750 1.817250 
# 
# From -- ./inp_files/204977.got.cif
#   From: 2010.05.17/outbox.cif.g08.bks.cpg/sg2_103_cif.got.tgz:204977.got - 2010.06.03 11:33:40.
