data_PCOD9056113
_publ_section_title
;
Structure prediction by ZEFSAII (Michael W. Deem and Ramdas Pophale) SiO2 
 PCOD9056113
Probable space group: P -1
;
_chemical_formula_sum "Si O2"
_cell_formula_units_Z 14
_cell_length_a 11.156246
_cell_length_b 14.232973
_cell_length_c 20.576461
_cell_angle_alpha 157.763386
_cell_angle_beta 137.286169
_cell_angle_gamma 32.580953
_cell_volume 649.216350
_symmetry_space_group_name_H-M "P -1"
_symmetry_group_IT_number 2
_symmetry_cell_setting 'triclinic'
loop_
_space_group_symop_operation_xyz
x,y,z
-x,-y,-z
loop_
_atom_site_type_symbol
_atom_site_label
_atom_site_fract_x
_atom_site_fract_y
_atom_site_fract_z
Si Si1 0.315505 0.237097 0.524971
Si Si2 0.896554 0.928374 0.856034
Si Si3 0.137350 0.624747 0.305273
Si Si4 0.871752 0.113434 0.827181
Si Si5 0.632703 0.914607 0.850449
Si Si6 0.401918 0.663971 0.773339
Si Si7 0.161767 0.363882 0.915683
O O1 0.431322 0.345810 0.596440
O O2 0.095280 0.573898 0.681649
O O3 0.500000 0.000000 0.500000
O O4 0.220694 0.073672 0.349384
O O5 0.709883 0.937105 0.824907
O O6 0.821946 0.166261 0.918362
O O7 0.000000 0.000000 0.000000
O O8 0.187839 0.433811 0.269558
O O9 0.386235 0.435461 0.249304
O O10 0.977715 0.609862 0.184240
O O11 0.000000 0.000000 0.500000
O O12 0.765278 0.421636 0.937734
O O13 0.146674 0.903070 0.794633
O O14 0.385877 0.017355 0.804868
O O15 0.606792 0.158539 0.050677
O O16 0.000000 0.500000 0.000000
#
# Coordination Sequence:
#
# PCOD9056113 Si02
#       7
#     2   2   2   2   2   2   2
#     4  11  25  42  69 102 139 185 233 288 349 421
#     4  11  22  42  68 102 142 180 233 289 353 413
#     4  12  28  46  71 106 141 179 241 299 344 420
#     4  11  24  44  72 105 140 186 238 287 354 424
#     4  12  24  45  73 103 142 187 234 291 350 426
#     4  11  21  46  70  97 141 186 227 290 353 410
#     4  12  25  44  75 103 137 196 236 278 358 420
#
# _framework density 21.564458999999999
#
# number of rings (size 3 to 8) (size 9 to 14) (size 15 to 20)
#    0.000    0.571    5.714    3.857    2.000    3.429 
#    0.000    0.000    0.000    0.000    0.000    0.000 
#    0.000    0.000    0.000    0.000    0.000    0.000 
#
# Total GULP energy -78245.879673 kJ/mol
# GULP energy per Si atom -5588.991405 kJ/mol
# Density = 2.151538 g / cm^3
# Si number density = 21.564459 Si / 1000 Ang^3
#
#
#
# Elastic Constant Matrix: (Units=GPa)
#
#
# Indices 1 2 3 4 5 6 
#
# 1 83.8559 4.4626 16.7321 2.3920 -2.4451 5.8233
# 2 4.4626 117.4331 5.8802 5.1283 8.2922 5.1361
# 3 16.7321 5.8802 62.5188 -1.8405 21.6812 15.1340
# 4 2.3920 5.1283 -1.8405 29.8759 -0.5699 7.1148
# 5 -2.4451 8.2922 21.6812 -0.5699 26.6556 2.9499
# 6 5.8233 5.1361 15.1340 7.1148 2.9499 38.8338
#
#
#
# Elastic Compliance Matrix: (Units=1/GPa)
#
#
# Indices 1 2 3 4 5 6 
#
# 1 0.013278 -0.000592 -0.005598 -0.001203 0.005925 0.000039
# 2 -0.000592 0.008829 0.000614 -0.001293 -0.003236 -0.000836
# 3 -0.005598 0.000614 0.027263 0.003724 -0.021817 -0.008892
# 4 -0.001203 -0.001293 0.003724 0.035801 -0.001133 -0.007573
# 5 0.005925 -0.003236 -0.021817 -0.001133 0.056348 0.003969
# 6 0.000039 -0.000836 -0.008892 -0.007573 0.003969 0.030407
#
#
# Mechanical properties :
#
#
# Convention : Reuss Voigt Hill
#
# Bulk Modulus (GPa) = 26.16429 35.32864 30.74646
# Shear Modulus (GPa) = 25.53419 34.85522 30.19471
#
# Velocity S-wave (km/s) = 3.44479 4.02472 3.74599
# Velocity P-wave (km/s) = 5.28975 6.16573 5.74446
#
# Compressibility (1/GPa) = 0.03822003
#
# Stress axis : x y z
#
# Youngs Moduli (GPa) = 75.31259 113.26688 36.67910
#
# Poissons Ratio (x) = 0.06704 0.20531
# Poissons Ratio (y) = 0.04457 -0.02253
# Poissons Ratio (z) = 0.42157 -0.06959
#
# Static dielectric constant tensor:
#      x y z
#    x 1.727910 -0.021040 0.029260 
#    y -0.021040 1.781060 0.005500 
#    z 0.029260 0.005500 1.794270 
# 
# From -- ./inp_files/186301.got.cif
#   From: 2010.05.17/outbox.cif.g08.bks.cpg/sg2_94_cif.got.tgz:186301.got - 2010.06.03 11:33:40.
