data_PCOD9056935
_publ_section_title
;
Structure prediction by ZEFSAII (Michael W. Deem and Ramdas Pophale) SiO2 
 PCOD9056935
Probable space group: P -1
;
_chemical_formula_sum "Si O2"
_cell_formula_units_Z 16
_cell_length_a 26.688135
_cell_length_b 7.933280
_cell_length_c 7.325571
_cell_angle_alpha 38.673985
_cell_angle_beta 43.159382
_cell_angle_gamma 42.478314
_cell_volume 609.585814
_symmetry_space_group_name_H-M "P -1"
_symmetry_group_IT_number 2
_symmetry_cell_setting 'triclinic'
loop_
_space_group_symop_operation_xyz
x,y,z
-x,-y,-z
loop_
_atom_site_type_symbol
_atom_site_label
_atom_site_fract_x
_atom_site_fract_y
_atom_site_fract_z
Si Si1 0.917783 0.291047 0.685285
Si Si2 0.458670 0.779717 0.246645
Si Si3 0.715075 0.744144 0.608602
Si Si4 0.849350 0.728774 0.781299
Si Si5 0.908005 0.201435 0.354562
Si Si6 0.385622 0.573350 0.304992
Si Si7 0.324851 0.122635 0.801326
Si Si8 0.762672 0.213717 0.203529
O O1 0.902964 0.593093 0.574749
O O2 0.905389 0.289984 0.500201
O O3 0.847562 0.213652 0.024951
O O4 0.003572 0.042315 0.707053
O O5 0.500000 0.500000 0.500000
O O6 0.450820 0.650998 0.177549
O O7 0.367979 0.990725 0.348836
O O8 0.500000 0.000000 0.000000
O O9 0.710799 0.722454 0.423805
O O10 0.775907 0.891929 0.371813
O O11 0.727560 0.455142 0.931765
O O12 0.851903 0.028572 0.598642
O O13 0.886460 0.483859 0.046268
O O14 0.756611 0.781819 0.944818
O O15 0.394772 0.239162 0.553420
O O16 0.303394 0.689283 0.545242
O O17 0.364420 0.771117 0.012080
#
# Coordination Sequence:
#
# PCOD9056935 Si02
#       8
#     2   2   2   2   2   2   2   2
#     4  11  25  43  71  92 140 180 235 280 357 393
#     4  11  23  43  67  93 129 171 209 252 318 401
#     4  11  24  41  68  97 132 163 220 274 325 387
#     4  12  25  44  68  95 140 177 232 280 359 389
#     4  11  27  44  61 103 133 183 231 290 332 434
#     4  11  23  41  66  96 129 163 219 260 321 396
#     4  12  23  42  65  99 130 167 216 282 326 386
#     4  11  22  41  65  96 122 177 221 274 325 394
#
# _framework density 26.247330999999999
#
# number of rings (size 3 to 8) (size 9 to 14) (size 15 to 20)
#    0.000    0.750    1.250    7.500    0.000    4.000 
#    0.000    3.750    0.000    0.000    0.000    0.000 
#    0.000    0.000    0.000    0.000    0.000    0.000 
#
# Total GULP energy -89583.070388 kJ/mol
# GULP energy per Si atom -5598.941899 kJ/mol
# Density = 2.618759 g / cm^3
# Si number density = 26.247331 Si / 1000 Ang^3
#
#
#
# Elastic Constant Matrix: (Units=GPa)
#
#
# Indices 1 2 3 4 5 6 
#
# 1 101.7619 9.2545 54.4817 -12.2043 8.2800 0.3506
# 2 9.2545 86.0914 16.1924 -6.4669 11.0170 -9.6771
# 3 54.4817 16.1924 142.0983 -42.9344 18.9728 -2.5377
# 4 -12.2043 -6.4669 -42.9344 32.2142 -11.2798 3.9232
# 5 8.2800 11.0170 18.9728 -11.2798 58.6194 -1.2035
# 6 0.3506 -9.6771 -2.5377 3.9232 -1.2035 44.1446
#
#
#
# Elastic Compliance Matrix: (Units=1/GPa)
#
#
# Indices 1 2 3 4 5 6 
#
# 1 0.012546 -0.000493 -0.005576 -0.002896 -0.000438 -0.000283
# 2 -0.000493 0.012379 -0.000877 0.000150 -0.001891 0.002602
# 3 -0.005576 -0.000877 0.014420 0.016860 -0.000487 -0.000831
# 4 -0.002896 0.000150 0.016860 0.054783 0.005390 -0.003697
# 5 -0.000438 -0.001891 -0.000487 0.005390 0.018663 -0.000409
# 6 -0.000283 0.002602 -0.000831 -0.003697 -0.000409 0.023495
#
#
# Mechanical properties :
#
#
# Convention : Reuss Voigt Hill
#
# Bulk Modulus (GPa) = 39.28867 54.42319 46.85593
# Shear Modulus (GPa) = 31.51333 43.66384 37.58859
#
# Velocity S-wave (km/s) = 3.46877 4.08309 3.78840
# Velocity P-wave (km/s) = 5.57174 6.55810 6.08494
#
# Compressibility (1/GPa) = 0.02545263
#
# Stress axis : x y z
#
# Youngs Moduli (GPa) = 79.70576 80.77991 69.35021
#
# Poissons Ratio (x) = 0.03985 0.38667
# Poissons Ratio (y) = 0.03932 0.06084
# Poissons Ratio (z) = 0.44441 0.07086
#
# Static dielectric constant tensor:
#      x y z
#    x 2.216410 0.078450 -0.149400 
#    y 0.078450 2.098710 0.035950 
#    z -0.149400 0.035950 2.114380 
# 
# From -- ./inp_files/358447.got.cif
#   From: 2010.05.17/outbox.cif.g08.bks.cpg/sg2_180_cif.got.tgz:358447.got - 2010.06.03 11:33:40.
