data_PCOD9056541
_publ_section_title
;
Structure prediction by ZEFSAII (Michael W. Deem and Ramdas Pophale) SiO2 
 PCOD9056541
Probable space group: P -1
;
_chemical_formula_sum "Si O2"
_cell_formula_units_Z 16
_cell_length_a 11.663926
_cell_length_b 14.725909
_cell_length_c 9.459240
_cell_angle_alpha 105.117973
_cell_angle_beta 115.476202
_cell_angle_gamma 29.366736
_cell_volume 695.012688
_symmetry_space_group_name_H-M "P -1"
_symmetry_group_IT_number 2
_symmetry_cell_setting 'triclinic'
loop_
_space_group_symop_operation_xyz
x,y,z
-x,-y,-z
loop_
_atom_site_type_symbol
_atom_site_label
_atom_site_fract_x
_atom_site_fract_y
_atom_site_fract_z
Si Si1 0.988608 0.315485 0.490494
Si Si2 0.855706 0.093577 0.313339
Si Si3 0.702113 0.625719 0.272096
Si Si4 0.777742 0.181550 0.853255
Si Si5 0.448021 0.925783 0.487380
Si Si6 0.520073 0.492384 0.337789
Si Si7 0.120356 0.340137 0.842947
Si Si8 0.585195 0.768823 0.808527
O O1 0.951923 0.423531 0.404013
O O2 0.698360 0.470030 0.418824
O O3 0.140418 0.130893 0.429296
O O4 0.111395 0.267785 0.685191
O O5 0.665823 0.305319 0.287789
O O6 0.667829 0.122575 0.224649
O O7 0.000000 0.000000 0.500000
O O8 0.097869 0.939354 0.273508
O O9 0.483957 0.687598 0.157710
O O10 0.796017 0.619999 0.182516
O O11 0.552589 0.791722 0.367074
O O12 0.712550 0.329360 0.820389
O O13 0.000000 0.000000 0.000000
O O14 0.500000 0.000000 0.500000
O O15 0.549682 0.829787 0.655542
O O16 0.500000 0.500000 0.500000
O O17 0.831045 0.539248 0.831315
O O18 0.318546 0.211564 0.026076
#
# Coordination Sequence:
#
# PCOD9056541 Si02
#       8
#     2   2   2   2   2   2   2   2
#     4  11  22  39  67  93 128 168 217 272 321 397
#     4  12  23  45  70  96 135 176 231 281 325 402
#     4  11  22  44  66  92 132 173 217 269 331 394
#     4  11  25  43  67  99 138 175 221 282 341 391
#     4  12  23  40  64  96 122 169 224 257 327 400
#     4  11  23  40  68 102 124 178 230 271 330 400
#     4  11  22  42  65  93 135 171 209 268 340 387
#     4  11  25  41  65  98 134 174 212 276 339 387
#
# _framework density 23.021163000000001
#
# number of rings (size 3 to 8) (size 9 to 14) (size 15 to 20)
#    0.000    0.750    3.750    4.875    0.000    1.000 
#    0.000    3.750    0.000    0.000    0.000    0.000 
#    0.000    0.000    0.000    0.000    0.000    0.000 
#
# Total GULP energy -89238.693681 kJ/mol
# GULP energy per Si atom -5577.418355 kJ/mol
# Density = 2.296877 g / cm^3
# Si number density = 23.021163 Si / 1000 Ang^3
#
#
#
# Elastic Constant Matrix: (Units=GPa)
#
#
# Indices 1 2 3 4 5 6 
#
# 1 61.2831 -13.6095 -4.8819 -8.1131 -4.4305 -11.7528
# 2 -13.6095 103.7036 1.6003 -9.1048 -2.7460 12.4374
# 3 -4.8819 1.6003 56.8975 -13.1544 -13.4140 2.9877
# 4 -8.1131 -9.1048 -13.1544 31.7182 -5.6922 -6.7645
# 5 -4.4305 -2.7460 -13.4140 -5.6922 31.4350 -5.9219
# 6 -11.7528 12.4374 2.9877 -6.7645 -5.9219 43.6037
#
#
#
# Elastic Compliance Matrix: (Units=1/GPa)
#
#
# Indices 1 2 3 4 5 6 
#
# 1 0.021363 0.003135 0.006527 0.012462 0.009773 0.007677
# 2 0.003135 0.010670 0.001819 0.004870 0.002809 -0.001186
# 3 0.006527 0.001819 0.025347 0.016403 0.015652 0.004174
# 4 0.012462 0.004870 0.016403 0.048913 0.020143 0.011170
# 5 0.009773 0.002809 0.015652 0.020143 0.045661 0.010087
# 6 0.007677 -0.001186 0.004174 0.011170 0.010087 0.028158
#
#
# Mechanical properties :
#
#
# Convention : Reuss Voigt Hill
#
# Bulk Modulus (GPa) = 12.44670 20.90020 16.67345
# Shear Modulus (GPa) = 27.18409 37.26973 32.22691
#
# Velocity S-wave (km/s) = 3.44005 4.02796 3.74556
# Velocity P-wave (km/s) = 4.60402 5.54356 5.09549
#
# Compressibility (1/GPa) = 0.08034258
#
# Stress axis : x y z
#
# Youngs Moduli (GPa) = 46.81097 93.71671 39.45183
#
# Poissons Ratio (x) = -0.29380 -0.25749
# Poissons Ratio (y) = -0.14675 -0.07178
# Poissons Ratio (z) = -0.30553 -0.17051
#
# Static dielectric constant tensor:
#      x y z
#    x 1.921440 0.000290 0.025510 
#    y 0.000290 1.667230 0.045860 
#    z 0.025510 0.045860 1.849080 
# 
# From -- ./inp_files/273463.got.cif
#   From: 2010.05.17/outbox.cif.g08.bks.cpg/sg2_137_cif.got.tgz:273463.got - 2010.06.03 11:33:40.
