data_PCOD9056737
_publ_section_title
;
Structure prediction by ZEFSAII (Michael W. Deem and Ramdas Pophale) SiO2 
 PCOD9056737
Probable space group: P -1
;
_chemical_formula_sum "Si O2"
_cell_formula_units_Z 16
_cell_length_a 6.549859
_cell_length_b 13.147591
_cell_length_c 26.304776
_cell_angle_alpha 25.186301
_cell_angle_beta 127.724023
_cell_angle_gamma 119.035411
_cell_volume 746.611858
_symmetry_space_group_name_H-M "P -1"
_symmetry_group_IT_number 2
_symmetry_cell_setting 'triclinic'
loop_
_space_group_symop_operation_xyz
x,y,z
-x,-y,-z
loop_
_atom_site_type_symbol
_atom_site_label
_atom_site_fract_x
_atom_site_fract_y
_atom_site_fract_z
Si Si1 0.806283 0.692567 0.730378
Si Si2 0.564872 0.001395 0.116267
Si Si3 0.713948 0.159555 0.370505
Si Si4 0.916325 0.641093 0.161857
Si Si5 0.960382 0.372323 0.998727
Si Si6 0.996171 0.366844 0.705304
Si Si7 0.179223 0.082522 0.600039
Si Si8 0.572601 0.065784 0.759014
O O1 0.501928 0.821335 0.627823
O O2 0.874153 0.486872 0.790111
O O3 0.985820 0.893010 0.661254
O O4 0.873866 0.560054 0.854790
O O5 0.741817 0.208103 0.047560
O O6 0.535457 0.925633 0.204110
O O7 0.278117 0.119934 0.996727
O O8 0.727696 0.783872 0.205540
O O9 0.746443 0.431591 0.239962
O O10 0.627702 0.031039 0.365326
O O11 0.000000 0.000000 0.500000
O O12 0.024686 0.677843 0.217380
O O13 0.231083 0.193475 0.103633
O O14 0.000000 0.500000 0.000000
O O15 0.965883 0.649952 0.560213
O O16 0.756606 0.263854 0.690508
O O17 0.339208 0.097657 0.668646
#
# Coordination Sequence:
#
# PCOD9056737 Si02
#       8
#     2   2   2   2   2   2   2   2
#     4  11  24  40  75 103 132 175 220 289 346 397
#     4  11  24  43  68  98 135 179 233 281 334 399
#     4  11  23  45  69 103 136 172 218 284 344 404
#     4  11  23  44  68 102 134 173 236 278 339 402
#     4  11  22  40  68 101 135 177 223 283 348 393
#     4  11  26  46  65  96 141 190 224 280 328 403
#     4  11  25  44  68 103 137 179 230 274 339 407
#     4  11  25  43  67  99 137 182 231 277 333 400
#
# _framework density 21.430145
#
# number of rings (size 3 to 8) (size 9 to 14) (size 15 to 20)
#    0.000    1.000    3.750    2.250    1.750    7.000 
#    0.000    0.000    0.000    0.000    0.000    0.000 
#    0.000    0.000    0.000    0.000    0.000    0.000 
#
# Total GULP energy -89545.353394 kJ/mol
# GULP energy per Si atom -5596.584587 kJ/mol
# Density = 2.138137 g / cm^3
# Si number density = 21.430145 Si / 1000 Ang^3
#
#
#
# Elastic Constant Matrix: (Units=GPa)
#
#
# Indices 1 2 3 4 5 6 
#
# 1 125.1990 34.8224 42.3102 -0.3966 20.6363 -24.6406
# 2 34.8224 95.9105 27.6613 8.0480 13.9483 -19.9577
# 3 42.3102 27.6613 82.4263 1.9438 5.4206 -3.7008
# 4 -0.3966 8.0480 1.9438 40.6149 -1.8134 -3.4749
# 5 20.6363 13.9483 5.4206 -1.8134 34.2005 0.2411
# 6 -24.6406 -19.9577 -3.7008 -3.4749 0.2411 30.0688
#
#
#
# Elastic Compliance Matrix: (Units=1/GPa)
#
#
# Indices 1 2 3 4 5 6 
#
# 1 0.013131 -0.000026 -0.005836 0.000972 -0.007008 0.010194
# 2 -0.000026 0.014397 -0.004016 -0.002146 -0.005396 0.008836
# 3 -0.005836 -0.004016 0.016063 -0.000386 0.002632 -0.005537
# 4 0.000972 -0.002146 -0.000386 0.025341 0.001678 0.002240
# 5 -0.007008 -0.005396 0.002632 0.001678 0.035405 -0.009090
# 6 0.010194 0.008836 -0.005537 0.002240 -0.009090 0.047126
#
#
# Mechanical properties :
#
#
# Convention : Reuss Voigt Hill
#
# Bulk Modulus (GPa) = 41.95392 57.01373 49.48382
# Shear Modulus (GPa) = 27.90732 34.22630 31.06681
#
# Velocity S-wave (km/s) = 3.61258 4.00072 3.81159
# Velocity P-wave (km/s) = 6.08445 6.92844 6.52011
#
# Compressibility (1/GPa) = 0.02383568
#
# Stress axis : x y z
#
# Youngs Moduli (GPa) = 76.15467 69.45670 62.25472
#
# Poissons Ratio (x) = 0.00177 0.36333
# Poissons Ratio (y) = 0.00194 0.25004
# Poissons Ratio (z) = 0.44445 0.27896
#
# Static dielectric constant tensor:
#      x y z
#    x 1.778260 0.004240 0.011950 
#    y 0.004240 1.774420 0.009380 
#    z 0.011950 0.009380 1.759620 
# 
# From -- ./inp_files/70060.got.cif
#   From: 2010.05.17/outbox.cif.g08.bks.cpg/sg2_36_cif.got.tgz:70060.got - 2010.06.03 11:33:40.
