data_PCOD9056974
_publ_section_title
;
Structure prediction by ZEFSAII (Michael W. Deem and Ramdas Pophale) SiO2 
 PCOD9056974
Probable space group: P -1
;
_chemical_formula_sum "Si O2"
_cell_formula_units_Z 16
_cell_length_a 11.081267
_cell_length_b 11.166092
_cell_length_c 13.619214
_cell_angle_alpha 58.132354
_cell_angle_beta 88.193271
_cell_angle_gamma 40.759398
_cell_volume 698.357595
_symmetry_space_group_name_H-M "P -1"
_symmetry_group_IT_number 2
_symmetry_cell_setting 'triclinic'
loop_
_space_group_symop_operation_xyz
x,y,z
-x,-y,-z
loop_
_atom_site_type_symbol
_atom_site_label
_atom_site_fract_x
_atom_site_fract_y
_atom_site_fract_z
Si Si1 0.291051 0.390603 0.518139
Si Si2 0.698977 0.883659 0.484213
Si Si3 0.520106 0.380087 0.267590
Si Si4 0.006961 0.119360 0.841692
Si Si5 0.759690 0.622440 0.258488
Si Si6 0.675188 0.222470 0.547969
Si Si7 0.462735 0.843681 0.981932
Si Si8 0.201861 0.712705 0.855779
O O1 0.258434 0.260629 0.547852
O O2 0.254361 0.448451 0.609150
O O3 0.555462 0.188607 0.572402
O O4 0.103612 0.669567 0.334525
O O5 0.950543 0.641660 0.644385
O O6 0.500000 0.000000 0.500000
O O7 0.596794 0.140577 0.350307
O O8 0.652121 0.289908 0.405893
O O9 0.627598 0.361634 0.184462
O O10 0.228033 0.681375 0.171644
O O11 0.122715 0.869714 0.889259
O O12 0.218506 0.998374 0.938070
O O13 0.630059 0.678213 0.147096
O O14 0.619076 0.915169 0.145721
O O15 0.500000 0.500000 0.500000
O O16 0.948767 0.945026 0.702898
O O17 0.634215 0.594550 0.003962
#
# Coordination Sequence:
#
# PCOD9056974 Si02
#       8
#     2   2   2   2   2   2   2   2
#     4  11  23  42  75  98 131 176 232 297 338 393
#     4  12  21  41  72 103 134 169 235 293 347 395
#     4  11  24  40  73 104 134 184 229 292 347 400
#     4  11  23  47  66 104 141 176 232 294 333 409
#     4  11  25  44  70 101 136 183 231 285 346 413
#     4  11  22  41  67 104 142 168 226 303 339 392
#     4  11  26  44  66  98 150 186 222 280 350 420
#     4  12  25  42  71  99 141 189 231 271 356 419
#
# _framework density 22.910898
#
# number of rings (size 3 to 8) (size 9 to 14) (size 15 to 20)
#    0.000    0.750    6.250    2.625    3.500    0.500 
#    0.000    1.875    0.000    0.000    0.000    0.000 
#    0.000    0.000    0.000    0.000    0.000    0.000 
#
# Total GULP energy -89627.380170 kJ/mol
# GULP energy per Si atom -5601.711261 kJ/mol
# Density = 2.285875 g / cm^3
# Si number density = 22.910898 Si / 1000 Ang^3
#
#
#
# Elastic Constant Matrix: (Units=GPa)
#
#
# Indices 1 2 3 4 5 6 
#
# 1 104.1969 43.3110 61.8356 -13.3290 25.2288 9.6889
# 2 43.3110 113.9964 56.0164 -14.9549 -3.3552 8.3064
# 3 61.8356 56.0164 113.8840 -6.0848 33.6918 -13.3043
# 4 -13.3290 -14.9549 -6.0848 47.4430 1.0230 -0.0773
# 5 25.2288 -3.3552 33.6918 1.0230 52.0379 -6.6144
# 6 9.6889 8.3064 -13.3043 -0.0773 -6.6144 39.5739
#
#
#
# Elastic Compliance Matrix: (Units=1/GPa)
#
#
# Indices 1 2 3 4 5 6 
#
# 1 0.017108 -0.001884 -0.007719 0.003306 -0.004387 -0.007115
# 2 -0.001884 0.014529 -0.008467 0.002813 0.006730 -0.004305
# 3 -0.007719 -0.008467 0.020779 -0.001963 -0.009057 0.009135
# 4 0.003306 0.002813 -0.001963 0.022657 -0.000871 -0.002161
# 5 -0.004387 0.006730 -0.009057 -0.000871 0.027820 0.001265
# 6 -0.007115 -0.004305 0.009135 -0.002161 0.001265 0.031193
#
#
# Mechanical properties :
#
#
# Convention : Reuss Voigt Hill
#
# Bulk Modulus (GPa) = 61.44203 72.71148 67.07675
# Shear Modulus (GPa) = 28.46554 39.20525 33.83540
#
# Velocity S-wave (km/s) = 3.52866 4.14116 3.84712
# Velocity P-wave (km/s) = 6.59378 7.39399 7.00532
#
# Compressibility (1/GPa) = 0.01627550
#
# Stress axis : x y z
#
# Youngs Moduli (GPa) = 58.45258 68.82603 48.12612
#
# Poissons Ratio (x) = 0.12966 0.37149
# Poissons Ratio (y) = 0.11011 0.40750
# Poissons Ratio (z) = 0.45120 0.58277
#
# Static dielectric constant tensor:
#      x y z
#    x 1.852490 0.043800 0.001770 
#    y 0.043800 1.911350 0.000010 
#    z 0.001770 0.000010 1.854960 
# 
# From -- ./inp_files/519599.got.cif
#   From: 2010.05.17/outbox.cif.g08.bks.cpg/sg2_260_cif.got.tgz:519599.got - 2010.06.03 11:33:40.
