data_PCOD9056506
_publ_section_title
;
Structure prediction by ZEFSAII (Michael W. Deem and Ramdas Pophale) SiO2 
 PCOD9056506
Probable space group: P -1
;
_chemical_formula_sum "Si O2"
_cell_formula_units_Z 16
_cell_length_a 8.195850
_cell_length_b 15.745072
_cell_length_c 10.668861
_cell_angle_alpha 115.293588
_cell_angle_beta 56.831290
_cell_angle_gamma 143.840045
_cell_volume 679.690637
_symmetry_space_group_name_H-M "P -1"
_symmetry_group_IT_number 2
_symmetry_cell_setting 'triclinic'
loop_
_space_group_symop_operation_xyz
x,y,z
-x,-y,-z
loop_
_atom_site_type_symbol
_atom_site_label
_atom_site_fract_x
_atom_site_fract_y
_atom_site_fract_z
Si Si1 0.796727 0.957740 0.723245
Si Si2 0.730179 0.463209 0.644903
Si Si3 0.835754 0.230750 0.030352
Si Si4 0.797898 0.449220 0.892142
Si Si5 0.813752 0.783894 0.462401
Si Si6 0.151069 0.744234 0.245688
Si Si7 0.185952 0.291573 0.162341
Si Si8 0.841920 0.989449 0.179702
O O1 0.512520 0.900088 0.872164
O O2 0.699295 0.818407 0.630482
O O3 0.065642 0.038364 0.757539
O O4 0.915549 0.061270 0.622381
O O5 0.678520 0.413189 0.777909
O O6 0.448921 0.338084 0.598517
O O7 0.793992 0.598199 0.714787
O O8 0.000000 0.500000 0.500000
O O9 0.956239 0.380982 0.088365
O O10 0.026245 0.244797 0.063180
O O11 0.879837 0.224712 0.862118
O O12 0.931176 0.394808 0.817712
O O13 0.515312 0.369345 0.048948
O O14 0.952192 0.735223 0.414506
O O15 0.493005 0.869581 0.224853
O O16 0.986683 0.145165 0.229257
O O17 0.000000 0.000000 0.000000
#
# Coordination Sequence:
#
# PCOD9056506 Si02
#       8
#     2   2   2   2   2   2   2   2
#     4  11  25  45  64  92 132 170 215 269 319 385
#     4  11  24  44  68  94 129 172 212 258 324 388
#     4  11  22  39  65  94 128 165 217 263 317 379
#     4  11  22  40  62  95 133 165 211 267 319 378
#     4  11  25  43  67  95 128 172 217 259 323 387
#     4  12  24  38  66  97 126 172 213 268 319 376
#     4  11  23  41  67  96 128 170 212 266 321 381
#     4  12  24  42  66  95 132 168 219 267 324 371
#
# _framework density 23.540119000000001
#
# number of rings (size 3 to 8) (size 9 to 14) (size 15 to 20)
#    0.000    0.750    2.500    6.375    1.750    4.500 
#    0.000    1.875    0.000    0.000    0.000    0.000 
#    0.000    0.000    0.000    0.000    0.000    0.000 
#
# Total GULP energy -89624.992233 kJ/mol
# GULP energy per Si atom -5601.562015 kJ/mol
# Density = 2.348654 g / cm^3
# Si number density = 23.540119 Si / 1000 Ang^3
#
#
#
# Elastic Constant Matrix: (Units=GPa)
#
#
# Indices 1 2 3 4 5 6 
#
# 1 64.3303 15.8089 4.9640 11.1220 -16.7534 1.9604
# 2 15.8089 73.9255 8.3808 6.8732 -13.8257 7.1788
# 3 4.9640 8.3808 70.3945 21.2606 -30.7634 0.7475
# 4 11.1220 6.8732 21.2606 39.5476 -0.6947 -3.3935
# 5 -16.7534 -13.8257 -30.7634 -0.6947 43.6627 8.1630
# 6 1.9604 7.1788 0.7475 -3.3935 8.1630 47.5492
#
#
#
# Elastic Compliance Matrix: (Units=1/GPa)
#
#
# Indices 1 2 3 4 5 6 
#
# 1 0.020544 -0.001525 0.007419 -0.009585 0.013162 -0.003677
# 2 -0.001525 0.015530 0.002295 -0.003707 0.006585 -0.003713
# 3 0.007419 0.002295 0.030728 -0.019145 0.026228 -0.007004
# 4 -0.009585 -0.003707 -0.019145 0.039212 -0.019087 0.007331
# 5 0.013162 0.006585 0.026228 -0.019087 0.050452 -0.011973
# 6 -0.003677 -0.003713 -0.007004 0.007331 -0.011973 0.024432
#
#
# Mechanical properties :
#
#
# Convention : Reuss Voigt Hill
#
# Bulk Modulus (GPa) = 12.02207 29.66196 20.84201
# Shear Modulus (GPa) = 26.00852 38.11835 32.06343
#
# Velocity S-wave (km/s) = 3.32755 4.02841 3.69464
# Velocity P-wave (km/s) = 4.45888 5.85367 5.20322
#
# Compressibility (1/GPa) = 0.08318037
#
# Stress axis : x y z
#
# Youngs Moduli (GPa) = 48.67622 64.39292 32.54393
#
# Poissons Ratio (x) = 0.09817 -0.24143
# Poissons Ratio (y) = 0.07421 -0.07470
# Poissons Ratio (z) = -0.36111 -0.14780
#
# Static dielectric constant tensor:
#      x y z
#    x 1.900240 -0.036970 0.009920 
#    y -0.036970 1.879570 0.037690 
#    z 0.009920 0.037690 1.872690 
# 
# From -- ./inp_files/298764.got.cif
#   From: 2010.05.17/outbox.cif.g08.bks.cpg/sg2_150_cif.got.tgz:298764.got - 2010.06.03 11:33:40.
