data_PCOD9056590
_publ_section_title
;
Structure prediction by ZEFSAII (Michael W. Deem and Ramdas Pophale) SiO2 
 PCOD9056590
Probable space group: P -1
;
_chemical_formula_sum "Si O2"
_cell_formula_units_Z 16
_cell_length_a 19.833172
_cell_length_b 10.981959
_cell_length_c 5.614213
_cell_angle_alpha 97.627887
_cell_angle_beta 103.389181
_cell_angle_gamma 33.558509
_cell_volume 653.447874
_symmetry_space_group_name_H-M "P -1"
_symmetry_group_IT_number 2
_symmetry_cell_setting 'triclinic'
loop_
_space_group_symop_operation_xyz
x,y,z
-x,-y,-z
loop_
_atom_site_type_symbol
_atom_site_label
_atom_site_fract_x
_atom_site_fract_y
_atom_site_fract_z
Si Si1 0.421418 0.820943 0.592683
Si Si2 0.370280 0.125534 0.923947
Si Si3 0.923310 0.894603 0.695682
Si Si4 0.834059 0.456073 0.468118
Si Si5 0.711220 0.402304 0.561815
Si Si6 0.876698 0.836360 0.132015
Si Si7 0.214061 0.256418 0.210341
Si Si8 0.367274 0.685960 0.822657
O O1 0.569584 0.620486 0.607303
O O2 0.388024 0.731027 0.606299
O O3 0.393139 0.950385 0.827873
O O4 0.316607 0.025298 0.376738
O O5 0.283264 0.323920 0.720185
O O6 0.298989 0.229452 0.138452
O O7 0.500000 0.000000 0.000000
O O8 0.941489 0.804409 0.944373
O O9 0.054736 0.753756 0.666947
O O10 0.813108 0.158166 0.693861
O O11 0.891578 0.851767 0.429900
O O12 0.784733 0.419931 0.584445
O O13 0.873857 0.527288 0.644812
O O14 0.679185 0.382714 0.279587
O O15 0.864010 0.711053 0.028748
O O16 0.735199 0.095559 0.050705
O O17 0.500000 0.500000 0.000000
#
# Coordination Sequence:
#
# PCOD9056590 Si02
#       8
#     2   2   2   2   2   2   2   2
#     4  11  22  41  70 106 140 179 235 296 364 422
#     4  11  24  42  70 101 141 181 232 297 357 431
#     4  11  27  49  72 105 143 192 246 296 352 428
#     4  11  27  45  68 102 140 194 240 292 359 428
#     4  11  23  44  69 100 146 189 235 291 360 434
#     4  11  24  46  74 102 143 185 244 299 356 416
#     4  11  23  44  70 100 142 180 239 301 360 423
#     4  11  22  39  70 107 140 185 234 300 358 429
#
# _framework density 24.485503000000001
#
# number of rings (size 3 to 8) (size 9 to 14) (size 15 to 20)
#    0.000    1.000    1.250    5.250    5.250    3.000 
#    4.500    3.125    0.000    0.000    0.000    0.000 
#    0.000    0.000    0.000    0.000    0.000    0.000 
#
# Total GULP energy -89337.844770 kJ/mol
# GULP energy per Si atom -5583.615298 kJ/mol
# Density = 2.442977 g / cm^3
# Si number density = 24.485503 Si / 1000 Ang^3
#
#
#
# Elastic Constant Matrix: (Units=GPa)
#
#
# Indices 1 2 3 4 5 6 
#
# 1 92.6676 10.4087 10.8954 7.5069 -10.4360 2.2224
# 2 10.4087 120.6435 14.6131 12.5003 -11.6099 -2.6312
# 3 10.8954 14.6131 71.2616 -13.8007 -10.1297 13.6508
# 4 7.5069 12.5003 -13.8007 39.1409 -1.9754 -12.2258
# 5 -10.4360 -11.6099 -10.1297 -1.9754 33.9267 8.6934
# 6 2.2224 -2.6312 13.6508 -12.2258 8.6934 31.4518
#
#
#
# Elastic Compliance Matrix: (Units=1/GPa)
#
#
# Indices 1 2 3 4 5 6 
#
# 1 0.011705 -0.000214 -0.001395 -0.003267 0.003559 -0.002494
# 2 -0.000214 0.009159 -0.002160 -0.003632 0.002296 -0.000328
# 3 -0.001395 -0.002160 0.018110 0.005268 0.006518 -0.007696
# 4 -0.003267 -0.003632 0.005268 0.032450 -0.001521 0.010675
# 5 0.003559 0.002296 0.006518 -0.001521 0.036705 -0.013625
# 6 -0.002494 -0.000328 -0.007696 0.010675 -0.013625 0.043199
#
#
# Mechanical properties :
#
#
# Convention : Reuss Voigt Hill
#
# Bulk Modulus (GPa) = 31.81036 39.60077 35.70556
# Shear Modulus (GPa) = 29.52569 37.48091 33.50330
#
# Velocity S-wave (km/s) = 3.47629 3.91671 3.70306
# Velocity P-wave (km/s) = 5.39746 6.05495 5.73563
#
# Compressibility (1/GPa) = 0.03143630
#
# Stress axis : x y z
#
# Youngs Moduli (GPa) = 85.43610 109.18115 55.21856
#
# Poissons Ratio (x) = 0.02339 0.07702
# Poissons Ratio (y) = 0.01830 0.11925
# Poissons Ratio (z) = 0.11917 0.23579
#
# Static dielectric constant tensor:
#      x y z
#    x 1.835080 0.013100 -0.004020 
#    y 0.013100 2.021500 -0.036730 
#    z -0.004020 -0.036730 2.009590 
# 
# From -- ./inp_files/118756.got.cif
#   From: 2010.05.17/outbox.cif.g08.bks.cpg/sg2_60_cif.got.tgz:118756.got - 2010.06.03 11:33:40.
