data_PCOD9056248
_publ_section_title
;
Structure prediction by ZEFSAII (Michael W. Deem and Ramdas Pophale) SiO2 
 PCOD9056248
Probable space group: P -1
;
_chemical_formula_sum "Si O2"
_cell_formula_units_Z 14
_cell_length_a 12.641851
_cell_length_b 13.035830
_cell_length_c 12.034126
_cell_angle_alpha 76.961160
_cell_angle_beta 74.652465
_cell_angle_gamma 146.163475
_cell_volume 594.634339
_symmetry_space_group_name_H-M "P -1"
_symmetry_group_IT_number 2
_symmetry_cell_setting 'triclinic'
loop_
_space_group_symop_operation_xyz
x,y,z
-x,-y,-z
loop_
_atom_site_type_symbol
_atom_site_label
_atom_site_fract_x
_atom_site_fract_y
_atom_site_fract_z
Si Si1 0.636694 0.194075 0.814488
Si Si2 0.096603 0.181989 0.603968
Si Si3 0.745213 0.628928 0.248338
Si Si4 0.518135 0.839411 0.564248
Si Si5 0.250697 0.469021 0.317301
Si Si6 0.532451 0.056914 0.631273
Si Si7 0.520326 0.501937 0.126494
O O1 0.561677 0.250819 0.827368
O O2 0.484331 0.013971 0.785572
O O3 0.053177 0.565632 0.597866
O O4 0.500000 0.000000 0.000000
O O5 0.379689 0.350381 0.454834
O O6 0.033338 0.130498 0.766300
O O7 0.226883 0.413602 0.466770
O O8 0.768764 0.852788 0.702134
O O9 0.710444 0.471978 0.298901
O O10 0.810018 0.724815 0.079314
O O11 0.599703 0.959782 0.390399
O O12 0.374781 0.810059 0.678104
O O13 0.871882 0.135875 0.454483
O O14 0.405721 0.507707 0.208210
O O15 0.500000 0.500000 0.000000
#
# Coordination Sequence:
#
# PCOD9056248 Si02
#       7
#     2   2   2   2   2   2   2
#     4  10  21  40  59  85 121 152 196 247 295 349
#     4  10  19  36  61  83 108 154 201 230 286 355
#     4  10  19  34  61  81 110 154 195 232 289 347
#     4  10  17  36  61  82 112 151 202 242 287 355
#     4  10  19  38  61  79 114 158 191 240 298 344
#     4   9  21  36  60  87 112 153 202 242 293 350
#     4  11  22  37  54  89 125 148 192 246 289 353
#
# _framework density 23.543877999999999
#
# number of rings (size 3 to 8) (size 9 to 14) (size 15 to 20)
#    0.000    2.000    2.857    1.714    0.000    1.714 
#    5.143    7.857    0.000    0.000    0.000    0.000 
#    0.000    0.000    0.000    0.000    0.000    0.000 
#
# Total GULP energy -78158.695796 kJ/mol
# GULP energy per Si atom -5582.763985 kJ/mol
# Density = 2.349029 g / cm^3
# Si number density = 23.543878 Si / 1000 Ang^3
#
#
#
# Elastic Constant Matrix: (Units=GPa)
#
#
# Indices 1 2 3 4 5 6 
#
# 1 106.0210 33.4161 39.3307 11.3982 48.1835 -6.4458
# 2 33.4161 144.3163 42.1871 28.4873 24.7063 0.0166
# 3 39.3307 42.1871 94.1307 26.9769 40.0404 -0.4482
# 4 11.3982 28.4873 26.9769 43.9112 17.7022 12.4241
# 5 48.1835 24.7063 40.0404 17.7022 35.2666 -3.4675
# 6 -6.4458 0.0166 -0.4482 12.4241 -3.4675 35.4401
#
#
#
# Elastic Compliance Matrix: (Units=1/GPa)
#
#
# Indices 1 2 3 4 5 6 
#
# 1 0.032397 -0.002516 0.009456 0.012904 -0.060147 -0.004395
# 2 -0.002516 0.008782 -0.002745 -0.005050 0.003091 0.001576
# 3 0.009456 -0.002745 0.024371 0.000768 -0.039258 -0.002081
# 4 0.012904 -0.005050 0.000768 0.041904 -0.037572 -0.016007
# 5 -0.060147 0.003091 -0.039258 -0.037572 0.173639 0.018723
# 6 -0.004395 0.001576 -0.002081 -0.016007 0.018723 0.034834
#
#
# Mechanical properties :
#
#
# Convention : Reuss Voigt Hill
#
# Bulk Modulus (GPa) = 13.52399 63.81507 38.66953
# Shear Modulus (GPa) = 15.05200 38.22586 26.63893
#
# Velocity S-wave (km/s) = 2.53121 4.03376 3.36737
# Velocity P-wave (km/s) = 3.78145 6.98989 5.61952
#
# Compressibility (1/GPa) = 0.07394266
#
# Stress axis : x y z
#
# Youngs Moduli (GPa) = 30.86661 113.87552 41.03167
#
# Poissons Ratio (x) = 0.28647 -0.38801
# Poissons Ratio (y) = 0.07765 0.11262
# Poissons Ratio (z) = -0.29189 0.31255
#
# Static dielectric constant tensor:
#      x y z
#    x 1.890600 0.024770 0.038370 
#    y 0.024770 1.872420 -0.005820 
#    z 0.038370 -0.005820 2.018490 
# 
# From -- ./inp_files/254232.got.cif
#   From: 2010.05.17/outbox.cif.g08.bks.cpg/sg2_128_cif.got.tgz:254232.got - 2010.06.03 11:33:40.
