data_PCOD9056335
_publ_section_title
;
Structure prediction by ZEFSAII (Michael W. Deem and Ramdas Pophale) SiO2 
 PCOD9056335
Probable space group: P -1
;
_chemical_formula_sum "Si O2"
_cell_formula_units_Z 12
_cell_length_a 10.523130
_cell_length_b 11.236429
_cell_length_c 10.141600
_cell_angle_alpha 83.922320
_cell_angle_beta 43.762610
_cell_angle_gamma 58.702163
_cell_volume 630.879619
_symmetry_space_group_name_H-M "P -1"
_symmetry_group_IT_number 2
_symmetry_cell_setting 'triclinic'
loop_
_space_group_symop_operation_xyz
x,y,z
-x,-y,-z
loop_
_atom_site_type_symbol
_atom_site_label
_atom_site_fract_x
_atom_site_fract_y
_atom_site_fract_z
Si Si1 0.273630 0.507008 0.656203
Si Si2 0.963577 0.407311 0.440913
Si Si3 0.666234 0.337177 0.817405
Si Si4 0.049336 0.996579 0.304856
Si Si5 0.220612 0.178007 0.062757
Si Si6 0.515975 0.236398 0.698745
O O1 0.500000 0.500000 0.500000
O O2 0.232385 0.483259 0.538968
O O3 0.321789 0.376462 0.731272
O O4 0.026707 0.683448 0.844938
O O5 0.869993 0.330732 0.595676
O O6 0.000000 0.500000 0.500000
O O7 0.198303 0.270437 0.199319
O O8 0.797377 0.183571 0.827154
O O9 0.536150 0.318356 0.799343
O O10 0.500000 0.500000 0.000000
O O11 0.193760 0.054125 0.146883
O O12 0.000000 0.000000 0.500000
O O13 0.775174 0.123075 0.447333
O O14 0.439172 0.138189 0.820182
#
# Coordination Sequence:
#
# PCOD9056335 Si02
#       6
#     2   2   2   2   2   2
#     4  10  17  36  61  87 119 155 197 240 283 353
#     4  10  20  36  56  90 121 148 194 245 290 346
#     4  11  22  37  57  86 120 157 193 245 303 344
#     4  10  19  37  56  86 119 153 198 251 282 348
#     4  10  20  33  61  90 113 152 203 237 289 345
#     4  11  19  36  62  88 113 158 198 242 287 349
#
# _framework density 19.021062000000001
#
# number of rings (size 3 to 8) (size 9 to 14) (size 15 to 20)
#    1.000    0.667    6.667    1.500    0.000    2.667 
#    3.000    0.000    0.000    5.000    0.000    0.000 
#    0.000    0.000    0.000    0.000    0.000    0.000 
#
# Total GULP energy -66817.466260 kJ/mol
# GULP energy per Si atom -5568.122188 kJ/mol
# Density = 1.897777 g / cm^3
# Si number density = 19.021062 Si / 1000 Ang^3
#
#
#
# Elastic Constant Matrix: (Units=GPa)
#
#
# Indices 1 2 3 4 5 6 
#
# 1 84.7043 40.7190 13.3399 -3.1039 -6.1629 5.6978
# 2 40.7190 151.4884 43.0815 -13.2746 -1.1697 3.0285
# 3 13.3399 43.0815 49.2271 -6.7514 -3.4676 18.2884
# 4 -3.1039 -13.2746 -6.7514 46.1726 5.5996 -9.6420
# 5 -6.1629 -1.1697 -3.4676 5.5996 13.1642 -5.2270
# 6 5.6978 3.0285 18.2884 -9.6420 -5.2270 25.2135
#
#
#
# Elastic Compliance Matrix: (Units=1/GPa)
#
#
# Indices 1 2 3 4 5 6 
#
# 1 0.014203 -0.004124 0.001008 -0.001386 0.006058 -0.002719
# 2 -0.004124 0.011096 -0.011565 0.003300 -0.001877 0.008860
# 3 0.001008 -0.011565 0.040722 -0.003496 -0.000152 -0.029744
# 4 -0.001386 0.003300 -0.003496 0.025131 -0.007820 0.010442
# 5 0.006058 -0.001877 -0.000152 -0.007820 0.087527 0.014121
# 6 -0.002719 0.008860 -0.029744 0.010442 0.014121 0.067707
#
#
# Mechanical properties :
#
#
# Convention : Reuss Voigt Hill
#
# Bulk Modulus (GPa) = 27.27910 53.30007 40.28958
# Shear Modulus (GPa) = 17.36308 29.46202 23.41255
#
# Velocity S-wave (km/s) = 3.02459 3.93990 3.51219
# Velocity P-wave (km/s) = 5.15463 6.98423 6.13798
#
# Compressibility (1/GPa) = 0.03665810
#
# Stress axis : x y z
#
# Youngs Moduli (GPa) = 70.40922 90.12131 24.55676
#
# Poissons Ratio (x) = 0.37170 -0.02475
# Poissons Ratio (y) = 0.29040 0.28399
# Poissons Ratio (z) = -0.07095 1.04221
#
# Static dielectric constant tensor:
#      x y z
#    x 1.673280 -0.045440 -0.022220 
#    y -0.045440 1.679130 0.001740 
#    z -0.022220 0.001740 1.707180 
# 
# From -- ./inp_files/414557.got.cif
#   From: 2010.05.17/outbox.cif.g08.bks.cpg/sg2_208_cif.got.tgz:414557.got - 2010.06.03 11:33:40.
