data_PCOD9056950
_publ_section_title
;
Structure prediction by ZEFSAII (Michael W. Deem and Ramdas Pophale) SiO2 
 PCOD9056950
Probable space group: P -1
;
_chemical_formula_sum "Si O2"
_cell_formula_units_Z 16
_cell_length_a 12.399191
_cell_length_b 11.680622
_cell_length_c 10.689829
_cell_angle_alpha 33.946504
_cell_angle_beta 111.704077
_cell_angle_gamma 124.516051
_cell_volume 695.248305
_symmetry_space_group_name_H-M "P -1"
_symmetry_group_IT_number 2
_symmetry_cell_setting 'triclinic'
loop_
_space_group_symop_operation_xyz
x,y,z
-x,-y,-z
loop_
_atom_site_type_symbol
_atom_site_label
_atom_site_fract_x
_atom_site_fract_y
_atom_site_fract_z
Si Si1 0.791612 0.659911 0.177906
Si Si2 0.168184 0.781366 0.907081
Si Si3 0.548146 0.856213 0.236397
Si Si4 0.126263 0.932316 0.500554
Si Si5 0.444461 0.428987 0.725948
Si Si6 0.727581 0.523106 0.861189
Si Si7 0.659643 0.198886 0.375842
Si Si8 0.948510 0.969016 0.199315
O O1 0.659439 0.686456 0.101970
O O2 0.729950 0.391880 0.343430
O O3 0.854486 0.760494 0.251681
O O4 0.913357 0.837944 0.982354
O O5 0.094039 0.776704 0.752602
O O6 0.112007 0.874177 0.909676
O O7 0.322634 0.985177 0.770551
O O8 0.194879 0.563350 0.119585
O O9 0.444646 0.661933 0.463087
O O10 0.593119 0.731755 0.266061
O O11 0.500000 0.000000 0.000000
O O12 0.247056 0.917965 0.497366
O O13 0.181028 0.203395 0.315609
O O14 0.998699 0.859556 0.426251
O O15 0.591694 0.487431 0.773690
O O16 0.685223 0.363758 0.113953
O O17 0.500000 0.000000 0.500000
#
# Coordination Sequence:
#
# PCOD9056950 Si02
#       8
#     2   2   2   2   2   2   2   2
#     4  11  25  46  71 102 147 189 235 285 352 434
#     4  11  23  44  70 107 138 184 246 291 354 421
#     4  11  22  41  66 107 140 174 234 296 359 416
#     4  11  24  46  71 101 138 190 244 292 353 414
#     4  11  23  40  71 102 137 182 228 295 366 410
#     4  11  23  42  73 103 140 178 235 310 356 411
#     4  11  26  44  71 108 140 183 242 293 361 423
#     4  11  25  48  70 100 149 195 236 286 349 432
#
# _framework density 23.013361
#
# number of rings (size 3 to 8) (size 9 to 14) (size 15 to 20)
#    0.000    1.000    5.000    1.125    3.500    2.000 
#    2.250    0.000    0.000    0.000    0.000    0.000 
#    0.000    0.000    0.000    0.000    0.000    0.000 
#
# Total GULP energy -89328.672330 kJ/mol
# GULP energy per Si atom -5583.042021 kJ/mol
# Density = 2.296098 g / cm^3
# Si number density = 23.013361 Si / 1000 Ang^3
#
#
#
# Elastic Constant Matrix: (Units=GPa)
#
#
# Indices 1 2 3 4 5 6 
#
# 1 131.7851 63.3624 61.7060 -14.6305 -1.1210 -9.8918
# 2 63.3624 144.1840 33.1228 -14.7158 11.4894 0.6237
# 3 61.7060 33.1228 93.8361 -5.7015 8.2669 2.7964
# 4 -14.6305 -14.7158 -5.7015 36.7631 6.6304 3.0617
# 5 -1.1210 11.4894 8.2669 6.6304 31.3492 -2.0327
# 6 -9.8918 0.6237 2.7964 3.0617 -2.0327 40.3316
#
#
#
# Elastic Compliance Matrix: (Units=1/GPa)
#
#
# Indices 1 2 3 4 5 6 
#
# 1 0.014044 -0.004537 -0.008048 0.001408 0.004261 0.004181
# 2 -0.004537 0.009544 0.000242 0.003003 -0.004471 -0.001730
# 3 -0.008048 0.000242 0.016452 0.000646 -0.005074 -0.003423
# 4 0.001408 0.003003 0.000646 0.030689 -0.007872 -0.002472
# 5 0.004261 -0.004471 -0.005074 -0.007872 0.036947 0.003926
# 6 0.004181 -0.001730 -0.003423 -0.002472 0.003926 0.026469
#
#
# Mechanical properties :
#
#
# Convention : Reuss Voigt Hill
#
# Bulk Modulus (GPa) = 65.12604 76.24307 70.68455
# Shear Modulus (GPa) = 30.49714 35.79639 33.14677
#
# Velocity S-wave (km/s) = 3.64427 3.94821 3.79928
# Velocity P-wave (km/s) = 6.78736 7.34754 7.07300
#
# Compressibility (1/GPa) = 0.01535484
#
# Stress axis : x y z
#
# Youngs Moduli (GPa) = 71.20332 104.77956 60.78251
#
# Poissons Ratio (x) = 0.47536 0.48920
# Poissons Ratio (y) = 0.32303 -0.01474
# Poissons Ratio (z) = 0.57307 -0.02540
#
# Static dielectric constant tensor:
#      x y z
#    x 1.886540 -0.022320 0.008500 
#    y -0.022320 1.882070 -0.008480 
#    z 0.008500 -0.008480 1.882920 
# 
# From -- ./inp_files/427284.got.cif
#   From: 2010.05.17/outbox.cif.g08.bks.cpg/sg2_214_cif.got.tgz:427284.got - 2010.06.03 11:33:40.
