data_PCOD9056278
_publ_section_title
;
Structure prediction by ZEFSAII (Michael W. Deem and Ramdas Pophale) SiO2 
 PCOD9056278
Probable space group: P -1
;
_chemical_formula_sum "Si O2"
_cell_formula_units_Z 14
_cell_length_a 14.652217
_cell_length_b 13.511784
_cell_length_c 15.331117
_cell_angle_alpha 137.179566
_cell_angle_beta 160.991326
_cell_angle_gamma 52.198860
_cell_volume 625.881510
_symmetry_space_group_name_H-M "P -1"
_symmetry_group_IT_number 2
_symmetry_cell_setting 'triclinic'
loop_
_space_group_symop_operation_xyz
x,y,z
-x,-y,-z
loop_
_atom_site_type_symbol
_atom_site_label
_atom_site_fract_x
_atom_site_fract_y
_atom_site_fract_z
Si Si1 0.735246 0.784590 0.447132
Si Si2 0.059572 0.662707 0.284668
Si Si3 0.546629 0.360720 0.227370
Si Si4 0.158163 0.372308 0.123443
Si Si5 0.225183 0.664988 0.772293
Si Si6 0.339401 0.287036 0.476510
Si Si7 0.833832 0.133590 0.806200
O O1 0.617279 0.681646 0.360846
O O2 0.065986 0.787931 0.728157
O O3 0.729117 0.952984 0.573676
O O4 0.529162 0.710889 0.131258
O O5 0.350946 0.707816 0.638219
O O6 0.993611 0.478827 0.088468
O O7 0.811912 0.701981 0.141112
O O8 0.016364 0.704444 0.172766
O O9 0.708676 0.339221 0.272872
O O10 0.623454 0.547419 0.426551
O O11 0.500000 0.500000 0.500000
O O12 0.106414 0.229129 0.048664
O O13 0.000000 0.500000 0.500000
O O14 0.566397 0.200187 0.600308
O O15 0.997515 0.174944 0.074374
#
# Coordination Sequence:
#
# PCOD9056278 Si02
#       7
#     2   2   2   2   2   2   2
#     4  12  26  44  63  96 134 177 214 255 323 383
#     4  11  22  37  60  98 123 161 207 264 323 371
#     4  12  22  39  65  92 130 161 218 266 313 363
#     4  11  22  39  64  99 131 162 211 260 334 383
#     4  12  26  44  67  91 127 178 226 265 297 372
#     4  12  22  39  65  98 132 172 204 257 333 389
#     4  12  25  41  65  97 140 168 202 266 332 399
#
# _framework density 22.368449999999999
#
# number of rings (size 3 to 8) (size 9 to 14) (size 15 to 20)
#    0.000    0.286    5.714    3.857    4.000    0.000 
#    0.000    0.000    0.000    5.143    0.000    0.000 
#    0.000    0.000    0.000    0.000    0.000    0.000 
#
# Total GULP energy -78171.432580 kJ/mol
# GULP energy per Si atom -5583.673756 kJ/mol
# Density = 2.231754 g / cm^3
# Si number density = 22.368450 Si / 1000 Ang^3
#
#
#
# Elastic Constant Matrix: (Units=GPa)
#
#
# Indices 1 2 3 4 5 6 
#
# 1 69.2342 15.9638 11.5478 -19.6416 -6.9140 -4.9517
# 2 15.9638 59.8171 15.1710 -26.3425 1.6533 -13.8233
# 3 11.5478 15.1710 68.0836 -23.8425 -12.4757 9.3578
# 4 -19.6416 -26.3425 -23.8425 31.1003 1.3052 2.1815
# 5 -6.9140 1.6533 -12.4757 1.3052 32.4394 -8.6222
# 6 -4.9517 -13.8233 9.3578 2.1815 -8.6222 33.8382
#
#
#
# Elastic Compliance Matrix: (Units=1/GPa)
#
#
# Indices 1 2 3 4 5 6 
#
# 1 0.018434 0.001189 0.001865 0.013664 0.004838 0.003019
# 2 0.001189 0.030188 0.000946 0.026253 0.000887 0.010778
# 3 0.001865 0.000946 0.023081 0.019743 0.007049 -0.005200
# 4 0.013664 0.026253 0.019743 0.077570 0.007131 0.004080
# 5 0.004838 0.000887 0.007049 0.007131 0.036342 0.007921
# 6 0.003019 0.010778 -0.005200 0.004080 0.007921 0.037591
#
#
# Mechanical properties :
#
#
# Convention : Reuss Voigt Hill
#
# Bulk Modulus (GPa) = 12.54651 31.38891 21.96771
# Shear Modulus (GPa) = 20.68055 29.77242 25.22648
#
# Velocity S-wave (km/s) = 3.04393 3.65225 3.36187
# Velocity P-wave (km/s) = 4.23971 5.64343 4.99117
#
# Compressibility (1/GPa) = 0.07970346
#
# Stress axis : x y z
#
# Youngs Moduli (GPa) = 54.24714 33.12606 43.32574
#
# Poissons Ratio (x) = -0.03938 -0.08081
# Poissons Ratio (y) = -0.06449 -0.04100
# Poissons Ratio (z) = -0.10118 -0.03135
#
# Static dielectric constant tensor:
#      x y z
#    x 1.872680 0.018960 0.005800 
#    y 0.018960 1.807420 -0.028420 
#    z 0.005800 -0.028420 1.836900 
# 
# From -- ./inp_files/533877.got.cif
#   From: 2010.05.17/outbox.cif.g08.bks.cpg/sg2_267_cif.got.tgz:533877.got - 2010.06.03 11:33:40.
