data_PCOD9056363
_publ_section_title
;
Structure prediction by ZEFSAII (Michael W. Deem and Ramdas Pophale) SiO2 
 PCOD9056363
Probable space group: P -1
;
_chemical_formula_sum "Si O2"
_cell_formula_units_Z 16
_cell_length_a 8.967575
_cell_length_b 12.429750
_cell_length_c 9.197509
_cell_angle_alpha 108.350760
_cell_angle_beta 121.754620
_cell_angle_gamma 52.979202
_cell_volume 696.005420
_symmetry_space_group_name_H-M "P -1"
_symmetry_group_IT_number 2
_symmetry_cell_setting 'triclinic'
loop_
_space_group_symop_operation_xyz
x,y,z
-x,-y,-z
loop_
_atom_site_type_symbol
_atom_site_label
_atom_site_fract_x
_atom_site_fract_y
_atom_site_fract_z
Si Si1 0.917638 0.484897 0.796276
Si Si2 0.324530 0.895823 0.709942
Si Si3 0.140256 0.603889 0.829829
Si Si4 0.551732 0.162410 0.914444
Si Si5 0.872772 0.812008 0.214207
Si Si6 0.468461 0.644654 0.532216
Si Si7 0.750788 0.870720 0.836104
Si Si8 0.463192 0.610145 0.187804
O O1 0.055763 0.506295 0.761726
O O2 0.941971 0.341533 0.731874
O O3 0.684680 0.607239 0.702913
O O4 0.000000 0.500000 0.000000
O O5 0.297805 0.781669 0.579902
O O6 0.527554 0.884169 0.731700
O O7 0.145841 0.053708 0.680970
O O8 0.374332 0.859611 0.890176
O O9 0.320730 0.536020 0.772802
O O10 0.935468 0.754412 0.782786
O O11 0.273933 0.594655 0.037211
O O12 0.324453 0.185475 0.817615
O O13 0.543316 0.287259 0.890090
O O14 0.700039 0.020582 0.847451
O O15 0.832881 0.832242 0.028497
O O16 0.500000 0.500000 0.500000
O O17 0.449713 0.671260 0.362813
#
# Coordination Sequence:
#
# PCOD9056363 Si02
#       8
#     2   2   2   2   2   2   2   2
#     4  12  20  38  70  92 116 165 213 245 297 375
#     4   9  19  38  64  90 122 157 205 252 302 361
#     4  11  22  38  63  89 125 160 211 244 310 358
#     4   9  18  37  64  91 121 157 206 249 302 358
#     4   9  17  33  63  96 116 156 208 251 293 364
#     4  12  27  42  62  92 125 157 205 262 316 356
#     4   9  17  34  65  95 113 157 213 250 285 373
#     4  11  26  39  58  93 130 158 199 266 307 356
#
# _framework density 22.988327000000002
#
# number of rings (size 3 to 8) (size 9 to 14) (size 15 to 20)
#    0.000    1.750    3.750    3.000    3.500    1.000 
#    0.000    4.375    0.000    0.000    0.000    0.000 
#    0.000    0.000    0.000    0.000    0.000    0.000 
#
# Total GULP energy -89317.638871 kJ/mol
# GULP energy per Si atom -5582.352429 kJ/mol
# Density = 2.293600 g / cm^3
# Si number density = 22.988327 Si / 1000 Ang^3
#
#
#
# Elastic Constant Matrix: (Units=GPa)
#
#
# Indices 1 2 3 4 5 6 
#
# 1 39.1837 32.2038 -4.2618 -4.7653 4.7897 2.7833
# 2 32.2038 186.8465 29.0396 28.8852 -0.2853 -11.4217
# 3 -4.2618 29.0396 48.8797 8.9374 0.7457 4.6518
# 4 -4.7653 28.8852 8.9374 36.4394 -7.1322 6.8146
# 5 4.7897 -0.2853 0.7457 -7.1322 20.1791 2.8210
# 6 2.7833 -11.4217 4.6518 6.8146 2.8210 30.2351
#
#
#
# Elastic Compliance Matrix: (Units=1/GPa)
#
#
# Indices 1 2 3 4 5 6 
#
# 1 0.037746 -0.010437 0.008306 0.012607 -0.003389 -0.011220
# 2 -0.010437 0.010050 -0.005837 -0.009736 -0.001726 0.008011
# 3 0.008306 -0.005837 0.025247 0.000416 -0.001893 -0.006771
# 4 0.012607 -0.009736 0.000416 0.042406 0.014047 -0.015771
# 5 -0.003389 -0.001726 -0.001893 0.014047 0.056558 -0.008492
# 6 -0.011220 0.008011 -0.006771 -0.015771 -0.008492 0.042522
#
#
# Mechanical properties :
#
#
# Convention : Reuss Voigt Hill
#
# Bulk Modulus (GPa) = 17.51037 43.20812 30.35924
# Shear Modulus (GPa) = 20.04005 31.89927 25.96966
#
# Velocity S-wave (km/s) = 2.95574 3.72913 3.36473
# Velocity P-wave (km/s) = 4.39115 6.11379 5.32262
#
# Compressibility (1/GPa) = 0.05710903
#
# Stress axis : x y z
#
# Youngs Moduli (GPa) = 26.49269 99.50219 39.60813
#
# Poissons Ratio (x) = 1.03847 -0.32898
# Poissons Ratio (y) = 0.27649 0.23118
# Poissons Ratio (z) = -0.22005 0.58076
#
# Static dielectric constant tensor:
#      x y z
#    x 1.889220 -0.009460 0.039640 
#    y -0.009460 1.868430 0.023090 
#    z 0.039640 0.023090 1.875360 
# 
# From -- ./inp_files/189534.got.cif
#   From: 2010.05.17/outbox.cif.g08.bks.cpg/sg2_95_cif.got.tgz:189534.got - 2010.06.03 11:33:40.
