data_PCOD9056862
_publ_section_title
;
Structure prediction by ZEFSAII (Michael W. Deem and Ramdas Pophale) SiO2 
 PCOD9056862
Probable space group: P -1
;
_chemical_formula_sum "Si O2"
_cell_formula_units_Z 16
_cell_length_a 8.344419
_cell_length_b 17.533251
_cell_length_c 20.822576
_cell_angle_alpha 19.465156
_cell_angle_beta 45.045882
_cell_angle_gamma 44.755868
_cell_volume 705.822770
_symmetry_space_group_name_H-M "P -1"
_symmetry_group_IT_number 2
_symmetry_cell_setting 'triclinic'
loop_
_space_group_symop_operation_xyz
x,y,z
-x,-y,-z
loop_
_atom_site_type_symbol
_atom_site_label
_atom_site_fract_x
_atom_site_fract_y
_atom_site_fract_z
Si Si1 0.655021 0.150468 0.376035
Si Si2 0.757419 0.365602 0.048894
Si Si3 0.903246 0.253940 0.854696
Si Si4 0.776104 0.412342 0.444966
Si Si5 0.454451 0.348952 0.404290
Si Si6 0.852567 0.010141 0.189014
Si Si7 0.032033 0.733908 0.624357
Si Si8 0.370310 0.807091 0.220095
O O1 0.760010 0.298956 0.175458
O O2 0.494059 0.290291 0.364241
O O3 0.500000 0.000000 0.500000
O O4 0.863554 0.978394 0.487997
O O5 0.821279 0.143637 0.160038
O O6 0.500000 0.500000 0.000000
O O7 0.925604 0.537334 0.846081
O O8 0.702890 0.395640 0.754350
O O9 0.097743 0.414962 0.684401
O O10 0.808104 0.199317 0.994997
O O11 0.000000 0.000000 0.000000
O O12 0.955105 0.307685 0.423006
O O13 0.552894 0.567246 0.351071
O O14 0.686812 0.218376 0.667339
O O15 0.314790 0.172860 0.617377
O O16 0.707164 0.299042 0.401149
O O17 0.111899 0.869319 0.217540
O O18 0.500000 0.000000 0.000000
#
# Coordination Sequence:
#
# PCOD9056862 Si02
#       8
#     2   2   2   2   2   2   2   2
#     4  12  23  44  79 105 141 190 236 283 362 429
#     4  12  23  41  76 107 137 187 236 290 352 428
#     4  12  27  45  71 101 140 192 243 290 355 426
#     4  11  24  44  70 101 139 185 242 289 355 421
#     4  12  28  47  68 109 150 183 237 300 353 425
#     4  12  24  44  72 100 144 187 238 289 365 419
#     4  12  26  45  73 107 146 183 234 297 356 419
#     4  11  22  40  73  99 132 182 242 294 341 417
#
# _framework density 22.668579999999999
#
# number of rings (size 3 to 8) (size 9 to 14) (size 15 to 20)
#    0.000    0.250    6.250    2.625    1.750    5.000 
#    0.000    0.000    0.000    0.000    0.000    0.000 
#    0.000    0.000    0.000    0.000    0.000    0.000 
#
# Total GULP energy -89512.130852 kJ/mol
# GULP energy per Si atom -5594.508178 kJ/mol
# Density = 2.261699 g / cm^3
# Si number density = 22.668580 Si / 1000 Ang^3
#
#
#
# Elastic Constant Matrix: (Units=GPa)
#
#
# Indices 1 2 3 4 5 6 
#
# 1 101.1647 29.5415 43.4206 -3.6090 -1.4456 -39.7504
# 2 29.5415 104.3875 32.2608 1.2313 -14.4602 -14.5827
# 3 43.4206 32.2608 162.3493 37.2135 4.4207 -22.7155
# 4 -3.6090 1.2313 37.2135 53.1360 -10.4667 6.8009
# 5 -1.4456 -14.4602 4.4207 -10.4667 31.1501 5.0114
# 6 -39.7504 -14.5827 -22.7155 6.8009 5.0114 53.4204
#
#
#
# Elastic Compliance Matrix: (Units=1/GPa)
#
#
# Indices 1 2 3 4 5 6 
#
# 1 0.015580 -0.002399 -0.002648 0.001513 -0.001070 0.009720
# 2 -0.002399 0.011904 -0.002662 0.002864 0.006863 -0.000676
# 3 -0.002648 -0.002662 0.010047 -0.008810 -0.006273 0.003285
# 4 0.001513 0.002864 -0.008810 0.028508 0.013309 -0.006716
# 5 -0.001070 0.006863 -0.006273 0.013309 0.041760 -0.007202
# 6 0.009720 -0.000676 0.003285 -0.006716 -0.007202 0.028695
#
#
# Mechanical properties :
#
#
# Convention : Reuss Voigt Hill
#
# Bulk Modulus (GPa) = 45.22207 64.26082 54.74145
# Shear Modulus (GPa) = 31.39103 45.05322 38.22212
#
# Velocity S-wave (km/s) = 3.72530 4.46295 4.11070
# Velocity P-wave (km/s) = 6.20454 7.41395 6.83605
#
# Compressibility (1/GPa) = 0.02211310
#
# Stress axis : x y z
#
# Youngs Moduli (GPa) = 64.18557 84.00750 99.53543
#
# Poissons Ratio (x) = 0.20153 0.26356
# Poissons Ratio (y) = 0.15398 0.26493
# Poissons Ratio (z) = 0.16996 0.22360
#
# Static dielectric constant tensor:
#      x y z
#    x 1.873100 0.037310 0.016210 
#    y 0.037310 1.830370 -0.016770 
#    z 0.016210 -0.016770 1.816920 
# 
# From -- ./inp_files/591165.got.cif
#   From: 2010.05.17/outbox.cif.g08.bks.cpg/sg2_296_cif.got.tgz:591165.got - 2010.06.03 11:33:40.
