data_PCOD9056264
_publ_section_title
;
Structure prediction by ZEFSAII (Michael W. Deem and Ramdas Pophale) SiO2 
 PCOD9056264
Probable space group: P -1
;
_chemical_formula_sum "Si O2"
_cell_formula_units_Z 10
_cell_length_a 21.443755
_cell_length_b 14.941564
_cell_length_c 15.694754
_cell_angle_alpha 160.042467
_cell_angle_beta 16.766687
_cell_angle_gamma 158.599499
_cell_volume 469.847026
_symmetry_space_group_name_H-M "P -1"
_symmetry_group_IT_number 2
_symmetry_cell_setting 'triclinic'
loop_
_space_group_symop_operation_xyz
x,y,z
-x,-y,-z
loop_
_atom_site_type_symbol
_atom_site_label
_atom_site_fract_x
_atom_site_fract_y
_atom_site_fract_z
Si Si1 0.340430 0.702100 0.291595
Si Si2 0.862188 0.676372 0.385077
Si Si3 0.460485 0.684641 0.793981
Si Si4 0.481705 0.702016 0.381908
Si Si5 0.167004 0.474165 0.139183
O O1 0.276156 0.706162 0.277296
O O2 0.101079 0.639695 0.596698
O O3 0.516815 0.986557 0.347362
O O4 0.440668 0.445924 0.931184
O O5 0.647155 0.672649 0.607207
O O6 0.749680 0.511342 0.469584
O O7 0.000000 0.000000 0.500000
O O8 0.000000 0.500000 0.000000
O O9 0.500000 0.500000 0.500000
O O10 0.227292 0.567080 0.046939
O O11 0.500000 0.000000 0.000000
O O12 0.692781 0.730663 0.198402
#
# Coordination Sequence:
#
# PCOD9056264 Si02
#       5
#     2   2   2   2   2
#     4   9  16  28  50  78 107 135 174 245 276 311
#     4  11  22  37  58  81 113 154 196 228 268 335
#     4  11  24  37  56  85 122 150 179 231 290 342
#     4   9  17  28  48  77 107 126 182 233 281 296
#     4   8  19  28  52  74 115 133 185 218 297 311
#
# _framework density 21.283522999999999
#
# number of rings (size 3 to 8) (size 9 to 14) (size 15 to 20)
#    1.200    1.200    0.000    3.000    5.600    0.000 
#    0.000    0.000    0.000    0.000    0.000   28.000 
#    0.000    0.000    0.000    0.000    0.000    0.000 
#
# Total GULP energy -55687.271670 kJ/mol
# GULP energy per Si atom -5568.727167 kJ/mol
# Density = 2.123508 g / cm^3
# Si number density = 21.283523 Si / 1000 Ang^3
#
#
#
# Elastic Constant Matrix: (Units=GPa)
#
#
# Indices 1 2 3 4 5 6 
#
# 1 41.1064 22.1327 14.1863 -0.7267 21.2460 -14.6147
# 2 22.1327 113.3515 70.5780 18.7355 32.0618 -1.9047
# 3 14.1863 70.5780 114.6956 9.8662 23.9171 -19.6254
# 4 -0.7267 18.7355 9.8662 52.6293 -4.0255 5.6057
# 5 21.2460 32.0618 23.9171 -4.0255 34.4068 -5.9366
# 6 -14.6147 -1.9047 -19.6254 5.6057 -5.9366 23.3998
#
#
#
# Elastic Compliance Matrix: (Units=1/GPa)
#
#
# Indices 1 2 3 4 5 6 
#
# 1 0.049737 -0.007344 0.009653 -0.003970 -0.025335 0.033086
# 2 -0.007344 0.021017 -0.012080 -0.004527 -0.009663 -0.014374
# 3 0.009653 -0.012080 0.019722 -0.001860 -0.005051 0.020751
# 4 -0.003970 -0.004527 -0.001860 0.022408 0.009305 -0.007416
# 5 -0.025335 -0.009663 -0.005051 0.009305 0.056818 -0.008660
# 6 0.033086 -0.014374 0.020751 -0.007416 -0.008660 0.079213
#
#
# Mechanical properties :
#
#
# Convention : Reuss Voigt Hill
#
# Bulk Modulus (GPa) = 14.09731 53.66082 33.87906
# Shear Modulus (GPa) = 17.11732 32.90427 25.01080
#
# Velocity S-wave (km/s) = 2.83901 3.93618 3.43173
# Velocity P-wave (km/s) = 4.16948 6.77681 5.62627
#
# Compressibility (1/GPa) = 0.07093551
#
# Stress axis : x y z
#
# Youngs Moduli (GPa) = 20.10568 47.57941 50.70474
#
# Poissons Ratio (x) = 0.34940 -0.48945
# Poissons Ratio (y) = 0.14765 0.61251
# Poissons Ratio (z) = -0.19408 0.57476
#
# Static dielectric constant tensor:
#      x y z
#    x 1.829420 -0.045290 0.008120 
#    y -0.045290 1.818100 -0.020190 
#    z 0.008120 -0.020190 1.761900 
# 
# From -- ./inp_files/30447.got.cif
#   From: 2010.05.17/outbox.cif.g08.bks.cpg/sg2_16_cif.got.tgz:30447.got - 2010.06.03 11:33:40.
