data_PCOD9056009
_publ_section_title
;
Structure prediction by ZEFSAII (Michael W. Deem and Ramdas Pophale) SiO2 
 PCOD9056009
Probable space group: P -1
;
_chemical_formula_sum "Si O2"
_cell_formula_units_Z 14
_cell_length_a 10.952925
_cell_length_b 5.108021
_cell_length_c 11.928769
_cell_angle_alpha 109.457064
_cell_angle_beta 102.420145
_cell_angle_gamma 81.205466
_cell_volume 612.150418
_symmetry_space_group_name_H-M "P -1"
_symmetry_group_IT_number 2
_symmetry_cell_setting 'triclinic'
loop_
_space_group_symop_operation_xyz
x,y,z
-x,-y,-z
loop_
_atom_site_type_symbol
_atom_site_label
_atom_site_fract_x
_atom_site_fract_y
_atom_site_fract_z
Si Si1 0.435573 0.239992 0.936797
Si Si2 0.614751 0.690549 0.548677
Si Si3 0.080368 0.551424 0.814574
Si Si4 0.736176 0.286684 0.932947
Si Si5 0.789208 0.033194 0.244391
Si Si6 0.214781 0.342531 0.214678
Si Si7 0.409389 0.108940 0.661450
O O1 0.609257 0.437894 0.986503
O O2 0.298195 0.097105 0.885185
O O3 0.443644 0.258075 0.803829
O O4 0.500000 0.000000 0.000000
O O5 0.500000 0.500000 0.500000
O O6 0.721616 0.602006 0.645984
O O7 0.541661 0.974225 0.622560
O O8 0.652148 0.730939 0.433861
O O9 0.104719 0.220784 0.753608
O O10 0.934521 0.648174 0.802787
O O11 0.151859 0.700473 0.751869
O O12 0.148008 0.649256 0.955146
O O13 0.751851 0.434253 0.838562
O O14 0.733518 0.960887 0.864285
O O15 0.695399 0.082591 0.338374
#
# Coordination Sequence:
#
# PCOD9056009 Si02
#       7
#     2   2   2   2   2   2   2
#     4   9  19  37  66  96 132 170 219 265 341 395
#     4  11  26  44  70  95 134 180 230 280 332 389
#     4  11  21  45  65 103 137 175 215 276 341 401
#     4  11  23  41  66 105 138 172 216 278 339 400
#     4   9  22  39  70  94 138 172 212 274 337 390
#     4  12  26  41  71 100 137 179 227 268 336 405
#     4   9  23  45  67  95 134 177 219 287 332 390
#
# _framework density 22.870197999999998
#
# number of rings (size 3 to 8) (size 9 to 14) (size 15 to 20)
#    0.857    0.857    0.000    4.286    8.000    0.000 
#    0.000    5.714    0.000    0.000    0.000    0.000 
#    0.000    0.000    0.000    0.000    0.000    0.000 
#
# Total GULP energy -78161.940960 kJ/mol
# GULP energy per Si atom -5582.995783 kJ/mol
# Density = 2.281814 g / cm^3
# Si number density = 22.870198 Si / 1000 Ang^3
#
#
#
# Elastic Constant Matrix: (Units=GPa)
#
#
# Indices 1 2 3 4 5 6 
#
# 1 189.4098 6.2576 50.1620 -15.9410 35.0903 30.5961
# 2 6.2576 85.1470 53.1263 -26.0456 -8.5015 -2.1441
# 3 50.1620 53.1263 175.9979 -34.1614 -1.0298 2.7888
# 4 -15.9410 -26.0456 -34.1614 37.8155 4.6582 -8.3069
# 5 35.0903 -8.5015 -1.0298 4.6582 45.0188 7.6508
# 6 30.5961 -2.1441 2.7888 -8.3069 7.6508 47.0566
#
#
#
# Elastic Compliance Matrix: (Units=1/GPa)
#
#
# Indices 1 2 3 4 5 6 
#
# 1 0.007482 0.000549 -0.001954 0.001640 -0.005336 -0.003567
# 2 0.000549 0.016813 -0.003531 0.008877 0.001416 0.001955
# 3 -0.001954 -0.003531 0.008127 0.004333 0.000367 0.001333
# 4 0.001640 0.008877 0.004333 0.039232 -0.004714 0.006773
# 5 -0.005336 0.001416 0.000367 -0.004714 0.027439 -0.001781
# 6 -0.003567 0.001955 0.001333 0.006773 -0.001781 0.025065
#
#
# Mechanical properties :
#
#
# Convention : Reuss Voigt Hill
#
# Bulk Modulus (GPa) = 44.35009 74.40518 59.37764
# Shear Modulus (GPa) = 35.32358 48.71210 42.01784
#
# Velocity S-wave (km/s) = 3.93431 4.62013 4.29094
# Velocity P-wave (km/s) = 6.33029 7.81442 7.11118
#
# Compressibility (1/GPa) = 0.02254787
#
# Stress axis : x y z
#
# Youngs Moduli (GPa) = 133.65707 59.47691 123.04685
#
# Poissons Ratio (x) = -0.03263 0.24048
# Poissons Ratio (y) = -0.07333 0.43452
# Poissons Ratio (z) = 0.26122 0.21003
#
# Static dielectric constant tensor:
#      x y z
#    x 2.003130 0.055180 0.021100 
#    y 0.055180 2.032250 0.073390 
#    z 0.021100 0.073390 1.852570 
# 
# From -- ./inp_files/408523.got.cif
#   From: 2010.05.17/outbox.cif.g08.bks.cpg/sg2_205_cif.got.tgz:408523.got - 2010.06.03 11:33:40.
