data_PCOD9056749
_publ_section_title
;
Structure prediction by ZEFSAII (Michael W. Deem and Ramdas Pophale) SiO2 
 PCOD9056749
Probable space group: P -1
;
_chemical_formula_sum "Si O2"
_cell_formula_units_Z 16
_cell_length_a 9.366789
_cell_length_b 11.878740
_cell_length_c 14.986886
_cell_angle_alpha 29.120333
_cell_angle_beta 98.079262
_cell_angle_gamma 107.754336
_cell_volume 743.806838
_symmetry_space_group_name_H-M "P -1"
_symmetry_group_IT_number 2
_symmetry_cell_setting 'triclinic'
loop_
_space_group_symop_operation_xyz
x,y,z
-x,-y,-z
loop_
_atom_site_type_symbol
_atom_site_label
_atom_site_fract_x
_atom_site_fract_y
_atom_site_fract_z
Si Si1 0.789514 0.627013 0.087677
Si Si2 0.341108 0.385839 0.621766
Si Si3 0.981985 0.330826 0.343364
Si Si4 0.578072 0.226176 0.479333
Si Si5 0.824381 0.002511 0.980384
Si Si6 0.346321 0.267227 0.168694
Si Si7 0.076483 0.448984 0.452197
Si Si8 0.244591 0.163589 0.427676
O O1 0.949011 0.578758 0.147131
O O2 0.662910 0.371434 0.295886
O O3 0.763918 0.835413 0.002645
O O4 0.773949 0.705299 0.932417
O O5 0.500000 0.500000 0.500000
O O6 0.354018 0.593678 0.554816
O O7 0.285304 0.134949 0.851254
O O8 0.200980 0.340941 0.571415
O O9 0.955065 0.292156 0.474790
O O10 0.149387 0.313037 0.360756
O O11 0.871695 0.116708 0.415703
O O12 0.394876 0.168877 0.491041
O O13 0.612125 0.977585 0.664799
O O14 0.836622 0.280829 0.772296
O O15 0.000000 0.000000 0.000000
O O16 0.297218 0.286473 0.251306
O O17 0.500000 0.500000 0.000000
O O18 0.000000 0.500000 0.500000
#
# Coordination Sequence:
#
# PCOD9056749 Si02
#       8
#     2   2   2   2   2   2   2   2
#     4  11  22  40  68  94 127 167 223 272 318 392
#     4  11  25  43  68 100 133 176 218 279 341 391
#     4  11  24  42  64  97 136 172 208 276 334 385
#     4  11  22  46  65  92 135 170 221 274 321 391
#     4  11  22  41  66 100 127 169 224 271 326 397
#     4  12  23  38  67  94 117 172 225 257 317 395
#     4  12  23  43  71  98 132 177 225 269 333 404
#     4  11  24  42  65  93 135 174 211 269 337 382
#
# _framework density 21.510963
#
# number of rings (size 3 to 8) (size 9 to 14) (size 15 to 20)
#    0.000    0.750    5.000    3.375    1.750    1.000 
#    2.250    0.000    0.000    0.000    0.000    0.000 
#    0.000    0.000    0.000    0.000    0.000    0.000 
#
# Total GULP energy -89347.228419 kJ/mol
# GULP energy per Si atom -5584.201776 kJ/mol
# Density = 2.146200 g / cm^3
# Si number density = 21.510963 Si / 1000 Ang^3
#
#
#
# Elastic Constant Matrix: (Units=GPa)
#
#
# Indices 1 2 3 4 5 6 
#
# 1 93.0413 20.9436 15.5160 9.5072 11.5843 -4.1415
# 2 20.9436 70.5248 31.0236 11.6435 21.7264 2.7251
# 3 15.5160 31.0236 111.0995 2.8835 -0.9809 -7.5044
# 4 9.5072 11.6435 2.8835 34.3286 2.4114 2.3605
# 5 11.5843 21.7264 -0.9809 2.4114 32.3138 10.7546
# 6 -4.1415 2.7251 -7.5044 2.3605 10.7546 39.8675
#
#
#
# Elastic Compliance Matrix: (Units=1/GPa)
#
#
# Indices 1 2 3 4 5 6 
#
# 1 0.012144 -0.001597 -0.001056 -0.002622 -0.003909 0.002382
# 2 -0.001597 0.022852 -0.006035 -0.005850 -0.015052 0.001543
# 3 -0.001056 -0.006035 0.010921 0.001041 0.004313 0.001134
# 4 -0.002622 -0.005850 0.001041 0.031686 0.003359 -0.002459
# 5 -0.003909 -0.015052 0.004313 0.003359 0.046074 -0.011193
# 6 0.002382 0.001543 0.001134 -0.002459 -0.011193 0.028603
#
#
# Mechanical properties :
#
#
# Convention : Reuss Voigt Hill
#
# Bulk Modulus (GPa) = 35.03627 45.51467 40.27547
# Shear Modulus (GPa) = 27.90653 35.11415 31.51034
#
# Velocity S-wave (km/s) = 3.60574 4.04466 3.83149
# Velocity P-wave (km/s) = 5.80156 6.55874 6.19174
#
# Compressibility (1/GPa) = 0.02854185
#
# Stress axis : x y z
#
# Youngs Moduli (GPa) = 82.34469 43.76038 91.56484
#
# Poissons Ratio (x) = 0.06988 0.09666
# Poissons Ratio (y) = 0.13150 0.55259
# Poissons Ratio (z) = 0.08693 0.26409
#
# Static dielectric constant tensor:
#      x y z
#    x 1.832830 0.034690 -0.022360 
#    y 0.034690 1.849030 -0.020280 
#    z -0.022360 -0.020280 1.755750 
# 
# From -- ./inp_files/499730.got.cif
#   From: 2010.05.17/outbox.cif.g08.bks.cpg/sg2_250_cif.got.tgz:499730.got - 2010.06.03 11:33:40.
