data_PCOD9056040
_publ_section_title
;
Structure prediction by ZEFSAII (Michael W. Deem and Ramdas Pophale) SiO2 
 PCOD9056040
Probable space group: P -1
;
_chemical_formula_sum "Si O2"
_cell_formula_units_Z 16
_cell_length_a 8.962202
_cell_length_b 5.407642
_cell_length_c 19.055845
_cell_angle_alpha 127.522345
_cell_angle_beta 98.217060
_cell_angle_gamma 86.492032
_cell_volume 724.552770
_symmetry_space_group_name_H-M "P -1"
_symmetry_group_IT_number 2
_symmetry_cell_setting 'triclinic'
loop_
_space_group_symop_operation_xyz
x,y,z
-x,-y,-z
loop_
_atom_site_type_symbol
_atom_site_label
_atom_site_fract_x
_atom_site_fract_y
_atom_site_fract_z
Si Si1 0.362398 0.248823 0.433328
Si Si2 0.821560 0.920446 0.483580
Si Si3 0.064378 0.412861 0.196336
Si Si4 0.887594 0.318263 0.908190
Si Si5 0.719687 0.393518 0.154661
Si Si6 0.335909 0.352531 0.960612
Si Si7 0.575968 0.669940 0.322914
Si Si8 0.303382 0.501143 0.344958
O O1 0.500000 0.500000 0.500000
O O2 0.272838 0.224788 0.349881
O O3 0.234762 0.292921 0.491425
O O4 0.459502 0.937877 0.381415
O O5 0.728971 0.223436 0.553092
O O6 0.735583 0.766212 0.385043
O O7 0.000000 0.000000 0.500000
O O8 0.085626 0.583185 0.152876
O O9 0.180878 0.541253 0.284165
O O10 0.887828 0.435098 0.205000
O O11 0.099195 0.044382 0.135419
O O12 0.735610 0.465930 0.948239
O O13 0.000000 0.500000 0.000000
O O14 0.724249 0.539829 0.101797
O O15 0.605086 0.570559 0.228494
O O16 0.681084 0.020074 0.091507
O O17 0.500000 0.500000 0.000000
O O18 0.470501 0.415502 0.313115
#
# Coordination Sequence:
#
# PCOD9056040 Si02
#       8
#     2   2   2   2   2   2   2   2
#     4  11  21  45  70  96 135 194 240 284 350 422
#     4  11  23  44  68 101 140 183 232 290 354 418
#     4  12  26  44  73 107 137 185 233 296 353 421
#     4  12  24  49  75  96 141 184 232 286 363 424
#     4  12  26  47  67 107 145 176 238 297 349 420
#     4  12  28  46  73 103 138 185 234 290 357 429
#     4  11  25  42  69  98 144 184 231 294 349 418
#     4  11  25  43  69 101 137 182 237 282 351 422
#
# _framework density 22.082587
#
# number of rings (size 3 to 8) (size 9 to 14) (size 15 to 20)
#    0.000    0.500    5.000    3.000    8.750    0.500 
#    2.250    0.000    0.000    0.000    0.000    0.000 
#    0.000    0.000    0.000    0.000    0.000    0.000 
#
# Total GULP energy -89076.790300 kJ/mol
# GULP energy per Si atom -5567.299394 kJ/mol
# Density = 2.203233 g / cm^3
# Si number density = 22.082587 Si / 1000 Ang^3
#
#
#
# Elastic Constant Matrix: (Units=GPa)
#
#
# Indices 1 2 3 4 5 6 
#
# 1 132.6924 -2.6963 25.6829 -9.3556 -3.7546 15.6724
# 2 -2.6963 60.6743 19.5197 -12.2956 1.6119 8.7498
# 3 25.6829 19.5197 70.8733 -14.4552 -4.5746 -0.1684
# 4 -9.3556 -12.2956 -14.4552 32.5254 -9.3008 2.4230
# 5 -3.7546 1.6119 -4.5746 -9.3008 49.2255 -5.1458
# 6 15.6724 8.7498 -0.1684 2.4230 -5.1458 24.1014
#
#
#
# Elastic Compliance Matrix: (Units=1/GPa)
#
#
# Indices 1 2 3 4 5 6 
#
# 1 0.009439 0.003316 -0.003767 0.002865 0.000002 -0.007656
# 2 0.003316 0.021512 -0.005751 0.007119 -0.000779 -0.010888
# 3 -0.003767 -0.005751 0.018385 0.005455 0.003141 0.004788
# 4 0.002865 0.007119 0.005455 0.039250 0.007196 -0.006819
# 5 0.000002 -0.000779 0.003141 0.007196 0.022449 0.004373
# 6 -0.007656 -0.010888 0.004788 -0.006819 0.004373 0.052075
#
#
# Mechanical properties :
#
#
# Convention : Reuss Voigt Hill
#
# Bulk Modulus (GPa) = 27.07632 38.80585 32.94108
# Shear Modulus (GPa) = 26.62028 35.95270 31.28649
#
# Velocity S-wave (km/s) = 3.47578 4.03935 3.76812
# Velocity P-wave (km/s) = 5.32880 6.27426 5.82076
#
# Compressibility (1/GPa) = 0.03693265
#
# Stress axis : x y z
#
# Youngs Moduli (GPa) = 105.94203 46.48475 54.39081
#
# Poissons Ratio (x) = -0.15415 0.20492
# Poissons Ratio (y) = -0.35132 0.31279
# Poissons Ratio (z) = 0.39913 0.26733
#
# Static dielectric constant tensor:
#      x y z
#    x 1.251690 -0.763270 -0.245010 
#    y -0.763270 1.436530 -0.199710 
#    z -0.245010 -0.199710 1.761630 
# 
# From -- ./inp_files/553847.got.cif
#   From: 2010.05.17/outbox.cif.g08.bks.cpg/sg2_277_cif.got.tgz:553847.got - 2010.06.03 11:33:40.
