data_PCOD9056856
_publ_section_title
;
Structure prediction by ZEFSAII (Michael W. Deem and Ramdas Pophale) SiO2 
 PCOD9056856
Probable space group: P -1
;
_chemical_formula_sum "Si O2"
_cell_formula_units_Z 16
_cell_length_a 9.144917
_cell_length_b 18.197742
_cell_length_c 21.531719
_cell_angle_alpha 17.963784
_cell_angle_beta 138.106469
_cell_angle_gamma 140.619320
_cell_volume 700.408612
_symmetry_space_group_name_H-M "P -1"
_symmetry_group_IT_number 2
_symmetry_cell_setting 'triclinic'
loop_
_space_group_symop_operation_xyz
x,y,z
-x,-y,-z
loop_
_atom_site_type_symbol
_atom_site_label
_atom_site_fract_x
_atom_site_fract_y
_atom_site_fract_z
Si Si1 0.865162 0.585922 0.464373
Si Si2 0.696456 0.634901 0.045589
Si Si3 0.144619 0.219526 0.823193
Si Si4 0.010445 0.332570 0.423450
Si Si5 0.588836 0.879742 0.695747
Si Si6 0.386219 0.194208 0.584462
Si Si7 0.737988 0.864597 0.545086
Si Si8 0.428574 0.696635 0.031335
O O1 0.894083 0.795315 0.251439
O O2 0.628507 0.366238 0.549972
O O3 0.071010 0.463910 0.620989
O O4 0.865364 0.654433 0.481186
O O5 0.921664 0.567536 0.192146
O O6 0.515644 0.372740 0.173859
O O7 0.592963 0.728361 0.997660
O O8 0.713985 0.816308 0.847291
O O9 0.408086 0.259780 0.891817
O O10 0.000000 0.000000 0.000000
O O11 0.184499 0.307404 0.446294
O O12 0.780897 0.094450 0.547825
O O13 0.384691 0.983517 0.572081
O O14 0.403492 0.174056 0.532667
O O15 0.315136 0.914723 0.815302
O O16 0.723937 0.591983 0.785808
O O17 0.000000 0.000000 0.500000
#
# Coordination Sequence:
#
# PCOD9056856 Si02
#       8
#     2   2   2   2   2   2   2   2
#     4  11  24  42  69 101 137 181 234 281 349 415
#     4  11  24  43  73  99 135 179 231 280 342 410
#     4  11  22  40  73 102 134 180 231 287 340 408
#     4  12  26  44  71  99 141 184 227 286 351 402
#     4  11  25  46  70 103 134 182 238 280 335 428
#     4  12  27  45  66 104 144 177 231 291 345 409
#     4  12  26  45  72 101 140 183 230 288 345 407
#     4  12  24  44  72 103 136 184 230 283 346 411
#
# _framework density 22.843807999999999
#
# number of rings (size 3 to 8) (size 9 to 14) (size 15 to 20)
#    0.000    0.500    6.250    1.500    5.250    3.500 
#    0.000    0.625    0.000    0.000    0.000    0.000 
#    0.000    0.000    0.000    0.000    0.000    0.000 
#
# Total GULP energy -89562.471391 kJ/mol
# GULP energy per Si atom -5597.654462 kJ/mol
# Density = 2.279181 g / cm^3
# Si number density = 22.843808 Si / 1000 Ang^3
#
#
#
# Elastic Constant Matrix: (Units=GPa)
#
#
# Indices 1 2 3 4 5 6 
#
# 1 61.5535 23.1759 11.8621 7.3780 -0.1735 -3.8026
# 2 23.1759 74.8751 8.9513 9.2321 -4.9410 -16.6953
# 3 11.8621 8.9513 115.5049 10.9603 -27.3607 1.5994
# 4 7.3780 9.2321 10.9603 28.7295 -5.3422 -12.5885
# 5 -0.1735 -4.9410 -27.3607 -5.3422 36.9400 6.0767
# 6 -3.8026 -16.6953 1.5994 -12.5885 6.0767 44.4728
#
#
#
# Elastic Compliance Matrix: (Units=1/GPa)
#
#
# Indices 1 2 3 4 5 6 
#
# 1 0.019033 -0.005665 -0.001720 -0.003295 -0.002244 -0.001063
# 2 -0.005665 0.016547 -0.000471 -0.001217 0.000791 0.005292
# 3 -0.001720 -0.000471 0.011165 -0.003372 0.008171 -0.002796
# 4 -0.003295 -0.001217 -0.003372 0.042543 0.001634 0.011202
# 5 -0.002244 0.000791 0.008171 0.001634 0.034178 -0.004396
# 6 -0.001063 0.005292 -0.002796 0.011202 -0.004396 0.028253
#
#
# Mechanical properties :
#
#
# Convention : Reuss Voigt Hill
#
# Bulk Modulus (GPa) = 32.22177 37.76801 34.99489
# Shear Modulus (GPa) = 28.12529 35.89140 32.00834
#
# Velocity S-wave (km/s) = 3.51265 3.96809 3.74730
# Velocity P-wave (km/s) = 5.53060 6.12890 5.83742
#
# Compressibility (1/GPa) = 0.03103492
#
# Stress axis : x y z
#
# Youngs Moduli (GPa) = 52.53985 60.43214 89.56546
#
# Poissons Ratio (x) = 0.34232 0.15404
# Poissons Ratio (y) = 0.29762 0.04218
# Poissons Ratio (z) = 0.09036 0.02846
#
# Static dielectric constant tensor:
#      x y z
#    x 1.797400 -0.010730 -0.049860 
#    y -0.010730 1.901650 -0.000770 
#    z -0.049860 -0.000770 1.869190 
# 
# From -- ./inp_files/348817.got.cif
#   From: 2010.05.17/outbox.cif.g08.bks.cpg/sg2_175_cif.got.tgz:348817.got - 2010.06.03 11:33:40.
