data_PCOD9056437
_publ_section_title
;
Structure prediction by ZEFSAII (Michael W. Deem and Ramdas Pophale) SiO2 
 PCOD9056437
Probable space group: P -1
;
_chemical_formula_sum "Si O2"
_cell_formula_units_Z 16
_cell_length_a 12.198563
_cell_length_b 8.724919
_cell_length_c 14.416725
_cell_angle_alpha 112.152540
_cell_angle_beta 114.257949
_cell_angle_gamma 123.638386
_cell_volume 704.028971
_symmetry_space_group_name_H-M "P -1"
_symmetry_group_IT_number 2
_symmetry_cell_setting 'triclinic'
loop_
_space_group_symop_operation_xyz
x,y,z
-x,-y,-z
loop_
_atom_site_type_symbol
_atom_site_label
_atom_site_fract_x
_atom_site_fract_y
_atom_site_fract_z
Si Si1 0.911737 0.194116 0.966915
Si Si2 0.166836 0.534675 0.951556
Si Si3 0.666948 0.344110 0.642640
Si Si4 0.030282 0.804459 0.728069
Si Si5 0.122255 0.269057 0.535653
Si Si6 0.603685 0.529618 0.953768
Si Si7 0.241555 0.692701 0.814231
Si Si8 0.518815 0.502229 0.712110
O O1 0.978424 0.270033 0.899573
O O2 0.754905 0.863147 0.863300
O O3 0.784226 0.217916 0.950484
O O4 0.137841 0.454657 0.166003
O O5 0.113131 0.474856 0.810555
O O6 0.358751 0.621288 0.051977
O O7 0.529590 0.346110 0.624238
O O8 0.794552 0.514474 0.629184
O O9 0.500000 0.000000 0.500000
O O10 0.157271 0.779263 0.783861
O O11 0.020772 0.832157 0.622730
O O12 0.159228 0.105495 0.888631
O O13 0.203306 0.519978 0.679538
O O14 0.328062 0.407146 0.595808
O O15 0.000000 0.000000 0.500000
O O16 0.484666 0.424808 0.791674
O O17 0.500000 0.500000 0.000000
O O18 0.500000 0.000000 0.000000
#
# Coordination Sequence:
#
# PCOD9056437 Si02
#       8
#     2   2   2   2   2   2   2   2
#     4  11  23  46  73 107 142 190 251 311 357 439
#     4  11  22  38  75 105 140 181 250 301 354 421
#     4  12  27  45  75 108 151 193 241 313 374 431
#     4  12  26  48  72 106 156 191 243 306 374 433
#     4  12  29  48  72 108 150 194 241 304 378 438
#     4  12  23  42  74 110 142 192 247 303 360 440
#     4  12  25  47  75 106 145 197 248 297 356 446
#     4  12  25  49  75 103 146 195 253 300 368 444
#
# _framework density 22.726337000000001
#
# number of rings (size 3 to 8) (size 9 to 14) (size 15 to 20)
#    0.000    0.250    3.750    6.000    1.750    4.500 
#    2.250    0.000    0.000    0.000    0.000    0.000 
#    0.000    0.000    0.000    0.000    0.000    0.000 
#
# Total GULP energy -89631.404473 kJ/mol
# GULP energy per Si atom -5601.962780 kJ/mol
# Density = 2.267461 g / cm^3
# Si number density = 22.726337 Si / 1000 Ang^3
#
#
#
# Elastic Constant Matrix: (Units=GPa)
#
#
# Indices 1 2 3 4 5 6 
#
# 1 137.3765 25.2271 20.4163 -11.6571 -19.3511 -4.6461
# 2 25.2271 119.2591 29.6624 -21.0455 -1.3115 9.5232
# 3 20.4163 29.6624 72.6575 1.0472 -3.0854 -3.4060
# 4 -11.6571 -21.0455 1.0472 39.2964 -9.0051 8.4947
# 5 -19.3511 -1.3115 -3.0854 -9.0051 26.3545 2.9274
# 6 -4.6461 9.5232 -3.4060 8.4947 2.9274 42.2464
#
#
#
# Elastic Compliance Matrix: (Units=1/GPa)
#
#
# Indices 1 2 3 4 5 6 
#
# 1 0.009182 -0.000497 -0.002124 0.004469 0.008052 -0.000506
# 2 -0.000497 0.011465 -0.004757 0.007808 0.002849 -0.004790
# 3 -0.002124 -0.004757 0.016444 -0.004742 -0.001852 0.003246
# 4 0.004469 0.007808 -0.004742 0.037198 0.016970 -0.010306
# 5 0.008052 0.002849 -0.001852 0.016970 0.050336 -0.006806
# 6 -0.000506 -0.004790 0.003246 -0.010306 -0.006806 0.027501
#
#
# Mechanical properties :
#
#
# Convention : Reuss Voigt Hill
#
# Bulk Modulus (GPa) = 44.76949 53.32276 49.04613
# Shear Modulus (GPa) = 28.68173 38.51193 33.59683
#
# Velocity S-wave (km/s) = 3.55639 4.12101 3.84907
# Velocity P-wave (km/s) = 6.05029 6.79394 6.43287
#
# Compressibility (1/GPa) = 0.02233664
#
# Stress axis : x y z
#
# Youngs Moduli (GPa) = 108.90339 87.22155 60.81262
#
# Poissons Ratio (x) = 0.04331 0.12915
# Poissons Ratio (y) = 0.05407 0.28930
# Poissons Ratio (z) = 0.23128 0.41493
#
# Static dielectric constant tensor:
#      x y z
#    x 1.827870 0.029240 0.025940 
#    y 0.029240 1.844610 0.000540 
#    z 0.025940 0.000540 1.828190 
# 
# From -- ./inp_files/516110.got.cif
#   From: 2010.05.17/outbox.cif.g08.bks.cpg/sg2_259_cif.got.tgz:516110.got - 2010.06.03 11:33:40.
