data_PCOD9056260
_publ_section_title
;
Structure prediction by ZEFSAII (Michael W. Deem and Ramdas Pophale) SiO2 
 PCOD9056260
Probable space group: P -1
;
_chemical_formula_sum "Si O2"
_cell_formula_units_Z 14
_cell_length_a 11.856207
_cell_length_b 18.295527
_cell_length_c 18.481490
_cell_angle_alpha 156.069888
_cell_angle_beta 144.201563
_cell_angle_gamma 23.572021
_cell_volume 641.418335
_symmetry_space_group_name_H-M "P -1"
_symmetry_group_IT_number 2
_symmetry_cell_setting 'triclinic'
loop_
_space_group_symop_operation_xyz
x,y,z
-x,-y,-z
loop_
_atom_site_type_symbol
_atom_site_label
_atom_site_fract_x
_atom_site_fract_y
_atom_site_fract_z
Si Si1 0.751461 0.489446 0.830549
Si Si2 0.723533 0.466547 0.406764
Si Si3 0.674344 0.921149 0.591813
Si Si4 0.127232 0.257999 0.953339
Si Si5 0.387723 0.476171 0.991191
Si Si6 0.223916 0.548713 0.740303
Si Si7 0.634682 0.915748 0.824425
O O1 0.550982 0.472352 0.679451
O O2 0.896379 0.508854 0.859927
O O3 0.977152 0.285413 0.825799
O O4 0.540559 0.788672 0.025532
O O5 0.861379 0.344435 0.288552
O O6 0.627958 0.738746 0.614116
O O7 0.994091 0.250275 0.404577
O O8 0.687886 0.720538 0.457270
O O9 0.500000 0.000000 0.500000
O O10 0.517171 0.187876 0.793367
O O11 0.948975 0.309091 0.973871
O O12 0.464649 0.986998 0.874605
O O13 0.500000 0.500000 0.000000
O O14 0.522895 0.497866 0.145889
O O15 0.964760 0.743506 0.838522
#
# Coordination Sequence:
#
# PCOD9056260 Si02
#       7
#     2   2   2   2   2   2   2
#     4   9  19  37  57  95 128 161 206 257 327 364
#     4  11  22  36  70  97 127 168 209 266 321 374
#     4  11  24  41  62  93 129 162 217 262 312 380
#     4   9  21  39  59  93 132 163 210 261 322 373
#     4  12  24  43  66  87 127 175 213 263 313 382
#     4  11  23  39  66 100 122 170 216 261 320 370
#     4   9  20  37  57  94 130 156 205 267 311 375
#
# _framework density 21.826630000000002
#
# number of rings (size 3 to 8) (size 9 to 14) (size 15 to 20)
#    0.857    0.857    2.857    2.571    4.000    1.714 
#    2.571    0.714    0.000    2.571    0.000    0.000 
#    0.000    0.000    0.000    0.000    0.000    0.000 
#
# Total GULP energy -78010.961191 kJ/mol
# GULP energy per Si atom -5572.211514 kJ/mol
# Density = 2.177695 g / cm^3
# Si number density = 21.826630 Si / 1000 Ang^3
#
#
#
# Elastic Constant Matrix: (Units=GPa)
#
#
# Indices 1 2 3 4 5 6 
#
# 1 102.9346 26.4308 -4.8658 1.9515 -2.2874 -29.3794
# 2 26.4308 71.6646 9.0358 -16.1928 12.1698 -17.0431
# 3 -4.8658 9.0358 58.7120 -6.1108 9.1248 -9.3865
# 4 1.9515 -16.1928 -6.1108 39.6883 -14.3216 -2.6214
# 5 -2.2874 12.1698 9.1248 -14.3216 16.0319 -4.3190
# 6 -29.3794 -17.0431 -9.3865 -2.6214 -4.3190 33.7825
#
#
#
# Elastic Compliance Matrix: (Units=1/GPa)
#
#
# Indices 1 2 3 4 5 6 
#
# 1 0.014622 -0.003648 0.002705 0.002237 0.008796 0.012925
# 2 -0.003648 0.019402 -0.000460 0.005254 -0.008737 0.005779
# 3 0.002705 -0.000460 0.019723 -0.000017 -0.008760 0.006480
# 4 0.002237 0.005254 -0.000017 0.041233 0.036532 0.012461
# 5 0.008796 -0.008737 -0.008760 0.036532 0.112748 0.018057
# 6 0.012925 0.005779 0.006480 0.012461 0.018057 0.048833
#
#
# Mechanical properties :
#
#
# Convention : Reuss Voigt Hill
#
# Bulk Modulus (GPa) = 19.63020 32.72363 26.17692
# Shear Modulus (GPa) = 18.09319 31.41457 24.75388
#
# Velocity S-wave (km/s) = 2.88227 3.79790 3.37131
# Velocity P-wave (km/s) = 4.48217 5.85296 5.21282
#
# Compressibility (1/GPa) = 0.05094190
#
# Stress axis : x y z
#
# Youngs Moduli (GPa) = 68.39132 51.54014 50.70246
#
# Poissons Ratio (x) = 0.18803 -0.13717
# Poissons Ratio (y) = 0.24950 0.02331
# Poissons Ratio (z) = -0.18503 0.02370
#
# Static dielectric constant tensor:
#      x y z
#    x 1.872290 -0.010120 -0.008870 
#    y -0.010120 1.831090 0.002340 
#    z -0.008870 0.002340 1.771940 
# 
# From -- ./inp_files/612337.got.cif
#   From: 2010.05.17/outbox.cif.g08.bks.cpg/sg2_307_cif.got.tgz:612337.got - 2010.06.03 11:33:40.
