data_PCOD9056263
_publ_section_title
;
Structure prediction by ZEFSAII (Michael W. Deem and Ramdas Pophale) SiO2 
 PCOD9056263
Probable space group: P -1
;
_chemical_formula_sum "Si O2"
_cell_formula_units_Z 14
_cell_length_a 7.028615
_cell_length_b 13.810555
_cell_length_c 14.058568
_cell_angle_alpha 41.641157
_cell_angle_beta 135.806610
_cell_angle_gamma 138.369127
_cell_volume 562.261222
_symmetry_space_group_name_H-M "P -1"
_symmetry_group_IT_number 2
_symmetry_cell_setting 'triclinic'
loop_
_space_group_symop_operation_xyz
x,y,z
-x,-y,-z
loop_
_atom_site_type_symbol
_atom_site_label
_atom_site_fract_x
_atom_site_fract_y
_atom_site_fract_z
Si Si1 0.232979 0.897449 0.760572
Si Si2 0.064998 0.310646 0.015596
Si Si3 0.451540 0.558257 0.575905
Si Si4 0.435203 0.802890 0.238317
Si Si5 0.805774 0.284972 0.487903
Si Si6 0.100926 0.014248 0.290136
Si Si7 0.126511 0.632600 0.768027
O O1 0.217046 0.801032 0.731834
O O2 0.154386 0.766569 0.914645
O O3 0.972763 0.959223 0.645021
O O4 0.542333 0.061039 0.775856
O O5 0.233214 0.194281 0.160788
O O6 0.235036 0.505242 0.943499
O O7 0.865887 0.268003 0.879775
O O8 0.479012 0.663248 0.413382
O O9 0.418241 0.667280 0.568277
O O10 0.753410 0.539085 0.714223
O O11 0.137779 0.391773 0.577502
O O12 0.741569 0.907591 0.208585
O O13 0.823178 0.344848 0.342661
O O14 0.740381 0.097798 0.592008
#
# Coordination Sequence:
#
# PCOD9056263 Si02
#       7
#     2   2   2   2   2   2   2
#     4   8  20  32  59  90 113 145 198 221 291 343
#     4   9  18  33  64  83 110 156 192 225 286 335
#     4  11  23  34  59  91 110 151 197 231 291 332
#     4   9  16  36  56  84 114 145 191 232 274 340
#     4  11  22  37  57  87 118 144 199 239 272 346
#     4   8  18  34  55  82 116 143 185 233 274 337
#     4  12  19  38  64  83 117 154 179 244 285 335
#
# _framework density 24.899460000000001
#
# number of rings (size 3 to 8) (size 9 to 14) (size 15 to 20)
#    1.714    0.286    2.857    3.429    0.000    2.286 
#    0.000    3.571    6.286    1.714    0.000    0.000 
#    0.000    0.000    0.000    0.000    0.000    0.000 
#
# Total GULP energy -78177.160395 kJ/mol
# GULP energy per Si atom -5584.082885 kJ/mol
# Density = 2.484279 g / cm^3
# Si number density = 24.899460 Si / 1000 Ang^3
#
#
#
# Elastic Constant Matrix: (Units=GPa)
#
#
# Indices 1 2 3 4 5 6 
#
# 1 102.7760 27.0944 38.4175 -6.1223 13.9560 -34.7364
# 2 27.0944 135.4025 24.2541 -18.3278 8.5187 -23.2949
# 3 38.4175 24.2541 49.2595 -37.1752 10.3561 -10.0052
# 4 -6.1223 -18.3278 -37.1752 56.0849 -1.0744 3.3818
# 5 13.9560 8.5187 10.3561 -1.0744 28.5184 -2.1232
# 6 -34.7364 -23.2949 -10.0052 3.3818 -2.1232 40.5505
#
#
#
# Elastic Compliance Matrix: (Units=1/GPa)
#
#
# Indices 1 2 3 4 5 6 
#
# 1 0.025379 0.000750 -0.030252 -0.018032 -0.001135 0.016151
# 2 0.000750 0.008799 -0.003313 0.000446 -0.001420 0.004768
# 3 -0.030252 -0.003313 0.086448 0.053344 -0.014460 -0.011694
# 4 -0.018032 0.000446 0.053344 0.051600 -0.009244 -0.006816
# 5 -0.001135 -0.001420 -0.014460 -0.009244 0.040765 -0.002450
# 6 0.016151 0.004768 -0.011694 -0.006816 -0.002450 0.038790
#
#
# Mechanical properties :
#
#
# Convention : Reuss Voigt Hill
#
# Bulk Modulus (GPa) = 18.18334 51.88556 35.03445
# Shear Modulus (GPa) = 14.89234 38.20890 26.55062
#
# Velocity S-wave (km/s) = 2.44826 3.92155 3.26899
# Velocity P-wave (km/s) = 3.91287 6.43335 5.32440
#
# Compressibility (1/GPa) = 0.05499538
#
# Stress axis : x y z
#
# Youngs Moduli (GPa) = 39.40249 113.65067 11.56766
#
# Poissons Ratio (x) = -0.08521 0.34994
# Poissons Ratio (y) = -0.02954 0.03833
# Poissons Ratio (z) = 1.19200 0.37655
#
# Static dielectric constant tensor:
#      x y z
#    x 1.999140 0.042650 0.020250 
#    y 0.042650 2.042540 -0.014330 
#    z 0.020250 -0.014330 1.920640 
# 
# From -- ./inp_files/505317.got.cif
#   From: 2010.05.17/outbox.cif.g08.bks.cpg/sg2_253_cif.got.tgz:505317.got - 2010.06.03 11:33:40.
