data_PCOD9056601
_publ_section_title
;
Structure prediction by ZEFSAII (Michael W. Deem and Ramdas Pophale) SiO2 
 PCOD9056601
Probable space group: P -1
;
_chemical_formula_sum "Si O2"
_cell_formula_units_Z 16
_cell_length_a 9.717022
_cell_length_b 13.487042
_cell_length_c 15.457266
_cell_angle_alpha 65.366774
_cell_angle_beta 75.598099
_cell_angle_gamma 28.168859
_cell_volume 835.334106
_symmetry_space_group_name_H-M "P -1"
_symmetry_group_IT_number 2
_symmetry_cell_setting 'triclinic'
loop_
_space_group_symop_operation_xyz
x,y,z
-x,-y,-z
loop_
_atom_site_type_symbol
_atom_site_label
_atom_site_fract_x
_atom_site_fract_y
_atom_site_fract_z
Si Si1 0.803052 0.086718 0.772574
Si Si2 0.051931 0.367154 0.686034
Si Si3 0.216302 0.501309 0.828180
Si Si4 0.208685 0.024061 0.724831
Si Si5 0.769756 0.385052 0.042900
Si Si6 0.706020 0.011849 0.655997
Si Si7 0.551086 0.095906 0.458478
Si Si8 0.110901 0.493947 0.139291
O O1 0.474913 0.321199 0.781164
O O2 0.782024 0.064461 0.683895
O O3 0.997886 0.063538 0.760334
O O4 0.972962 0.873779 0.873423
O O5 0.058046 0.236995 0.704840
O O6 0.367512 0.203930 0.664308
O O7 0.771474 0.623812 0.596642
O O8 0.014693 0.401376 0.782558
O O9 0.334569 0.481557 0.902476
O O10 0.088589 0.468411 0.882114
O O11 0.936097 0.760694 0.739933
O O12 0.272271 0.992946 0.623930
O O13 0.538475 0.781804 0.805098
O O14 0.500000 0.500000 0.000000
O O15 0.893493 0.392874 0.955977
O O16 0.716442 0.017173 0.549586
O O17 0.500000 0.000000 0.500000
#
# Coordination Sequence:
#
# PCOD9056601 Si02
#       8
#     2   2   2   2   2   2   2   2
#     4  11  26  43  64  95 133 172 208 265 331 369
#     4  11  22  39  71  96 125 172 215 259 315 380
#     4  11  24  42  66  94 130 170 212 268 319 375
#     4  11  24  41  65  97 130 170 213 263 319 377
#     4  11  25  43  66  95 131 167 217 266 318 387
#     4  11  22  42  65  94 133 167 213 266 314 381
#     4  11  23  39  70 100 126 164 220 263 311 380
#     4  11  22  43  66  95 129 168 218 265 313 378
#
# _framework density 19.154012999999999
#
# number of rings (size 3 to 8) (size 9 to 14) (size 15 to 20)
#    0.000    1.000    5.000    1.500    1.750    3.500 
#    0.000    1.250    0.000    0.000    0.000    0.000 
#    0.000    0.000    0.000    0.000    0.000    0.000 
#
# Total GULP energy -89458.763049 kJ/mol
# GULP energy per Si atom -5591.172691 kJ/mol
# Density = 1.911042 g / cm^3
# Si number density = 19.154013 Si / 1000 Ang^3
#
#
#
# Elastic Constant Matrix: (Units=GPa)
#
#
# Indices 1 2 3 4 5 6 
#
# 1 131.6517 50.4579 30.2518 -8.4938 -0.9574 12.5087
# 2 50.4579 86.3095 22.8912 -7.6743 -3.7932 14.9391
# 3 30.2518 22.8912 87.0266 -3.5496 6.9881 11.7749
# 4 -8.4938 -7.6743 -3.5496 12.7461 3.8635 -4.2771
# 5 -0.9574 -3.7932 6.9881 3.8635 36.1597 5.3047
# 6 12.5087 14.9391 11.7749 -4.2771 5.3047 27.0954
#
#
#
# Elastic Compliance Matrix: (Units=1/GPa)
#
#
# Indices 1 2 3 4 5 6 
#
# 1 0.010264 -0.005105 -0.002017 0.003060 -0.000122 -0.000540
# 2 -0.005105 0.016476 -0.001825 0.003285 0.002460 -0.005897
# 3 -0.002017 -0.001825 0.013344 0.000930 -0.002448 -0.003236
# 4 0.003060 0.003285 0.000930 0.090477 -0.011309 0.012868
# 5 -0.000122 0.002460 -0.002448 -0.011309 0.030772 -0.008046
# 6 -0.000540 -0.005897 -0.003236 0.012868 -0.008046 0.045420
#
#
# Mechanical properties :
#
#
# Convention : Reuss Voigt Hill
#
# Bulk Modulus (GPa) = 45.06684 56.90996 50.98840
# Shear Modulus (GPa) = 21.54769 28.62602 25.08686
#
# Velocity S-wave (km/s) = 3.35770 3.87009 3.62296
# Velocity P-wave (km/s) = 6.21385 7.05312 6.64674
#
# Compressibility (1/GPa) = 0.02218926
#
# Stress axis : x y z
#
# Youngs Moduli (GPa) = 97.42933 60.69565 74.93846
#
# Poissons Ratio (x) = 0.30986 0.15118
# Poissons Ratio (y) = 0.49739 0.13674
# Poissons Ratio (z) = 0.19655 0.11075
#
# Static dielectric constant tensor:
#      x y z
#    x 1.649750 0.014590 0.018030 
#    y 0.014590 1.640670 0.002850 
#    z 0.018030 0.002850 1.658910 
# 
# From -- ./inp_files/37244.got.cif
#   From: 2010.05.17/outbox.cif.g08.bks.cpg/sg2_19_cif.got.tgz:37244.got - 2010.06.03 11:33:40.
