data_PCOD9056206
_publ_section_title
;
Structure prediction by ZEFSAII (Michael W. Deem and Ramdas Pophale) SiO2 
 PCOD9056206
Probable space group: P -1
;
_chemical_formula_sum "Si O2"
_cell_formula_units_Z 16
_cell_length_a 16.589175
_cell_length_b 6.986852
_cell_length_c 11.231776
_cell_angle_alpha 79.905900
_cell_angle_beta 105.268996
_cell_angle_gamma 143.260638
_cell_volume 749.790161
_symmetry_space_group_name_H-M "P -1"
_symmetry_group_IT_number 2
_symmetry_cell_setting 'triclinic'
loop_
_space_group_symop_operation_xyz
x,y,z
-x,-y,-z
loop_
_atom_site_type_symbol
_atom_site_label
_atom_site_fract_x
_atom_site_fract_y
_atom_site_fract_z
Si Si1 0.172959 0.085155 0.415200
Si Si2 0.870940 0.434462 0.645758
Si Si3 0.131037 0.418378 0.635765
Si Si4 0.826969 0.065522 0.305952
Si Si5 0.476658 0.687518 0.456863
Si Si6 0.542435 0.637866 0.132561
Si Si7 0.586397 0.100334 0.228878
Si Si8 0.601103 0.947593 0.728910
O O1 0.159744 0.843921 0.380782
O O2 0.190399 0.089529 0.563386
O O3 0.027609 0.923640 0.356964
O O4 0.318045 0.438800 0.392060
O O5 0.857480 0.538101 0.508129
O O6 0.028759 0.730849 0.716568
O O7 0.759415 0.269915 0.721434
O O8 0.149771 0.671544 0.666427
O O9 0.255973 0.535015 0.734414
O O10 0.690465 0.819769 0.202763
O O11 0.500000 0.500000 0.500000
O O12 0.568875 0.936107 0.359186
O O13 0.521346 0.846586 0.585738
O O14 0.558411 0.897226 0.134467
O O15 0.500000 0.500000 0.000000
O O16 0.566465 0.663837 0.786595
O O17 0.470963 0.050807 0.201071
#
# Coordination Sequence:
#
# PCOD9056206 Si02
#       8
#     2   2   2   2   2   2   2   2
#     4   9  14  26  50  76 112 144 172 205 257 320
#     4   9  15  27  50  81 109 139 171 207 269 325
#     4   8  15  27  47  78 111 145 168 204 259 323
#     4   8  15  30  51  75 105 139 178 220 255 310
#     4  12  17  31  54  83 117 142 170 213 268 327
#     4  11  23  41  60  75  99 144 192 230 265 305
#     4  11  22  36  54  83 115 139 177 219 267 326
#     4  12  22  34  56  83 112 143 174 221 274 320
#
# _framework density 21.339302
#
# number of rings (size 3 to 8) (size 9 to 14) (size 15 to 20)
#    0.000    2.000    5.000    2.625    0.000    0.500 
#    0.000    2.500    0.000    0.750    0.000    0.000 
#    0.000    0.000    0.000    0.000    0.000    0.000 
#
# Total GULP energy -89417.596649 kJ/mol
# GULP energy per Si atom -5588.599791 kJ/mol
# Density = 2.129073 g / cm^3
# Si number density = 21.339302 Si / 1000 Ang^3
#
#
#
# Elastic Constant Matrix: (Units=GPa)
#
#
# Indices 1 2 3 4 5 6 
#
# 1 104.7690 41.0334 17.4534 10.3243 -17.6810 20.4106
# 2 41.0334 103.3098 21.1835 10.5452 -0.1550 49.4562
# 3 17.4534 21.1835 81.3075 18.2160 -11.9620 10.1089
# 4 10.3243 10.5452 18.2160 20.5283 -4.8565 2.0504
# 5 -17.6810 -0.1550 -11.9620 -4.8565 17.3134 0.3579
# 6 20.4106 49.4562 10.1089 2.0504 0.3579 47.9627
#
#
#
# Elastic Compliance Matrix: (Units=1/GPa)
#
#
# Indices 1 2 3 4 5 6 
#
# 1 0.014266 -0.005216 0.000978 -0.001789 0.014716 -0.000932
# 2 -0.005216 0.022563 -0.001785 -0.007241 -0.007970 -0.020300
# 3 0.000978 -0.001785 0.016850 -0.012172 0.009245 -0.001676
# 4 -0.001789 -0.007241 -0.012172 0.065190 0.007820 0.007948
# 5 0.014716 -0.007970 0.009245 0.007820 0.081315 -0.000934
# 6 -0.000932 -0.020300 -0.001676 0.007948 -0.000934 0.042199
#
#
# Mechanical properties :
#
#
# Convention : Reuss Voigt Hill
#
# Bulk Modulus (GPa) = 24.01976 49.85855 36.93915
# Shear Modulus (GPa) = 18.63551 31.14196 24.88873
#
# Velocity S-wave (km/s) = 2.95836 3.82432 3.41887
# Velocity P-wave (km/s) = 4.79059 6.55102 5.73871
#
# Compressibility (1/GPa) = 0.04163239
#
# Stress axis : x y z
#
# Youngs Moduli (GPa) = 70.09666 44.32122 59.34885
#
# Poissons Ratio (x) = 0.23118 -0.05806
# Poissons Ratio (y) = 0.36563 0.10594
# Poissons Ratio (z) = -0.06857 0.07912
#
# Static dielectric constant tensor:
#      x y z
#    x 1.907830 -0.024120 -0.039050 
#    y -0.024120 1.809640 0.024550 
#    z -0.039050 0.024550 1.718700 
# 
# From -- ./inp_files/446203.got.cif
#   From: 2010.05.17/outbox.cif.g08.bks.cpg/sg2_224_cif.got.tgz:446203.got - 2010.06.03 11:33:40.
