data_PCOD9056441
_publ_section_title
;
Structure prediction by ZEFSAII (Michael W. Deem and Ramdas Pophale) SiO2 
 PCOD9056441
Probable space group: P -1
;
_chemical_formula_sum "Si O2"
_cell_formula_units_Z 14
_cell_length_a 6.906128
_cell_length_b 7.516933
_cell_length_c 16.411426
_cell_angle_alpha 117.576523
_cell_angle_beta 49.587551
_cell_angle_gamma 124.228187
_cell_volume 529.758245
_symmetry_space_group_name_H-M "P -1"
_symmetry_group_IT_number 2
_symmetry_cell_setting 'triclinic'
loop_
_space_group_symop_operation_xyz
x,y,z
-x,-y,-z
loop_
_atom_site_type_symbol
_atom_site_label
_atom_site_fract_x
_atom_site_fract_y
_atom_site_fract_z
Si Si1 0.584126 0.853255 0.385521
Si Si2 0.188887 0.714176 0.108843
Si Si3 0.766219 0.487297 0.313262
Si Si4 0.215766 0.899621 0.850281
Si Si5 0.838638 0.864160 0.794165
Si Si6 0.802126 0.669987 0.054506
Si Si7 0.891091 0.474521 0.617697
O O1 0.599916 0.639107 0.376807
O O2 0.346849 0.764997 0.364048
O O3 0.500000 0.000000 0.500000
O O4 0.882419 0.995501 0.301112
O O5 0.046006 0.603591 0.208068
O O6 0.339877 0.573929 0.993797
O O7 0.923688 0.666598 0.109861
O O8 0.327142 0.977136 0.129807
O O9 0.631467 0.241333 0.262938
O O10 0.859924 0.487042 0.380060
O O11 0.954901 0.854559 0.850020
O O12 0.070925 0.787839 0.949205
O O13 0.348505 0.161892 0.874800
O O14 0.747440 0.634076 0.725427
O O15 0.000000 0.500000 0.500000
#
# Coordination Sequence:
#
# PCOD9056441 Si02
#       7
#     2   2   2   2   2   2   2
#     4  11  22  39  57  80 109 150 188 232 278 327
#     4   8  14  27  48  82 110 140 183 226 262 331
#     4   9  20  35  54  82 116 144 188 229 272 329
#     4   8  14  27  48  82 110 140 183 226 262 331
#     4   9  18  35  52  80 118 140 188 231 264 329
#     4   8  12  22  50  82 108 140 184 216 272 326
#     4  11  22  39  57  80 109 150 188 232 278 327
#
# _framework density 26.427150000000001
#
# number of rings (size 3 to 8) (size 9 to 14) (size 15 to 20)
#    0.000    2.857    1.429    0.000    0.000    1.143 
#    0.000    0.000    0.000    0.000    0.000  452.000 
#    0.000    0.000    0.000    0.000    0.000    0.000 
#
# Total GULP energy -78343.758287 kJ/mol
# GULP energy per Si atom -5595.982735 kJ/mol
# Density = 2.636700 g / cm^3
# Si number density = 26.427150 Si / 1000 Ang^3
#
#
#
# Elastic Constant Matrix: (Units=GPa)
#
#
# Indices 1 2 3 4 5 6 
#
# 1 65.9105 18.9674 30.2618 -7.2737 -10.5394 -17.2032
# 2 18.9674 95.4465 51.2789 35.2510 -9.5031 -10.2048
# 3 30.2618 51.2789 163.2730 33.4579 11.0777 -8.9302
# 4 -7.2737 35.2510 33.4579 62.4926 -15.7785 0.6060
# 5 -10.5394 -9.5031 11.0777 -15.7785 38.9753 0.0669
# 6 -17.2032 -10.2048 -8.9302 0.6060 0.0669 44.9803
#
#
#
# Elastic Compliance Matrix: (Units=1/GPa)
#
#
# Indices 1 2 3 4 5 6 
#
# 1 0.023796 -0.003680 -0.005887 0.010858 0.011594 0.006934
# 2 -0.003680 0.015712 -0.002580 -0.007826 0.000398 0.001750
# 3 -0.005887 -0.002580 0.009808 -0.006391 -0.007594 -0.000792
# 4 0.010858 -0.007826 -0.006391 0.028752 0.014482 0.000699
# 5 0.011594 0.000398 -0.007594 0.014482 0.036906 0.002767
# 6 0.006934 0.001750 -0.000792 0.000699 0.002767 0.025110
#
#
# Mechanical properties :
#
#
# Convention : Reuss Voigt Hill
#
# Bulk Modulus (GPa) = 39.96667 58.40514 49.18590
# Shear Modulus (GPa) = 28.94902 44.23112 36.59007
#
# Velocity S-wave (km/s) = 3.31331 4.09553 3.72501
# Velocity P-wave (km/s) = 5.45835 6.67180 6.09534
#
# Compressibility (1/GPa) = 0.02502085
#
# Stress axis : x y z
#
# Youngs Moduli (GPa) = 42.02383 63.64716 101.96238
#
# Poissons Ratio (x) = 0.23424 0.60024
# Poissons Ratio (y) = 0.15466 0.26305
# Poissons Ratio (z) = 0.24739 0.16420
#
# Static dielectric constant tensor:
#      x y z
#    x 2.076980 -0.035850 -0.018880 
#    y -0.035850 2.098070 0.073190 
#    z -0.018880 0.073190 2.080320 
# 
# From -- ./inp_files/196053.got.cif
#   From: 2010.05.17/outbox.cif.g08.bks.cpg/sg2_99_cif.got.tgz:196053.got - 2010.06.03 11:33:40.
