data_PCOD9056319
_publ_section_title
;
Structure prediction by ZEFSAII (Michael W. Deem and Ramdas Pophale) SiO2 
 PCOD9056319
Probable space group: P -1
;
_chemical_formula_sum "Si O2"
_cell_formula_units_Z 16
_cell_length_a 12.119937
_cell_length_b 12.591899
_cell_length_c 10.732354
_cell_angle_alpha 69.963941
_cell_angle_beta 147.278626
_cell_angle_gamma 125.849419
_cell_volume 674.217359
_symmetry_space_group_name_H-M "P -1"
_symmetry_group_IT_number 2
_symmetry_cell_setting 'triclinic'
loop_
_space_group_symop_operation_xyz
x,y,z
-x,-y,-z
loop_
_atom_site_type_symbol
_atom_site_label
_atom_site_fract_x
_atom_site_fract_y
_atom_site_fract_z
Si Si1 0.754092 0.602731 0.616081
Si Si2 0.370502 0.574968 0.888316
Si Si3 0.621175 0.012395 0.387297
Si Si4 0.873430 0.251066 0.873723
Si Si5 0.080522 0.140745 0.956761
Si Si6 0.128223 0.102699 0.461249
Si Si7 0.631119 0.860389 0.973697
Si Si8 0.136651 0.560211 0.405652
O O1 0.500000 0.500000 0.500000
O O2 0.777703 0.738734 0.529609
O O3 0.790507 0.529240 0.564694
O O4 0.996166 0.660768 0.913365
O O5 0.240045 0.580037 0.636130
O O6 0.158401 0.505595 0.820777
O O7 0.500000 0.500000 0.000000
O O8 0.574320 0.736184 0.057903
O O9 0.368810 0.905911 0.267436
O O10 0.661892 0.917067 0.377932
O O11 0.864399 0.104544 0.667666
O O12 0.584445 0.116571 0.236600
O O13 0.091068 0.243845 0.022917
O O14 0.785724 0.315490 0.665577
O O15 0.327862 0.188314 0.099166
O O16 0.000000 0.000000 0.000000
O O17 0.000000 0.000000 0.500000
O O18 0.888568 0.011179 0.178359
#
# Coordination Sequence:
#
# PCOD9056319 Si02
#       8
#     2   2   2   2   2   2   2   2
#     4  12  28  49  74 107 155 198 248 303 370 445
#     4  11  27  49  73 106 146 190 247 305 363 435
#     4  11  23  43  69 105 141 181 236 303 360 428
#     4  12  23  46  71 105 146 188 245 295 368 436
#     4  11  22  37  66 105 141 176 226 294 364 422
#     4  11  27  46  71 106 145 191 246 303 363 434
#     4  11  24  43  71 101 137 185 238 296 364 421
#     4  11  28  46  74 104 142 198 250 291 370 446
#
# _framework density 23.731218999999999
#
# number of rings (size 3 to 8) (size 9 to 14) (size 15 to 20)
#    0.000    0.750    2.500    3.750    8.750    3.500 
#    0.000    0.000    0.000    0.000    0.000    0.000 
#    0.000    0.000    0.000    0.000    0.000    0.000 
#
# Total GULP energy -89378.684073 kJ/mol
# GULP energy per Si atom -5586.167755 kJ/mol
# Density = 2.367721 g / cm^3
# Si number density = 23.731219 Si / 1000 Ang^3
#
#
#
# Elastic Constant Matrix: (Units=GPa)
#
#
# Indices 1 2 3 4 5 6 
#
# 1 104.2526 41.3105 12.5143 -4.5208 14.3529 0.2198
# 2 41.3105 157.8119 27.7084 -23.2122 19.3935 2.6784
# 3 12.5143 27.7084 65.8797 -14.6297 11.1515 4.7959
# 4 -4.5208 -23.2122 -14.6297 40.8399 -3.0763 4.9013
# 5 14.3529 19.3935 11.1515 -3.0763 37.4521 -7.4338
# 6 0.2198 2.6784 4.7959 4.9013 -7.4338 39.1254
#
#
#
# Elastic Compliance Matrix: (Units=1/GPa)
#
#
# Indices 1 2 3 4 5 6 
#
# 1 0.011031 -0.002508 -0.000682 -0.000630 -0.002830 -0.000265
# 2 -0.002508 0.008185 -0.001562 0.003769 -0.002771 -0.001354
# 3 -0.000682 -0.001562 0.018286 0.005684 -0.004647 -0.003726
# 4 -0.000630 0.003769 0.005684 0.029040 -0.002004 -0.004970
# 5 -0.002830 -0.002771 -0.004647 -0.002004 0.031844 0.007077
# 6 -0.000265 -0.001354 -0.003726 -0.004970 0.007077 0.028077
#
#
# Mechanical properties :
#
#
# Convention : Reuss Voigt Hill
#
# Bulk Modulus (GPa) = 35.71673 54.55671 45.13672
# Shear Modulus (GPa) = 34.41178 39.91088 37.16133
#
# Velocity S-wave (km/s) = 3.81210 4.10541 3.96147
# Velocity P-wave (km/s) = 5.87021 6.74625 6.32342
#
# Compressibility (1/GPa) = 0.02799809
#
# Stress axis : x y z
#
# Youngs Moduli (GPa) = 90.65631 122.16977 54.68754
#
# Poissons Ratio (x) = 0.30642 0.03730
# Poissons Ratio (y) = 0.22738 0.08540
# Poissons Ratio (z) = 0.06183 0.19078
#
# Static dielectric constant tensor:
#      x y z
#    x 1.914670 -0.062240 0.035050 
#    y -0.062240 1.778860 0.104280 
#    z 0.035050 0.104280 1.995840 
# 
# From -- ./inp_files/428058.got.cif
#   From: 2010.05.17/outbox.cif.g08.bks.cpg/sg2_215_cif.got.tgz:428058.got - 2010.06.03 11:33:40.
