data_PCOD9056571
_publ_section_title
;
Structure prediction by ZEFSAII (Michael W. Deem and Ramdas Pophale) SiO2 
 PCOD9056571
Probable space group: P -1
;
_chemical_formula_sum "Si O2"
_cell_formula_units_Z 15
_cell_length_a 10.518774
_cell_length_b 15.946744
_cell_length_c 14.000684
_cell_angle_alpha 27.675511
_cell_angle_beta 101.575508
_cell_angle_gamma 122.164136
_cell_volume 669.492400
_symmetry_space_group_name_H-M "P -1"
_symmetry_group_IT_number 2
_symmetry_cell_setting 'triclinic'
loop_
_space_group_symop_operation_xyz
x,y,z
-x,-y,-z
loop_
_atom_site_type_symbol
_atom_site_label
_atom_site_fract_x
_atom_site_fract_y
_atom_site_fract_z
Si Si1 0.500000 0.000000 0.500000
Si Si2 0.053964 0.024535 0.201117
Si Si3 0.531737 0.347976 0.291746
Si Si4 0.637821 0.124288 0.104410
Si Si5 0.118668 0.808945 0.089365
Si Si6 0.034701 0.504244 0.888860
Si Si7 0.114883 0.064632 0.546946
Si Si8 0.778627 0.133289 0.732614
O O1 0.525173 0.235330 0.304530
O O2 0.724524 0.195051 0.392407
O O3 0.914638 0.848716 0.451370
O O4 0.123040 0.922953 0.256557
O O5 0.260309 0.336551 0.961030
O O6 0.940715 0.053320 0.090270
O O7 0.465385 0.123216 0.585138
O O8 0.351849 0.299265 0.318465
O O9 0.463827 0.086541 0.099191
O O10 0.705807 0.089263 0.054959
O O11 0.856542 0.411385 0.897043
O O12 0.189460 0.877041 0.140648
O O13 0.914845 0.460433 0.401080
O O14 0.975966 0.231126 0.140162
O O15 0.000000 0.500000 0.000000
O O16 0.000000 0.000000 0.500000
#
# Coordination Sequence:
#
# PCOD9056571 Si02
#       8
#     1   2   2   2   2   2   2   2
#     4  12  20  40  68  94 122 186 240 260 330 416
#     4  12  24  47  69 100 144 183 225 295 344 407
#     4  11  23  41  68  93 135 190 225 278 352 396
#     4  11  22  44  69  99 142 179 227 290 345 416
#     4  11  23  49  73 100 141 182 228 293 349 413
#     4  11  22  39  68  94 130 186 228 275 344 404
#     4  11  25  43  60  96 138 178 231 280 336 412
#     4  11  27  42  75 109 131 182 241 280 351 422
#
# _framework density 22.405031000000001
#
# number of rings (size 3 to 8) (size 9 to 14) (size 15 to 20)
#    0.000    0.800    8.000    0.800    0.000    4.800 
#    0.000    0.667    0.000    0.000    0.000    0.000 
#    0.000    0.000    0.000    0.000    0.000    0.000 
#
# Total GULP energy -83615.859126 kJ/mol
# GULP energy per Si atom -5574.390608 kJ/mol
# Density = 2.235404 g / cm^3
# Si number density = 22.405031 Si / 1000 Ang^3
#
#
#
# Elastic Constant Matrix: (Units=GPa)
#
#
# Indices 1 2 3 4 5 6 
#
# 1 193.5403 83.4739 31.1028 -5.5495 -4.7939 12.9316
# 2 83.4739 102.7797 15.1722 -6.4924 6.7801 10.5128
# 3 31.1028 15.1722 44.1293 -10.4556 12.7302 13.9100
# 4 -5.5495 -6.4924 -10.4556 27.1056 6.8566 2.0117
# 5 -4.7939 6.7801 12.7302 6.8566 34.9359 -10.7623
# 6 12.9316 10.5128 13.9100 2.0117 -10.7623 41.0100
#
#
#
# Elastic Compliance Matrix: (Units=1/GPa)
#
#
# Indices 1 2 3 4 5 6 
#
# 1 0.010100 -0.008291 -0.010380 -0.006788 0.009759 0.005355
# 2 -0.008291 0.017464 0.007889 0.009075 -0.011660 -0.008043
# 3 -0.010380 0.007889 0.055594 0.033205 -0.038791 -0.029415
# 4 -0.006788 0.009075 0.033205 0.060795 -0.033911 -0.023330
# 5 0.009759 -0.011660 -0.038791 -0.033911 0.062618 0.031166
# 6 0.005355 -0.008043 -0.029415 -0.023330 0.031166 0.044058
#
#
# Mechanical properties :
#
#
# Convention : Reuss Voigt Hill
#
# Bulk Modulus (GPa) = 16.23555 66.66078 41.44817
# Shear Modulus (GPa) = 17.08094 34.65697 25.86896
#
# Velocity S-wave (km/s) = 2.76410 3.93725 3.40163
# Velocity P-wave (km/s) = 4.17722 7.10538 5.82819
#
# Compressibility (1/GPa) = 0.06159324
#
# Stress axis : x y z
#
# Youngs Moduli (GPa) = 99.00773 57.26072 17.98759
#
# Poissons Ratio (x) = 0.47476 0.18671
# Poissons Ratio (y) = 0.82089 -0.14190
# Poissons Ratio (z) = 1.02769 -0.45171
#
# Static dielectric constant tensor:
#      x y z
#    x 1.904720 -0.058210 -0.110710 
#    y -0.058210 1.962990 0.345920 
#    z -0.110710 0.345920 2.582380 
# 
# From -- ./inp_files/503672.got.cif
#   From: 2010.05.17/outbox.cif.g08.bks.cpg/sg2_252_cif.got.tgz:503672.got - 2010.06.03 11:33:40.
