data_PCOD9056512
_publ_section_title
;
Structure prediction by ZEFSAII (Michael W. Deem and Ramdas Pophale) SiO2 
 PCOD9056512
Probable space group: P -1
;
_chemical_formula_sum "Si O2"
_cell_formula_units_Z 16
_cell_length_a 8.100674
_cell_length_b 8.339354
_cell_length_c 15.642895
_cell_angle_alpha 98.525255
_cell_angle_beta 133.223564
_cell_angle_gamma 90.939489
_cell_volume 751.264025
_symmetry_space_group_name_H-M "P -1"
_symmetry_group_IT_number 2
_symmetry_cell_setting 'triclinic'
loop_
_space_group_symop_operation_xyz
x,y,z
-x,-y,-z
loop_
_atom_site_type_symbol
_atom_site_label
_atom_site_fract_x
_atom_site_fract_y
_atom_site_fract_z
Si Si1 0.140871 0.235278 0.222370
Si Si2 0.764302 0.495159 0.586087
Si Si3 0.485275 0.268359 0.196562
Si Si4 0.475726 0.422898 0.891257
Si Si5 0.740734 0.940825 0.593494
Si Si6 0.986955 0.764860 0.359780
Si Si7 0.360371 0.923167 0.029591
Si Si8 0.015232 0.292382 0.447647
O O1 0.105613 0.382072 0.286714
O O2 0.330461 0.298941 0.224865
O O3 0.245687 0.107479 0.307865
O O4 0.902949 0.142547 0.093876
O O5 0.500000 0.500000 0.500000
O O6 0.876943 0.525349 0.533719
O O7 0.792741 0.310030 0.597983
O O8 0.448889 0.416333 0.130240
O O9 0.753631 0.267912 0.316930
O O10 0.392788 0.083490 0.114803
O O11 0.223577 0.358821 0.761160
O O12 0.568511 0.245543 0.918308
O O13 0.500000 0.500000 0.000000
O O14 0.972939 0.063634 0.659562
O O15 0.500000 0.000000 0.500000
O O16 0.790841 0.790649 0.540975
O O17 0.976620 0.774255 0.458908
O O18 0.500000 0.000000 0.000000
#
# Coordination Sequence:
#
# PCOD9056512 Si02
#       8
#     2   2   2   2   2   2   2   2
#     4  11  26  46  67 100 144 187 231 292 366 421
#     4  11  22  39  65  97 138 181 222 287 353 419
#     4  12  25  47  74 102 145 183 239 301 351 432
#     4  12  26  43  72 106 134 187 246 288 354 427
#     4  11  24  43  67 104 143 182 230 294 357 430
#     4  12  23  41  70 102 136 181 240 291 347 434
#     4  12  24  48  73  98 140 189 239 293 360 417
#     4  11  23  43  69 101 137 184 232 285 366 417
#
# _framework density 21.297440000000002
#
# number of rings (size 3 to 8) (size 9 to 14) (size 15 to 20)
#    0.000    0.500    2.500    7.875    1.750    1.500 
#    2.250    0.000    0.000    0.000    0.000    0.000 
#    0.000    0.000    0.000    0.000    0.000    0.000 
#
# Total GULP energy -89133.499900 kJ/mol
# GULP energy per Si atom -5570.843744 kJ/mol
# Density = 2.124897 g / cm^3
# Si number density = 21.297440 Si / 1000 Ang^3
#
#
#
# Elastic Constant Matrix: (Units=GPa)
#
#
# Indices 1 2 3 4 5 6 
#
# 1 113.3321 34.1471 50.9085 -21.7728 -6.2682 23.3338
# 2 34.1471 121.2953 38.7314 -11.5813 -6.4798 21.7323
# 3 50.9085 38.7314 113.8158 -12.4555 3.6942 15.9430
# 4 -21.7728 -11.5813 -12.4555 40.1231 3.2871 5.9157
# 5 -6.2682 -6.4798 3.6942 3.2871 40.4164 -10.2821
# 6 23.3338 21.7323 15.9430 5.9157 -10.2821 39.7297
#
#
#
# Elastic Compliance Matrix: (Units=1/GPa)
#
#
# Indices 1 2 3 4 5 6 
#
# 1 0.013671 -0.000582 -0.004161 0.006998 0.000039 -0.007073
# 2 -0.000582 0.010238 -0.002307 0.002573 0.000378 -0.004618
# 3 -0.004161 -0.002307 0.011940 0.001297 -0.002716 -0.001981
# 4 0.006998 0.002573 0.001297 0.031968 -0.004247 -0.011897
# 5 0.000039 0.000378 -0.002716 -0.004247 0.027600 0.008636
# 6 -0.007073 -0.004618 -0.001981 -0.011897 0.008636 0.036652
#
#
# Mechanical properties :
#
#
# Convention : Reuss Voigt Hill
#
# Bulk Modulus (GPa) = 45.98279 66.22414 56.10347
# Shear Modulus (GPa) = 32.58998 39.03091 35.81044
#
# Velocity S-wave (km/s) = 3.91606 4.28560 4.10499
# Velocity P-wave (km/s) = 6.48729 7.45995 6.99056
#
# Compressibility (1/GPa) = 0.02174727
#
# Stress axis : x y z
#
# Youngs Moduli (GPa) = 73.14602 97.67263 83.74945
#
# Poissons Ratio (x) = 0.05689 0.34852
# Poissons Ratio (y) = 0.04260 0.19325
# Poissons Ratio (z) = 0.30439 0.22538
#
# Static dielectric constant tensor:
#      x y z
#    x 1.809200 -0.042370 -0.078120 
#    y -0.042370 1.902320 0.001540 
#    z -0.078120 0.001540 1.860520 
# 
# From -- ./inp_files/495353.got.cif
#   From: 2010.05.17/outbox.cif.g08.bks.cpg/sg2_248_cif.got.tgz:495353.got - 2010.06.03 11:33:40.
