data_PCOD9056466
_publ_section_title
;
Structure prediction by ZEFSAII (Michael W. Deem and Ramdas Pophale) SiO2 
 PCOD9056466
Probable space group: P -1
;
_chemical_formula_sum "Si O2"
_cell_formula_units_Z 14
_cell_length_a 13.235324
_cell_length_b 12.650234
_cell_length_c 9.901255
_cell_angle_alpha 143.877671
_cell_angle_beta 68.908733
_cell_angle_gamma 86.258034
_cell_volume 695.131999
_symmetry_space_group_name_H-M "P -1"
_symmetry_group_IT_number 2
_symmetry_cell_setting 'triclinic'
loop_
_space_group_symop_operation_xyz
x,y,z
-x,-y,-z
loop_
_atom_site_type_symbol
_atom_site_label
_atom_site_fract_x
_atom_site_fract_y
_atom_site_fract_z
Si Si1 0.580335 0.048242 0.412336
Si Si2 0.716287 0.188767 0.657331
Si Si3 0.682453 0.597814 0.246759
Si Si4 0.138783 0.451753 0.332727
Si Si5 0.858516 0.400207 0.229513
Si Si6 0.108256 0.331835 0.891314
Si Si7 0.041567 0.907759 0.732132
O O1 0.592329 0.218062 0.668191
O O2 0.500000 0.000000 0.500000
O O3 0.203740 0.050564 0.541572
O O4 0.481630 0.172850 0.457280
O O5 0.691251 0.387512 0.966556
O O6 0.818615 0.144657 0.442034
O O7 0.777751 0.628239 0.138367
O O8 0.746300 0.538546 0.305397
O O9 0.194902 0.490913 0.482554
O O10 0.263060 0.193308 0.947982
O O11 0.080556 0.657696 0.464209
O O12 0.000000 0.500000 0.500000
O O13 0.994006 0.384486 0.113558
O O14 0.919047 0.130636 0.930270
O O15 0.000000 0.500000 0.000000
O O16 0.000000 0.000000 0.000000
#
# Coordination Sequence:
#
# PCOD9056466 Si02
#       7
#     2   2   2   2   2   2   2
#     4  12  24  41  65  95 130 172 217 262 320 381
#     4  11  22  39  62  94 127 170 218 262 316 379
#     4  11  23  40  62  92 132 170 212 264 319 382
#     4  11  23  41  68  94 128 170 214 268 319 381
#     4   9  21  40  63  94 128 166 213 261 324 379
#     4   9  19  37  60  95 126 162 212 260 318 375
#     4   9  19  37  62  90 124 162 215 260 314 377
#
# _framework density 20.140059999999998
#
# number of rings (size 3 to 8) (size 9 to 14) (size 15 to 20)
#    0.000    1.714    1.429    3.857    2.000    5.714 
#    2.571    0.000    0.000    8.571    0.000    0.000 
#    0.000    0.000    0.000    0.000    0.000    0.000 
#
# Total GULP energy -77966.145767 kJ/mol
# GULP energy per Si atom -5569.010412 kJ/mol
# Density = 2.009422 g / cm^3
# Si number density = 20.140060 Si / 1000 Ang^3
#
#
#
# Elastic Constant Matrix: (Units=GPa)
#
#
# Indices 1 2 3 4 5 6 
#
# 1 105.1252 40.1505 29.0203 21.5338 1.0676 -9.7971
# 2 40.1505 132.4153 33.6690 24.2313 1.1640 -6.8576
# 3 29.0203 33.6690 85.9218 13.6522 3.3812 -0.7530
# 4 21.5338 24.2313 13.6522 32.4777 3.2699 1.9007
# 5 1.0676 1.1640 3.3812 3.2699 24.0075 7.6805
# 6 -9.7971 -6.8576 -0.7530 1.9007 7.6805 39.3219
#
#
#
# Elastic Compliance Matrix: (Units=1/GPa)
#
#
# Indices 1 2 3 4 5 6 
#
# 1 0.012421 -0.001890 -0.002473 -0.005936 -0.000283 0.003060
# 2 -0.001890 0.009731 -0.002357 -0.005117 0.000197 0.001390
# 3 -0.002473 -0.002357 0.013802 -0.002250 -0.001284 -0.000404
# 4 -0.005936 -0.005117 -0.002250 0.040053 -0.003450 -0.003677
# 5 -0.000283 0.000197 -0.001284 -0.003450 0.045091 -0.008701
# 6 0.003060 0.001390 -0.000404 -0.003677 -0.008701 0.028305
#
#
# Mechanical properties :
#
#
# Convention : Reuss Voigt Hill
#
# Bulk Modulus (GPa) = 44.41909 58.79354 51.60632
# Shear Modulus (GPa) = 29.35129 33.86957 31.61043
#
# Velocity S-wave (km/s) = 3.82168 4.10530 3.96603
# Velocity P-wave (km/s) = 6.44799 7.19215 6.83022
#
# Compressibility (1/GPa) = 0.02251284
#
# Stress axis : x y z
#
# Youngs Moduli (GPa) = 80.50742 102.76211 72.45243
#
# Poissons Ratio (x) = 0.19423 0.17921
# Poissons Ratio (y) = 0.15217 0.17079
# Poissons Ratio (z) = 0.19913 0.24224
#
# Static dielectric constant tensor:
#      x y z
#    x 1.748870 -0.021220 0.053180 
#    y -0.021220 1.736850 0.020290 
#    z 0.053180 0.020290 1.795460 
# 
# From -- ./inp_files/255421.got.cif
#   From: 2010.05.17/outbox.cif.g08.bks.cpg/sg2_128_cif.got.tgz:255421.got - 2010.06.03 11:33:40.
