data_PCOD9056720
_publ_section_title
;
Structure prediction by ZEFSAII (Michael W. Deem and Ramdas Pophale) SiO2 
 PCOD9056720
Probable space group: P -1
;
_chemical_formula_sum "Si O2"
_cell_formula_units_Z 16
_cell_length_a 8.818903
_cell_length_b 16.622917
_cell_length_c 10.469262
_cell_angle_alpha 63.802843
_cell_angle_beta 43.204752
_cell_angle_gamma 89.819578
_cell_volume 806.023411
_symmetry_space_group_name_H-M "P -1"
_symmetry_group_IT_number 2
_symmetry_cell_setting 'triclinic'
loop_
_space_group_symop_operation_xyz
x,y,z
-x,-y,-z
loop_
_atom_site_type_symbol
_atom_site_label
_atom_site_fract_x
_atom_site_fract_y
_atom_site_fract_z
Si Si1 0.488648 0.242608 0.277406
Si Si2 0.903393 0.091941 0.268076
Si Si3 0.993809 0.566408 0.077024
Si Si4 0.726500 0.669084 0.050791
Si Si5 0.730080 0.620190 0.795426
Si Si6 0.122227 0.570859 0.500346
Si Si7 0.385815 0.909287 0.816217
Si Si8 0.012728 0.948295 0.160691
O O1 0.733614 0.324703 0.152208
O O2 0.366611 0.305119 0.247329
O O3 0.573528 0.188565 0.155374
O O4 0.268882 0.149841 0.563297
O O5 0.767643 0.096704 0.216258
O O6 0.665819 0.015662 0.559774
O O7 0.060571 0.034099 0.178264
O O8 0.085862 0.208536 0.123037
O O9 0.000000 0.500000 0.000000
O O10 0.781468 0.599390 0.163473
O O11 0.949875 0.502456 0.278796
O O12 0.430082 0.637540 0.255880
O O13 0.786237 0.640894 0.895491
O O14 0.981969 0.636345 0.558070
O O15 0.500000 0.500000 0.000000
O O16 0.000000 0.500000 0.500000
O O17 0.220014 0.913679 0.031778
O O18 0.000000 0.000000 0.000000
#
# Coordination Sequence:
#
# PCOD9056720 Si02
#       8
#     2   2   2   2   2   2   2   2
#     4  11  22  40  67  94 129 179 221 262 345 400
#     4   9  19  36  62  96 127 157 214 276 336 386
#     4  12  24  42  66 101 137 173 224 290 333 383
#     4  12  24  42  69  99 131 175 228 283 330 391
#     4  12  24  47  64  91 138 186 223 269 333 405
#     4  12  26  45  66  91 137 186 225 269 330 406
#     4   9  18  38  62  93 129 165 206 273 339 397
#     4   9  20  36  62  96 129 164 214 271 329 409
#
# _framework density 19.850539999999999
#
# number of rings (size 3 to 8) (size 9 to 14) (size 15 to 20)
#    0.000    1.250    5.000    1.125    0.000    5.000 
#    0.000    2.500    0.000    4.500    0.000    0.000 
#    0.000    0.000    0.000    0.000    0.000    0.000 
#
# Total GULP energy -89384.506869 kJ/mol
# GULP energy per Si atom -5586.531679 kJ/mol
# Density = 1.980536 g / cm^3
# Si number density = 19.850540 Si / 1000 Ang^3
#
#
#
# Elastic Constant Matrix: (Units=GPa)
#
#
# Indices 1 2 3 4 5 6 
#
# 1 71.5441 45.3795 23.5597 0.1073 -10.4738 -3.4695
# 2 45.3795 168.5306 67.3771 9.8704 -23.5555 -3.9370
# 3 23.5597 67.3771 74.9855 5.5260 -19.6369 14.5145
# 4 0.1073 9.8704 5.5260 44.1542 -3.0231 -9.2264
# 5 -10.4738 -23.5555 -19.6369 -3.0231 31.0503 3.6861
# 6 -3.4695 -3.9370 14.5145 -9.2264 3.6861 42.6939
#
#
#
# Elastic Compliance Matrix: (Units=1/GPa)
#
#
# Indices 1 2 3 4 5 6 
#
# 1 0.017336 -0.003543 -0.002378 0.001593 0.001562 0.002100
# 2 -0.003543 0.010679 -0.008932 -0.000462 0.000789 0.003565
# 3 -0.002378 -0.008932 0.027539 -0.003205 0.010953 -0.012018
# 4 0.001593 -0.000462 -0.003205 0.024489 -0.000226 0.006488
# 5 0.001562 0.000789 0.010953 -0.000226 0.041082 -0.007120
# 6 0.002100 0.003565 -0.012018 0.006488 -0.007120 0.030025
#
#
# Mechanical properties :
#
#
# Convention : Reuss Voigt Hill
#
# Bulk Modulus (GPa) = 38.68690 65.29918 51.99304
# Shear Modulus (GPa) = 26.38915 35.49595 30.94255
#
# Velocity S-wave (km/s) = 3.65004 4.23325 3.95242
# Velocity P-wave (km/s) = 6.10697 7.54061 6.86134
#
# Compressibility (1/GPa) = 0.02584855
#
# Stress axis : x y z
#
# Youngs Moduli (GPa) = 57.68344 93.63951 36.31162
#
# Poissons Ratio (x) = 0.33179 0.08635
# Poissons Ratio (y) = 0.20439 0.32433
# Poissons Ratio (z) = 0.13717 0.83637
#
# Static dielectric constant tensor:
#      x y z
#    x 1.701860 -0.036950 -0.001660 
#    y -0.036950 1.713670 0.018380 
#    z -0.001660 0.018380 1.680530 
# 
# From -- ./inp_files/308709.got.cif
#   From: 2010.05.17/outbox.cif.g08.bks.cpg/sg2_155_cif.got.tgz:308709.got - 2010.06.03 11:33:40.
