data_PCOD9056561
_publ_section_title
;
Structure prediction by ZEFSAII (Michael W. Deem and Ramdas Pophale) SiO2 
 PCOD9056561
Probable space group: P -1
;
_chemical_formula_sum "Si O2"
_cell_formula_units_Z 14
_cell_length_a 8.660881
_cell_length_b 9.264452
_cell_length_c 11.089628
_cell_angle_alpha 138.084125
_cell_angle_beta 114.154694
_cell_angle_gamma 65.786065
_cell_volume 534.175020
_symmetry_space_group_name_H-M "P -1"
_symmetry_group_IT_number 2
_symmetry_cell_setting 'triclinic'
loop_
_space_group_symop_operation_xyz
x,y,z
-x,-y,-z
loop_
_atom_site_type_symbol
_atom_site_label
_atom_site_fract_x
_atom_site_fract_y
_atom_site_fract_z
Si Si1 0.328705 0.680237 0.548992
Si Si2 0.077003 0.956016 0.255756
Si Si3 0.587332 0.198659 0.607161
Si Si4 0.862428 0.683652 0.137676
Si Si5 0.044241 0.423713 0.633112
Si Si6 0.511030 0.368108 0.046813
Si Si7 0.189017 0.844067 0.859804
O O1 0.500000 0.500000 0.500000
O O2 0.351078 0.821063 0.523361
O O3 0.295135 0.804723 0.743559
O O4 0.159538 0.567007 0.406877
O O5 0.106171 0.202298 0.439732
O O6 0.966263 0.954863 0.096769
O O7 0.253847 0.803427 0.250410
O O8 0.947824 0.897729 0.280771
O O9 0.472568 0.437341 0.732866
O O10 0.500000 0.000000 0.500000
O O11 0.863485 0.615501 0.233554
O O12 0.671823 0.705755 0.038814
O O13 0.000000 0.500000 0.000000
O O14 0.096259 0.635875 0.723003
O O15 0.669744 0.170731 0.998435
O O16 0.500000 0.500000 0.000000
#
# Coordination Sequence:
#
# PCOD9056561 Si02
#       7
#     2   2   2   2   2   2   2
#     4  11  22  39  68 104 137 170 227 286 338 397
#     4  11  24  43  70 102 131 177 236 276 340 401
#     4  12  26  43  70 106 137 176 232 286 341 404
#     4  12  24  44  69  95 141 188 221 275 342 419
#     4  11  23  44  71 100 139 178 226 284 344 404
#     4  12  25  46  68  99 141 184 224 276 350 411
#     4  11  25  43  71 105 137 179 230 287 345 398
#
# _framework density 26.208639000000002
#
# number of rings (size 3 to 8) (size 9 to 14) (size 15 to 20)
#    0.000    0.571    5.714    3.000    4.000    0.571 
#    0.000    2.857    0.000    0.000    0.000    0.000 
#    0.000    0.000    0.000    0.000    0.000    0.000 
#
# Total GULP energy -78405.608356 kJ/mol
# GULP energy per Si atom -5600.400597 kJ/mol
# Density = 2.614899 g / cm^3
# Si number density = 26.208639 Si / 1000 Ang^3
#
#
#
# Elastic Constant Matrix: (Units=GPa)
#
#
# Indices 1 2 3 4 5 6 
#
# 1 116.6769 46.9221 19.2503 -9.1434 29.3479 -9.7854
# 2 46.9221 158.0949 15.5755 -36.5438 8.7460 -3.1458
# 3 19.2503 15.5755 55.0412 -13.9243 8.0489 2.2250
# 4 -9.1434 -36.5438 -13.9243 43.0616 1.4244 5.7982
# 5 29.3479 8.7460 8.0489 1.4244 50.4614 -11.1825
# 6 -9.7854 -3.1458 2.2250 5.7982 -11.1825 67.2584
#
#
#
# Elastic Compliance Matrix: (Units=1/GPa)
#
#
# Indices 1 2 3 4 5 6 
#
# 1 0.011655 -0.003084 -0.002645 -0.000917 -0.005623 0.000783
# 2 -0.003084 0.008829 0.000419 0.007070 -0.000155 -0.000685
# 3 -0.002645 0.000419 0.021214 0.007022 -0.002582 -0.002102
# 4 -0.000917 0.007070 0.007022 0.031865 -0.003455 -0.003357
# 5 -0.005623 -0.000155 -0.002582 -0.003455 0.024425 0.003619
# 6 0.000783 -0.000685 -0.002102 -0.003357 0.003619 0.015911
#
#
# Mechanical properties :
#
#
# Convention : Reuss Voigt Hill
#
# Bulk Modulus (GPa) = 32.17715 54.81207 43.49461
# Shear Modulus (GPa) = 37.07057 48.69398 42.88227
#
# Velocity S-wave (km/s) = 3.76499 4.31505 4.04937
# Velocity P-wave (km/s) = 5.58606 6.76649 6.20441
#
# Compressibility (1/GPa) = 0.03107796
#
# Stress axis : x y z
#
# Youngs Moduli (GPa) = 85.79651 113.26816 47.13935
#
# Poissons Ratio (x) = 0.34933 0.12469
# Poissons Ratio (y) = 0.26460 -0.01977
# Poissons Ratio (z) = 0.22694 -0.04749
#
# Static dielectric constant tensor:
#      x y z
#    x 2.062120 -0.045400 -0.010240 
#    y -0.045400 2.113510 -0.005320 
#    z -0.010240 -0.005320 2.085520 
# 
# From -- ./inp_files/175401.got.cif
#   From: 2010.05.17/outbox.cif.g08.bks.cpg/sg2_88_cif.got.tgz:175401.got - 2010.06.03 11:33:40.
