data_PCOD9056151
_publ_section_title
;
Structure prediction by ZEFSAII (Michael W. Deem and Ramdas Pophale) SiO2 
 PCOD9056151
Probable space group: P -1
;
_chemical_formula_sum "Si O2"
_cell_formula_units_Z 14
_cell_length_a 10.020868
_cell_length_b 8.554841
_cell_length_c 10.589105
_cell_angle_alpha 68.533958
_cell_angle_beta 52.947292
_cell_angle_gamma 45.773998
_cell_volume 516.807707
_symmetry_space_group_name_H-M "P -1"
_symmetry_group_IT_number 2
_symmetry_cell_setting 'triclinic'
loop_
_space_group_symop_operation_xyz
x,y,z
-x,-y,-z
loop_
_atom_site_type_symbol
_atom_site_label
_atom_site_fract_x
_atom_site_fract_y
_atom_site_fract_z
Si Si1 0.043413 0.632728 0.689763
Si Si2 0.715818 0.121140 0.671294
Si Si3 0.541204 0.862288 0.391798
Si Si4 0.125672 0.789912 0.079993
Si Si5 0.518587 0.182952 0.152142
Si Si6 0.856039 0.384511 0.620046
Si Si7 0.730230 0.640388 0.000812
O O1 0.949382 0.608142 0.879089
O O2 0.291174 0.401159 0.619278
O O3 0.004069 0.609291 0.569000
O O4 0.916938 0.892450 0.688813
O O5 0.677048 0.077854 0.563627
O O6 0.768466 0.280476 0.620027
O O7 0.474212 0.240493 0.827388
O O8 0.500000 0.000000 0.500000
O O9 0.632366 0.952625 0.221446
O O10 0.042093 0.753601 0.266280
O O11 0.202733 0.590058 0.006360
O O12 0.328849 0.774962 0.008596
O O13 0.000000 0.000000 0.000000
O O14 0.360190 0.377199 0.283315
O O15 0.372479 0.212468 0.112664
#
# Coordination Sequence:
#
# PCOD9056151 Si02
#       7
#     2   2   2   2   2   2   2
#     4  12  27  46  73 111 146 192 251 300 373 439
#     4  12  26  49  74 103 155 199 236 310 369 434
#     4  12  28  47  74 110 147 192 251 309 365 438
#     4  11  23  41  76 111 146 192 255 297 360 447
#     4  11  21  47  75 101 147 193 247 295 365 437
#     4  11  24  48  74 102 150 198 238 304 374 425
#     4  11  23  46  75 105 146 199 236 308 368 429
#
# _framework density 27.089378
#
# number of rings (size 3 to 8) (size 9 to 14) (size 15 to 20)
#    0.000    0.571    5.714    2.571    0.000    8.571 
#    0.000    0.000    0.000    0.000    0.000    0.000 
#    0.000    0.000    0.000    0.000    0.000    0.000 
#
# Total GULP energy -78137.519144 kJ/mol
# GULP energy per Si atom -5581.251367 kJ/mol
# Density = 2.702772 g / cm^3
# Si number density = 27.089378 Si / 1000 Ang^3
#
#
#
# Elastic Constant Matrix: (Units=GPa)
#
#
# Indices 1 2 3 4 5 6 
#
# 1 73.9287 37.1925 5.0692 -0.0848 7.4622 13.3767
# 2 37.1925 186.5556 26.2753 -17.4869 11.0378 -16.9676
# 3 5.0692 26.2753 157.5394 11.7215 8.0418 -10.2002
# 4 -0.0848 -17.4869 11.7215 51.9370 -2.2968 9.0848
# 5 7.4622 11.0378 8.0418 -2.2968 38.5228 -5.5566
# 6 13.3767 -16.9676 -10.2002 9.0848 -5.5566 37.5945
#
#
#
# Elastic Compliance Matrix: (Units=1/GPa)
#
#
# Indices 1 2 3 4 5 6 
#
# 1 0.017475 -0.004018 -0.000285 0.000100 -0.003414 -0.008637
# 2 -0.004018 0.006819 -0.000881 0.001812 -0.000338 0.003781
# 3 -0.000285 -0.000881 0.006846 -0.002227 -0.000972 0.001956
# 4 0.000100 0.001812 -0.002227 0.021243 0.000489 -0.004883
# 5 -0.003414 -0.000338 -0.000972 0.000489 0.027636 0.004765
# 6 -0.008637 0.003781 0.001956 -0.004883 0.004765 0.033794
#
#
# Mechanical properties :
#
#
# Convention : Reuss Voigt Hill
#
# Bulk Modulus (GPa) = 48.13921 61.67753 54.90837
# Shear Modulus (GPa) = 38.13760 48.90997 43.52379
#
# Velocity S-wave (km/s) = 3.75619 4.25373 4.01268
# Velocity P-wave (km/s) = 6.05154 6.85151 6.46391
#
# Compressibility (1/GPa) = 0.02077309
#
# Stress axis : x y z
#
# Youngs Moduli (GPa) = 57.22432 146.64568 146.07859
#
# Poissons Ratio (x) = 0.58923 0.04156
# Poissons Ratio (y) = 0.22993 0.12867
# Poissons Ratio (z) = 0.01628 0.12917
#
# Static dielectric constant tensor:
#      x y z
#    x 2.321360 -0.068980 -0.094470 
#    y -0.068980 2.094310 0.033080 
#    z -0.094470 0.033080 2.289650 
# 
# From -- ./inp_files/419076.got.cif
#   From: 2010.05.17/outbox.cif.g08.bks.cpg/sg2_210_cif.got.tgz:419076.got - 2010.06.03 11:33:40.
