data_PCOD9056413
_publ_section_title
;
Structure prediction by ZEFSAII (Michael W. Deem and Ramdas Pophale) SiO2 
 PCOD9056413
Probable space group: P -1
;
_chemical_formula_sum "Si O2"
_cell_formula_units_Z 16
_cell_length_a 16.412530
_cell_length_b 9.912532
_cell_length_c 10.050795
_cell_angle_alpha 50.413118
_cell_angle_beta 115.881199
_cell_angle_gamma 143.330408
_cell_volume 742.603477
_symmetry_space_group_name_H-M "P -1"
_symmetry_group_IT_number 2
_symmetry_cell_setting 'triclinic'
loop_
_space_group_symop_operation_xyz
x,y,z
-x,-y,-z
loop_
_atom_site_type_symbol
_atom_site_label
_atom_site_fract_x
_atom_site_fract_y
_atom_site_fract_z
Si Si1 0.738472 0.780492 0.666973
Si Si2 0.395140 0.493957 0.975612
Si Si3 0.614586 0.019986 0.930895
Si Si4 0.125695 0.284930 0.829072
Si Si5 0.466245 0.733542 0.290271
Si Si6 0.860560 0.190443 0.106551
Si Si7 0.012716 0.004817 0.665560
Si Si8 0.241045 0.828953 0.665611
O O1 0.662147 0.649819 0.832922
O O2 0.626902 0.575076 0.599725
O O3 0.855343 0.802316 0.729025
O O4 0.798259 0.062744 0.521617
O O5 0.500000 0.500000 0.000000
O O6 0.261417 0.360355 0.885065
O O7 0.497358 0.804819 0.876816
O O8 0.641151 0.262785 0.777126
O O9 0.748088 0.091833 0.981208
O O10 0.542315 0.879727 0.110837
O O11 0.170409 0.539371 0.763043
O O12 0.087042 0.246696 0.669444
O O13 0.000000 0.000000 0.000000
O O14 0.590355 0.927762 0.362213
O O15 0.905955 0.056571 0.213958
O O16 0.803099 0.165900 0.224004
O O17 0.000000 0.500000 0.000000
O O18 0.000000 0.000000 0.500000
#
# Coordination Sequence:
#
# PCOD9056413 Si02
#       8
#     2   2   2   2   2   2   2   2
#     4  11  23  43  69 100 144 187 230 297 363 420
#     4  11  23  44  71 100 137 186 244 292 357 425
#     4   9  18  35  64  99 130 172 235 291 334 413
#     4  12  25  46  75 102 146 190 240 303 360 424
#     4   9  18  36  67  95 132 176 229 286 350 414
#     4  11  22  38  68 104 136 184 248 285 343 432
#     4  12  25  46  65 101 145 190 235 292 360 429
#     4  11  23  42  67 104 140 185 235 292 367 422
#
# _framework density 21.545819000000002
#
# number of rings (size 3 to 8) (size 9 to 14) (size 15 to 20)
#    0.000    1.250    3.750    2.625    1.750    0.500 
#    2.250    1.875    0.000    0.000    0.000    0.000 
#    0.000    0.000    0.000    0.000    0.000    0.000 
#
# Total GULP energy -89144.880306 kJ/mol
# GULP energy per Si atom -5571.555019 kJ/mol
# Density = 2.149678 g / cm^3
# Si number density = 21.545819 Si / 1000 Ang^3
#
#
#
# Elastic Constant Matrix: (Units=GPa)
#
#
# Indices 1 2 3 4 5 6 
#
# 1 154.7380 49.1781 36.3287 -2.3927 15.6628 17.3954
# 2 49.1781 134.8381 33.6090 -3.2317 12.6879 10.0782
# 3 36.3287 33.6090 51.6182 -13.1214 14.7290 -3.0578
# 4 -2.3927 -3.2317 -13.1214 29.5444 -7.0100 7.4732
# 5 15.6628 12.6879 14.7290 -7.0100 34.5390 0.4880
# 6 17.3954 10.0782 -3.0578 7.4732 0.4880 42.8786
#
#
#
# Elastic Compliance Matrix: (Units=1/GPa)
#
#
# Indices 1 2 3 4 5 6 
#
# 1 0.008662 -0.001508 -0.005250 -0.001282 -0.001349 -0.003295
# 2 -0.001508 0.009459 -0.005285 -0.001163 -0.000748 -0.001777
# 3 -0.005250 -0.005285 0.031354 0.010270 -0.007019 0.003898
# 4 -0.001282 -0.001163 0.010270 0.040787 0.004986 -0.005640
# 5 -0.001349 -0.000748 -0.007019 0.004986 0.033859 -0.001032
# 6 -0.003295 -0.001777 0.003898 -0.005640 -0.001032 0.026349
#
#
# Mechanical properties :
#
#
# Convention : Reuss Voigt Hill
#
# Bulk Modulus (GPa) = 39.38899 64.38063 51.88481
# Shear Modulus (GPa) = 27.31971 36.19765 31.75868
#
# Velocity S-wave (km/s) = 3.56474 4.10326 3.84344
# Velocity P-wave (km/s) = 5.93838 7.23842 6.62039
#
# Compressibility (1/GPa) = 0.02538780
#
# Stress axis : x y z
#
# Youngs Moduli (GPa) = 115.45289 105.72058 31.89423
#
# Poissons Ratio (x) = 0.15941 0.16746
# Poissons Ratio (y) = 0.17409 0.16856
# Poissons Ratio (z) = 0.60617 0.55872
#
# Static dielectric constant tensor:
#      x y z
#    x 1.882660 -0.042520 0.045260 
#    y -0.042520 1.855330 0.013400 
#    z 0.045260 0.013400 1.820430 
# 
# From -- ./inp_files/446812.got.cif
#   From: 2010.05.17/outbox.cif.g08.bks.cpg/sg2_224_cif.got.tgz:446812.got - 2010.06.03 11:33:40.
