data_PCOD9056989
_publ_section_title
;
Structure prediction by ZEFSAII (Michael W. Deem and Ramdas Pophale) SiO2 
 PCOD9056989
Probable space group: P -1
;
_chemical_formula_sum "Si O2"
_cell_formula_units_Z 16
_cell_length_a 22.960055
_cell_length_b 7.342169
_cell_length_c 17.851992
_cell_angle_alpha 64.098724
_cell_angle_beta 163.114284
_cell_angle_gamma 117.772147
_cell_volume 772.957214
_symmetry_space_group_name_H-M "P -1"
_symmetry_group_IT_number 2
_symmetry_cell_setting 'triclinic'
loop_
_space_group_symop_operation_xyz
x,y,z
-x,-y,-z
loop_
_atom_site_type_symbol
_atom_site_label
_atom_site_fract_x
_atom_site_fract_y
_atom_site_fract_z
Si Si1 0.206591 0.441535 0.236543
Si Si2 0.198397 0.429959 0.718341
Si Si3 0.897909 0.654396 0.558005
Si Si4 0.578697 0.798397 0.612038
Si Si5 0.023611 0.309364 0.878077
Si Si6 0.339181 0.055097 0.480193
Si Si7 0.694058 0.020753 0.034259
Si Si8 0.508950 0.810012 0.099625
O O1 0.413977 0.604995 0.470366
O O2 0.233718 0.235741 0.351762
O O3 0.000000 0.500000 0.000000
O O4 0.154136 0.422938 0.086701
O O5 0.239454 0.199840 0.828840
O O6 0.378290 0.601979 0.941368
O O7 0.000000 0.500000 0.500000
O O8 0.817846 0.573015 0.391612
O O9 0.944904 0.463577 0.697827
O O10 0.737830 0.764437 0.386439
O O11 0.104120 0.818407 0.768182
O O12 0.590303 0.829758 0.530980
O O13 0.500000 0.000000 0.500000
O O14 0.800798 0.800296 0.920718
O O15 0.836782 0.143928 0.709984
O O16 0.525072 0.000393 0.764949
O O17 0.411655 0.880175 0.043752
O O18 0.500000 0.000000 0.000000
#
# Coordination Sequence:
#
# PCOD9056989 Si02
#       8
#     2   2   2   2   2   2   2   2
#     4  11  22  41  67  96 132 172 217 273 329 400
#     4  12  25  47  72 101 140 183 229 290 348 409
#     4  12  25  46  70 101 141 178 235 285 346 416
#     4  11  22  43  68  96 134 177 221 273 341 404
#     4  11  24  42  66  98 131 174 219 277 338 403
#     4  11  24  43  66  97 135 171 222 277 336 405
#     4  12  26  48  69 104 141 181 234 288 344 417
#     4  12  26  45  74  99 138 186 230 286 354 409
#
# _framework density 20.699722999999999
#
# number of rings (size 3 to 8) (size 9 to 14) (size 15 to 20)
#    0.000    0.500    2.500    8.250    3.500    1.000 
#    6.750    0.000    0.000    0.000    0.000    0.000 
#    0.000    0.000    0.000    0.000    0.000    0.000 
#
# Total GULP energy -89312.604331 kJ/mol
# GULP energy per Si atom -5582.037771 kJ/mol
# Density = 2.065261 g / cm^3
# Si number density = 20.699723 Si / 1000 Ang^3
#
#
#
# Elastic Constant Matrix: (Units=GPa)
#
#
# Indices 1 2 3 4 5 6 
#
# 1 41.8580 23.0133 36.7946 -13.7314 11.0067 2.7046
# 2 23.0133 97.7749 29.0229 -18.7775 5.6744 6.4445
# 3 36.7946 29.0229 128.2366 -22.7230 18.9413 3.6576
# 4 -13.7314 -18.7775 -22.7230 57.4387 4.9828 0.8559
# 5 11.0067 5.6744 18.9413 4.9828 37.8782 -6.2185
# 6 2.7046 6.4445 3.6576 0.8559 -6.2185 26.7863
#
#
#
# Elastic Compliance Matrix: (Units=1/GPa)
#
#
# Indices 1 2 3 4 5 6 
#
# 1 0.036909 -0.004866 -0.007390 0.005014 -0.007527 -0.003454
# 2 -0.004866 0.012329 -0.000711 0.002701 -0.000871 -0.002666
# 3 -0.007390 -0.000711 0.011213 0.002807 -0.003990 -0.001630
# 4 0.005014 0.002701 0.002807 0.021237 -0.006678 -0.003768
# 5 -0.007527 -0.000871 -0.003990 -0.006678 0.033138 0.009421
# 6 -0.003454 -0.002666 -0.001630 -0.003768 0.009421 0.040853
#
#
# Mechanical properties :
#
#
# Convention : Reuss Voigt Hill
#
# Bulk Modulus (GPa) = 28.97183 49.50344 39.23764
# Shear Modulus (GPa) = 25.89075 36.35655 31.12365
#
# Velocity S-wave (km/s) = 3.54047 4.19546 3.88181
# Velocity P-wave (km/s) = 5.54435 6.88739 6.25204
#
# Compressibility (1/GPa) = 0.03451628
#
# Stress axis : x y z
#
# Youngs Moduli (GPa) = 27.09355 81.10983 89.18525
#
# Poissons Ratio (x) = 0.39470 0.65909
# Poissons Ratio (y) = 0.13184 0.06339
# Poissons Ratio (z) = 0.20023 0.05765
#
# Static dielectric constant tensor:
#      x y z
#    x 1.697500 -0.065970 -0.036930 
#    y -0.065970 1.753540 -0.003450 
#    z -0.036930 -0.003450 1.669570 
# 
# From -- ./inp_files/614491.got.cif
#   From: 2010.05.17/outbox.cif.g08.bks.cpg/sg2_308_cif.got.tgz:614491.got - 2010.06.03 11:33:40.
