data_PCOD9056455
_publ_section_title
;
Structure prediction by ZEFSAII (Michael W. Deem and Ramdas Pophale) SiO2 
 PCOD9056455
Probable space group: P -1
;
_chemical_formula_sum "Si O2"
_cell_formula_units_Z 16
_cell_length_a 9.065919
_cell_length_b 11.988612
_cell_length_c 14.962312
_cell_angle_alpha 133.649047
_cell_angle_beta 68.254017
_cell_angle_gamma 140.135020
_cell_volume 708.355968
_symmetry_space_group_name_H-M "P -1"
_symmetry_group_IT_number 2
_symmetry_cell_setting 'triclinic'
loop_
_space_group_symop_operation_xyz
x,y,z
-x,-y,-z
loop_
_atom_site_type_symbol
_atom_site_label
_atom_site_fract_x
_atom_site_fract_y
_atom_site_fract_z
Si Si1 0.267264 0.500603 0.118361
Si Si2 0.375954 0.827090 0.018307
Si Si3 0.232387 0.572765 0.601090
Si Si4 0.885784 0.186775 0.317747
Si Si5 0.967619 0.368129 0.741592
Si Si6 0.773023 0.009881 0.720660
Si Si7 0.737208 0.744167 0.170342
Si Si8 0.892228 0.087446 0.084041
O O1 0.469597 0.573099 0.177839
O O2 0.253823 0.672670 0.224446
O O3 0.991051 0.253016 0.069487
O O4 0.293710 0.430167 0.980554
O O5 0.274016 0.877506 0.139618
O O6 0.602172 0.898601 0.050066
O O7 0.165552 0.560929 0.880092
O O8 0.500000 0.000000 0.000000
O O9 0.248443 0.752998 0.647195
O O10 0.104718 0.480017 0.676800
O O11 0.055531 0.344874 0.451141
O O12 0.514647 0.730211 0.629747
O O13 0.025333 0.259476 0.234443
O O14 0.755919 0.924559 0.215396
O O15 0.845884 0.120903 0.666466
O O16 0.009690 0.091409 0.745356
O O17 0.000000 0.000000 0.000000
#
# Coordination Sequence:
#
# PCOD9056455 Si02
#       8
#     2   2   2   2   2   2   2   2
#     4  11  22  39  61 102 135 164 216 271 342 393
#     4  12  21  40  66 100 137 170 219 272 335 399
#     4  11  25  47  70  93 129 185 227 271 324 397
#     4  11  23  46  68  94 130 175 228 272 331 394
#     4  12  24  41  70 101 132 177 222 272 331 406
#     4  12  24  43  67 101 137 174 223 275 332 395
#     4  11  25  39  64 100 138 169 211 284 338 391
#     4  12  23  38  69 100 129 170 213 279 339 384
#
# _framework density 22.587513999999999
#
# number of rings (size 3 to 8) (size 9 to 14) (size 15 to 20)
#    0.000    0.500    7.500    1.125    1.750    0.500 
#    2.250    2.500    0.000    0.000    0.000    0.000 
#    0.000    0.000    0.000    0.000    0.000    0.000 
#
# Total GULP energy -89183.939742 kJ/mol
# GULP energy per Si atom -5573.996234 kJ/mol
# Density = 2.253610 g / cm^3
# Si number density = 22.587514 Si / 1000 Ang^3
#
#
#
# Elastic Constant Matrix: (Units=GPa)
#
#
# Indices 1 2 3 4 5 6 
#
# 1 140.6903 43.7172 20.3013 -7.0190 13.4112 25.3361
# 2 43.7172 108.8181 11.8015 -0.5559 10.7893 8.0992
# 3 20.3013 11.8015 79.8535 -2.8700 19.4640 5.6271
# 4 -7.0190 -0.5559 -2.8700 11.6123 -7.9146 -0.9742
# 5 13.4112 10.7893 19.4640 -7.9146 26.1015 9.6488
# 6 25.3361 8.0992 5.6271 -0.9742 9.6488 41.0080
#
#
#
# Elastic Compliance Matrix: (Units=1/GPa)
#
#
# Indices 1 2 3 4 5 6 
#
# 1 0.009469 -0.003347 -0.001687 0.005668 0.001400 -0.005152
# 2 -0.003347 0.010885 0.000132 -0.004509 -0.004566 0.000867
# 3 -0.001687 0.000132 0.015897 -0.006213 -0.013626 0.001893
# 4 0.005668 -0.004509 -0.006213 0.115620 0.041924 -0.008877
# 5 0.001400 -0.004566 -0.013626 0.041924 0.067118 -0.012890
# 6 -0.005152 0.000867 0.001893 -0.008877 -0.012890 0.029959
#
#
# Mechanical properties :
#
#
# Convention : Reuss Voigt Hill
#
# Bulk Modulus (GPa) = 37.81280 53.44466 45.62873
# Shear Modulus (GPa) = 18.68685 32.64717 25.66701
#
# Velocity S-wave (km/s) = 2.87942 3.80592 3.37462
# Velocity P-wave (km/s) = 5.27557 6.55941 5.95221
#
# Compressibility (1/GPa) = 0.02644607
#
# Stress axis : x y z
#
# Youngs Moduli (GPa) = 105.61326 91.86763 62.90560
#
# Poissons Ratio (x) = 0.30751 0.10612
# Poissons Ratio (y) = 0.35353 -0.00831
# Poissons Ratio (z) = 0.17816 -0.01213
#
# Static dielectric constant tensor:
#      x y z
#    x 1.846880 -0.076480 0.020490 
#    y -0.076480 1.955940 0.047080 
#    z 0.020490 0.047080 1.826640 
# 
# From -- ./inp_files/464900.got.cif
#   From: 2010.05.17/outbox.cif.g08.bks.cpg/sg2_233_cif.got.tgz:464900.got - 2010.06.03 11:33:40.
