data_PCOD9056171
_publ_section_title
;
Structure prediction by ZEFSAII (Michael W. Deem and Ramdas Pophale) SiO2 
 PCOD9056171
Probable space group: P -1
;
_chemical_formula_sum "Si O2"
_cell_formula_units_Z 16
_cell_length_a 8.078365
_cell_length_b 11.360992
_cell_length_c 14.933054
_cell_angle_alpha 58.666113
_cell_angle_beta 139.622569
_cell_angle_gamma 141.786192
_cell_volume 538.579113
_symmetry_space_group_name_H-M "P -1"
_symmetry_group_IT_number 2
_symmetry_cell_setting 'triclinic'
loop_
_space_group_symop_operation_xyz
x,y,z
-x,-y,-z
loop_
_atom_site_type_symbol
_atom_site_label
_atom_site_fract_x
_atom_site_fract_y
_atom_site_fract_z
Si Si1 0.333118 0.863342 0.832689
Si Si2 0.465301 0.467490 0.102575
Si Si3 0.784465 0.635242 0.331545
Si Si4 0.284454 0.169904 0.346365
Si Si5 0.929992 0.253201 0.413871
Si Si6 0.565414 0.291518 0.598177
Si Si7 0.159220 0.590673 0.153637
Si Si8 0.066933 0.049587 0.115743
O O1 0.082876 0.893280 0.748700
O O2 0.380413 0.885874 0.733435
O O3 0.094175 0.634773 0.837070
O O4 0.673517 0.972370 0.993530
O O5 0.106394 0.411456 0.009157
O O6 0.385320 0.279883 0.153522
O O7 0.500000 0.500000 0.000000
O O8 0.806655 0.643973 0.229941
O O9 0.557532 0.404819 0.345985
O O10 0.097458 0.757773 0.485263
O O11 0.513742 0.657167 0.234053
O O12 0.448147 0.171646 0.506141
O O13 0.167561 0.035516 0.264615
O O14 0.214033 0.242092 0.507203
O O15 0.150065 0.479072 0.398919
O O16 0.724328 0.286067 0.756140
O O17 0.000000 0.000000 0.000000
#
# Coordination Sequence:
#
# PCOD9056171 Si02
#       8
#     2   2   2   2   2   2   2   2
#     4   9  16  30  54  78  96 116 149 196 244 284
#     4  11  22  34  47  66  97 132 163 194 229 275
#     4   8  15  29  51  76  96 119 155 195 233 277
#     4   8  15  29  51  76  96 119 155 195 233 277
#     4   7  11  23  47  76  97 113 144 192 237 277
#     4   7  11  23  47  76  97 113 144 192 237 277
#     4   9  16  30  54  78  96 116 149 196 244 284
#     4  11  22  34  47  66  97 132 163 194 229 275
#
# _framework density 29.707799000000001
#
# number of rings (size 3 to 8) (size 9 to 14) (size 15 to 20)
#    0.000    3.250    0.000    4.500    0.000    0.000 
#    0.000    2.500    0.000   17.250    0.000    0.000 
#    0.000    0.000    0.000    0.000    0.000    0.000 
#
# Total GULP energy -89406.216706 kJ/mol
# GULP energy per Si atom -5587.888544 kJ/mol
# Density = 2.964018 g / cm^3
# Si number density = 29.707799 Si / 1000 Ang^3
#
#
#
# Elastic Constant Matrix: (Units=GPa)
#
#
# Indices 1 2 3 4 5 6 
#
# 1 92.8944 17.6080 69.5210 15.4759 -26.8892 -14.4057
# 2 17.6080 105.3302 17.2163 36.8761 -19.5783 -19.9286
# 3 69.5210 17.2163 311.0111 55.1031 -35.2707 -12.5338
# 4 15.4759 36.8761 55.1031 36.6687 -13.7415 -8.1309
# 5 -26.8892 -19.5783 -35.2707 -13.7415 76.9722 2.1046
# 6 -14.4057 -19.9286 -12.5338 -8.1309 2.1046 24.5874
#
#
#
# Elastic Compliance Matrix: (Units=1/GPa)
#
#
# Indices 1 2 3 4 5 6 
#
# 1 0.014966 -0.000507 -0.002862 0.001509 0.003864 0.007067
# 2 -0.000507 0.018310 0.003316 -0.020320 0.002117 0.009333
# 3 -0.002862 0.003316 0.005554 -0.010167 0.000562 0.000432
# 4 0.001509 -0.020320 -0.010167 0.063064 0.001961 -0.000082
# 5 0.003864 0.002117 0.000562 0.001961 0.015389 0.003597
# 6 0.007067 0.009333 0.000432 -0.000082 0.003597 0.052262
#
#
# Mechanical properties :
#
#
# Convention : Reuss Voigt Hill
#
# Bulk Modulus (GPa) = 25.82347 79.76960 52.79653
# Shear Modulus (GPa) = 27.38865 54.63836 41.01351
#
# Velocity S-wave (km/s) = 3.03963 4.29323 3.71962
# Velocity P-wave (km/s) = 4.58590 7.17534 6.02146
#
# Compressibility (1/GPa) = 0.03872447
#
# Stress axis : x y z
#
# Youngs Moduli (GPa) = 66.82011 54.61477 180.05641
#
# Poissons Ratio (x) = 0.02769 0.51524
# Poissons Ratio (y) = 0.03388 -0.59710
# Poissons Ratio (z) = 0.19121 -0.18111
#
# Static dielectric constant tensor:
#      x y z
#    x 2.522900 0.098650 -0.077220 
#    y 0.098650 2.469890 -0.201660 
#    z -0.077220 -0.201660 2.411380 
# 
# From -- ./inp_files/175165.got.cif
#   From: 2010.05.17/outbox.cif.g08.bks.cpg/sg2_88_cif.got.tgz:175165.got - 2010.06.03 11:33:40.
