data_PCOD9056614
_publ_section_title
;
Structure prediction by ZEFSAII (Michael W. Deem and Ramdas Pophale) SiO2 
 PCOD9056614
Probable space group: P -1
;
_chemical_formula_sum "Si O2"
_cell_formula_units_Z 14
_cell_length_a 6.235731
_cell_length_b 8.096016
_cell_length_c 12.946709
_cell_angle_alpha 108.620545
_cell_angle_beta 102.258105
_cell_angle_gamma 57.329415
_cell_volume 520.745116
_symmetry_space_group_name_H-M "P -1"
_symmetry_group_IT_number 2
_symmetry_cell_setting 'triclinic'
loop_
_space_group_symop_operation_xyz
x,y,z
-x,-y,-z
loop_
_atom_site_type_symbol
_atom_site_label
_atom_site_fract_x
_atom_site_fract_y
_atom_site_fract_z
Si Si1 0.906431 0.537296 0.775898
Si Si2 0.585156 0.744294 0.531069
Si Si3 0.455209 0.551775 0.681192
Si Si4 0.554546 0.021219 0.833206
Si Si5 0.852151 0.875578 0.354214
Si Si6 0.711080 0.571762 0.036637
Si Si7 0.078198 0.098128 0.324089
O O1 0.677597 0.493637 0.776506
O O2 0.737037 0.780854 0.815663
O O3 0.012045 0.362419 0.662042
O O4 0.169615 0.477978 0.846224
O O5 0.527074 0.645481 0.606592
O O6 0.572198 0.626525 0.407556
O O7 0.833464 0.755956 0.586183
O O8 0.367243 0.979642 0.562768
O O9 0.185245 0.738574 0.724330
O O10 0.717674 0.053010 0.767568
O O11 0.291029 0.075288 0.761687
O O12 0.466572 0.184332 0.947086
O O13 0.031700 0.968102 0.376684
O O14 0.500000 0.500000 0.000000
O O15 0.000000 0.500000 0.000000
#
# Coordination Sequence:
#
# PCOD9056614 Si02
#       7
#     2   2   2   2   2   2   2
#     4  11  22  43  68  96 126 179 221 266 338 413
#     4   9  18  35  56  89 139 173 219 278 319 365
#     4  10  19  34  60  95 127 178 224 269 319 390
#     4  10  22  43  68  96 129 171 215 270 336 406
#     4   9  20  37  58  92 134 176 216 278 319 382
#     4  11  29  50  74 104 138 168 216 289 351 408
#     4  10  17  36  62  91 132 176 218 271 328 379
#
# _framework density 26.884554000000001
#
# number of rings (size 3 to 8) (size 9 to 14) (size 15 to 20)
#    0.000    2.000    4.286    0.429    4.000    2.857 
#    5.143    0.714    0.000    0.000    0.000    0.000 
#    0.000    0.000    0.000    0.000    0.000    0.000 
#
# Total GULP energy -77955.015697 kJ/mol
# GULP energy per Si atom -5568.215407 kJ/mol
# Density = 2.682336 g / cm^3
# Si number density = 26.884554 Si / 1000 Ang^3
#
#
#
# Elastic Constant Matrix: (Units=GPa)
#
#
# Indices 1 2 3 4 5 6 
#
# 1 173.3960 45.6877 65.0391 20.6556 22.7129 -3.2427
# 2 45.6877 169.7994 38.5778 50.8274 7.9780 -14.7123
# 3 65.0391 38.5778 58.3097 34.4960 24.7591 -2.6651
# 4 20.6556 50.8274 34.4960 49.2083 -6.7832 6.2956
# 5 22.7129 7.9780 24.7591 -6.7832 48.5945 -13.9473
# 6 -3.2427 -14.7123 -2.6651 6.2956 -13.9473 50.6924
#
#
#
# Elastic Compliance Matrix: (Units=1/GPa)
#
#
# Indices 1 2 3 4 5 6 
#
# 1 0.015070 -0.004316 -0.034668 0.024575 0.014415 -0.001197
# 2 -0.004316 0.010849 0.013545 -0.020540 -0.008438 0.003814
# 3 -0.034668 0.013545 0.144296 -0.111175 -0.074293 0.002666
# 4 0.024575 -0.020540 -0.111175 0.118813 0.062911 -0.007681
# 5 0.014415 -0.008438 -0.074293 0.062911 0.063036 0.004098
# 6 -0.001197 0.003814 0.002666 -0.007681 0.004098 0.022979
#
#
# Mechanical properties :
#
#
# Convention : Reuss Voigt Hill
#
# Bulk Modulus (GPa) = 8.37959 77.79049 43.08504
# Shear Modulus (GPa) = 10.73653 46.51240 28.62447
#
# Velocity S-wave (km/s) = 2.00056 4.16393 3.26654
# Velocity P-wave (km/s) = 2.90860 7.21912 5.50343
#
# Compressibility (1/GPa) = 0.11933759
#
# Stress axis : x y z
#
# Youngs Moduli (GPa) = 66.35787 92.17807 6.93018
#
# Poissons Ratio (x) = 0.39781 0.24026
# Poissons Ratio (y) = 0.28638 -0.09387
# Poissons Ratio (z) = 2.30050 -1.24857
#
# Static dielectric constant tensor:
#      x y z
#    x 2.207740 0.080910 -0.035700 
#    y 0.080910 2.263040 -0.145320 
#    z -0.035700 -0.145320 2.276250 
# 
# From -- ./inp_files/547503.got.cif
#   From: 2010.05.17/outbox.cif.g08.bks.cpg/sg2_274_cif.got.tgz:547503.got - 2010.06.03 11:33:40.
