data_PCOD9056017
_publ_section_title
;
Structure prediction by ZEFSAII (Michael W. Deem and Ramdas Pophale) SiO2 
 PCOD9056017
Probable space group: P -1
;
_chemical_formula_sum "Si O2"
_cell_formula_units_Z 16
_cell_length_a 8.324867
_cell_length_b 23.679621
_cell_length_c 6.346543
_cell_angle_alpha 45.559672
_cell_angle_beta 62.259269
_cell_angle_gamma 52.041677
_cell_volume 702.946628
_symmetry_space_group_name_H-M "P -1"
_symmetry_group_IT_number 2
_symmetry_cell_setting 'triclinic'
loop_
_space_group_symop_operation_xyz
x,y,z
-x,-y,-z
loop_
_atom_site_type_symbol
_atom_site_label
_atom_site_fract_x
_atom_site_fract_y
_atom_site_fract_z
Si Si1 0.314957 0.322011 0.717855
Si Si2 0.986083 0.345149 0.143416
Si Si3 0.670766 0.966579 0.169384
Si Si4 0.062502 0.566257 0.650712
Si Si5 0.984222 0.829932 0.601266
Si Si6 0.332790 0.860865 0.084762
Si Si7 0.350277 0.489863 0.293134
Si Si8 0.042996 0.901864 0.800159
O O1 0.462332 0.228337 0.774825
O O2 0.418070 0.385888 0.518302
O O3 0.126216 0.376198 0.536054
O O4 0.220229 0.314299 0.019027
O O5 0.939734 0.270926 0.256678
O O6 0.930565 0.362833 0.373850
O O7 0.862334 0.442276 0.862577
O O8 0.874968 0.921487 0.026840
O O9 0.647776 0.052592 0.085891
O O10 0.749989 0.889200 0.505356
O O11 0.500000 0.000000 0.000000
O O12 0.273095 0.519140 0.508792
O O13 0.000000 0.500000 0.000000
O O14 0.149028 0.860816 0.334558
O O15 0.001652 0.844811 0.798230
O O16 0.262021 0.860737 0.887010
O O17 0.500000 0.500000 0.000000
O O18 0.000000 0.000000 0.500000
#
# Coordination Sequence:
#
# PCOD9056017 Si02
#       8
#     2   2   2   2   2   2   2   2
#     4  11  24  41  66 101 137 174 234 289 351 422
#     4  11  24  42  67  99 135 181 230 289 353 421
#     4  11  25  40  64 100 134 175 231 290 352 423
#     4  11  21  45  70  96 141 190 225 288 363 418
#     4  11  24  44  66  96 137 178 235 291 351 420
#     4  11  24  42  65  98 137 178 233 293 351 422
#     4  11  23  43  68 100 139 180 235 289 346 428
#     4  11  21  45  68  88 134 187 226 289 357 408
#
# _framework density 22.761330999999998
#
# number of rings (size 3 to 8) (size 9 to 14) (size 15 to 20)
#    0.000    1.000    5.000    2.250    3.500    6.000 
#    0.000    0.000    0.000    0.000    0.000    0.000 
#    0.000    0.000    0.000    0.000    0.000    0.000 
#
# Total GULP energy -89104.902986 kJ/mol
# GULP energy per Si atom -5569.056437 kJ/mol
# Density = 2.270952 g / cm^3
# Si number density = 22.761331 Si / 1000 Ang^3
#
#
#
# Elastic Constant Matrix: (Units=GPa)
#
#
# Indices 1 2 3 4 5 6 
#
# 1 68.1867 39.3973 20.8677 7.0452 16.9135 4.7139
# 2 39.3973 160.3869 39.7318 14.4762 10.0217 22.2237
# 3 20.8677 39.7318 60.3549 18.7019 4.3576 8.1850
# 4 7.0452 14.4762 18.7019 44.3428 -4.4485 0.9933
# 5 16.9135 10.0217 4.3576 -4.4485 33.0616 -1.2981
# 6 4.7139 22.2237 8.1850 0.9933 -1.2981 49.3601
#
#
#
# Elastic Compliance Matrix: (Units=1/GPa)
#
#
# Indices 1 2 3 4 5 6 
#
# 1 0.020089 -0.003336 -0.003644 -0.001467 -0.008984 -0.000019
# 2 -0.003336 0.008488 -0.003810 -0.000626 -0.000561 -0.002873
# 3 -0.003644 -0.003810 0.023127 -0.008012 -0.001171 -0.001641
# 4 -0.001467 -0.000626 -0.008012 0.026906 0.005670 0.001358
# 5 -0.008984 -0.000561 -0.001171 0.005670 0.036014 0.002138
# 6 -0.000019 -0.002873 -0.001641 0.001358 0.002138 0.021856
#
#
# Mechanical properties :
#
#
# Convention : Reuss Voigt Hill
#
# Bulk Modulus (GPa) = 33.19647 54.32469 43.76058
# Shear Modulus (GPa) = 29.74397 37.94834 33.84616
#
# Velocity S-wave (km/s) = 3.61886 4.08760 3.86035
# Velocity P-wave (km/s) = 5.66372 6.79683 6.25598
#
# Compressibility (1/GPa) = 0.03012368
#
# Stress axis : x y z
#
# Youngs Moduli (GPa) = 49.77732 117.81554 43.24036
#
# Poissons Ratio (x) = 0.39298 0.15759
# Poissons Ratio (y) = 0.16603 0.16475
# Poissons Ratio (z) = 0.18141 0.44889
#
# Static dielectric constant tensor:
#      x y z
#    x 1.979600 0.019140 0.067010 
#    y 0.019140 1.829080 0.066400 
#    z 0.067010 0.066400 1.968960 
# 
# From -- ./inp_files/52429.got.cif
#   From: 2010.05.17/outbox.cif.g08.bks.cpg/sg2_27_cif.got.tgz:52429.got - 2010.06.03 11:33:40.
