data_PCOD9056731
_publ_section_title
;
Structure prediction by ZEFSAII (Michael W. Deem and Ramdas Pophale) SiO2 
 PCOD9056731
Probable space group: P -1
;
_chemical_formula_sum "Si O2"
_cell_formula_units_Z 16
_cell_length_a 9.487990
_cell_length_b 11.980605
_cell_length_c 11.289070
_cell_angle_alpha 50.044746
_cell_angle_beta 56.335955
_cell_angle_gamma 73.724067
_cell_volume 812.924753
_symmetry_space_group_name_H-M "P -1"
_symmetry_group_IT_number 2
_symmetry_cell_setting 'triclinic'
loop_
_space_group_symop_operation_xyz
x,y,z
-x,-y,-z
loop_
_atom_site_type_symbol
_atom_site_label
_atom_site_fract_x
_atom_site_fract_y
_atom_site_fract_z
Si Si1 0.584773 0.094849 0.564999
Si Si2 0.734394 0.876021 0.477666
Si Si3 0.278577 0.604644 0.579390
Si Si4 0.032336 0.869688 0.161240
Si Si5 0.016390 0.550129 0.321282
Si Si6 0.479860 0.405124 0.754944
Si Si7 0.440881 0.898143 0.985826
Si Si8 0.639533 0.552883 0.802663
O O1 0.420144 0.127847 0.543027
O O2 0.681397 0.242875 0.474762
O O3 0.708543 0.012747 0.479907
O O4 0.511277 0.983429 0.778018
O O5 0.705830 0.723699 0.666134
O O6 0.914100 0.883482 0.321419
O O7 0.313636 0.470112 0.740150
O O8 0.408181 0.611285 0.403146
O O9 0.098460 0.562786 0.630259
O O10 0.969712 0.714843 0.232564
O O11 0.233601 0.870518 0.095924
O O12 0.000000 0.000000 0.000000
O O13 0.207923 0.546168 0.192697
O O14 0.000000 0.500000 0.500000
O O15 0.568814 0.525985 0.720976
O O16 0.477603 0.252901 0.929249
O O17 0.500000 0.000000 0.000000
O O18 0.500000 0.500000 0.000000
#
# Coordination Sequence:
#
# PCOD9056731 Si02
#       8
#     2   2   2   2   2   2   2   2
#     4  11  24  43  69  99 139 183 223 276 348 403
#     4  11  24  44  70  98 139 183 225 282 342 408
#     4  11  23  42  71  99 132 180 231 281 336 402
#     4  12  25  42  70 105 132 175 233 278 338 400
#     4  12  24  44  72  99 133 177 230 285 331 402
#     4  11  22  40  67  98 132 173 229 277 335 398
#     4  12  24  40  67 103 137 172 226 282 334 410
#     4  12  24  43  71 101 137 181 228 278 345 409
#
# _framework density 19.682016999999998
#
# number of rings (size 3 to 8) (size 9 to 14) (size 15 to 20)
#    0.000    0.500    7.500    0.750    3.500    0.000 
#    0.000    4.375    0.000    0.000    0.000    0.000 
#    0.000    0.000    0.000    0.000    0.000    0.000 
#
# Total GULP energy -89409.208492 kJ/mol
# GULP energy per Si atom -5588.075531 kJ/mol
# Density = 1.963722 g / cm^3
# Si number density = 19.682017 Si / 1000 Ang^3
#
#
#
# Elastic Constant Matrix: (Units=GPa)
#
#
# Indices 1 2 3 4 5 6 
#
# 1 84.3051 51.0564 30.6229 0.7536 -4.7219 11.1370
# 2 51.0564 136.0177 66.7033 4.9185 2.3638 7.2620
# 3 30.6229 66.7033 116.2137 -2.2326 2.0908 -15.3210
# 4 0.7536 4.9185 -2.2326 33.1021 -12.0412 2.1533
# 5 -4.7219 2.3638 2.0908 -12.0412 25.3288 -9.0250
# 6 11.1370 7.2620 -15.3210 2.1533 -9.0250 37.1341
#
#
#
# Elastic Compliance Matrix: (Units=1/GPa)
#
#
# Indices 1 2 3 4 5 6 
#
# 1 0.016331 -0.005060 -0.001960 0.001599 0.002983 -0.004085
# 2 -0.005060 0.013072 -0.006793 -0.003848 -0.005169 -0.004875
# 3 -0.001960 -0.006793 0.014120 0.002688 0.003376 0.008407
# 4 0.001599 -0.003848 0.002688 0.037898 0.019883 0.004017
# 5 0.002983 -0.005169 0.003376 0.019883 0.054543 0.013612
# 6 -0.004085 -0.004875 0.008407 0.004017 0.013612 0.035652
#
#
# Mechanical properties :
#
#
# Convention : Reuss Voigt Hill
#
# Bulk Modulus (GPa) = 62.91264 70.36686 66.63975
# Shear Modulus (GPa) = 24.44506 31.65658 28.05082
#
# Velocity S-wave (km/s) = 3.52803 4.01484 3.77928
# Velocity P-wave (km/s) = 6.97351 7.57109 7.27844
#
# Compressibility (1/GPa) = 0.01589506
#
# Stress axis : x y z
#
# Youngs Moduli (GPa) = 61.23453 76.49905 70.82338
#
# Poissons Ratio (x) = 0.38710 0.13883
# Poissons Ratio (y) = 0.30986 0.48112
# Poissons Ratio (z) = 0.12003 0.51967
#
# Static dielectric constant tensor:
#      x y z
#    x 1.719740 0.002930 0.016520 
#    y 0.002930 1.703700 -0.015870 
#    z 0.016520 -0.015870 1.705190 
# 
# From -- ./inp_files/243210.got.cif
#   From: 2010.05.17/outbox.cif.g08.bks.cpg/sg2_122_cif.got.tgz:243210.got - 2010.06.03 11:33:40.
