data_PCOD9056707
_publ_section_title
;
Structure prediction by ZEFSAII (Michael W. Deem and Ramdas Pophale) SiO2 
 PCOD9056707
Probable space group: P -1
;
_chemical_formula_sum "Si O2"
_cell_formula_units_Z 16
_cell_length_a 8.808023
_cell_length_b 17.349915
_cell_length_c 11.744152
_cell_angle_alpha 137.242548
_cell_angle_beta 126.259438
_cell_angle_gamma 32.559496
_cell_volume 653.883345
_symmetry_space_group_name_H-M "P -1"
_symmetry_group_IT_number 2
_symmetry_cell_setting 'triclinic'
loop_
_space_group_symop_operation_xyz
x,y,z
-x,-y,-z
loop_
_atom_site_type_symbol
_atom_site_label
_atom_site_fract_x
_atom_site_fract_y
_atom_site_fract_z
Si Si1 0.910338 0.169228 0.158012
Si Si2 0.355535 0.449929 0.332090
Si Si3 0.114090 0.630562 0.046004
Si Si4 0.875767 0.991806 0.326783
Si Si5 0.289897 0.572084 0.822505
Si Si6 0.806196 0.976572 0.644088
Si Si7 0.813166 0.744421 0.265691
Si Si8 0.673865 0.648561 0.551838
O O1 0.577492 0.312851 0.188261
O O2 0.928006 0.251174 0.152443
O O3 0.071132 0.135498 0.307871
O O4 0.000000 0.000000 0.000000
O O5 0.500000 0.500000 0.500000
O O6 0.348807 0.367254 0.343252
O O7 0.053978 0.597710 0.300538
O O8 0.439546 0.480927 0.069369
O O9 0.916845 0.672433 0.105319
O O10 0.136159 0.581696 0.871776
O O11 0.003291 0.809886 0.179272
O O12 0.535254 0.154861 0.357630
O O13 0.000000 0.000000 0.500000
O O14 0.987181 0.016723 0.297058
O O15 0.431190 0.415814 0.632520
O O16 0.495122 0.162214 0.737294
O O17 0.789216 0.890788 0.442688
O O18 0.000000 0.500000 0.500000
#
# Coordination Sequence:
#
# PCOD9056707 Si02
#       8
#     2   2   2   2   2   2   2   2
#     4  12  24  44  69  98 129 179 228 272 329 399
#     4  12  21  44  73  93 131 178 226 271 327 396
#     4  11  23  41  69  97 134 178 216 273 332 396
#     4  12  22  41  66  96 132 172 223 263 325 400
#     4  11  23  43  68  97 138 176 220 270 341 395
#     4  11  23  40  68  98 130 167 222 278 324 390
#     4  11  22  40  67 101 128 169 221 274 330 390
#     4  12  26  43  69 104 133 173 223 278 329 394
#
# _framework density 24.469194999999999
#
# number of rings (size 3 to 8) (size 9 to 14) (size 15 to 20)
#    0.000    0.500    7.500    0.750    1.750    1.000 
#    2.250    1.875    0.000    0.000    0.000    0.000 
#    0.000    0.000    0.000    0.000    0.000    0.000 
#
# Total GULP energy -89540.138417 kJ/mol
# GULP energy per Si atom -5596.258651 kJ/mol
# Density = 2.441350 g / cm^3
# Si number density = 24.469195 Si / 1000 Ang^3
#
#
#
# Elastic Constant Matrix: (Units=GPa)
#
#
# Indices 1 2 3 4 5 6 
#
# 1 58.4679 43.4776 20.8284 -10.2342 -20.1237 -2.0989
# 2 43.4776 172.3261 16.1512 7.4272 -15.3682 -4.9767
# 3 20.8284 16.1512 66.7573 3.4524 -17.3485 9.6465
# 4 -10.2342 7.4272 3.4524 34.4580 10.0506 -8.9161
# 5 -20.1237 -15.3682 -17.3485 10.0506 41.4580 0.7492
# 6 -2.0989 -4.9767 9.6465 -8.9161 0.7492 42.9282
#
#
#
# Elastic Compliance Matrix: (Units=1/GPa)
#
#
# Indices 1 2 3 4 5 6 
#
# 1 0.028039 -0.006196 -0.006753 0.009616 0.006083 0.004061
# 2 -0.006196 0.007556 0.000632 -0.003934 0.001019 -0.000404
# 3 -0.006753 0.000632 0.020260 -0.008075 0.007511 -0.006618
# 4 0.009616 -0.003934 -0.008075 0.039009 -0.009809 0.010102
# 5 0.006083 0.001019 0.007511 -0.009809 0.033042 -0.003886
# 6 0.004061 -0.000404 -0.006618 0.010102 -0.003886 0.027100
#
#
# Mechanical properties :
#
#
# Convention : Reuss Voigt Hill
#
# Bulk Modulus (GPa) = 32.03031 50.94061 41.48546
# Shear Modulus (GPa) = 26.30949 38.24179 32.27564
#
# Velocity S-wave (km/s) = 3.28259 3.95758 3.63579
# Velocity P-wave (km/s) = 5.24268 6.46117 5.88356
#
# Compressibility (1/GPa) = 0.03122043
#
# Stress axis : x y z
#
# Youngs Moduli (GPa) = 35.66454 132.35018 49.35955
#
# Poissons Ratio (x) = 0.82004 0.33330
# Poissons Ratio (y) = 0.22098 -0.03118
# Poissons Ratio (z) = 0.24083 -0.08359
#
# Static dielectric constant tensor:
#      x y z
#    x 1.851300 -0.104810 -0.028790 
#    y -0.104810 1.837810 -0.094910 
#    z -0.028790 -0.094910 1.996260 
# 
# From -- ./inp_files/332931.got.cif
#   From: 2010.05.17/outbox.cif.g08.bks.cpg/sg2_167_cif.got.tgz:332931.got - 2010.06.03 11:33:40.
