data_PCOD9056213
_publ_section_title
;
Structure prediction by ZEFSAII (Michael W. Deem and Ramdas Pophale) SiO2 
 PCOD9056213
Probable space group: P -1
;
_chemical_formula_sum "Si O2"
_cell_formula_units_Z 16
_cell_length_a 23.157564
_cell_length_b 11.516369
_cell_length_c 9.147075
_cell_angle_alpha 142.586138
_cell_angle_beta 53.666139
_cell_angle_gamma 147.997331
_cell_volume 760.163227
_symmetry_space_group_name_H-M "P -1"
_symmetry_group_IT_number 2
_symmetry_cell_setting 'triclinic'
loop_
_space_group_symop_operation_xyz
x,y,z
-x,-y,-z
loop_
_atom_site_type_symbol
_atom_site_label
_atom_site_fract_x
_atom_site_fract_y
_atom_site_fract_z
Si Si1 0.240073 0.582715 0.299395
Si Si2 0.539655 0.858401 0.632628
Si Si3 0.099350 0.592357 0.363215
Si Si4 0.240073 0.582713 0.645815
Si Si5 0.294261 0.303874 0.442497
Si Si6 0.460344 0.141597 0.034791
Si Si7 0.099350 0.592356 0.023448
Si Si8 0.705739 0.696125 0.217532
O O1 0.135751 0.473809 0.270641
O O2 0.230411 0.569864 0.474248
O O3 0.354587 0.923561 0.414585
O O4 0.252843 0.393051 0.032942
O O5 0.423159 0.514841 0.422495
O O6 0.500000 0.999999 0.837246
O O7 0.573659 0.874468 0.763980
O O8 0.072295 0.502143 0.143701
O O9 0.000000 0.500000 0.500000
O O10 0.207725 0.953769 0.569928
O O11 0.252843 0.393050 0.494630
O O12 0.354587 0.923559 0.868774
O O13 0.135751 0.473806 0.769722
O O14 0.297946 0.377598 0.680679
O O15 0.207725 0.953768 0.214433
O O16 0.576841 0.485157 0.162289
O O17 0.000000 0.500000 0.000000
#
# Coordination Sequence:
#
# PCOD9056213 Si02
#       8
#     2   2   2   2   2   2   2   2
#     4  11  22  36  58  88 120 151 183 228 286 340
#     4   8  15  32  57  84 114 148 187 227 273 334
#     4  11  24  42  61  82 111 148 195 242 281 331
#     4  11  22  36  58  88 120 151 183 228 286 340
#     4   9  20  39  62  85 112 151 192 231 279 334
#     4   8  15  32  57  84 114 148 187 227 273 334
#     4  11  24  42  61  82 111 148 195 242 281 331
#     4   9  20  39  62  85 112 151 192 231 279 334
#
# _framework density 21.048112
#
# number of rings (size 3 to 8) (size 9 to 14) (size 15 to 20)
#    0.000    2.250    0.000    4.500    0.000    8.500 
#    0.000    5.000    0.000    0.000    0.000    0.000 
#    0.000    0.000    0.000    0.000    0.000    0.000 
#
# Total GULP energy -89450.798462 kJ/mol
# GULP energy per Si atom -5590.674904 kJ/mol
# Density = 2.100021 g / cm^3
# Si number density = 21.048112 Si / 1000 Ang^3
#
#
#
# Elastic Constant Matrix: (Units=GPa)
#
#
# Indices 1 2 3 4 5 6 
#
# 1 141.9985 24.2930 50.7335 -38.1294 11.8770 6.9282
# 2 24.2930 48.4634 21.6992 -30.9813 -2.5331 -0.0309
# 3 50.7335 21.6992 70.8214 -33.4448 6.4991 -5.8992
# 4 -38.1294 -30.9813 -33.4448 42.8731 1.2288 -1.7446
# 5 11.8770 -2.5331 6.4991 1.2288 22.8164 -5.3613
# 6 6.9282 -0.0309 -5.8992 -1.7446 -5.3613 26.9431
#
#
#
# Elastic Compliance Matrix: (Units=1/GPa)
#
#
# Indices 1 2 3 4 5 6 
#
# 1 0.011166 0.000322 -0.005023 0.006219 -0.005790 -0.004720
# 2 0.000322 0.038890 0.002023 0.030008 0.002633 0.002872
# 3 -0.005023 0.002023 0.026710 0.018252 -0.003982 0.007531
# 4 0.006219 0.030008 0.018252 0.065202 -0.007399 0.005181
# 5 -0.005790 0.002633 -0.003982 -0.007399 0.051089 0.010307
# 6 -0.004720 0.002872 0.007531 0.005181 0.010307 0.042368
#
#
# Mechanical properties :
#
#
# Convention : Reuss Voigt Hill
#
# Bulk Modulus (GPa) = 14.00353 50.52608 32.26481
# Shear Modulus (GPa) = 18.89748 29.49702 24.19725
#
# Velocity S-wave (km/s) = 2.99962 3.74760 3.39428
# Velocity P-wave (km/s) = 4.32024 6.54088 5.54291
#
# Compressibility (1/GPa) = 0.07141055
#
# Stress axis : x y z
#
# Youngs Moduli (GPa) = 89.55478 25.71341 37.43874
#
# Poissons Ratio (x) = -0.00827 0.18804
# Poissons Ratio (y) = -0.02880 -0.07573
# Poissons Ratio (z) = 0.44979 -0.05201
#
# Static dielectric constant tensor:
#      x y z
#    x 1.753210 0.010100 -0.042580 
#    y 0.010100 1.771260 0.042930 
#    z -0.042580 0.042930 1.771020 
# 
# From -- ./inp_files/353723.got.cif
#   From: 2010.05.17/outbox.cif.g08.bks.cpg/sg2_177_cif.got.tgz:353723.got - 2010.06.03 11:33:40.
