data_PCOD9056906
_publ_section_title
;
Structure prediction by ZEFSAII (Michael W. Deem and Ramdas Pophale) SiO2 
 PCOD9056906
Probable space group: P -1
;
_chemical_formula_sum "Si O2"
_cell_formula_units_Z 16
_cell_length_a 15.454932
_cell_length_b 8.734331
_cell_length_c 14.560818
_cell_angle_alpha 97.497155
_cell_angle_beta 151.891045
_cell_angle_gamma 67.661123
_cell_volume 756.108359
_symmetry_space_group_name_H-M "P -1"
_symmetry_group_IT_number 2
_symmetry_cell_setting 'triclinic'
loop_
_space_group_symop_operation_xyz
x,y,z
-x,-y,-z
loop_
_atom_site_type_symbol
_atom_site_label
_atom_site_fract_x
_atom_site_fract_y
_atom_site_fract_z
Si Si1 0.869978 0.982312 0.550738
Si Si2 0.249451 0.816207 0.214298
Si Si3 0.429319 0.873576 0.563098
Si Si4 0.572856 0.780518 0.969411
Si Si5 0.475288 0.207542 0.696587
Si Si6 0.322560 0.917167 0.921649
Si Si7 0.850548 0.471838 0.927123
Si Si8 0.993370 0.397332 0.257744
O O1 0.955734 0.770872 0.640984
O O2 0.784133 0.086387 0.576896
O O3 0.647551 0.093017 0.289821
O O4 0.072364 0.974099 0.693504
O O5 0.391928 0.850753 0.420744
O O6 0.363980 0.777037 0.219450
O O7 0.235963 0.641816 0.211454
O O8 0.000000 0.000000 0.000000
O O9 0.647228 0.677746 0.781519
O O10 0.459963 0.038690 0.629735
O O11 0.677367 0.900999 0.085828
O O12 0.480214 0.768558 0.979846
O O13 0.765574 0.583411 0.092100
O O14 0.575643 0.156019 0.887941
O O15 0.220750 0.389276 0.474619
O O16 0.970981 0.365108 0.126285
O O17 0.000000 0.500000 0.000000
#
# Coordination Sequence:
#
# PCOD9056906 Si02
#       8
#     2   2   2   2   2   2   2   2
#     4  11  23  46  67  99 136 174 224 276 334 397
#     4  12  24  39  63  99 130 176 226 268 335 403
#     4  11  22  41  64  90 135 171 216 278 327 392
#     4  11  24  46  66 101 134 175 226 274 339 394
#     4  11  22  43  65  97 133 175 226 273 336 396
#     4  11  23  43  71  96 136 177 219 282 334 395
#     4  12  24  40  62  95 133 173 224 270 327 397
#     4  11  23  44  69  93 140 175 216 282 329 395
#
# _framework density 21.160990000000002
#
# number of rings (size 3 to 8) (size 9 to 14) (size 15 to 20)
#    0.000    0.750    3.750    5.625    0.000    3.000 
#    2.250    0.000    0.000    0.000    0.000    0.000 
#    0.000    0.000    0.000    0.000    0.000    0.000 
#
# Total GULP energy -89430.006762 kJ/mol
# GULP energy per Si atom -5589.375423 kJ/mol
# Density = 2.111283 g / cm^3
# Si number density = 21.160990 Si / 1000 Ang^3
#
#
#
# Elastic Constant Matrix: (Units=GPa)
#
#
# Indices 1 2 3 4 5 6 
#
# 1 155.6819 40.1277 49.4426 -2.3552 23.5120 0.1444
# 2 40.1277 65.4371 42.7419 -5.1957 9.5207 -1.3357
# 3 49.4426 42.7419 121.7483 -19.4723 21.3285 6.0215
# 4 -2.3552 -5.1957 -19.4723 22.6235 -0.7491 9.1521
# 5 23.5120 9.5207 21.3285 -0.7491 45.6983 6.5493
# 6 0.1444 -1.3357 6.0215 9.1521 6.5493 28.0067
#
#
#
# Elastic Compliance Matrix: (Units=1/GPa)
#
#
# Indices 1 2 3 4 5 6 
#
# 1 0.008411 -0.003473 -0.002205 -0.002644 -0.002877 0.001802
# 2 -0.003473 0.021715 -0.006774 -0.002573 -0.000102 0.003375
# 3 -0.002205 -0.006774 0.014525 0.013511 -0.002987 -0.007151
# 4 -0.002644 -0.002573 0.013511 0.064760 0.000121 -0.024205
# 5 -0.002877 -0.000102 -0.002987 0.000121 0.025549 -0.005362
# 6 0.001802 0.003375 -0.007151 -0.024205 -0.005362 0.046558
#
#
# Mechanical properties :
#
#
# Convention : Reuss Voigt Hill
#
# Bulk Modulus (GPa) = 50.63525 67.49909 59.06717
# Shear Modulus (GPa) = 23.47366 33.30269 28.38817
#
# Velocity S-wave (km/s) = 3.33421 3.97139 3.66667
# Velocity P-wave (km/s) = 6.22922 7.27986 6.77494
#
# Compressibility (1/GPa) = 0.01974909
#
# Stress axis : x y z
#
# Youngs Moduli (GPa) = 118.88565 46.05052 68.84669
#
# Poissons Ratio (x) = 0.15991 0.15179
# Poissons Ratio (y) = 0.41284 0.46636
# Poissons Ratio (z) = 0.26212 0.31194
#
# Static dielectric constant tensor:
#      x y z
#    x 1.801190 -0.010830 -0.011660 
#    y -0.010830 1.758170 0.006340 
#    z -0.011660 0.006340 1.781870 
# 
# From -- ./inp_files/529823.got.cif
#   From: 2010.05.17/outbox.cif.g08.bks.cpg/sg2_265_cif.got.tgz:529823.got - 2010.06.03 11:33:40.
