data_PCOD9056005
_publ_section_title
;
Structure prediction by ZEFSAII (Michael W. Deem and Ramdas Pophale) SiO2 
 PCOD9056005
Probable space group: P -1
;
_chemical_formula_sum "Si O2"
_cell_formula_units_Z 12
_cell_length_a 11.316192
_cell_length_b 7.884454
_cell_length_c 13.363772
_cell_angle_alpha 41.172077
_cell_angle_beta 39.756521
_cell_angle_gamma 54.552442
_cell_volume 501.991498
_symmetry_space_group_name_H-M "P -1"
_symmetry_group_IT_number 2
_symmetry_cell_setting 'triclinic'
loop_
_space_group_symop_operation_xyz
x,y,z
-x,-y,-z
loop_
_atom_site_type_symbol
_atom_site_label
_atom_site_fract_x
_atom_site_fract_y
_atom_site_fract_z
Si Si1 0.662032 0.913214 0.360934
Si Si2 0.637357 0.066269 0.612424
Si Si3 0.411838 0.631393 0.291538
Si Si4 0.688092 0.495100 0.812775
Si Si5 0.943006 0.038269 0.906570
Si Si6 0.205895 0.480405 0.832849
O O1 0.562706 0.979801 0.290901
O O2 0.686350 0.607044 0.483575
O O3 0.849951 0.006697 0.250126
O O4 0.500000 0.000000 0.500000
O O5 0.617521 0.136626 0.712575
O O6 0.730494 0.308189 0.385011
O O7 0.742993 0.797002 0.643952
O O8 0.346610 0.624110 0.222686
O O9 0.626970 0.545517 0.185947
O O10 0.850012 0.313650 0.829555
O O11 0.500000 0.500000 0.000000
O O12 0.807982 0.810870 0.068212
O O13 0.000000 0.000000 0.000000
O O14 0.000000 0.500000 0.000000
#
# Coordination Sequence:
#
# PCOD9056005 Si02
#       6
#     2   2   2   2   2   2
#     4  11  21  44  78 106 146 198 243 302 372 452
#     4  11  24  50  78 107 148 200 248 307 375 446
#     4  11  24  47  74 104 154 197 250 305 380 441
#     4  12  28  47  78 109 151 199 254 318 376 437
#     4  12  26  46  75 107 146 193 252 308 377 451
#     4  11  25  44  76 113 148 194 249 303 373 453
#
# _framework density 23.904788
#
# number of rings (size 3 to 8) (size 9 to 14) (size 15 to 20)
#    0.000    0.667    1.667    8.000    2.333    3.333 
#    0.000    1.667    0.000    0.000    0.000    0.000 
#    0.000    0.000    0.000    0.000    0.000    0.000 
#
# Total GULP energy -66914.479417 kJ/mol
# GULP energy per Si atom -5576.206618 kJ/mol
# Density = 2.385038 g / cm^3
# Si number density = 23.904788 Si / 1000 Ang^3
#
#
#
# Elastic Constant Matrix: (Units=GPa)
#
#
# Indices 1 2 3 4 5 6 
#
# 1 147.1065 75.3855 27.7468 -6.4392 10.9727 -4.5718
# 2 75.3855 157.5552 52.3986 2.6835 13.1410 -8.4691
# 3 27.7468 52.3986 79.6833 -6.5264 -11.5898 -14.7221
# 4 -6.4392 2.6835 -6.5264 53.0913 9.3900 4.1899
# 5 10.9727 13.1410 -11.5898 9.3900 42.1181 4.2120
# 6 -4.5718 -8.4691 -14.7221 4.1899 4.2120 52.8127
#
#
#
# Elastic Compliance Matrix: (Units=1/GPa)
#
#
# Indices 1 2 3 4 5 6 
#
# 1 0.009197 -0.004080 -0.000637 0.001535 -0.001638 -0.000027
# 2 -0.004080 0.010714 -0.006262 -0.001144 -0.003749 0.000009
# 3 -0.000637 -0.006262 0.018592 0.001072 0.006646 0.003508
# 4 0.001535 -0.001144 0.001072 0.020018 -0.004110 -0.001012
# 5 -0.001638 -0.003749 0.006646 -0.004110 0.028165 -0.000811
# 6 -0.000027 0.000009 0.003508 -0.001012 -0.000811 0.020057
#
#
# Mechanical properties :
#
#
# Convention : Reuss Voigt Hill
#
# Bulk Modulus (GPa) = 60.44053 77.26741 68.85397
# Shear Modulus (GPa) = 37.25291 44.85871 41.05581
#
# Velocity S-wave (km/s) = 3.95192 4.33662 4.14874
# Velocity P-wave (km/s) = 6.79429 7.58078 7.19828
#
# Compressibility (1/GPa) = 0.01654519
#
# Stress axis : x y z
#
# Youngs Moduli (GPa) = 108.72916 93.33352 53.78565
#
# Poissons Ratio (x) = 0.38076 0.03428
# Poissons Ratio (y) = 0.44356 0.33682
# Poissons Ratio (z) = 0.06931 0.58448
#
# Static dielectric constant tensor:
#      x y z
#    x 1.865670 0.147950 0.115770 
#    y 0.147950 1.998430 -0.046820 
#    z 0.115770 -0.046820 1.945170 
# 
# From -- ./inp_files/512591.got.cif
#   From: 2010.05.17/outbox.cif.g08.bks.cpg/sg2_257_cif.got.tgz:512591.got - 2010.06.03 11:33:40.
