data_PCOD9056600
_publ_section_title
;
Structure prediction by ZEFSAII (Michael W. Deem and Ramdas Pophale) SiO2 
 PCOD9056600
Probable space group: P -1
;
_chemical_formula_sum "Si O2"
_cell_formula_units_Z 14
_cell_length_a 9.502914
_cell_length_b 9.387251
_cell_length_c 11.991253
_cell_angle_alpha 79.030668
_cell_angle_beta 128.168169
_cell_angle_gamma 65.627859
_cell_volume 599.948896
_symmetry_space_group_name_H-M "P -1"
_symmetry_group_IT_number 2
_symmetry_cell_setting 'triclinic'
loop_
_space_group_symop_operation_xyz
x,y,z
-x,-y,-z
loop_
_atom_site_type_symbol
_atom_site_label
_atom_site_fract_x
_atom_site_fract_y
_atom_site_fract_z
Si Si1 0.038585 0.034427 0.637907
Si Si2 0.624014 0.092394 0.907512
Si Si3 0.365062 0.590234 0.106376
Si Si4 0.829267 0.341439 0.220858
Si Si5 0.834219 0.758537 0.219744
Si Si6 0.507695 0.365867 0.433250
Si Si7 0.725111 0.714414 0.504969
O O1 0.786079 0.186216 0.558089
O O2 0.160116 0.121273 0.700404
O O3 0.000000 0.000000 0.500000
O O4 0.193272 0.816479 0.794356
O O5 0.733532 0.193683 0.943577
O O6 0.409149 0.198054 0.881117
O O7 0.478145 0.153915 0.710498
O O8 0.809515 0.862910 0.076216
O O9 0.643648 0.464577 0.214578
O O10 0.370951 0.495853 0.236224
O O11 0.247479 0.559619 0.953557
O O12 0.101713 0.243357 0.396378
O O13 0.071528 0.525175 0.385632
O O14 0.500000 0.500000 0.500000
O O15 0.404683 0.277044 0.450409
#
# Coordination Sequence:
#
# PCOD9056600 Si02
#       7
#     2   2   2   2   2   2   2
#     4  12  23  43  69 103 138 184 236 290 348 415
#     4  11  22  39  71 107 135 179 248 284 335 428
#     4  11  22  44  69 103 137 185 236 288 344 425
#     4  11  25  43  71  99 142 182 232 295 355 399
#     4  11  23  41  71 107 136 187 240 287 343 418
#     4  12  25  43  72 103 142 187 233 283 361 426
#     4  12  25  46  69 103 147 183 227 297 358 407
#
# _framework density 23.335319999999999
#
# number of rings (size 3 to 8) (size 9 to 14) (size 15 to 20)
#    0.000    0.571    7.143    1.286    0.000    1.143 
#    5.143    2.143    0.000    0.000    0.000    0.000 
#    0.000    0.000    0.000    0.000    0.000    0.000 
#
# Total GULP energy -78188.878200 kJ/mol
# GULP energy per Si atom -5584.919871 kJ/mol
# Density = 2.328221 g / cm^3
# Si number density = 23.335320 Si / 1000 Ang^3
#
#
#
# Elastic Constant Matrix: (Units=GPa)
#
#
# Indices 1 2 3 4 5 6 
#
# 1 81.1029 11.8156 17.3120 16.6730 -20.0614 2.6525
# 2 11.8156 73.9731 8.7184 -3.2415 2.2822 0.0303
# 3 17.3120 8.7184 109.9426 32.7983 -31.5651 -2.1430
# 4 16.6730 -3.2415 32.7983 40.0476 0.5379 -3.9823
# 5 -20.0614 2.2822 -31.5651 0.5379 40.3113 2.7759
# 6 2.6525 0.0303 -2.1430 -3.9823 2.7759 36.0414
#
#
#
# Elastic Compliance Matrix: (Units=1/GPa)
#
#
# Indices 1 2 3 4 5 6 
#
# 1 0.017929 -0.004429 0.005087 -0.012513 0.013560 -0.003440
# 2 -0.004429 0.015278 -0.004537 0.007021 -0.006808 0.001343
# 3 0.005087 -0.004537 0.019640 -0.019093 0.018611 -0.002746
# 4 -0.012513 0.007021 -0.019093 0.047362 -0.022673 0.006759
# 5 0.013560 -0.006808 0.018611 -0.022673 0.047232 -0.006029
# 6 -0.003440 0.001343 -0.002746 0.006759 -0.006029 0.029046
#
#
# Mechanical properties :
#
#
# Convention : Reuss Voigt Hill
#
# Bulk Modulus (GPa) = 22.17803 37.85673 30.01738
# Shear Modulus (GPa) = 25.09125 38.42489 31.75807
#
# Velocity S-wave (km/s) = 3.28265 4.06228 3.69310
# Velocity P-wave (km/s) = 4.88799 6.18555 5.57465
#
# Compressibility (1/GPa) = 0.04508967
#
# Stress axis : x y z
#
# Youngs Moduli (GPa) = 55.77703 65.45495 50.91596
#
# Poissons Ratio (x) = 0.28987 -0.25902
# Poissons Ratio (y) = 0.24701 0.23101
# Poissons Ratio (z) = -0.28375 0.29698
#
# Static dielectric constant tensor:
#      x y z
#    x 1.934680 0.030760 -0.088020 
#    y 0.030760 1.908310 -0.050620 
#    z -0.088020 -0.050620 2.044710 
# 
# From -- ./inp_files/196253.got.cif
#   From: 2010.05.17/outbox.cif.g08.bks.cpg/sg2_99_cif.got.tgz:196253.got - 2010.06.03 11:33:40.
