data_PCOD9056949
_publ_section_title
;
Structure prediction by ZEFSAII (Michael W. Deem and Ramdas Pophale) SiO2 
 PCOD9056949
Probable space group: P -1
;
_chemical_formula_sum "Si O2"
_cell_formula_units_Z 15
_cell_length_a 12.824820
_cell_length_b 12.023234
_cell_length_c 9.833549
_cell_angle_alpha 77.413568
_cell_angle_beta 133.172773
_cell_angle_gamma 137.978753
_cell_volume 595.062362
_symmetry_space_group_name_H-M "P -1"
_symmetry_group_IT_number 2
_symmetry_cell_setting 'triclinic'
loop_
_space_group_symop_operation_xyz
x,y,z
-x,-y,-z
loop_
_atom_site_type_symbol
_atom_site_label
_atom_site_fract_x
_atom_site_fract_y
_atom_site_fract_z
Si Si1 0.500000 0.500000 0.500000
Si Si2 0.773514 0.522509 0.012430
Si Si3 0.991438 0.296771 0.117115
Si Si4 0.222201 0.079116 0.359590
Si Si5 0.593377 0.862948 0.782329
Si Si6 0.150345 0.710283 0.522304
Si Si7 0.530017 0.140665 0.835471
Si Si8 0.624639 0.642734 0.946000
O O1 0.304038 0.262746 0.402054
O O2 0.728836 0.559612 0.626362
O O3 0.631433 0.551049 0.856165
O O4 0.953241 0.650414 0.270440
O O5 0.580715 0.288400 0.929627
O O6 0.945622 0.622446 0.004414
O O7 0.815599 0.276721 0.034896
O O8 0.796069 0.060028 0.007926
O O9 0.252759 0.061405 0.236638
O O10 0.412332 0.122949 0.601002
O O11 0.921176 0.869995 0.181549
O O12 0.363013 0.799910 0.584522
O O13 0.490028 0.672536 0.789128
O O14 0.000000 0.500000 0.500000
O O15 0.314681 0.896847 0.726987
O O16 0.500000 0.500000 0.000000
#
# Coordination Sequence:
#
# PCOD9056949 Si02
#       8
#     1   2   2   2   2   2   2   2
#     4  12  24  36  66 104 144 168 222 294 342 404
#     4  12  23  43  69  97 136 184 224 284 354 405
#     4  11  22  41  66 104 137 170 225 291 346 405
#     4  12  23  43  68 102 139 178 238 290 347 415
#     4  11  23  41  69  97 131 186 230 286 350 408
#     4  11  25  45  68  97 139 186 232 279 348 420
#     4  11  25  42  69 104 138 175 230 290 341 419
#     4  12  25  44  68  98 142 187 234 289 352 419
#
# _framework density 25.207439000000001
#
# number of rings (size 3 to 8) (size 9 to 14) (size 15 to 20)
#    0.000    0.533    5.333    3.200    1.867    2.667 
#    0.000    2.000    0.000    0.000    0.000    0.000 
#    0.000    0.000    0.000    0.000    0.000    0.000 
#
# Total GULP energy -83679.800471 kJ/mol
# GULP energy per Si atom -5578.653365 kJ/mol
# Density = 2.515007 g / cm^3
# Si number density = 25.207439 Si / 1000 Ang^3
#
#
#
# Elastic Constant Matrix: (Units=GPa)
#
#
# Indices 1 2 3 4 5 6 
#
# 1 51.6625 40.4412 22.7202 4.3556 15.5970 -17.6862
# 2 40.4412 136.8256 19.9496 35.8408 0.5656 -32.3761
# 3 22.7202 19.9496 103.3797 11.3090 17.1542 -20.4041
# 4 4.3556 35.8408 11.3090 46.6182 -12.0378 -1.2340
# 5 15.5970 0.5656 17.1542 -12.0378 30.7043 -0.8410
# 6 -17.6862 -32.3761 -20.4041 -1.2340 -0.8410 51.8730
#
#
#
# Elastic Compliance Matrix: (Units=1/GPa)
#
#
# Indices 1 2 3 4 5 6 
#
# 1 0.033079 -0.008162 -0.002121 -0.000138 -0.015382 0.005097
# 2 -0.008162 0.013574 0.001611 -0.010111 -0.000802 0.006070
# 3 -0.002121 0.001611 0.012918 -0.006227 -0.008471 0.005078
# 4 -0.000138 -0.010111 -0.006227 0.034997 0.017246 -0.007695
# 5 -0.015382 -0.000802 -0.008471 0.017246 0.051677 -0.007829
# 6 0.005097 0.006070 0.005078 -0.007695 -0.007829 0.026491
#
#
# Mechanical properties :
#
#
# Convention : Reuss Voigt Hill
#
# Bulk Modulus (GPa) = 23.68161 50.89885 37.29023
# Shear Modulus (GPa) = 24.49117 39.75623 32.12370
#
# Velocity S-wave (km/s) = 3.12041 3.97566 3.57371
# Velocity P-wave (km/s) = 4.73262 6.42731 5.64393
#
# Compressibility (1/GPa) = 0.04222686
#
# Stress axis : x y z
#
# Youngs Moduli (GPa) = 30.23067 73.67050 77.41432
#
# Poissons Ratio (x) = 0.60129 0.16422
# Poissons Ratio (y) = 0.24674 -0.12475
# Poissons Ratio (z) = 0.06413 -0.11871
#
# Static dielectric constant tensor:
#      x y z
#    x 1.877840 -0.094960 -0.016140 
#    y -0.094960 2.011520 -0.029370 
#    z -0.016140 -0.029370 1.913830 
# 
# From -- ./inp_files/353777.got.cif
#   From: 2010.05.17/outbox.cif.g08.bks.cpg/sg2_177_cif.got.tgz:353777.got - 2010.06.03 11:33:40.
