data_PCOD9056857
_publ_section_title
;
Structure prediction by ZEFSAII (Michael W. Deem and Ramdas Pophale) SiO2 
 PCOD9056857
Probable space group: P -1
;
_chemical_formula_sum "Si O2"
_cell_formula_units_Z 16
_cell_length_a 9.510213
_cell_length_b 14.302028
_cell_length_c 13.523215
_cell_angle_alpha 133.108396
_cell_angle_beta 36.746290
_cell_angle_gamma 140.203285
_cell_volume 693.249539
_symmetry_space_group_name_H-M "P -1"
_symmetry_group_IT_number 2
_symmetry_cell_setting 'triclinic'
loop_
_space_group_symop_operation_xyz
x,y,z
-x,-y,-z
loop_
_atom_site_type_symbol
_atom_site_label
_atom_site_fract_x
_atom_site_fract_y
_atom_site_fract_z
Si Si1 0.018411 0.056622 0.364488
Si Si2 0.864475 0.577843 0.257894
Si Si3 0.854672 0.468073 0.397789
Si Si4 0.893016 0.722458 0.850561
Si Si5 0.191716 0.772056 0.527566
Si Si6 0.647722 0.478432 0.106935
Si Si7 0.772421 0.796144 0.179692
Si Si8 0.709498 0.809684 0.511600
O O1 0.901493 0.146338 0.438530
O O2 0.290989 0.156830 0.347284
O O3 0.008183 0.936475 0.206964
O O4 0.812483 0.954497 0.492991
O O5 0.802434 0.529824 0.371056
O O6 0.637568 0.481449 0.234053
O O7 0.908595 0.741665 0.341563
O O8 0.119826 0.559980 0.076240
O O9 0.571767 0.318494 0.466857
O O10 0.065102 0.408955 0.223726
O O11 0.984513 0.596483 0.498463
O O12 0.621825 0.644362 0.882133
O O13 0.132744 0.809395 0.697813
O O14 0.854569 0.803225 0.024134
O O15 0.493605 0.801613 0.356278
O O16 0.721986 0.640834 0.141960
#
# Coordination Sequence:
#
# PCOD9056857 Si02
#       8
#     2   2   2   2   2   2   2   2
#     4  11  26  45  68 101 145 200 235 280 365 433
#     4  11  22  40  73 104 142 185 235 298 363 411
#     4  12  23  43  75 110 138 181 244 307 350 415
#     4  12  26  43  74 110 141 183 244 301 355 410
#     4  12  26  44  76 108 141 190 239 295 358 424
#     4  11  23  41  70 109 145 180 236 303 360 418
#     4  12  24  47  70 101 153 188 233 296 357 427
#     4  11  24  44  72 103 146 189 240 294 353 429
#
# _framework density 23.079711
#
# number of rings (size 3 to 8) (size 9 to 14) (size 15 to 20)
#    0.000    0.500    5.000    3.750    1.750    0.500 
#    0.000    0.625    0.000    0.000    0.000    0.000 
#    0.000    0.000    0.000    0.000    0.000    0.000 
#
# Total GULP energy -89475.096541 kJ/mol
# GULP energy per Si atom -5592.193534 kJ/mol
# Density = 2.302718 g / cm^3
# Si number density = 23.079711 Si / 1000 Ang^3
#
#
#
# Elastic Constant Matrix: (Units=GPa)
#
#
# Indices 1 2 3 4 5 6 
#
# 1 125.3456 15.5625 51.6841 -3.4384 14.3499 -17.5168
# 2 15.5625 52.3902 20.3497 9.5592 0.0755 -5.8139
# 3 51.6841 20.3497 115.7105 -2.1054 24.8582 6.7691
# 4 -3.4384 9.5592 -2.1054 23.7309 0.0189 3.3094
# 5 14.3499 0.0755 24.8582 0.0189 51.9303 4.8986
# 6 -17.5168 -5.8139 6.7691 3.3094 4.8986 46.3335
#
#
#
# Elastic Compliance Matrix: (Units=1/GPa)
#
#
# Indices 1 2 3 4 5 6 
#
# 1 0.010854 -0.001059 -0.004660 0.000929 -0.001212 0.004713
# 2 -0.001059 0.023490 -0.004514 -0.010539 0.002070 0.003741
# 3 -0.004660 -0.004514 0.012753 0.002825 -0.004441 -0.003924
# 4 0.000929 -0.010539 0.002825 0.047419 -0.001173 -0.004647
# 5 -0.001212 0.002070 -0.004441 -0.001173 0.021883 -0.001779
# 6 0.004713 0.003741 -0.003924 -0.004647 -0.001779 0.024927
#
#
# Mechanical properties :
#
#
# Convention : Reuss Voigt Hill
#
# Bulk Modulus (GPa) = 37.54933 52.07100 44.81016
# Shear Modulus (GPa) = 29.29662 38.12227 33.70944
#
# Velocity S-wave (km/s) = 3.56668 4.06860 3.82588
# Velocity P-wave (km/s) = 5.76770 6.68444 6.24292
#
# Compressibility (1/GPa) = 0.02663163
#
# Stress axis : x y z
#
# Youngs Moduli (GPa) = 92.13284 42.57057 78.41481
#
# Poissons Ratio (x) = 0.04507 0.36544
# Poissons Ratio (y) = 0.09754 0.35393
# Poissons Ratio (z) = 0.42937 0.19215
#
# Static dielectric constant tensor:
#      x y z
#    x 1.892160 0.008060 0.028870 
#    y 0.008060 1.915420 -0.025330 
#    z 0.028870 -0.025330 1.886890 
# 
# From -- ./inp_files/505537.got.cif
#   From: 2010.05.17/outbox.cif.g08.bks.cpg/sg2_253_cif.got.tgz:505537.got - 2010.06.03 11:33:40.
