data_PCOD9056858
_publ_section_title
;
Structure prediction by ZEFSAII (Michael W. Deem and Ramdas Pophale) SiO2 
 PCOD9056858
Probable space group: P -1
;
_chemical_formula_sum "Si O2"
_cell_formula_units_Z 16
_cell_length_a 9.040417
_cell_length_b 18.398019
_cell_length_c 14.148936
_cell_angle_alpha 42.218931
_cell_angle_beta 139.024880
_cell_angle_gamma 149.120154
_cell_volume 761.429322
_symmetry_space_group_name_H-M "P -1"
_symmetry_group_IT_number 2
_symmetry_cell_setting 'triclinic'
loop_
_space_group_symop_operation_xyz
x,y,z
-x,-y,-z
loop_
_atom_site_type_symbol
_atom_site_label
_atom_site_fract_x
_atom_site_fract_y
_atom_site_fract_z
Si Si1 0.458731 0.684812 0.730413
Si Si2 0.104299 0.608232 0.165566
Si Si3 0.931028 0.351971 0.088846
Si Si4 0.944682 0.761902 0.047726
Si Si5 0.706871 0.981418 0.888578
Si Si6 0.676950 0.115170 0.557585
Si Si7 0.353278 0.374940 0.625832
Si Si8 0.439504 0.498560 0.741164
O O1 0.453255 0.805856 0.577829
O O2 0.420520 0.596221 0.704999
O O3 0.149249 0.560032 0.761640
O O4 0.744446 0.747630 0.878078
O O5 0.406429 0.646834 0.234498
O O6 0.119015 0.707636 0.154170
O O7 0.976585 0.630388 0.992602
O O8 0.211438 0.385643 0.242836
O O9 0.598758 0.192409 0.093654
O O10 0.000000 0.500000 0.000000
O O11 0.690528 0.640876 0.119899
O O12 0.197690 0.922081 0.063429
O O13 0.669907 0.051869 0.715571
O O14 0.000000 0.000000 0.000000
O O15 0.025787 0.224981 0.584346
O O16 0.500000 0.000000 0.500000
O O17 0.500000 0.500000 0.500000
O O18 0.272903 0.417814 0.640320
#
# Coordination Sequence:
#
# PCOD9056858 Si02
#       8
#     2   2   2   2   2   2   2   2
#     4  11  23  44  73 104 143 183 225 289 356 415
#     4  11  22  40  73 106 133 177 233 292 333 411
#     4  12  23  40  72 100 132 175 239 288 334 402
#     4  11  22  45  73 107 139 180 233 286 354 407
#     4  12  27  45  69 100 140 189 232 288 348 416
#     4  12  28  47  66  99 145 187 226 286 364 414
#     4  12  25  42  69 103 137 183 240 290 338 411
#     4  11  22  42  72 103 135 182 238 282 342 417
#
# _framework density 21.013113000000001
#
# number of rings (size 3 to 8) (size 9 to 14) (size 15 to 20)
#    0.000    0.500    6.250    3.000    3.500    2.000 
#    2.250    0.625    0.000    0.000    0.000    0.000 
#    0.000    0.000    0.000    0.000    0.000    0.000 
#
# Total GULP energy -89176.700127 kJ/mol
# GULP energy per Si atom -5573.543758 kJ/mol
# Density = 2.096529 g / cm^3
# Si number density = 21.013113 Si / 1000 Ang^3
#
#
#
# Elastic Constant Matrix: (Units=GPa)
#
#
# Indices 1 2 3 4 5 6 
#
# 1 73.7524 45.4632 33.4893 -2.9605 -4.4424 -11.3802
# 2 45.4632 172.8795 39.1264 2.6995 4.9382 -4.3121
# 3 33.4893 39.1264 112.2658 -10.2591 -3.6096 -11.2590
# 4 -2.9605 2.6995 -10.2591 33.4831 -1.0742 -2.2248
# 5 -4.4424 4.9382 -3.6096 -1.0742 26.3839 -3.3331
# 6 -11.3802 -4.3121 -11.2590 -2.2248 -3.3331 34.6483
#
#
#
# Elastic Compliance Matrix: (Units=1/GPa)
#
#
# Indices 1 2 3 4 5 6 
#
# 1 0.018754 -0.004186 -0.003365 0.001434 0.004176 0.005039
# 2 -0.004186 0.007329 -0.001674 -0.001646 -0.002544 -0.001357
# 3 -0.003365 -0.001674 0.011140 0.003486 0.001754 0.002699
# 4 0.001434 -0.001646 0.003486 0.031528 0.002776 0.003690
# 5 0.004176 -0.002544 0.001754 0.002776 0.040150 0.005665
# 6 0.005039 -0.001357 0.002699 0.003690 0.005665 0.032007
#
#
# Mechanical properties :
#
#
# Convention : Reuss Voigt Hill
#
# Bulk Modulus (GPa) = 53.26723 66.11727 59.69225
# Shear Modulus (GPa) = 30.19073 34.95765 32.57419
#
# Velocity S-wave (km/s) = 3.79457 4.08316 3.94151
# Velocity P-wave (km/s) = 6.67854 7.33231 7.01305
#
# Compressibility (1/GPa) = 0.01877327
#
# Stress axis : x y z
#
# Youngs Moduli (GPa) = 53.32225 136.45258 89.76584
#
# Poissons Ratio (x) = 0.57123 0.30204
# Poissons Ratio (y) = 0.22322 0.15023
# Poissons Ratio (z) = 0.17942 0.22837
#
# Static dielectric constant tensor:
#      x y z
#    x 1.833660 -0.088270 -0.014170 
#    y -0.088270 1.892150 0.105020 
#    z -0.014170 0.105020 1.905940 
# 
# From -- ./inp_files/225977.got.cif
#   From: 2010.05.17/outbox.cif.g08.bks.cpg/sg2_113_cif.got.tgz:225977.got - 2010.06.03 11:33:40.
