data_PCOD9056580
_publ_section_title
;
Structure prediction by ZEFSAII (Michael W. Deem and Ramdas Pophale) SiO2 
 PCOD9056580
Probable space group: P -1
;
_chemical_formula_sum "Si O2"
_cell_formula_units_Z 14
_cell_length_a 10.646105
_cell_length_b 13.820174
_cell_length_c 13.906021
_cell_angle_alpha 22.424900
_cell_angle_beta 122.904536
_cell_angle_gamma 133.168423
_cell_volume 539.222848
_symmetry_space_group_name_H-M "P -1"
_symmetry_group_IT_number 2
_symmetry_cell_setting 'triclinic'
loop_
_space_group_symop_operation_xyz
x,y,z
-x,-y,-z
loop_
_atom_site_type_symbol
_atom_site_label
_atom_site_fract_x
_atom_site_fract_y
_atom_site_fract_z
Si Si1 0.879752 0.688988 0.845867
Si Si2 0.862921 0.878287 0.146056
Si Si3 0.230269 0.692766 0.035018
Si Si4 0.634351 0.137520 0.751855
Si Si5 0.009312 0.226948 0.522340
Si Si6 0.338440 0.899226 0.421284
Si Si7 0.398066 0.584767 0.850750
O O1 0.792788 0.541701 0.843088
O O2 0.906458 0.010435 0.585135
O O3 0.741621 0.471219 0.072713
O O4 0.074297 0.743008 0.892577
O O5 0.752696 0.507106 0.453282
O O6 0.958983 0.967022 0.209796
O O7 0.738283 0.005491 0.967385
O O8 0.000000 0.000000 0.000000
O O9 0.433577 0.992474 0.842913
O O10 0.179966 0.524743 0.271274
O O11 0.609121 0.014329 0.745887
O O12 0.872667 0.277370 0.474747
O O13 0.399552 0.265121 0.147838
O O14 0.350836 0.595764 0.712572
O O15 0.500000 0.000000 0.500000
#
# Coordination Sequence:
#
# PCOD9056580 Si02
#       7
#     2   2   2   2   2   2   2
#     4  11  24  44  72 109 150 200 246 309 389 451
#     4  12  30  51  82 113 150 200 261 321 374 443
#     4  11  27  48  72 109 154 201 248 311 385 461
#     4  12  29  51  79 114 153 199 261 314 376 451
#     4  12  26  46  77 104 154 202 253 315 378 453
#     4  11  24  41  71 108 145 196 248 315 371 446
#     4  11  22  39  69 109 146 188 251 305 382 448
#
# _framework density 25.963291000000002
#
# number of rings (size 3 to 8) (size 9 to 14) (size 15 to 20)
#    0.000    0.571    5.714    0.857    8.000    1.143 
#    0.000    0.000    0.000    0.000    0.000    0.000 
#    0.000    0.000    0.000    0.000    0.000    0.000 
#
# Total GULP energy -78205.582508 kJ/mol
# GULP energy per Si atom -5586.113036 kJ/mol
# Density = 2.590420 g / cm^3
# Si number density = 25.963291 Si / 1000 Ang^3
#
#
#
# Elastic Constant Matrix: (Units=GPa)
#
#
# Indices 1 2 3 4 5 6 
#
# 1 121.4118 25.1798 59.8296 0.7243 -20.1212 13.7317
# 2 25.1798 78.4137 48.2830 -1.3613 -1.2605 -1.7488
# 3 59.8296 48.2830 174.8342 17.9065 -2.7484 15.3870
# 4 0.7243 -1.3613 17.9065 53.3024 10.0523 0.7431
# 5 -20.1212 -1.2605 -2.7484 10.0523 67.9018 5.0703
# 6 13.7317 -1.7488 15.3870 0.7431 5.0703 33.6673
#
#
#
# Elastic Compliance Matrix: (Units=1/GPa)
#
#
# Indices 1 2 3 4 5 6 
#
# 1 0.011025 -0.001768 -0.002921 0.000204 0.003367 -0.003765
# 2 -0.001768 0.016130 -0.004398 0.002047 -0.000980 0.003671
# 3 -0.002921 -0.004398 0.008482 -0.002889 0.000037 -0.002855
# 4 0.000204 0.002047 -0.002889 0.020353 -0.003134 0.001366
# 5 0.003367 -0.000980 0.000037 -0.003134 0.016460 -0.003851
# 6 -0.003765 0.003671 -0.002855 0.001366 -0.003851 0.033283
#
#
# Mechanical properties :
#
#
# Convention : Reuss Voigt Hill
#
# Bulk Modulus (GPa) = 57.26328 71.24938 64.25633
# Shear Modulus (GPa) = 38.54224 47.06547 42.80385
#
# Velocity S-wave (km/s) = 3.85709 4.26228 4.06474
# Velocity P-wave (km/s) = 6.47607 7.19199 6.84340
#
# Compressibility (1/GPa) = 0.01746320
#
# Stress axis : x y z
#
# Youngs Moduli (GPa) = 90.70080 61.99583 117.90159
#
# Poissons Ratio (x) = 0.10960 0.34443
# Poissons Ratio (y) = 0.16035 0.51850
# Poissons Ratio (z) = 0.26496 0.27264
#
# Static dielectric constant tensor:
#      x y z
#    x 2.031280 0.149240 0.057520 
#    y 0.149240 2.344890 -0.082500 
#    z 0.057520 -0.082500 2.134490 
# 
# From -- ./inp_files/75146.got.cif
#   From: 2010.05.17/outbox.cif.g08.bks.cpg/sg2_38_cif.got.tgz:75146.got - 2010.06.03 11:33:40.
