data_PCOD9056806
_publ_section_title
;
Structure prediction by ZEFSAII (Michael W. Deem and Ramdas Pophale) SiO2 
 PCOD9056806
Probable space group: P -1
;
_chemical_formula_sum "Si O2"
_cell_formula_units_Z 14
_cell_length_a 9.073455
_cell_length_b 13.352681
_cell_length_c 19.446938
_cell_angle_alpha 27.220155
_cell_angle_beta 143.010245
_cell_angle_gamma 133.973034
_cell_volume 647.331265
_symmetry_space_group_name_H-M "P -1"
_symmetry_group_IT_number 2
_symmetry_cell_setting 'triclinic'
loop_
_space_group_symop_operation_xyz
x,y,z
-x,-y,-z
loop_
_atom_site_type_symbol
_atom_site_label
_atom_site_fract_x
_atom_site_fract_y
_atom_site_fract_z
Si Si1 0.049576 0.000619 0.435265
Si Si2 0.307556 0.978782 0.243292
Si Si3 0.960303 0.353291 0.914537
Si Si4 0.754574 0.349811 0.685611
Si Si5 0.549826 0.656408 0.635163
Si Si6 0.633257 0.301786 0.103254
Si Si7 0.220721 0.551526 0.704546
O O1 0.117222 0.761603 0.579995
O O2 0.261848 0.154516 0.397074
O O3 0.000000 0.000000 0.500000
O O4 0.800808 0.113767 0.242239
O O5 0.502669 0.167668 0.196330
O O6 0.278658 0.894449 0.206022
O O7 0.407179 0.761643 0.452237
O O8 0.077879 0.106627 0.116322
O O9 0.171590 0.524850 0.904345
O O10 0.869989 0.362774 0.796445
O O11 0.723690 0.439706 0.816893
O O12 0.500000 0.500000 0.500000
O O13 0.975622 0.428508 0.672363
O O14 0.364782 0.621617 0.648428
O O15 0.420066 0.415029 0.908771
#
# Coordination Sequence:
#
# PCOD9056806 Si02
#       7
#     2   2   2   2   2   2   2
#     4  11  22  40  70 102 134 176 227 272 334 407
#     4  12  23  42  71  98 132 186 227 277 335 400
#     4  11  24  43  71 101 132 175 234 278 332 409
#     4  12  25  45  70  98 134 182 235 276 331 411
#     4  11  25  42  67 102 141 175 219 286 345 395
#     4  11  24  40  75 101 131 175 230 282 332 400
#     4  12  26  44  66 104 142 174 222 287 344 396
#
# _framework density 21.627258000000001
#
# number of rings (size 3 to 8) (size 9 to 14) (size 15 to 20)
#    0.000    0.571    4.286    4.714    0.000    4.000 
#    0.000    0.714    0.000    0.000    0.000    0.000 
#    0.000    0.000    0.000    0.000    0.000    0.000 
#
# Total GULP energy -78181.336519 kJ/mol
# GULP energy per Si atom -5584.381180 kJ/mol
# Density = 2.157803 g / cm^3
# Si number density = 21.627258 Si / 1000 Ang^3
#
#
#
# Elastic Constant Matrix: (Units=GPa)
#
#
# Indices 1 2 3 4 5 6 
#
# 1 107.2405 30.1946 32.4954 -2.4916 15.9618 11.0679
# 2 30.1946 78.9128 35.8630 1.4728 18.9335 4.2292
# 3 32.4954 35.8630 124.9110 6.0831 44.1424 1.6335
# 4 -2.4916 1.4728 6.0831 30.9288 -5.7332 12.4002
# 5 15.9618 18.9335 44.1424 -5.7332 35.2981 -2.1861
# 6 11.0679 4.2292 1.6335 12.4002 -2.1861 25.7142
#
#
#
# Elastic Compliance Matrix: (Units=1/GPa)
#
#
# Indices 1 2 3 4 5 6 
#
# 1 0.011658 -0.003090 -0.001882 0.003794 -0.001035 -0.006308
# 2 -0.003090 0.016022 -0.001965 -0.001124 -0.004988 -0.001062
# 3 -0.001882 -0.001965 0.016375 -0.007806 -0.019705 0.002182
# 4 0.003794 -0.001124 -0.007806 0.045664 0.014722 -0.021721
# 5 -0.001035 -0.004988 -0.019705 0.014722 0.058532 0.000395
# 6 -0.006308 -0.001062 0.002182 -0.021721 0.000395 0.052148
#
#
# Mechanical properties :
#
#
# Convention : Reuss Voigt Hill
#
# Bulk Modulus (GPa) = 33.13299 56.46339 44.79819
# Shear Modulus (GPa) = 22.28813 32.55564 27.42189
#
# Velocity S-wave (km/s) = 3.21371 3.88404 3.56467
# Velocity P-wave (km/s) = 5.39665 6.80283 6.14013
#
# Compressibility (1/GPa) = 0.03018140
#
# Stress axis : x y z
#
# Youngs Moduli (GPa) = 85.77545 62.41359 61.06922
#
# Poissons Ratio (x) = 0.19285 0.11494
# Poissons Ratio (y) = 0.26503 0.12000
# Poissons Ratio (z) = 0.16145 0.12264
#
# Static dielectric constant tensor:
#      x y z
#    x 1.782830 -0.005280 0.023520 
#    y -0.005280 1.848990 0.038350 
#    z 0.023520 0.038350 1.844010 
# 
# From -- ./inp_files/559613.got.cif
#   From: 2010.05.17/outbox.cif.g08.bks.cpg/sg2_280_cif.got.tgz:559613.got - 2010.06.03 11:33:40.
