data_PCOD9056282
_publ_section_title
;
Structure prediction by ZEFSAII (Michael W. Deem and Ramdas Pophale) SiO2 
 PCOD9056282
Probable space group: P -1
;
_chemical_formula_sum "Si O2"
_cell_formula_units_Z 14
_cell_length_a 13.457248
_cell_length_b 11.844440
_cell_length_c 6.466661
_cell_angle_alpha 94.761404
_cell_angle_beta 43.946883
_cell_angle_gamma 88.111689
_cell_volume 706.424063
_symmetry_space_group_name_H-M "P -1"
_symmetry_group_IT_number 2
_symmetry_cell_setting 'triclinic'
loop_
_space_group_symop_operation_xyz
x,y,z
-x,-y,-z
loop_
_atom_site_type_symbol
_atom_site_label
_atom_site_fract_x
_atom_site_fract_y
_atom_site_fract_z
Si Si1 0.632905 0.935611 0.525947
Si Si2 0.047234 0.800448 0.361654
Si Si3 0.513239 0.170303 0.631385
Si Si4 0.071362 0.031792 0.108009
Si Si5 0.579662 0.555341 0.696506
Si Si6 0.671950 0.351383 0.228335
Si Si7 0.734624 0.751252 0.689442
O O1 0.515409 0.881677 0.557819
O O2 0.686678 0.858512 0.626407
O O3 0.571391 0.066765 0.680670
O O4 0.768022 0.942854 0.173407
O O5 0.015727 0.854396 0.644142
O O6 0.901154 0.755487 0.493893
O O7 0.074583 0.916735 0.219878
O O8 0.180430 0.702501 0.110058
O O9 0.626187 0.256934 0.439983
O O10 0.364460 0.232477 0.955457
O O11 0.000000 0.000000 0.000000
O O12 0.666474 0.463148 0.397203
O O13 0.452426 0.621648 0.754891
O O14 0.687267 0.640082 0.633206
O O15 0.500000 0.500000 0.000000
#
# Coordination Sequence:
#
# PCOD9056282 Si02
#       7
#     2   2   2   2   2   2   2
#     4  11  22  37  62 100 131 173 210 264 319 388
#     4  11  25  40  64 100 133 169 211 267 328 392
#     4  11  22  39  65  95 132 170 220 262 318 390
#     4  11  22  39  62  94 141 171 202 255 330 397
#     4  11  25  45  69  92 124 174 227 273 316 378
#     4  11  24  45  68  94 128 171 222 272 322 380
#     4  12  23  41  67  97 132 170 218 267 324 381
#
# _framework density 19.818124999999998
#
# number of rings (size 3 to 8) (size 9 to 14) (size 15 to 20)
#    0.000    0.857    7.143    0.429    0.000    2.857 
#    0.000    0.714    0.000    0.000    0.000    0.000 
#    0.000    0.000    0.000    0.000    0.000    0.000 
#
# Total GULP energy -78171.963134 kJ/mol
# GULP energy per Si atom -5583.711652 kJ/mol
# Density = 1.977302 g / cm^3
# Si number density = 19.818125 Si / 1000 Ang^3
#
#
#
# Elastic Constant Matrix: (Units=GPa)
#
#
# Indices 1 2 3 4 5 6 
#
# 1 84.0189 50.8067 35.1062 22.1071 -2.3921 16.1296
# 2 50.8067 102.1966 44.6285 19.8610 -8.8598 16.5781
# 3 35.1062 44.6285 117.3549 29.6666 -21.0821 9.0878
# 4 22.1071 19.8610 29.6666 39.5108 -4.1916 -1.7863
# 5 -2.3921 -8.8598 -21.0821 -4.1916 28.4893 1.5785
# 6 16.1296 16.5781 9.0878 -1.7863 1.5785 22.2621
#
#
#
# Elastic Compliance Matrix: (Units=1/GPa)
#
#
# Indices 1 2 3 4 5 6 
#
# 1 0.020262 -0.006636 -0.001140 -0.007779 -0.001809 -0.009770
# 2 -0.006636 0.015903 -0.002499 -0.002424 0.002536 -0.006389
# 3 -0.001140 -0.002499 0.013516 -0.007562 0.008239 -0.004021
# 4 -0.007779 -0.002424 -0.007562 0.036929 -0.002326 0.013657
# 5 -0.001809 0.002536 0.008239 -0.002326 0.041886 -0.007098
# 6 -0.009770 -0.006389 -0.004021 0.013657 -0.007098 0.059996
#
#
# Mechanical properties :
#
#
# Convention : Reuss Voigt Hill
#
# Bulk Modulus (GPa) = 34.32792 62.73924 48.53358
# Shear Modulus (GPa) = 22.85708 29.58770 26.22239
#
# Velocity S-wave (km/s) = 3.39977 3.86808 3.64146
# Velocity P-wave (km/s) = 5.72454 7.18857 6.49792
#
# Compressibility (1/GPa) = 0.02913081
#
# Stress axis : x y z
#
# Youngs Moduli (GPa) = 49.35403 62.88213 73.98832
#
# Poissons Ratio (x) = 0.41726 0.08432
# Poissons Ratio (y) = 0.32749 0.18493
# Poissons Ratio (z) = 0.05625 0.15717
#
# Static dielectric constant tensor:
#      x y z
#    x 0.683200 -0.672830 0.395090 
#    y -0.672830 1.265770 0.253040 
#    z 0.395090 0.253040 1.588420 
# 
# From -- ./inp_files/28109.got.cif
#   From: 2010.05.17/outbox.cif.g08.bks.cpg/sg2_15_cif.got.tgz:28109.got - 2010.06.03 11:33:40.
