data_PCOD9056308
_publ_section_title
;
Structure prediction by ZEFSAII (Michael W. Deem and Ramdas Pophale) SiO2 
 PCOD9056308
Probable space group: P -1
;
_chemical_formula_sum "Si O2"
_cell_formula_units_Z 14
_cell_length_a 10.317142
_cell_length_b 22.646508
_cell_length_c 13.773415
_cell_angle_alpha 160.141594
_cell_angle_beta 34.282142
_cell_angle_gamma 146.888371
_cell_volume 584.199963
_symmetry_space_group_name_H-M "P -1"
_symmetry_group_IT_number 2
_symmetry_cell_setting 'triclinic'
loop_
_space_group_symop_operation_xyz
x,y,z
-x,-y,-z
loop_
_atom_site_type_symbol
_atom_site_label
_atom_site_fract_x
_atom_site_fract_y
_atom_site_fract_z
Si Si1 0.259934 0.024015 0.140265
Si Si2 0.388078 0.111778 0.993243
Si Si3 0.913016 0.377153 0.457479
Si Si4 0.594405 0.273013 0.653901
Si Si5 0.756559 0.351920 0.885687
Si Si6 0.348446 0.402202 0.348488
Si Si7 0.191836 0.933970 0.441097
O O1 0.092057 0.093508 0.423883
O O2 0.110670 0.825030 0.882301
O O3 0.500000 0.000000 0.000000
O O4 0.340391 0.154291 0.198241
O O5 0.676247 0.164299 0.868784
O O6 0.307790 0.896671 0.693319
O O7 0.255072 0.196963 0.130123
O O8 0.124087 0.450658 0.520136
O O9 0.000000 0.500000 0.500000
O O10 0.665955 0.378215 0.669444
O O11 0.733081 0.365784 0.806782
O O12 0.326890 0.149819 0.666684
O O13 0.753901 0.153117 0.624459
O O14 0.532438 0.399453 0.145151
O O15 0.000000 0.500000 0.000000
O O16 0.500000 0.500000 0.500000
#
# Coordination Sequence:
#
# PCOD9056308 Si02
#       7
#     2   2   2   2   2   2   2
#     4  11  24  41  70  96 135 187 228 276 346 413
#     4   8  22  40  66  98 125 175 230 279 338 396
#     4  11  26  44  65  99 142 182 228 286 351 408
#     4   9  20  43  64  94 134 174 229 274 349 401
#     4  11  22  37  65 105 134 175 222 291 350 393
#     4  11  24  41  69 102 138 176 232 288 344 406
#     4   9  21  41  64  95 134 170 229 280 330 409
#
# _framework density 23.964397000000002
#
# number of rings (size 3 to 8) (size 9 to 14) (size 15 to 20)
#    0.857    1.143    0.000    2.143    8.000    1.714 
#    0.000    2.857    0.000    0.000    0.000    0.000 
#    0.000    0.000    0.000    0.000    0.000    0.000 
#
# Total GULP energy -78003.511132 kJ/mol
# GULP energy per Si atom -5571.679367 kJ/mol
# Density = 2.390985 g / cm^3
# Si number density = 23.964397 Si / 1000 Ang^3
#
#
#
# Elastic Constant Matrix: (Units=GPa)
#
#
# Indices 1 2 3 4 5 6 
#
# 1 72.3014 49.2183 18.3454 -21.7100 7.0659 -5.6341
# 2 49.2183 118.4733 29.7835 -45.0757 3.4955 -22.7208
# 3 18.3454 29.7835 47.2803 -26.6652 -1.5761 1.3392
# 4 -21.7100 -45.0757 -26.6652 40.5309 10.3606 2.2976
# 5 7.0659 3.4955 -1.5761 10.3606 20.5193 -10.4105
# 6 -5.6341 -22.7208 1.3392 2.2976 -10.4105 45.3555
#
#
#
# Elastic Compliance Matrix: (Units=1/GPa)
#
#
# Indices 1 2 3 4 5 6 
#
# 1 0.021305 -0.006268 -0.000456 0.007369 -0.011835 -0.003570
# 2 -0.006268 0.020935 0.001921 0.023374 -0.009921 0.006191
# 3 -0.000456 0.001921 0.036886 0.030376 -0.015334 -0.005242
# 4 0.007369 0.023374 0.030376 0.087817 -0.050743 -0.004368
# 5 -0.011835 -0.009921 -0.015334 -0.050743 0.087387 0.016641
# 6 -0.003570 0.006191 -0.005242 -0.004368 0.016641 0.028901
#
#
# Mechanical properties :
#
#
# Convention : Reuss Voigt Hill
#
# Bulk Modulus (GPa) = 14.38439 48.08328 31.23384
# Shear Modulus (GPa) = 15.82226 30.66165 23.24195
#
# Velocity S-wave (km/s) = 2.57230 3.58084 3.11763
# Velocity P-wave (km/s) = 3.85198 6.09956 5.10110
#
# Compressibility (1/GPa) = 0.06951979
#
# Stress axis : x y z
#
# Youngs Moduli (GPa) = 46.93828 47.76723 27.11037
#
# Poissons Ratio (x) = 0.29941 0.01235
# Poissons Ratio (y) = 0.29421 -0.05207
# Poissons Ratio (z) = 0.02139 -0.09175
#
# Static dielectric constant tensor:
#      x y z
#    x 2.698460 -0.721630 0.711540 
#    y -0.721630 2.695930 -0.548970 
#    z 0.711540 -0.548970 2.656850 
# 
# From -- ./inp_files/405002.got.cif
#   From: 2010.05.17/outbox.cif.g08.bks.cpg/sg2_203_cif.got.tgz:405002.got - 2010.06.03 11:33:40.
