data_PCOD9056449
_publ_section_title
;
Structure prediction by ZEFSAII (Michael W. Deem and Ramdas Pophale) SiO2 
 PCOD9056449
Probable space group: P -1
;
_chemical_formula_sum "Si O2"
_cell_formula_units_Z 12
_cell_length_a 5.799816
_cell_length_b 18.802850
_cell_length_c 14.514652
_cell_angle_alpha 19.601983
_cell_angle_beta 119.978679
_cell_angle_gamma 113.324048
_cell_volume 444.487617
_symmetry_space_group_name_H-M "P -1"
_symmetry_group_IT_number 2
_symmetry_cell_setting 'triclinic'
loop_
_space_group_symop_operation_xyz
x,y,z
-x,-y,-z
loop_
_atom_site_type_symbol
_atom_site_label
_atom_site_fract_x
_atom_site_fract_y
_atom_site_fract_z
Si Si1 0.970466 0.027223 0.223120
Si Si2 0.606877 0.870579 0.087810
Si Si3 0.281098 0.781684 0.756758
Si Si4 0.923983 0.529438 0.340945
Si Si5 0.722795 0.764040 0.716277
Si Si6 0.317795 0.754933 0.481465
O O1 0.071452 0.921264 0.468463
O O2 0.653282 0.147505 0.001702
O O3 0.113786 0.220161 0.995028
O O4 0.065849 0.827491 0.414173
O O5 0.419414 0.272120 0.365074
O O6 0.803900 0.640283 0.435963
O O7 0.732120 0.030121 0.855406
O O8 0.500000 0.000000 0.000000
O O9 0.336406 0.974877 0.595198
O O10 0.552020 0.684920 0.863087
O O11 0.056353 0.670571 0.896548
O O12 0.000000 0.500000 0.500000
O O13 0.684422 0.439917 0.353319
#
# Coordination Sequence:
#
# PCOD9056449 Si02
#       6
#     2   2   2   2   2   2
#     4  11  22  39  60  88 120 161 207 255 313 367
#     4  12  22  39  60  84 118 166 207 253 306 369
#     4   9  18  35  61  92 118 158 205 258 310 377
#     4  12  24  39  58  88 124 164 208 258 306 369
#     4   9  18  35  62  89 120 158 207 252 316 376
#     4  11  22  40  59  86 121 163 203 255 313 368
#
# _framework density 26.997377
#
# number of rings (size 3 to 8) (size 9 to 14) (size 15 to 20)
#    0.000    1.333    5.000    2.000    0.000    0.000 
#    0.000    0.833    0.000    0.000    0.000   14.000 
#    0.000    0.000    0.000    0.000    0.000    0.000 
#
# Total GULP energy -67086.443790 kJ/mol
# GULP energy per Si atom -5590.536982 kJ/mol
# Density = 2.693593 g / cm^3
# Si number density = 26.997377 Si / 1000 Ang^3
#
#
#
# Elastic Constant Matrix: (Units=GPa)
#
#
# Indices 1 2 3 4 5 6 
#
# 1 137.9060 50.0571 23.8550 4.1777 10.5057 10.2373
# 2 50.0571 177.8644 22.4486 -18.7242 -6.3528 10.8737
# 3 23.8550 22.4486 42.8548 -18.9369 -0.6497 -6.8686
# 4 4.1777 -18.7242 -18.9369 41.0494 1.1885 0.2437
# 5 10.5057 -6.3528 -0.6497 1.1885 37.2279 -4.2016
# 6 10.2373 10.8737 -6.8686 0.2437 -4.2016 55.3717
#
#
#
# Elastic Compliance Matrix: (Units=1/GPa)
#
#
# Indices 1 2 3 4 5 6 
#
# 1 0.009962 -0.002441 -0.007040 -0.005260 -0.003462 -0.002475
# 2 -0.002441 0.006862 -0.001110 0.002824 0.001646 -0.000921
# 3 -0.007040 -0.001110 0.036303 0.016846 0.002587 0.006145
# 4 -0.005260 0.002824 0.016846 0.033899 0.001457 0.002469
# 5 -0.003462 0.001646 0.002587 0.001457 0.028433 0.002789
# 6 -0.002475 -0.000921 0.006145 0.002469 0.002789 0.019661
#
#
# Mechanical properties :
#
#
# Convention : Reuss Voigt Hill
#
# Bulk Modulus (GPa) = 31.30513 61.26072 46.28292
# Shear Modulus (GPa) = 29.94864 44.21410 37.08137
#
# Velocity S-wave (km/s) = 3.33425 4.05126 3.71012
# Velocity P-wave (km/s) = 5.14235 6.68014 5.96104
#
# Compressibility (1/GPa) = 0.03194365
#
# Stress axis : x y z
#
# Youngs Moduli (GPa) = 100.38019 145.73302 27.54557
#
# Poissons Ratio (x) = 0.35576 0.19393
# Poissons Ratio (y) = 0.24505 0.03059
# Poissons Ratio (z) = 0.70671 0.16182
#
# Static dielectric constant tensor:
#      x y z
#    x 2.333850 0.029680 0.029750 
#    y 0.029680 2.124620 -0.027080 
#    z 0.029750 -0.027080 2.112230 
# 
# From -- ./inp_files/484714.got.cif
#   From: 2010.05.17/outbox.cif.g08.bks.cpg/sg2_243_cif.got.tgz:484714.got - 2010.06.03 11:33:40.
