data_PCOD9056483
_publ_section_title
;
Structure prediction by ZEFSAII (Michael W. Deem and Ramdas Pophale) SiO2 
 PCOD9056483
Probable space group: P -1
;
_chemical_formula_sum "Si O2"
_cell_formula_units_Z 12
_cell_length_a 16.565591
_cell_length_b 10.129127
_cell_length_c 10.738472
_cell_angle_alpha 141.461714
_cell_angle_beta 146.128247
_cell_angle_gamma 29.686859
_cell_volume 485.110509
_symmetry_space_group_name_H-M "P -1"
_symmetry_group_IT_number 2
_symmetry_cell_setting 'triclinic'
loop_
_space_group_symop_operation_xyz
x,y,z
-x,-y,-z
loop_
_atom_site_type_symbol
_atom_site_label
_atom_site_fract_x
_atom_site_fract_y
_atom_site_fract_z
Si Si1 0.229989 0.160895 0.223912
Si Si2 0.800048 0.876005 0.564658
Si Si3 0.108584 0.809961 0.200240
Si Si4 0.806846 0.080395 0.355454
Si Si5 0.717065 0.746440 0.105981
Si Si6 0.455274 0.345097 0.608914
O O1 0.161950 0.263932 0.356136
O O2 0.288667 0.328321 0.363758
O O3 0.422100 0.851112 0.261831
O O4 0.072965 0.154568 0.962470
O O5 0.778145 0.741180 0.321518
O O6 0.941537 0.934175 0.754376
O O7 0.601931 0.177202 0.560869
O O8 0.219242 0.803001 0.452660
O O9 0.232012 0.534368 0.076880
O O10 0.632749 0.344145 0.255625
O O11 0.813029 0.824118 0.190458
O O12 0.000000 0.000000 0.500000
O O13 0.500000 0.000000 0.000000
#
# Coordination Sequence:
#
# PCOD9056483 Si02
#       6
#     2   2   2   2   2   2
#     4   9  20  38  63  86 119 162 190 241 300 339
#     4   9  20  39  60  88 122 151 196 242 291 348
#     4  11  22  39  64  87 119 155 198 244 294 348
#     4  11  24  41  61  89 119 153 200 248 289 351
#     4  11  23  37  62  93 116 157 199 238 299 347
#     4   9  19  39  61  84 122 154 194 243 289 345
#
# _framework density 24.736632
#
# number of rings (size 3 to 8) (size 9 to 14) (size 15 to 20)
#    1.000    1.000    0.000    3.500    0.000    7.333 
#    0.000    2.500    0.000    0.000    0.000    0.000 
#    0.000    0.000    0.000    0.000    0.000    0.000 
#
# Total GULP energy -67085.374733 kJ/mol
# GULP energy per Si atom -5590.447894 kJ/mol
# Density = 2.468033 g / cm^3
# Si number density = 24.736632 Si / 1000 Ang^3
#
#
#
# Elastic Constant Matrix: (Units=GPa)
#
#
# Indices 1 2 3 4 5 6 
#
# 1 64.8541 -0.0984 8.5716 13.7219 24.3816 3.0863
# 2 -0.0984 84.0148 5.1927 15.5732 -4.4019 -0.6109
# 3 8.5716 5.1927 89.4162 11.3546 3.8985 6.0867
# 4 13.7219 15.5732 11.3546 35.1538 -5.8375 5.6235
# 5 24.3816 -4.4019 3.8985 -5.8375 41.9800 -2.6938
# 6 3.0863 -0.6109 6.0867 5.6235 -2.6938 30.0877
#
#
#
# Elastic Compliance Matrix: (Units=1/GPa)
#
#
# Indices 1 2 3 4 5 6 
#
# 1 0.023965 0.001492 -0.000034 -0.012350 -0.015573 -0.001507
# 2 0.001492 0.013134 -0.000143 -0.006623 -0.000310 0.001353
# 3 -0.000034 -0.000143 0.011874 -0.003750 -0.001738 -0.001856
# 4 -0.012350 -0.006623 -0.003750 0.040149 0.012119 -0.004528
# 5 -0.015573 -0.000310 -0.001738 0.012119 0.034859 0.002799
# 6 -0.001507 0.001353 -0.001856 -0.004528 0.002799 0.034891
#
#
# Mechanical properties :
#
#
# Convention : Reuss Voigt Hill
#
# Bulk Modulus (GPa) = 19.37866 29.51300 24.44583
# Shear Modulus (GPa) = 28.82780 36.41892 32.62336
#
# Velocity S-wave (km/s) = 3.41748 3.84118 3.63551
# Velocity P-wave (km/s) = 4.83976 5.62402 5.24656
#
# Compressibility (1/GPa) = 0.05160316
#
# Stress axis : x y z
#
# Youngs Moduli (GPa) = 41.72684 76.13555 84.22041
#
# Poissons Ratio (x) = -0.11363 0.00288
# Poissons Ratio (y) = -0.06228 0.01208
# Poissons Ratio (z) = 0.00143 0.01092
#
# Static dielectric constant tensor:
#      x y z
#    x 2.010010 0.022520 -0.006420 
#    y 0.022520 2.020850 -0.048240 
#    z -0.006420 -0.048240 1.926200 
# 
# From -- ./inp_files/60254.got.cif
#   From: 2010.05.17/outbox.cif.g08.bks.cpg/sg2_31_cif.got.tgz:60254.got - 2010.06.03 11:33:40.
