data_PCOD9056632
_publ_section_title
;
Structure prediction by ZEFSAII (Michael W. Deem and Ramdas Pophale) SiO2 
 PCOD9056632
Probable space group: P -1
;
_chemical_formula_sum "Si O2"
_cell_formula_units_Z 16
_cell_length_a 27.997172
_cell_length_b 5.150834
_cell_length_c 11.500173
_cell_angle_alpha 54.789322
_cell_angle_beta 149.999378
_cell_angle_gamma 124.602587
_cell_volume 667.905441
_symmetry_space_group_name_H-M "P -1"
_symmetry_group_IT_number 2
_symmetry_cell_setting 'triclinic'
loop_
_space_group_symop_operation_xyz
x,y,z
-x,-y,-z
loop_
_atom_site_type_symbol
_atom_site_label
_atom_site_fract_x
_atom_site_fract_y
_atom_site_fract_z
Si Si1 0.724724 0.130497 0.604440
Si Si2 0.638981 0.150531 0.652569
Si Si3 0.317453 0.599690 0.792136
Si Si4 0.993656 0.823959 0.260909
Si Si5 0.193726 0.499058 0.981700
Si Si6 0.779134 0.132010 0.276821
Si Si7 0.476626 0.453876 0.325696
Si Si8 0.063142 0.523002 0.006871
O O1 0.640692 0.107983 0.530028
O O2 0.677052 0.190040 0.366466
O O3 0.771279 0.809184 0.806363
O O4 0.820479 0.416626 0.741398
O O5 0.753303 0.213619 0.901622
O O6 0.574896 0.422539 0.474980
O O7 0.594346 0.887133 0.719939
O O8 0.237388 0.725181 0.670026
O O9 0.283674 0.221141 0.786152
O O10 0.412469 0.653004 0.061618
O O11 0.966458 0.743474 0.087054
O O12 0.107982 0.879180 0.495443
O O13 0.961910 0.134808 0.174898
O O14 0.920598 0.537625 0.242207
O O15 0.238956 0.598859 0.925907
O O16 0.500000 0.500000 0.500000
O O17 0.000000 0.500000 0.000000
#
# Coordination Sequence:
#
# PCOD9056632 Si02
#       8
#     2   2   2   2   2   2   2   2
#     4  11  25  43  69 105 148 188 233 297 359 419
#     4  11  22  45  74 100 139 183 238 292 367 426
#     4  12  28  46  73 107 146 185 240 296 355 426
#     4  11  23  39  67 101 138 190 243 292 340 413
#     4  11  24  44  69 105 145 187 240 295 359 421
#     4  12  25  46  70 106 145 193 244 293 350 422
#     4  11  25  47  77 105 134 188 238 297 367 434
#     4  11  22  40  63  97 148 196 235 280 351 421
#
# _framework density 23.955487999999999
#
# number of rings (size 3 to 8) (size 9 to 14) (size 15 to 20)
#    0.000    0.750    2.500    5.250    3.500    1.500 
#    0.000    5.625    0.000    0.000    0.000    0.000 
#    0.000    0.000    0.000    0.000    0.000    0.000 
#
# Total GULP energy -89239.832099 kJ/mol
# GULP energy per Si atom -5577.489506 kJ/mol
# Density = 2.390096 g / cm^3
# Si number density = 23.955488 Si / 1000 Ang^3
#
#
#
# Elastic Constant Matrix: (Units=GPa)
#
#
# Indices 1 2 3 4 5 6 
#
# 1 134.7215 9.0791 16.3581 -21.2718 -15.2393 6.7660
# 2 9.0791 59.1846 8.8865 -0.9762 -9.6145 -4.1723
# 3 16.3581 8.8865 120.3325 -4.8841 -8.2837 2.0721
# 4 -21.2718 -0.9762 -4.8841 25.2138 7.8815 0.1341
# 5 -15.2393 -9.6145 -8.2837 7.8815 42.6328 -2.4852
# 6 6.7660 -4.1723 2.0721 0.1341 -2.4852 31.5902
#
#
#
# Elastic Compliance Matrix: (Units=1/GPa)
#
#
# Indices 1 2 3 4 5 6 
#
# 1 0.008932 -0.001051 -0.000725 0.006919 0.001424 -0.001922
# 2 -0.001051 0.018042 -0.001034 -0.001646 0.003971 0.002995
# 3 -0.000725 -0.001034 0.008592 0.000696 0.001021 -0.000468
# 4 0.006919 -0.001646 0.000696 0.047684 -0.006722 -0.002476
# 5 0.001424 0.003971 0.001021 -0.006722 0.026433 0.002261
# 6 -0.001922 0.002995 -0.000468 -0.002476 0.002261 0.032682
#
#
# Mechanical properties :
#
#
# Convention : Reuss Voigt Hill
#
# Bulk Modulus (GPa) = 33.39524 42.54291 37.96907
# Shear Modulus (GPa) = 31.65217 38.54835 35.10026
#
# Velocity S-wave (km/s) = 3.63890 4.01579 3.83198
# Velocity P-wave (km/s) = 5.62372 6.26896 5.95509
#
# Compressibility (1/GPa) = 0.02994439
#
# Stress axis : x y z
#
# Youngs Moduli (GPa) = 111.96155 55.42624 116.38989
#
# Poissons Ratio (x) = 0.05828 0.08434
# Poissons Ratio (y) = 0.11772 0.12041
# Poissons Ratio (z) = 0.08113 0.05734
#
# Static dielectric constant tensor:
#      x y z
#    x 1.939040 -0.006200 -0.035580 
#    y -0.006200 2.145760 0.027130 
#    z -0.035580 0.027130 2.015430 
# 
# From -- ./inp_files/475981.got.cif
#   From: 2010.05.17/outbox.cif.g08.bks.cpg/sg2_238_cif.got.tgz:475981.got - 2010.06.03 11:33:40.
