data_PCOD9056803
_publ_section_title
;
Structure prediction by ZEFSAII (Michael W. Deem and Ramdas Pophale) SiO2 
 PCOD9056803
Probable space group: P -1
;
_chemical_formula_sum "Si O2"
_cell_formula_units_Z 16
_cell_length_a 8.955195
_cell_length_b 14.693492
_cell_length_c 12.114567
_cell_angle_alpha 77.348730
_cell_angle_beta 143.795081
_cell_angle_gamma 117.282224
_cell_volume 801.543607
_symmetry_space_group_name_H-M "P -1"
_symmetry_group_IT_number 2
_symmetry_cell_setting 'triclinic'
loop_
_space_group_symop_operation_xyz
x,y,z
-x,-y,-z
loop_
_atom_site_type_symbol
_atom_site_label
_atom_site_fract_x
_atom_site_fract_y
_atom_site_fract_z
Si Si1 0.078693 0.090488 0.613850
Si Si2 0.188256 0.988617 0.287286
Si Si3 0.787426 0.829147 0.901934
Si Si4 0.854634 0.519439 0.516672
Si Si5 0.694906 0.470850 0.044976
Si Si6 0.826970 0.238330 0.340265
Si Si7 0.194315 0.372034 0.128850
Si Si8 0.661179 0.269184 0.996988
O O1 0.418696 0.175501 0.804155
O O2 0.982593 0.041226 0.691509
O O3 0.910742 0.154318 0.462128
O O4 0.000000 0.000000 0.500000
O O5 0.500000 0.000000 0.500000
O O6 0.205276 0.093336 0.212654
O O7 0.011816 0.897502 0.114457
O O8 0.463415 0.775236 0.771977
O O9 0.852679 0.738334 0.921606
O O10 0.520731 0.434716 0.352342
O O11 0.000000 0.500000 0.500000
O O12 0.031625 0.512464 0.726525
O O13 0.918134 0.641168 0.518959
O O14 0.500000 0.500000 0.000000
O O15 0.798018 0.549170 0.982445
O O16 0.540914 0.346667 0.950249
O O17 0.754498 0.224850 0.170288
O O18 0.945880 0.343684 0.076932
#
# Coordination Sequence:
#
# PCOD9056803 Si02
#       8
#     2   2   2   2   2   2   2   2
#     4  12  28  44  70  98 137 182 226 280 347 394
#     4  11  25  45  69  98 131 171 238 282 325 399
#     4  11  24  43  71 100 129 178 225 284 338 390
#     4  11  22  40  70 102 129 172 222 272 335 402
#     4  11  23  42  71  98 133 180 223 268 335 403
#     4  11  23  45  68  97 136 179 222 275 339 402
#     4  12  25  41  69 100 138 172 220 275 339 404
#     4  11  27  45  64 100 144 175 219 280 339 406
#
# _framework density 19.961485
#
# number of rings (size 3 to 8) (size 9 to 14) (size 15 to 20)
#    0.000    0.750    5.000    1.875    3.500    4.500 
#    0.000    0.000    0.000    0.000    0.000    0.000 
#    0.000    0.000    0.000    0.000    0.000    0.000 
#
# Total GULP energy -89483.844189 kJ/mol
# GULP energy per Si atom -5592.740262 kJ/mol
# Density = 1.991605 g / cm^3
# Si number density = 19.961485 Si / 1000 Ang^3
#
#
#
# Elastic Constant Matrix: (Units=GPa)
#
#
# Indices 1 2 3 4 5 6 
#
# 1 78.6256 28.9688 33.5963 3.3204 -2.0879 9.1807
# 2 28.9688 87.6999 42.3426 0.2230 -22.8889 3.6726
# 3 33.5963 42.3426 108.0638 7.2947 -17.1079 -0.3973
# 4 3.3204 0.2230 7.2947 41.6852 9.8224 -10.3607
# 5 -2.0879 -22.8889 -17.1079 9.8224 29.7374 7.7531
# 6 9.1807 3.6726 -0.3973 -10.3607 7.7531 38.3288
#
#
#
# Elastic Compliance Matrix: (Units=1/GPa)
#
#
# Indices 1 2 3 4 5 6 
#
# 1 0.016226 -0.004246 -0.003900 -0.000517 -0.003429 -0.002966
# 2 -0.004246 0.018392 -0.003378 -0.003720 0.014367 -0.004692
# 3 -0.003900 -0.003378 0.012968 -0.003535 0.005954 -0.000768
# 4 -0.000517 -0.003720 -0.003535 0.032399 -0.019038 0.013052
# 5 -0.003429 0.014367 0.005954 -0.019038 0.058727 -0.017519
# 6 -0.002966 -0.004692 -0.000768 0.013052 -0.017519 0.034314
#
#
# Mechanical properties :
#
#
# Convention : Reuss Voigt Hill
#
# Bulk Modulus (GPa) = 40.75231 53.80052 47.27641
# Shear Modulus (GPa) = 24.47943 33.24906 28.86424
#
# Velocity S-wave (km/s) = 3.50570 4.08568 3.80675
# Velocity P-wave (km/s) = 6.07012 7.01909 6.56179
#
# Compressibility (1/GPa) = 0.02453849
#
# Stress axis : x y z
#
# Youngs Moduli (GPa) = 61.62766 54.37268 77.11196
#
# Poissons Ratio (x) = 0.23089 0.30071
# Poissons Ratio (y) = 0.26169 0.26047
# Poissons Ratio (z) = 0.24033 0.18366
#
# Static dielectric constant tensor:
#      x y z
#    x 1.689600 -0.006160 -0.009180 
#    y -0.006160 1.694800 0.018930 
#    z -0.009180 0.018930 1.685310 
# 
# From -- ./inp_files/399011.got.cif
#   From: 2010.05.17/outbox.cif.g08.bks.cpg/sg2_200_cif.got.tgz:399011.got - 2010.06.03 11:33:40.
