data_PCOD9056539
_publ_section_title
;
Structure prediction by ZEFSAII (Michael W. Deem and Ramdas Pophale) SiO2 
 PCOD9056539
Probable space group: P -1
;
_chemical_formula_sum "Si O2"
_cell_formula_units_Z 14
_cell_length_a 9.556535
_cell_length_b 14.360609
_cell_length_c 10.540705
_cell_angle_alpha 138.690899
_cell_angle_beta 136.965760
_cell_angle_gamma 42.037038
_cell_volume 588.385029
_symmetry_space_group_name_H-M "P -1"
_symmetry_group_IT_number 2
_symmetry_cell_setting 'triclinic'
loop_
_space_group_symop_operation_xyz
x,y,z
-x,-y,-z
loop_
_atom_site_type_symbol
_atom_site_label
_atom_site_fract_x
_atom_site_fract_y
_atom_site_fract_z
Si Si1 0.333120 0.519670 0.787503
Si Si2 0.246590 0.254027 0.549835
Si Si3 0.822868 0.626259 0.919276
Si Si4 0.258853 0.602291 0.544661
Si Si5 0.709710 0.087478 0.806151
Si Si6 0.653770 0.126210 0.084935
Si Si7 0.984298 0.791155 0.990105
O O1 0.301645 0.361190 0.597615
O O2 0.393838 0.549481 0.715190
O O3 0.096577 0.664404 0.821919
O O4 0.500000 0.500000 0.000000
O O5 0.448375 0.205528 0.735684
O O6 0.002173 0.352243 0.545415
O O7 0.265998 0.086879 0.350424
O O8 0.697862 0.535944 0.666779
O O9 0.617402 0.777692 0.998135
O O10 0.966673 0.688508 0.988568
O O11 0.000000 0.500000 0.000000
O O12 0.262162 0.763941 0.666060
O O13 0.153562 0.876392 0.178700
O O14 0.770795 0.120612 0.020228
O O15 0.742155 0.943249 0.985167
#
# Coordination Sequence:
#
# PCOD9056539 Si02
#       7
#     2   2   2   2   2   2   2
#     4  12  24  41  74 113 141 180 238 304 353 422
#     4  11  22  39  67 112 140 176 236 296 357 418
#     4  12  30  49  72 101 146 196 241 290 353 428
#     4  12  24  43  75 101 141 186 239 290 362 418
#     4  11  23  41  74 104 143 182 234 303 359 414
#     4  12  25  47  69 106 145 188 236 293 359 431
#     4  12  24  46  74 105 144 188 234 301 360 414
#
# _framework density 23.793941
#
# number of rings (size 3 to 8) (size 9 to 14) (size 15 to 20)
#    0.000    0.286    5.714    3.429    4.000    0.000 
#    0.000    0.714    0.000    0.000    0.000    0.000 
#    0.000    0.000    0.000    0.000    0.000    0.000 
#
# Total GULP energy -78129.166064 kJ/mol
# GULP energy per Si atom -5580.654719 kJ/mol
# Density = 2.373979 g / cm^3
# Si number density = 23.793941 Si / 1000 Ang^3
#
#
#
# Elastic Constant Matrix: (Units=GPa)
#
#
# Indices 1 2 3 4 5 6 
#
# 1 82.3666 40.1448 11.2676 6.1328 -10.6635 10.3747
# 2 40.1448 157.9085 51.4898 18.8538 -11.7606 9.0873
# 3 11.2676 51.4898 90.0653 9.5828 0.5445 13.3817
# 4 6.1328 18.8538 9.5828 47.2826 0.6575 15.5284
# 5 -10.6635 -11.7606 0.5445 0.6575 32.1508 10.9403
# 6 10.3747 9.0873 13.3817 15.5284 10.9403 50.5794
#
#
#
# Elastic Compliance Matrix: (Units=1/GPa)
#
#
# Indices 1 2 3 4 5 6 
#
# 1 0.014812 -0.003433 0.000590 0.000507 0.004930 -0.003800
# 2 -0.003433 0.009137 -0.004630 -0.002482 0.002132 0.000588
# 3 0.000590 -0.004630 0.014115 -0.000158 -0.000779 -0.002806
# 4 0.000507 -0.002482 -0.000158 0.024526 0.001288 -0.007424
# 5 0.004930 0.002132 -0.000779 0.001288 0.036749 -0.009532
# 6 -0.003800 0.000588 -0.002806 -0.007424 -0.009532 0.025528
#
#
# Mechanical properties :
#
#
# Convention : Reuss Voigt Hill
#
# Bulk Modulus (GPa) = 43.25604 59.57164 51.41384
# Shear Modulus (GPa) = 33.89408 41.16512 37.52960
#
# Velocity S-wave (km/s) = 3.77833 4.16392 3.97580
# Velocity P-wave (km/s) = 6.10354 6.94323 6.53688
#
# Compressibility (1/GPa) = 0.02311816
#
# Stress axis : x y z
#
# Youngs Moduli (GPa) = 67.51145 109.44961 70.84796
#
# Poissons Ratio (x) = 0.37573 -0.04182
# Poissons Ratio (y) = 0.23176 0.32803
# Poissons Ratio (z) = -0.03985 0.50676
#
# Static dielectric constant tensor:
#      x y z
#    x 1.941310 -0.020700 0.004160 
#    y -0.020700 1.958350 -0.041040 
#    z 0.004160 -0.041040 1.957180 
# 
# From -- ./inp_files/431999.got.cif
#   From: 2010.05.17/outbox.cif.g08.bks.cpg/sg2_216_cif.got.tgz:431999.got - 2010.06.03 11:33:40.
