data_PCOD9056215
_publ_section_title
;
Structure prediction by ZEFSAII (Michael W. Deem and Ramdas Pophale) SiO2 
 PCOD9056215
Probable space group: P -1
;
_chemical_formula_sum "Si O2"
_cell_formula_units_Z 16
_cell_length_a 19.421417
_cell_length_b 17.721349
_cell_length_c 5.540101
_cell_angle_alpha 122.511576
_cell_angle_beta 133.696921
_cell_angle_gamma 32.062156
_cell_volume 726.065041
_symmetry_space_group_name_H-M "P -1"
_symmetry_group_IT_number 2
_symmetry_cell_setting 'triclinic'
loop_
_space_group_symop_operation_xyz
x,y,z
-x,-y,-z
loop_
_atom_site_type_symbol
_atom_site_label
_atom_site_fract_x
_atom_site_fract_y
_atom_site_fract_z
Si Si1 0.836836 0.857647 0.381232
Si Si2 0.193451 0.578120 0.912364
Si Si3 0.699335 0.653705 0.524143
Si Si4 0.051943 0.547486 0.856922
Si Si5 0.555579 0.052612 0.347984
Si Si6 0.266125 0.189044 0.298329
Si Si7 0.881681 0.179513 0.797922
Si Si8 0.073810 0.048296 0.540305
O O1 0.015044 0.716798 0.634038
O O2 0.705818 0.982399 0.464251
O O3 0.835545 0.930734 0.286425
O O4 0.778559 0.802604 0.067142
O O5 0.299350 0.446305 0.756018
O O6 0.173294 0.525793 0.996457
O O7 0.232344 0.652310 0.190267
O O8 0.572379 0.779323 0.622528
O O9 0.692483 0.737759 0.451491
O O10 0.867205 0.538936 0.849083
O O11 0.000000 0.500000 0.500000
O O12 0.892095 0.714710 0.786344
O O13 0.610729 0.971367 0.594825
O O14 0.500000 0.000000 0.000000
O O15 0.832552 0.113427 0.516477
O O16 0.995447 0.114123 0.728796
O O17 0.955992 0.124619 0.155452
#
# Coordination Sequence:
#
# PCOD9056215 Si02
#       8
#     2   2   2   2   2   2   2   2
#     4  11  22  37  61  84 117 162 205 251 304 366
#     4  11  22  36  59  87 120 160 197 255 315 367
#     4  12  25  36  55  85 120 159 206 255 306 362
#     4  12  21  34  57  83 115 153 203 256 303 361
#     4  12  26  40  54  82 121 166 210 253 299 361
#     4  12  22  38  57  79 115 161 206 254 301 359
#     4   9  19  36  60  94 127 153 196 259 316 367
#     4   9  19  36  61  93 124 156 200 256 312 366
#
# _framework density 22.036593
#
# number of rings (size 3 to 8) (size 9 to 14) (size 15 to 20)
#    0.000    1.000    5.000    3.000    3.500    0.000 
#    0.000    0.000    0.000    0.750    0.000    1.750 
#    0.000    0.000    0.000    0.000    0.000    0.000 
#
# Total GULP energy -89088.552116 kJ/mol
# GULP energy per Si atom -5568.034507 kJ/mol
# Density = 2.198644 g / cm^3
# Si number density = 22.036593 Si / 1000 Ang^3
#
#
#
# Elastic Constant Matrix: (Units=GPa)
#
#
# Indices 1 2 3 4 5 6 
#
# 1 76.6272 34.7120 -5.7171 4.5078 -6.3161 3.5845
# 2 34.7120 157.5967 22.3619 33.1263 6.8619 2.2930
# 3 -5.7171 22.3619 37.1365 11.9055 -5.1000 1.6877
# 4 4.5078 33.1263 11.9055 36.5426 4.5007 2.9884
# 5 -6.3161 6.8619 -5.1000 4.5007 17.8679 7.4919
# 6 3.5845 2.2930 1.6877 2.9884 7.4919 41.4963
#
#
#
# Elastic Compliance Matrix: (Units=1/GPa)
#
#
# Indices 1 2 3 4 5 6 
#
# 1 0.017224 -0.005138 0.007993 -0.001275 0.012190 -0.003638
# 2 -0.005138 0.009749 -0.005827 -0.005643 -0.006526 0.001727
# 3 0.007993 -0.005827 0.037979 -0.010206 0.020522 -0.004883
# 4 -0.001275 -0.005643 -0.010206 0.037264 -0.010612 0.000069
# 5 0.012190 -0.006526 0.020522 -0.010612 0.077498 -0.014754
# 6 -0.003638 0.001727 -0.004883 0.000069 -0.014754 0.027175
#
#
# Mechanical properties :
#
#
# Convention : Reuss Voigt Hill
#
# Bulk Modulus (GPa) = 16.94645 41.56376 29.25510
# Shear Modulus (GPa) = 21.50531 33.84827 27.67679
#
# Velocity S-wave (km/s) = 3.12731 3.92344 3.54778
# Velocity P-wave (km/s) = 4.55488 6.27907 5.48515
#
# Compressibility (1/GPa) = 0.05900942
#
# Stress axis : x y z
#
# Youngs Moduli (GPa) = 58.05890 102.57652 26.33044
#
# Poissons Ratio (x) = 0.52700 -0.21047
# Poissons Ratio (y) = 0.29829 0.15342
# Poissons Ratio (z) = -0.46409 0.59770
#
# Static dielectric constant tensor:
#      x y z
#    x 1.900450 -0.015740 -0.076780 
#    y -0.015740 1.848100 0.034250 
#    z -0.076780 0.034250 1.918650 
# 
# From -- ./inp_files/51853.got.cif
#   From: 2010.05.17/outbox.cif.g08.bks.cpg/sg2_26_cif.got.tgz:51853.got - 2010.06.03 11:33:40.
