data_PCOD9056125
_publ_section_title
;
Structure prediction by ZEFSAII (Michael W. Deem and Ramdas Pophale) SiO2 
 PCOD9056125
Probable space group: P -1
;
_chemical_formula_sum "Si O2"
_cell_formula_units_Z 15
_cell_length_a 9.126886
_cell_length_b 6.349013
_cell_length_c 11.716275
_cell_angle_alpha 93.951776
_cell_angle_beta 85.042195
_cell_angle_gamma 99.539986
_cell_volume 665.994786
_symmetry_space_group_name_H-M "P -1"
_symmetry_group_IT_number 2
_symmetry_cell_setting 'triclinic'
loop_
_space_group_symop_operation_xyz
x,y,z
-x,-y,-z
loop_
_atom_site_type_symbol
_atom_site_label
_atom_site_fract_x
_atom_site_fract_y
_atom_site_fract_z
Si Si1 0.652498 0.027980 0.062732
Si Si2 0.526855 0.889578 0.308958
Si Si3 0.000000 0.000000 0.500000
Si Si4 0.009155 0.731373 0.276789
Si Si5 0.894953 0.391996 0.103575
Si Si6 0.853509 0.872328 0.862434
Si Si7 0.668799 0.824302 0.535868
Si Si8 0.727689 0.501964 0.690206
O O1 0.737029 0.272503 0.067964
O O2 0.620707 0.959285 0.192667
O O3 0.500000 0.000000 0.000000
O O4 0.766615 0.897485 0.985819
O O5 0.613579 0.821581 0.410368
O O6 0.399616 0.691837 0.277011
O O7 0.449997 0.083510 0.371713
O O8 0.054299 0.134928 0.616829
O O9 0.174890 0.020066 0.449345
O O10 0.114836 0.580917 0.322359
O O11 0.890205 0.571465 0.205994
O O12 0.107137 0.896602 0.190463
O O13 0.990518 0.214625 0.137112
O O14 0.000000 0.500000 0.000000
O O15 0.750738 0.700690 0.783669
O O16 0.693537 0.595376 0.573488
#
# Coordination Sequence:
#
# PCOD9056125 Si02
#       8
#     2   2   1   2   2   2   2   2
#     4  12  26  47  76 107 149 194 240 303 373 432
#     4  11  26  47  67 105 153 190 239 302 368 436
#     4  12  24  46  76 100 144 192 244 302 366 430
#     4  11  24  45  75 109 146 183 249 302 362 432
#     4  11  26  47  77 106 146 196 246 302 363 436
#     4  11  24  46  75 105 148 188 240 305 362 433
#     4  11  25  46  71 102 148 188 245 306 358 431
#     4  11  21  46  73 102 143 195 235 300 366 432
#
# _framework density 22.522698999999999
#
# number of rings (size 3 to 8) (size 9 to 14) (size 15 to 20)
#    0.000    0.800    4.000    2.400    3.733    1.067 
#   12.000    0.000    0.000    0.000    0.000    0.000 
#    0.000    0.000    0.000    0.000    0.000    0.000 
#
# Total GULP energy -83691.791323 kJ/mol
# GULP energy per Si atom -5579.452755 kJ/mol
# Density = 2.247144 g / cm^3
# Si number density = 22.522699 Si / 1000 Ang^3
#
#
#
# Elastic Constant Matrix: (Units=GPa)
#
#
# Indices 1 2 3 4 5 6 
#
# 1 68.8950 24.2962 30.7648 0.0238 7.8473 23.0284
# 2 24.2962 68.9179 41.9787 0.2791 15.8485 17.9441
# 3 30.7648 41.9787 160.3328 11.2442 -11.2489 3.9927
# 4 0.0238 0.2791 11.2442 34.4163 -3.8975 20.0109
# 5 7.8473 15.8485 -11.2489 -3.8975 28.3354 5.7587
# 6 23.0284 17.9441 3.9927 20.0109 5.7587 38.6910
#
#
#
# Elastic Compliance Matrix: (Units=1/GPa)
#
#
# Indices 1 2 3 4 5 6 
#
# 1 0.023825 0.000975 -0.005483 0.013268 -0.003343 -0.020431
# 2 0.000975 0.026254 -0.008340 0.009492 -0.013967 -0.014726
# 3 -0.005483 -0.008340 0.010307 -0.007641 0.007412 0.008916
# 4 0.013268 0.009492 -0.007641 0.055699 0.003958 -0.040907
# 5 -0.003343 -0.013967 0.007412 0.003958 0.047813 -0.001461
# 6 -0.020431 -0.014726 0.008916 -0.040907 -0.001461 0.065290
#
#
# Mechanical properties :
#
#
# Convention : Reuss Voigt Hill
#
# Bulk Modulus (GPa) = 28.82678 54.69168 41.75923
# Shear Modulus (GPa) = 18.76552 33.69560 26.23056
#
# Velocity S-wave (km/s) = 2.88962 3.87211 3.41637
# Velocity P-wave (km/s) = 4.89489 6.65782 5.84323
#
# Compressibility (1/GPa) = 0.03468997
#
# Stress axis : x y z
#
# Youngs Moduli (GPa) = 41.97311 38.08986 97.02612
#
# Poissons Ratio (x) = -0.03716 0.53201
# Poissons Ratio (y) = -0.04094 0.80918
# Poissons Ratio (z) = 0.23015 0.31766
#
# Static dielectric constant tensor:
#      x y z
#    x 1.840800 -0.009750 0.026740 
#    y -0.009750 1.849320 -0.015650 
#    z 0.026740 -0.015650 1.826010 
# 
# From -- ./inp_files/373161.got.cif
#   From: 2010.05.17/outbox.cif.g08.bks.cpg/sg2_187_cif.got.tgz:373161.got - 2010.06.03 11:33:40.
