data_PCOD9056427
_publ_section_title
;
Structure prediction by ZEFSAII (Michael W. Deem and Ramdas Pophale) SiO2 
 PCOD9056427
Probable space group: P -1
;
_chemical_formula_sum "Si O2"
_cell_formula_units_Z 14
_cell_length_a 9.601180
_cell_length_b 21.000091
_cell_length_c 5.049894
_cell_angle_alpha 88.553522
_cell_angle_beta 72.035239
_cell_angle_gamma 36.429117
_cell_volume 528.470820
_symmetry_space_group_name_H-M "P -1"
_symmetry_group_IT_number 2
_symmetry_cell_setting 'triclinic'
loop_
_space_group_symop_operation_xyz
x,y,z
-x,-y,-z
loop_
_atom_site_type_symbol
_atom_site_label
_atom_site_fract_x
_atom_site_fract_y
_atom_site_fract_z
Si Si1 0.356699 0.173557 0.774853
Si Si2 0.809569 0.524662 0.936685
Si Si3 0.300592 0.506788 0.472901
Si Si4 0.956525 0.954797 0.224457
Si Si5 0.775827 0.249913 0.231287
Si Si6 0.476756 0.751319 0.257621
Si Si7 0.959429 0.753430 0.552625
O O1 0.328704 0.260385 0.809623
O O2 0.160078 0.212987 0.672145
O O3 0.280611 0.175280 0.107226
O O4 0.660299 0.056385 0.507572
O O5 0.886976 0.466331 0.618681
O O6 0.722956 0.502871 0.203817
O O7 0.576658 0.661240 0.007955
O O8 0.000000 0.500000 0.000000
O O9 0.598224 0.374955 0.222849
O O10 0.196108 0.615403 0.473566
O O11 0.189103 0.878885 0.312893
O O12 0.018661 0.865291 0.050116
O O13 0.000000 0.000000 0.000000
O O14 0.567304 0.272622 0.450795
O O15 0.925785 0.222043 0.409512
#
# Coordination Sequence:
#
# PCOD9056427 Si02
#       7
#     2   2   2   2   2   2   2
#     4  12  28  46  75 106 148 190 241 301 363 419
#     4  11  22  38  70 105 142 181 236 297 355 416
#     4  11  23  45  68 103 144 191 232 288 358 437
#     4  12  25  48  78 104 142 191 250 299 355 427
#     4  11  27  46  76 106 142 194 245 291 360 437
#     4  11  24  46  72 106 141 188 250 292 354 432
#     4  12  28  48  71 110 152 188 235 300 367 425
#
# _framework density 26.491533
#
# number of rings (size 3 to 8) (size 9 to 14) (size 15 to 20)
#    0.000    0.571    2.857    4.714    4.000    2.286 
#    0.000    3.571    0.000    0.000    0.000    0.000 
#    0.000    0.000    0.000    0.000    0.000    0.000 
#
# Total GULP energy -78402.262295 kJ/mol
# GULP energy per Si atom -5600.161593 kJ/mol
# Density = 2.643124 g / cm^3
# Si number density = 26.491533 Si / 1000 Ang^3
#
#
#
# Elastic Constant Matrix: (Units=GPa)
#
#
# Indices 1 2 3 4 5 6 
#
# 1 109.4948 10.8259 26.6895 1.9818 12.7241 -5.7292
# 2 10.8259 113.7875 38.3395 6.4770 5.8749 -10.8981
# 3 26.6895 38.3395 117.1350 5.2475 13.3575 4.8557
# 4 1.9818 6.4770 5.2475 53.7472 -2.2193 6.3353
# 5 12.7241 5.8749 13.3575 -2.2193 55.4413 0.8391
# 6 -5.7292 -10.8981 4.8557 6.3353 0.8391 29.0792
#
#
#
# Elastic Compliance Matrix: (Units=1/GPa)
#
#
# Indices 1 2 3 4 5 6 
#
# 1 0.010014 0.000165 -0.002207 -0.000554 -0.001845 0.002577
# 2 0.000165 0.010561 -0.003581 -0.001528 -0.000430 0.004934
# 3 -0.002207 -0.003581 0.010547 -0.000176 -0.001610 -0.003453
# 4 -0.000554 -0.001528 -0.000176 0.019457 0.001185 -0.004926
# 5 -0.001845 -0.000430 -0.001610 0.001185 0.018957 -0.001061
# 6 0.002577 0.004934 -0.003453 -0.004926 -0.001061 0.038426
#
#
# Mechanical properties :
#
#
# Convention : Reuss Voigt Hill
#
# Bulk Modulus (GPa) = 50.31703 54.68079 52.49891
# Shear Modulus (GPa) = 39.73469 45.29103 42.51286
#
# Velocity S-wave (km/s) = 3.87706 4.13927 4.01031
# Velocity P-wave (km/s) = 6.25116 6.59776 6.42679
#
# Compressibility (1/GPa) = 0.01987399
#
# Stress axis : x y z
#
# Youngs Moduli (GPa) = 99.86166 94.68740 94.81480
#
# Poissons Ratio (x) = -0.01558 0.20927
# Poissons Ratio (y) = -0.01643 0.33956
# Poissons Ratio (z) = 0.22041 0.33910
#
# Static dielectric constant tensor:
#      x y z
#    x 2.096830 -0.039960 -0.023030 
#    y -0.039960 2.187800 0.059310 
#    z -0.023030 0.059310 2.087110 
# 
# From -- ./inp_files/53466.got.cif
#   From: 2010.05.17/outbox.cif.g08.bks.cpg/sg2_27_cif.got.tgz:53466.got - 2010.06.03 11:33:40.
