data_PCOD9056839
_publ_section_title
;
Structure prediction by ZEFSAII (Michael W. Deem and Ramdas Pophale) SiO2 
 PCOD9056839
Probable space group: P -1
;
_chemical_formula_sum "Si O2"
_cell_formula_units_Z 16
_cell_length_a 15.072023
_cell_length_b 13.306183
_cell_length_c 10.524358
_cell_angle_alpha 30.899417
_cell_angle_beta 141.416624
_cell_angle_gamma 141.239188
_cell_volume 635.612763
_symmetry_space_group_name_H-M "P -1"
_symmetry_group_IT_number 2
_symmetry_cell_setting 'triclinic'
loop_
_space_group_symop_operation_xyz
x,y,z
-x,-y,-z
loop_
_atom_site_type_symbol
_atom_site_label
_atom_site_fract_x
_atom_site_fract_y
_atom_site_fract_z
Si Si1 0.311573 0.504607 0.418996
Si Si2 0.742219 0.446509 0.059121
Si Si3 0.528571 0.925556 0.833696
Si Si4 0.929901 0.334941 0.915431
Si Si5 0.218949 0.049297 0.710734
Si Si6 0.369376 0.342636 0.936868
Si Si7 0.616771 0.809223 0.492182
Si Si8 0.165233 0.554288 0.571291
O O1 0.166948 0.576427 0.194158
O O2 0.254167 0.296131 0.497788
O O3 0.354187 0.435777 0.679909
O O4 0.470948 0.685488 0.375548
O O5 0.701231 0.654716 0.799846
O O6 0.597262 0.275471 0.025134
O O7 0.740422 0.347845 0.304584
O O8 0.903032 0.509409 0.101729
O O9 0.447874 0.097853 0.562676
O O10 0.660757 0.991387 0.013739
O O11 0.592538 0.859632 0.846716
O O12 0.837712 0.316451 0.698402
O O13 0.930657 0.119353 0.212767
O O14 0.264140 0.021381 0.647791
O O15 0.213718 0.353430 0.810849
O O16 0.500000 0.500000 0.000000
O O17 0.000000 0.500000 0.500000
#
# Coordination Sequence:
#
# PCOD9056839 Si02
#       8
#     2   2   2   2   2   2   2   2
#     4  10  21  38  65  91 124 174 212 265 322 380
#     4  11  23  43  63  97 135 166 213 274 322 383
#     4  11  23  38  67  98 128 171 218 263 323 383
#     4  10  23  41  66  93 133 169 216 264 327 390
#     4  11  23  41  67  95 125 175 224 264 319 387
#     4  10  17  36  63  91 127 157 213 264 308 378
#     4  12  23  40  68  95 131 169 224 268 317 381
#     4   9  19  40  67  90 131 175 203 258 329 388
#
# _framework density 25.172559
#
# number of rings (size 3 to 8) (size 9 to 14) (size 15 to 20)
#    0.000    1.500    5.000    0.750    0.000    1.500 
#    0.000   10.625    0.000   16.500    0.000    0.000 
#    0.000    0.000    0.000    0.000    0.000    0.000 
#
# Total GULP energy -89283.587901 kJ/mol
# GULP energy per Si atom -5580.224244 kJ/mol
# Density = 2.511526 g / cm^3
# Si number density = 25.172559 Si / 1000 Ang^3
#
#
#
# Elastic Constant Matrix: (Units=GPa)
#
#
# Indices 1 2 3 4 5 6 
#
# 1 134.8853 38.8413 48.8399 -7.3015 16.2567 3.2999
# 2 38.8413 64.4669 17.2297 -4.3389 5.6715 8.5540
# 3 48.8399 17.2297 90.2075 -4.8242 7.5531 -4.9234
# 4 -7.3015 -4.3389 -4.8242 36.4657 -5.0215 -3.2719
# 5 16.2567 5.6715 7.5531 -5.0215 56.5024 3.3251
# 6 3.2999 8.5540 -4.9234 -3.2719 3.3251 47.5940
#
#
#
# Elastic Compliance Matrix: (Units=1/GPa)
#
#
# Indices 1 2 3 4 5 6 
#
# 1 0.010845 -0.005038 -0.004722 0.000670 -0.001915 -0.000155
# 2 -0.005038 0.019322 -0.001084 0.000851 -0.000083 -0.003171
# 3 -0.004722 -0.001084 0.014048 0.000908 -0.000452 0.002069
# 4 0.000670 0.000851 0.000908 0.028207 0.002008 0.001693
# 5 -0.001915 -0.000083 -0.000452 0.002008 0.018559 -0.001058
# 6 -0.000155 -0.003171 0.002069 0.001693 -0.001058 0.021996
#
#
# Mechanical properties :
#
#
# Convention : Reuss Voigt Hill
#
# Bulk Modulus (GPa) = 44.38747 55.48683 49.93715
# Shear Modulus (GPa) = 35.16843 40.42233 37.79538
#
# Velocity S-wave (km/s) = 3.74183 4.01160 3.87906
# Velocity P-wave (km/s) = 6.02826 6.59907 6.32011
#
# Compressibility (1/GPa) = 0.02252888
#
# Stress axis : x y z
#
# Youngs Moduli (GPa) = 92.20921 51.75401 71.18344
#
# Poissons Ratio (x) = 0.26074 0.33611
# Poissons Ratio (y) = 0.46455 0.07713
# Poissons Ratio (z) = 0.43538 0.05608
#
# Static dielectric constant tensor:
#      x y z
#    x 2.045280 -0.014730 0.006580 
#    y -0.014730 2.038870 -0.007500 
#    z 0.006580 -0.007500 2.048880 
# 
# From -- ./inp_files/454406.got.cif
#   From: 2010.05.17/outbox.cif.g08.bks.cpg/sg2_228_cif.got.tgz:454406.got - 2010.06.03 11:33:40.
