data_PCOD9056496
_publ_section_title
;
Structure prediction by ZEFSAII (Michael W. Deem and Ramdas Pophale) SiO2 
 PCOD9056496
Probable space group: P -1
;
_chemical_formula_sum "Si O2"
_cell_formula_units_Z 16
_cell_length_a 8.936358
_cell_length_b 13.192676
_cell_length_c 14.986972
_cell_angle_alpha 41.006037
_cell_angle_beta 40.235079
_cell_angle_gamma 53.788362
_cell_volume 748.384132
_symmetry_space_group_name_H-M "P -1"
_symmetry_group_IT_number 2
_symmetry_cell_setting 'triclinic'
loop_
_space_group_symop_operation_xyz
x,y,z
-x,-y,-z
loop_
_atom_site_type_symbol
_atom_site_label
_atom_site_fract_x
_atom_site_fract_y
_atom_site_fract_z
Si Si1 0.836262 0.218296 0.488344
Si Si2 0.925665 0.812447 0.064643
Si Si3 0.872743 0.335797 0.585673
Si Si4 0.327695 0.201032 0.504994
Si Si5 0.269177 0.839186 0.055357
Si Si6 0.209725 0.132648 0.252018
Si Si7 0.160479 0.865143 0.742053
Si Si8 0.623684 0.653297 0.434858
O O1 0.823477 0.231795 0.591148
O O2 0.652230 0.342361 0.450568
O O3 0.090867 0.227836 0.324176
O O4 0.760325 0.046094 0.612241
O O5 0.733015 0.696295 0.261944
O O6 0.121896 0.802182 0.058882
O O7 0.042483 0.788475 0.931837
O O8 0.801457 0.982609 0.008442
O O9 0.796330 0.260767 0.762617
O O10 0.743113 0.497595 0.519507
O O11 0.152433 0.336744 0.460574
O O12 0.591734 0.211717 0.346927
O O13 0.321073 0.213040 0.607297
O O14 0.225844 0.039812 0.625014
O O15 0.541006 0.817640 0.925791
O O16 0.020466 0.135714 0.256482
#
# Coordination Sequence:
#
# PCOD9056496 Si02
#       8
#     2   2   2   2   2   2   2   2
#     4  11  24  41  64  96 124 172 212 253 314 375
#     4  11  22  39  64  98 122 162 214 264 310 363
#     4  12  25  43  65  93 129 172 209 252 318 379
#     4  11  22  41  66  93 124 167 212 257 312 372
#     4  11  23  40  64  96 127 161 214 262 309 372
#     4  11  23  40  66  95 130 162 210 266 313 364
#     4  11  23  39  67  97 127 160 211 268 313 363
#     4  12  24  44  65  90 133 168 209 259 311 380
#
# _framework density 21.379394999999999
#
# number of rings (size 3 to 8) (size 9 to 14) (size 15 to 20)
#    0.000    0.750    6.250    1.500    3.500    1.000 
#    0.000    2.500    0.000    0.000    0.000    0.000 
#    0.000    0.000    0.000    0.000    0.000    0.000 
#
# Total GULP energy -89463.592926 kJ/mol
# GULP energy per Si atom -5591.474558 kJ/mol
# Density = 2.133073 g / cm^3
# Si number density = 21.379395 Si / 1000 Ang^3
#
#
#
# Elastic Constant Matrix: (Units=GPa)
#
#
# Indices 1 2 3 4 5 6 
#
# 1 70.7270 43.6674 33.3368 12.4279 8.1985 -26.2317
# 2 43.6674 110.7933 68.1245 19.4429 3.1234 -39.9753
# 3 33.3368 68.1245 113.4176 31.1545 19.1187 -17.8142
# 4 12.4279 19.4429 31.1545 36.3560 -9.0235 -4.4374
# 5 8.1985 3.1234 19.1187 -9.0235 36.6557 4.9710
# 6 -26.2317 -39.9753 -17.8142 -4.4374 4.9710 41.4496
#
#
#
# Elastic Compliance Matrix: (Units=1/GPa)
#
#
# Indices 1 2 3 4 5 6 
#
# 1 0.022461 -0.003893 0.000800 -0.007000 -0.008331 0.011054
# 2 -0.003893 0.021713 -0.010572 0.001187 0.002968 0.013705
# 3 0.000800 -0.010572 0.022266 -0.017487 -0.015173 -0.000173
# 4 -0.007000 0.001187 -0.017487 0.049136 0.023820 -0.008397
# 5 -0.008331 0.002968 -0.015173 0.023820 0.044254 -0.011688
# 6 0.011054 0.013705 -0.000173 -0.008397 -0.011688 0.044767
#
#
# Mechanical properties :
#
#
# Convention : Reuss Voigt Hill
#
# Bulk Modulus (GPa) = 25.56872 65.02168 45.29520
# Shear Modulus (GPa) = 20.41124 32.87955 26.64540
#
# Velocity S-wave (km/s) = 3.09320 3.92587 3.53414
# Velocity P-wave (km/s) = 4.97420 7.14348 6.15516
#
# Compressibility (1/GPa) = 0.03911029
#
# Stress axis : x y z
#
# Youngs Moduli (GPa) = 44.52215 46.05455 44.91189
#
# Poissons Ratio (x) = 0.17927 -0.03591
# Poissons Ratio (y) = 0.17331 0.47480
# Poissons Ratio (z) = -0.03560 0.48688
#
# Static dielectric constant tensor:
#      x y z
#    x 1.808290 0.018900 -0.018620 
#    y 0.018900 1.793490 0.008320 
#    z -0.018620 0.008320 1.753670 
# 
# From -- ./inp_files/261748.got.cif
#   From: 2010.05.17/outbox.cif.g08.bks.cpg/sg2_131_cif.got.tgz:261748.got - 2010.06.03 11:33:40.
