data_PCOD9056606
_publ_section_title
;
Structure prediction by ZEFSAII (Michael W. Deem and Ramdas Pophale) SiO2 
 PCOD9056606
Probable space group: P -1
;
_chemical_formula_sum "Si O2"
_cell_formula_units_Z 16
_cell_length_a 9.442803
_cell_length_b 8.297140
_cell_length_c 11.875643
_cell_angle_alpha 52.790112
_cell_angle_beta 80.049683
_cell_angle_gamma 92.335986
_cell_volume 717.254626
_symmetry_space_group_name_H-M "P -1"
_symmetry_group_IT_number 2
_symmetry_cell_setting 'triclinic'
loop_
_space_group_symop_operation_xyz
x,y,z
-x,-y,-z
loop_
_atom_site_type_symbol
_atom_site_label
_atom_site_fract_x
_atom_site_fract_y
_atom_site_fract_z
Si Si1 0.608925 0.907285 0.441173
Si Si2 0.773264 0.939895 0.825875
Si Si3 0.605211 0.274997 0.648729
Si Si4 0.694205 0.652962 0.744798
Si Si5 0.011458 0.243839 0.430785
Si Si6 0.772564 0.520009 0.336571
Si Si7 0.428760 0.353525 0.858625
Si Si8 0.902048 0.900595 0.289818
O O1 0.504756 0.849974 0.373171
O O2 0.651570 0.740212 0.593451
O O3 0.767638 0.994138 0.323452
O O4 0.500000 0.000000 0.500000
O O5 0.719004 0.818784 0.770094
O O6 0.736293 0.164400 0.716512
O O7 0.672504 0.829220 0.985528
O O8 0.945298 0.945318 0.818281
O O9 0.672071 0.473945 0.481855
O O10 0.512229 0.291028 0.765092
O O11 0.856998 0.614873 0.714694
O O12 0.559506 0.472961 0.866963
O O13 0.052808 0.243488 0.556046
O O14 0.869154 0.342814 0.392501
O O15 0.000000 0.000000 0.500000
O O16 0.677614 0.507865 0.241589
O O17 0.855457 0.752380 0.251982
#
# Coordination Sequence:
#
# PCOD9056606 Si02
#       8
#     2   2   2   2   2   2   2   2
#     4  11  22  39  73 105 130 170 231 296 330 396
#     4  12  26  45  66  95 146 185 218 279 344 416
#     4  12  22  45  68 102 129 180 236 279 339 393
#     4  11  23  42  68  96 131 176 231 276 340 402
#     4  11  22  41  70 105 132 168 229 290 346 396
#     4  12  24  43  70 101 131 175 232 292 331 398
#     4  12  27  44  65 100 141 182 229 277 341 407
#     4  11  24  41  67 102 135 175 231 277 349 398
#
# _framework density 22.307281
#
# number of rings (size 3 to 8) (size 9 to 14) (size 15 to 20)
#    0.000    0.500    6.250    3.000    3.500    0.500 
#    0.000    0.625    0.000    0.000    0.000    0.000 
#    0.000    0.000    0.000    0.000    0.000    0.000 
#
# Total GULP energy -89276.905844 kJ/mol
# GULP energy per Si atom -5579.806615 kJ/mol
# Density = 2.225651 g / cm^3
# Si number density = 22.307281 Si / 1000 Ang^3
#
#
#
# Elastic Constant Matrix: (Units=GPa)
#
#
# Indices 1 2 3 4 5 6 
#
# 1 144.1037 45.0683 24.9182 -3.3736 -24.1849 -6.7735
# 2 45.0683 67.8036 4.6120 8.3556 -16.6984 -4.7071
# 3 24.9182 4.6120 70.2949 0.0424 -23.8835 -0.5449
# 4 -3.3736 8.3556 0.0424 18.0870 3.8536 -4.8565
# 5 -24.1849 -16.6984 -23.8835 3.8536 30.4151 -8.4799
# 6 -6.7735 -4.7071 -0.5449 -4.8565 -8.4799 38.8605
#
#
#
# Elastic Compliance Matrix: (Units=1/GPa)
#
#
# Indices 1 2 3 4 5 6 
#
# 1 0.009930 -0.006188 -0.002141 0.004693 0.002823 0.002154
# 2 -0.006188 0.024572 0.006172 -0.015016 0.016343 0.003674
# 3 -0.002141 0.006172 0.021670 -0.006545 0.020755 0.004389
# 4 0.004693 -0.015016 -0.006545 0.067757 -0.017229 0.003616
# 5 0.002823 0.016343 0.020755 -0.017229 0.066812 0.015189
# 6 0.002154 0.003674 0.004389 0.003616 0.015189 0.030381
#
#
# Mechanical properties :
#
#
# Convention : Reuss Voigt Hill
#
# Bulk Modulus (GPa) = 19.28370 47.93323 33.60847
# Shear Modulus (GPa) = 20.59970 31.31278 25.95624
#
# Velocity S-wave (km/s) = 3.04213 3.75067 3.41483
# Velocity P-wave (km/s) = 4.58288 6.34752 5.53596
#
# Compressibility (1/GPa) = 0.05185727
#
# Stress axis : x y z
#
# Youngs Moduli (GPa) = 100.70599 40.69625 46.14781
#
# Poissons Ratio (x) = 0.25183 0.09880
# Poissons Ratio (y) = 0.62318 -0.28481
# Poissons Ratio (z) = 0.21560 -0.25117
#
# Static dielectric constant tensor:
#      x y z
#    x 1.896420 0.004940 -0.051980 
#    y 0.004940 1.900970 -0.038870 
#    z -0.051980 -0.038870 1.806570 
# 
# From -- ./inp_files/345915.got.cif
#   From: 2010.05.17/outbox.cif.g08.bks.cpg/sg2_173_cif.got.tgz:345915.got - 2010.06.03 11:33:40.
