data_PCOD9056936
_publ_section_title
;
Structure prediction by ZEFSAII (Michael W. Deem and Ramdas Pophale) SiO2 
 PCOD9056936
Probable space group: P -1
;
_chemical_formula_sum "Si O2"
_cell_formula_units_Z 16
_cell_length_a 21.889910
_cell_length_b 25.436454
_cell_length_c 10.278323
_cell_angle_alpha 28.495135
_cell_angle_beta 38.188353
_cell_angle_gamma 16.999260
_cell_volume 734.841161
_symmetry_space_group_name_H-M "P -1"
_symmetry_group_IT_number 2
_symmetry_cell_setting 'triclinic'
loop_
_space_group_symop_operation_xyz
x,y,z
-x,-y,-z
loop_
_atom_site_type_symbol
_atom_site_label
_atom_site_fract_x
_atom_site_fract_y
_atom_site_fract_z
Si Si1 0.827998 0.867271 0.489327
Si Si2 0.308450 0.103038 0.591172
Si Si3 0.036981 0.843864 0.624680
Si Si4 0.754793 0.923134 0.960096
Si Si5 0.671650 0.396644 0.113223
Si Si6 0.704766 0.575361 0.488026
Si Si7 0.843654 0.070619 0.180967
Si Si8 0.819857 0.697709 0.100325
O O1 0.672642 0.001799 0.330689
O O2 0.084904 0.621689 0.535470
O O3 0.785678 0.022049 0.298719
O O4 0.785616 0.812023 0.784732
O O5 0.077648 0.399379 0.304722
O O6 0.500000 0.000000 0.500000
O O7 0.292311 0.067555 0.836568
O O8 0.963581 0.796320 0.894219
O O9 0.267680 0.643365 0.748849
O O10 0.844839 0.125940 0.373527
O O11 0.001875 0.876396 0.458760
O O12 0.531120 0.208754 0.659661
O O13 0.798029 0.783321 0.087112
O O14 0.735680 0.443464 0.823111
O O15 0.409450 0.630425 0.015007
O O16 0.684302 0.717746 0.278629
O O17 0.000000 0.000000 0.000000
#
# Coordination Sequence:
#
# PCOD9056936 Si02
#       8
#     2   2   2   2   2   2   2   2
#     4  11  23  43  63 100 141 178 227 283 348 415
#     4  11  24  41  63  99 140 178 224 282 348 410
#     4  11  24  45  71 100 135 177 238 279 349 406
#     4  12  23  40  68  99 128 182 229 277 340 410
#     4  11  25  46  69 102 136 179 234 290 337 417
#     4  11  22  41  70  94 137 178 218 287 349 404
#     4  12  26  45  70  99 140 185 234 285 349 407
#     4  11  22  41  65  96 135 175 228 278 344 408
#
# _framework density 21.773413000000001
#
# number of rings (size 3 to 8) (size 9 to 14) (size 15 to 20)
#    0.000    0.750    2.500    6.375    1.750    3.500 
#    2.250    0.000    0.000    0.000    0.000    0.000 
#    0.000    0.000    0.000    0.000    0.000    0.000 
#
# Total GULP energy -89417.936648 kJ/mol
# GULP energy per Si atom -5588.621040 kJ/mol
# Density = 2.172386 g / cm^3
# Si number density = 21.773413 Si / 1000 Ang^3
#
#
#
# Elastic Constant Matrix: (Units=GPa)
#
#
# Indices 1 2 3 4 5 6 
#
# 1 118.6023 -16.8789 23.9745 -1.5546 25.1787 7.3180
# 2 -16.8789 65.2382 8.6208 36.2635 -11.4436 -2.7263
# 3 23.9745 8.6208 62.2783 23.5308 5.1029 13.5777
# 4 -1.5546 36.2635 23.5308 52.7790 -9.2856 6.6385
# 5 25.1787 -11.4436 5.1029 -9.2856 51.0308 -4.1664
# 6 7.3180 -2.7263 13.5777 6.6385 -4.1664 40.1416
#
#
#
# Elastic Compliance Matrix: (Units=1/GPa)
#
#
# Indices 1 2 3 4 5 6 
#
# 1 0.010540 0.002741 -0.003661 -0.000607 -0.004400 -0.000853
# 2 0.002741 0.027091 0.001541 -0.019507 0.001361 0.004186
# 3 -0.003661 0.001541 0.022846 -0.011132 -0.002598 -0.005384
# 4 -0.000607 -0.019507 -0.011132 0.038382 0.003744 -0.003408
# 5 -0.004400 0.001361 -0.002598 0.003744 0.023305 0.003573
# 6 -0.000853 0.004186 -0.005384 -0.003408 0.003573 0.028107
#
#
# Mechanical properties :
#
#
# Convention : Reuss Voigt Hill
#
# Bulk Modulus (GPa) = 16.20237 30.83908 23.52072
# Shear Modulus (GPa) = 29.48068 44.15043 36.81556
#
# Velocity S-wave (km/s) = 3.68363 4.50791 4.11645
# Velocity P-wave (km/s) = 5.05467 6.42568 5.78096
#
# Compressibility (1/GPa) = 0.06171937
#
# Stress axis : x y z
#
# Youngs Moduli (GPa) = 94.87225 36.91268 43.77207
#
# Poissons Ratio (x) = -0.10118 0.16025
# Poissons Ratio (y) = -0.26005 -0.06746
# Poissons Ratio (z) = 0.34733 -0.05689
#
# Static dielectric constant tensor:
#      x y z
#    x 1.857780 0.074910 0.013000 
#    y 0.074910 1.918790 0.018890 
#    z 0.013000 0.018890 1.796130 
# 
# From -- ./inp_files/349960.got.cif
#   From: 2010.05.17/outbox.cif.g08.bks.cpg/sg2_175_cif.got.tgz:349960.got - 2010.06.03 11:33:40.
