data_PCOD9056946
_publ_section_title
;
Structure prediction by ZEFSAII (Michael W. Deem and Ramdas Pophale) SiO2 
 PCOD9056946
Probable space group: P -1
;
_chemical_formula_sum "Si O2"
_cell_formula_units_Z 16
_cell_length_a 15.958820
_cell_length_b 10.624984
_cell_length_c 11.411869
_cell_angle_alpha 114.579387
_cell_angle_beta 134.592605
_cell_angle_gamma 32.535766
_cell_volume 658.294559
_symmetry_space_group_name_H-M "P -1"
_symmetry_group_IT_number 2
_symmetry_cell_setting 'triclinic'
loop_
_space_group_symop_operation_xyz
x,y,z
-x,-y,-z
loop_
_atom_site_type_symbol
_atom_site_label
_atom_site_fract_x
_atom_site_fract_y
_atom_site_fract_z
Si Si1 0.883215 0.947009 0.947853
Si Si2 0.835786 0.571877 0.601697
Si Si3 0.568408 0.123487 0.525957
Si Si4 0.701641 0.565088 0.240052
Si Si5 0.798697 0.883982 0.058831
Si Si6 0.371607 0.732310 0.552480
Si Si7 0.899799 0.096302 0.310026
Si Si8 0.711716 0.408761 0.956397
O O1 0.709666 0.087108 0.729644
O O2 0.785676 0.187310 0.997584
O O3 0.898416 0.803961 0.996041
O O4 0.120170 0.737211 0.042445
O O5 0.701805 0.847180 0.560507
O O6 0.854752 0.486348 0.457362
O O7 0.069662 0.345713 0.812411
O O8 0.674069 0.645890 0.560478
O O9 0.584320 0.164495 0.426348
O O10 0.701512 0.406993 0.225155
O O11 0.748639 0.491894 0.120499
O O12 0.462257 0.879368 0.127918
O O13 0.829266 0.009182 0.186446
O O14 0.500000 0.500000 0.500000
O O15 0.474242 0.634928 0.746154
O O16 0.114512 0.940367 0.386659
O O17 0.000000 0.000000 0.500000
#
# Coordination Sequence:
#
# PCOD9056946 Si02
#       8
#     2   2   2   2   2   2   2   2
#     4  11  22  41  66 102 136 176 225 288 339 409
#     4  11  26  47  70  99 139 189 232 283 337 407
#     4  11  24  47  71  99 140 182 236 286 336 409
#     4  12  25  44  67 103 141 180 227 282 346 410
#     4  12  24  41  71 103 133 180 232 280 344 410
#     4  12  24  42  73 104 136 183 229 285 348 406
#     4  12  24  39  70 104 142 178 218 284 357 406
#     4  11  24  39  66 106 142 169 222 291 353 404
#
# _framework density 24.305230000000002
#
# number of rings (size 3 to 8) (size 9 to 14) (size 15 to 20)
#    0.000    0.500    5.000    4.125    1.750    0.500 
#    2.250    3.125    0.000    0.000    0.000    0.000 
#    0.000    0.000    0.000    0.000    0.000    0.000 
#
# Total GULP energy -89481.139105 kJ/mol
# GULP energy per Si atom -5592.571194 kJ/mol
# Density = 2.424991 g / cm^3
# Si number density = 24.305230 Si / 1000 Ang^3
#
#
#
# Elastic Constant Matrix: (Units=GPa)
#
#
# Indices 1 2 3 4 5 6 
#
# 1 61.9067 16.0150 16.5483 -7.9794 -12.6915 -10.1171
# 2 16.0150 64.8722 15.2756 -1.2647 -13.8604 -6.0746
# 3 16.5483 15.2756 118.4802 -22.3745 -30.9663 -9.4125
# 4 -7.9794 -1.2647 -22.3745 34.4303 -7.2244 -4.3229
# 5 -12.6915 -13.8604 -30.9663 -7.2244 35.0507 -4.9609
# 6 -10.1171 -6.0746 -9.4125 -4.3229 -4.9609 23.2308
#
#
#
# Elastic Compliance Matrix: (Units=1/GPa)
#
#
# Indices 1 2 3 4 5 6 
#
# 1 0.024709 -0.000788 0.007508 0.017914 0.022023 0.021633
# 2 -0.000788 0.018506 0.002696 0.005915 0.011942 0.009240
# 3 0.007508 0.002696 0.022635 0.026585 0.032814 0.025100
# 4 0.017914 0.005915 0.026585 0.067175 0.052358 0.043801
# 5 0.022023 0.011942 0.032814 0.052358 0.088751 0.054705
# 6 0.021633 0.009240 0.025100 0.043801 0.054705 0.084887
#
#
# Mechanical properties :
#
#
# Convention : Reuss Voigt Hill
#
# Bulk Modulus (GPa) = 11.80862 37.88191 24.84527
# Shear Modulus (GPa) = 15.81982 31.70371 23.76176
#
# Velocity S-wave (km/s) = 2.55400 3.61556 3.13012
# Velocity P-wave (km/s) = 3.68324 5.74887 4.82782
#
# Compressibility (1/GPa) = 0.08468389
#
# Stress axis : x y z
#
# Youngs Moduli (GPa) = 40.47034 54.03512 44.17941
#
# Poissons Ratio (x) = 0.04256 -0.33169
# Poissons Ratio (y) = 0.03188 -0.11912
# Poissons Ratio (z) = -0.30385 -0.14569
#
# Static dielectric constant tensor:
#      x y z
#    x 1.988330 -0.060780 0.013920 
#    y -0.060780 2.016040 -0.025850 
#    z 0.013920 -0.025850 1.960560 
# 
# From -- ./inp_files/464688.got.cif
#   From: 2010.05.17/outbox.cif.g08.bks.cpg/sg2_233_cif.got.tgz:464688.got - 2010.06.03 11:33:40.
