data_PCOD9056410
_publ_section_title
;
Structure prediction by ZEFSAII (Michael W. Deem and Ramdas Pophale) SiO2 
 PCOD9056410
Probable space group: P -1
;
_chemical_formula_sum "Si O2"
_cell_formula_units_Z 16
_cell_length_a 15.840582
_cell_length_b 15.803524
_cell_length_c 17.496309
_cell_angle_alpha 34.674923
_cell_angle_beta 35.115541
_cell_angle_gamma 17.978560
_cell_volume 753.024660
_symmetry_space_group_name_H-M "P -1"
_symmetry_group_IT_number 2
_symmetry_cell_setting 'triclinic'
loop_
_space_group_symop_operation_xyz
x,y,z
-x,-y,-z
loop_
_atom_site_type_symbol
_atom_site_label
_atom_site_fract_x
_atom_site_fract_y
_atom_site_fract_z
Si Si1 0.216827 0.446727 0.886309
Si Si2 0.382125 0.455485 0.908063
Si Si3 0.875973 0.985481 0.994263
Si Si4 0.975861 0.166740 0.498044
Si Si5 0.509075 0.649576 0.589951
Si Si6 0.567640 0.768609 0.613977
Si Si7 0.782727 0.018678 0.703702
Si Si8 0.011011 0.192068 0.792320
O O1 0.302109 0.405741 0.940140
O O2 0.041453 0.738142 0.770168
O O3 0.496144 0.195968 0.814852
O O4 0.000000 0.500000 0.000000
O O5 0.584083 0.207513 0.004705
O O6 0.534599 0.461964 0.747174
O O7 0.115124 0.755212 0.925336
O O8 0.854905 0.173817 0.899854
O O9 0.956356 0.821883 0.130824
O O10 0.750732 0.462756 0.487121
O O11 0.143567 0.081529 0.363789
O O12 0.791536 0.188177 0.585355
O O13 0.208330 0.921342 0.570547
O O14 0.548563 0.730527 0.569435
O O15 0.851878 0.465263 0.667258
O O16 0.500000 0.000000 0.500000
O O17 0.317370 0.906372 0.743008
#
# Coordination Sequence:
#
# PCOD9056410 Si02
#       8
#     2   2   2   2   2   2   2   2
#     4  12  25  41  63  92 133 174 210 260 325 394
#     4  12  21  39  64  97 127 164 220 268 318 379
#     4  11  22  38  67  97 124 162 217 279 317 370
#     4  11  22  38  67  97 124 162 217 279 317 370
#     4  12  21  39  64  97 127 164 220 268 318 379
#     4  12  25  41  63  92 133 174 210 260 325 394
#     4  11  22  41  63  95 129 165 213 265 329 377
#     4  11  22  41  63  95 129 165 213 265 329 377
#
# _framework density 21.247643
#
# number of rings (size 3 to 8) (size 9 to 14) (size 15 to 20)
#    0.000    0.500    5.000    4.500    0.000    4.000 
#    0.000    5.000    0.000    0.000    0.000    0.000 
#    0.000    0.000    0.000    0.000    0.000    0.000 
#
# Total GULP energy -89492.480771 kJ/mol
# GULP energy per Si atom -5593.280048 kJ/mol
# Density = 2.119928 g / cm^3
# Si number density = 21.247643 Si / 1000 Ang^3
#
#
#
# Elastic Constant Matrix: (Units=GPa)
#
#
# Indices 1 2 3 4 5 6 
#
# 1 143.1474 32.4352 45.5985 3.9787 17.3682 5.2420
# 2 32.4352 106.1831 16.1450 7.7929 19.2651 0.4004
# 3 45.5985 16.1450 25.6226 -8.8463 18.9999 7.8375
# 4 3.9787 7.7929 -8.8463 -1.0905 23.6720 19.7668
# 5 17.3682 19.2651 18.9999 23.6720 9.3681 -6.4087
# 6 5.2420 0.4004 7.8375 19.7668 -6.4087 32.6504
#
#
#
# Elastic Compliance Matrix: (Units=1/GPa)
#
#
# Indices 1 2 3 4 5 6 
#
# 1 0.012742 -0.000950 -0.015557 0.005307 -0.005271 -0.002547
# 2 -0.000950 0.011498 -0.002719 -0.003595 -0.006169 0.001630
# 3 -0.015557 -0.002719 0.047420 -0.026582 0.011994 0.009596
# 4 0.005307 -0.003595 -0.026582 0.010292 0.028890 0.005013
# 5 -0.005271 -0.006169 0.011994 0.028890 0.021453 -0.015237
# 6 -0.002547 0.001630 0.009596 0.005013 -0.015237 0.022688
#
#
# Mechanical properties :
#
#
# Convention : Reuss Voigt Hill
#
# Bulk Modulus (GPa) = 30.11412 51.47893 40.79653
# Shear Modulus (GPa) = 28.47125 20.23723 24.35424
#
# Velocity S-wave (km/s) = 3.66453 3.08952 3.38924
# Velocity P-wave (km/s) = 5.66646 6.08338 5.87862
#
# Compressibility (1/GPa) = 0.03320701
#
# Stress axis : x y z
#
# Youngs Moduli (GPa) = 78.48066 86.96844 21.08799
#
# Poissons Ratio (x) = 0.08266 0.32807
# Poissons Ratio (y) = 0.07459 0.05735
# Poissons Ratio (z) = 1.22092 0.23651
#
# Static dielectric constant tensor:
#      x y z
#    x 1.810110 0.023590 -0.031590 
#    y 0.023590 1.767830 -0.007370 
#    z -0.031590 -0.007370 1.816000 
# 
# From -- ./inp_files/534254.got.cif
#   From: 2010.05.17/outbox.cif.g08.bks.cpg/sg2_268_cif.got.tgz:534254.got - 2010.06.03 11:33:40.
