data_PCOD9056970
_publ_section_title
;
Structure prediction by ZEFSAII (Michael W. Deem and Ramdas Pophale) SiO2 
 PCOD9056970
Probable space group: P -1
;
_chemical_formula_sum "Si O2"
_cell_formula_units_Z 15
_cell_length_a 27.249419
_cell_length_b 14.659583
_cell_length_c 11.132516
_cell_angle_alpha 30.108262
_cell_angle_beta 149.973029
_cell_angle_gamma 157.995278
_cell_volume 786.328735
_symmetry_space_group_name_H-M "P -1"
_symmetry_group_IT_number 2
_symmetry_cell_setting 'triclinic'
loop_
_space_group_symop_operation_xyz
x,y,z
-x,-y,-z
loop_
_atom_site_type_symbol
_atom_site_label
_atom_site_fract_x
_atom_site_fract_y
_atom_site_fract_z
Si Si1 0.527714 0.954239 0.479529
Si Si2 0.500000 0.500000 0.000000
Si Si3 0.813061 0.431896 0.421947
Si Si4 0.251619 0.750440 0.028586
Si Si5 0.773397 0.917788 0.261544
Si Si6 0.115874 0.501351 0.769204
Si Si7 0.002915 0.978569 0.795108
Si Si8 0.956448 0.266212 0.028562
O O1 0.392742 0.827989 0.260361
O O2 0.500000 0.000000 0.500000
O O3 0.664724 0.225932 0.405785
O O4 0.549491 0.768849 0.752978
O O5 0.638491 0.671689 0.186073
O O6 0.798202 0.401535 0.281512
O O7 0.897272 0.725094 0.296682
O O8 0.901345 0.375558 0.722177
O O9 0.123743 0.499853 0.121347
O O10 0.201907 0.670943 0.876370
O O11 0.267153 0.976412 0.851873
O O12 0.882111 0.142136 0.138661
O O13 0.859442 0.874432 0.560154
O O14 0.000000 0.500000 0.500000
O O15 0.037374 0.210983 0.967400
O O16 0.072077 0.944965 0.876381
#
# Coordination Sequence:
#
# PCOD9056970 Si02
#       8
#     2   1   2   2   2   2   2   2
#     4  12  27  44  66 101 142 180 217 286 341 408
#     4  12  24  40  66  92 144 172 218 270 356 396
#     4  12  24  43  72 100 134 183 228 271 343 400
#     4  11  23  43  67  96 138 178 223 283 334 389
#     4  12  23  40  67 102 134 178 226 279 348 408
#     4  11  22  46  70 100 135 176 234 286 324 397
#     4  11  24  39  72 103 134 173 229 283 340 397
#     4  11  22  41  67 102 131 175 224 287 331 409
#
# _framework density 19.075991999999999
#
# number of rings (size 3 to 8) (size 9 to 14) (size 15 to 20)
#    0.000    0.533    6.667    2.800    3.733    0.533 
#    0.000    0.000    0.000    2.400    0.000    0.000 
#    0.000    0.000    0.000    0.000    0.000    0.000 
#
# Total GULP energy -83614.262095 kJ/mol
# GULP energy per Si atom -5574.284140 kJ/mol
# Density = 1.903257 g / cm^3
# Si number density = 19.075992 Si / 1000 Ang^3
#
#
#
# Elastic Constant Matrix: (Units=GPa)
#
#
# Indices 1 2 3 4 5 6 
#
# 1 89.9008 40.8953 32.2403 -3.2789 -3.8440 9.3775
# 2 40.8953 130.9001 50.4614 11.8005 -11.7732 3.8584
# 3 32.2403 50.4614 136.5709 -4.1772 -8.2236 2.5424
# 4 -3.2789 11.8005 -4.1772 33.1003 -1.6818 -1.0352
# 5 -3.8440 -11.7732 -8.2236 -1.6818 23.3915 -1.1601
# 6 9.3775 3.8584 2.5424 -1.0352 -1.1601 21.5702
#
#
#
# Elastic Compliance Matrix: (Units=1/GPa)
#
#
# Indices 1 2 3 4 5 6 
#
# 1 0.014102 -0.003811 -0.001772 0.002355 -0.000309 -0.005144
# 2 -0.003811 0.010675 -0.002976 -0.004385 0.003389 0.000070
# 3 -0.001772 -0.002976 0.008990 0.002112 0.001544 0.000427
# 4 0.002355 -0.004385 0.002112 0.032376 0.001307 0.001135
# 5 -0.000309 0.003389 0.001544 0.001307 0.045133 0.001836
# 6 -0.005144 0.000070 0.000427 0.001135 0.001836 0.048687
#
#
# Mechanical properties :
#
#
# Convention : Reuss Voigt Hill
#
# Bulk Modulus (GPa) = 60.06401 67.17397 63.61899
# Shear Modulus (GPa) = 27.37774 31.19740 29.28757
#
# Velocity S-wave (km/s) = 3.79250 4.04843 3.92255
# Velocity P-wave (km/s) = 7.12268 7.55932 7.34425
#
# Compressibility (1/GPa) = 0.01664890
#
# Stress axis : x y z
#
# Youngs Moduli (GPa) = 70.91394 93.67387 111.23861
#
# Poissons Ratio (x) = 0.35701 0.19707
# Poissons Ratio (y) = 0.27027 0.33105
# Poissons Ratio (z) = 0.12563 0.27878
#
# Static dielectric constant tensor:
#      x y z
#    x 1.686250 -0.022930 0.013380 
#    y -0.022930 1.653460 -0.003220 
#    z 0.013380 -0.003220 1.664160 
# 
# From -- ./inp_files/476767.got.cif
#   From: 2010.05.17/outbox.cif.g08.bks.cpg/sg2_239_cif.got.tgz:476767.got - 2010.06.03 11:33:40.
