data_PCOD9056208
_publ_section_title
;
Structure prediction by ZEFSAII (Michael W. Deem and Ramdas Pophale) SiO2 
 PCOD9056208
Probable space group: P -1
;
_chemical_formula_sum "Si O2"
_cell_formula_units_Z 14
_cell_length_a 8.809029
_cell_length_b 10.328387
_cell_length_c 6.840976
_cell_angle_alpha 104.402661
_cell_angle_beta 106.057264
_cell_angle_gamma 107.622363
_cell_volume 531.175695
_symmetry_space_group_name_H-M "P -1"
_symmetry_group_IT_number 2
_symmetry_cell_setting 'triclinic'
loop_
_space_group_symop_operation_xyz
x,y,z
-x,-y,-z
loop_
_atom_site_type_symbol
_atom_site_label
_atom_site_fract_x
_atom_site_fract_y
_atom_site_fract_z
Si Si1 0.072669 0.524302 0.317261
Si Si2 0.728995 0.996223 0.487232
Si Si3 0.544810 0.669396 0.059490
Si Si4 0.992800 0.201096 0.129819
Si Si5 0.062374 0.234997 0.633683
Si Si6 0.414263 0.755749 0.410530
Si Si7 0.728775 0.908047 0.995952
O O1 0.013408 0.363805 0.146466
O O2 0.280204 0.611804 0.414645
O O3 0.000000 0.500000 0.500000
O O4 0.991921 0.637369 0.262298
O O5 0.658576 0.121555 0.537017
O O6 0.931521 0.082657 0.621723
O O7 0.621030 0.859164 0.537328
O O8 0.706335 0.956318 0.232595
O O9 0.742192 0.726641 0.230401
O O10 0.415421 0.702982 0.168797
O O11 0.558245 0.754144 0.890130
O O12 0.500000 0.500000 0.000000
O O13 0.035111 0.215294 0.383247
O O14 0.130884 0.153183 0.053137
O O15 0.803754 0.069995 0.987933
#
# Coordination Sequence:
#
# PCOD9056208 Si02
#       7
#     2   2   2   2   2   2   2
#     4   9  17  33  55  80 111 148 184 220 270 334
#     4   8  16  32  54  80 107 144 184 219 270 328
#     4  11  22  36  55  83 114 143 185 239 280 316
#     4   9  17  33  56  82 109 145 182 218 272 333
#     4   9  19  35  58  82 110 149 188 223 271 335
#     4   9  17  31  53  79 110 143 177 223 274 323
#     4   9  18  32  55  80 111 141 176 226 274 323
#
# _framework density 26.356629000000002
#
# number of rings (size 3 to 8) (size 9 to 14) (size 15 to 20)
#    0.000    2.857    0.000    1.714    0.000    5.143 
#    0.000   12.857    0.000    8.571    0.000    0.000 
#    0.000    0.000    0.000    0.000    0.000    0.000 
#
# Total GULP energy -77972.476222 kJ/mol
# GULP energy per Si atom -5569.462587 kJ/mol
# Density = 2.629664 g / cm^3
# Si number density = 26.356629 Si / 1000 Ang^3
#
#
#
# Elastic Constant Matrix: (Units=GPa)
#
#
# Indices 1 2 3 4 5 6 
#
# 1 109.4566 57.0439 47.9808 18.9836 -25.2918 17.6800
# 2 57.0439 193.8506 59.8914 34.0922 -32.9720 45.2072
# 3 47.9808 59.8914 96.7505 -5.2384 -33.3770 4.6128
# 4 18.9836 34.0922 -5.2384 54.3708 -10.6166 -19.5568
# 5 -25.2918 -32.9720 -33.3770 -10.6166 38.6705 9.5328
# 6 17.6800 45.2072 4.6128 -19.5568 9.5328 62.6602
#
#
#
# Elastic Compliance Matrix: (Units=1/GPa)
#
#
# Indices 1 2 3 4 5 6 
#
# 1 0.015877 0.003065 -0.007863 -0.010822 0.005797 -0.010372
# 2 0.003065 0.014765 -0.008146 -0.015768 0.007416 -0.016967
# 3 -0.007863 -0.008146 0.022939 0.015442 0.009541 0.009775
# 4 -0.010822 -0.015768 0.015442 0.042844 -0.002082 0.026981
# 5 0.005797 0.007416 0.009541 -0.002082 0.047473 -0.015561
# 6 -0.010372 -0.016967 0.009775 0.026981 -0.015561 0.041196
#
#
# Mechanical properties :
#
#
# Convention : Reuss Voigt Hill
#
# Bulk Modulus (GPa) = 36.10969 81.09887 58.60428
# Shear Modulus (GPa) = 22.70536 46.81640 34.76088
#
# Velocity S-wave (km/s) = 2.93826 4.21915 3.63556
# Velocity P-wave (km/s) = 5.02407 7.38726 6.31716
#
# Compressibility (1/GPa) = 0.02769340
#
# Stress axis : x y z
#
# Youngs Moduli (GPa) = 62.98446 67.72879 43.59328
#
# Poissons Ratio (x) = -0.20760 0.34276
# Poissons Ratio (y) = -0.19306 0.35512
# Poissons Ratio (z) = 0.49523 0.55173
#
# Static dielectric constant tensor:
#      x y z
#    x 2.066580 -0.058560 0.085010 
#    y -0.058560 2.354280 -0.066450 
#    z 0.085010 -0.066450 2.251140 
# 
# From -- ./inp_files/182439.got.cif
#   From: 2010.05.17/outbox.cif.g08.bks.cpg/sg2_92_cif.got.tgz:182439.got - 2010.06.03 11:33:40.
