data_PCOD9056876
_publ_section_title
;
Structure prediction by ZEFSAII (Michael W. Deem and Ramdas Pophale) SiO2 
 PCOD9056876
Probable space group: P -1
;
_chemical_formula_sum "Si O2"
_cell_formula_units_Z 16
_cell_length_a 9.074291
_cell_length_b 11.923724
_cell_length_c 17.073021
_cell_angle_alpha 54.002734
_cell_angle_beta 136.751543
_cell_angle_gamma 144.377147
_cell_volume 737.157110
_symmetry_space_group_name_H-M "P -1"
_symmetry_group_IT_number 2
_symmetry_cell_setting 'triclinic'
loop_
_space_group_symop_operation_xyz
x,y,z
-x,-y,-z
loop_
_atom_site_type_symbol
_atom_site_label
_atom_site_fract_x
_atom_site_fract_y
_atom_site_fract_z
Si Si1 0.685168 0.019343 0.344749
Si Si2 0.837208 0.808972 0.967066
Si Si3 0.701650 0.322308 0.282808
Si Si4 0.731829 0.414736 0.872758
Si Si5 0.893495 0.331174 0.808741
Si Si6 0.642782 0.697385 0.699794
Si Si7 0.358353 0.312471 0.469281
Si Si8 0.766456 0.005589 0.109153
O O1 0.398591 0.893484 0.229770
O O2 0.666313 0.850935 0.434599
O O3 0.673433 0.142733 0.350159
O O4 0.011875 0.193914 0.364922
O O5 0.522039 0.728547 0.851702
O O6 0.027079 0.875404 0.934119
O O7 0.853936 0.670003 0.074322
O O8 0.000000 0.000000 0.000000
O O9 0.576667 0.331083 0.310510
O O10 0.009215 0.527212 0.284807
O O11 0.812629 0.385681 0.831297
O O12 0.681589 0.553398 0.789783
O O13 0.427622 0.218724 0.870831
O O14 0.000000 0.500000 0.000000
O O15 0.506923 0.648695 0.580402
O O16 0.987906 0.900435 0.764767
O O17 0.500000 0.500000 0.500000
O O18 0.500000 0.000000 0.000000
#
# Coordination Sequence:
#
# PCOD9056876 Si02
#       8
#     2   2   2   2   2   2   2   2
#     4  11  24  45  72  95 128 170 226 276 336 395
#     4  11  23  38  63  94 138 180 215 264 323 395
#     4  11  25  42  64 101 136 178 217 266 341 399
#     4  12  23  36  63  94 129 175 220 270 320 384
#     4  12  24  42  66  96 136 183 219 272 328 396
#     4  11  25  42  65  99 133 170 221 275 330 395
#     4  11  25  48  73 100 125 169 229 283 332 390
#     4  11  22  41  59  95 132 173 222 264 322 385
#
# _framework density 21.705006999999998
#
# number of rings (size 3 to 8) (size 9 to 14) (size 15 to 20)
#    0.000    0.750    3.750    4.125    3.500    1.500 
#    0.000    2.500    0.000    0.000    0.000    0.000 
#    0.000    0.000    0.000    0.000    0.000    0.000 
#
# Total GULP energy -89267.002132 kJ/mol
# GULP energy per Si atom -5579.187633 kJ/mol
# Density = 2.165561 g / cm^3
# Si number density = 21.705007 Si / 1000 Ang^3
#
#
#
# Elastic Constant Matrix: (Units=GPa)
#
#
# Indices 1 2 3 4 5 6 
#
# 1 85.3097 27.8630 11.1577 6.4645 -10.3191 -28.8992
# 2 27.8630 135.4528 15.4710 3.4350 -8.0969 -5.3326
# 3 11.1577 15.4710 31.9257 3.8890 -14.2617 -2.4975
# 4 6.4645 3.4350 3.8890 36.1387 -7.4159 10.3734
# 5 -10.3191 -8.0969 -14.2617 -7.4159 35.5040 5.0185
# 6 -28.8992 -5.3326 -2.4975 10.3734 5.0185 34.3207
#
#
#
# Elastic Compliance Matrix: (Units=1/GPa)
#
#
# Indices 1 2 3 4 5 6 
#
# 1 0.020038 -0.002812 -0.003411 -0.008487 -0.000624 0.018844
# 2 -0.002812 0.008256 -0.003143 0.000507 0.000119 -0.001485
# 3 -0.003411 -0.003143 0.040486 0.000423 0.015031 -0.002740
# 4 -0.008487 0.000507 0.000423 0.036265 0.008105 -0.019183
# 5 -0.000624 0.000119 0.015031 0.008105 0.036766 -0.007239
# 6 0.018844 -0.001485 -0.002740 -0.019183 -0.007239 0.051431
#
#
# Mechanical properties :
#
#
# Convention : Reuss Voigt Hill
#
# Bulk Modulus (GPa) = 19.98083 40.18572 30.08328
# Shear Modulus (GPa) = 21.86692 34.40578 28.13635
#
# Velocity S-wave (km/s) = 3.17749 3.98572 3.60433
# Velocity P-wave (km/s) = 4.76315 6.30365 5.58675
#
# Compressibility (1/GPa) = 0.05004797
#
# Stress axis : x y z
#
# Youngs Moduli (GPa) = 49.90575 121.12535 24.69976
#
# Poissons Ratio (x) = 0.34066 0.08425
# Poissons Ratio (y) = 0.14036 0.07762
# Poissons Ratio (z) = 0.17022 0.38066
#
# Static dielectric constant tensor:
#      x y z
#    x 1.770090 -0.026380 0.014300 
#    y -0.026380 1.634780 0.030500 
#    z 0.014300 0.030500 1.883700 
# 
# From -- ./inp_files/558513.got.cif
#   From: 2010.05.17/outbox.cif.g08.bks.cpg/sg2_280_cif.got.tgz:558513.got - 2010.06.03 11:33:40.
