data_PCOD9056807
_publ_section_title
;
Structure prediction by ZEFSAII (Michael W. Deem and Ramdas Pophale) SiO2 
 PCOD9056807
Probable space group: P -1
;
_chemical_formula_sum "Si O2"
_cell_formula_units_Z 14
_cell_length_a 10.065352
_cell_length_b 9.834442
_cell_length_c 9.131628
_cell_angle_alpha 132.764065
_cell_angle_beta 101.888726
_cell_angle_gamma 85.854157
_cell_volume 646.498846
_symmetry_space_group_name_H-M "P -1"
_symmetry_group_IT_number 2
_symmetry_cell_setting 'triclinic'
loop_
_space_group_symop_operation_xyz
x,y,z
-x,-y,-z
loop_
_atom_site_type_symbol
_atom_site_label
_atom_site_fract_x
_atom_site_fract_y
_atom_site_fract_z
Si Si1 0.628504 0.066666 0.875558
Si Si2 0.930712 0.993066 0.820586
Si Si3 0.543296 0.668403 0.521937
Si Si4 0.962243 0.353378 0.567594
Si Si5 0.776643 0.434487 0.323532
Si Si6 0.103254 0.679961 0.151017
Si Si7 0.580671 0.337139 0.827428
O O1 0.769663 0.995741 0.801454
O O2 0.547922 0.155598 0.789593
O O3 0.551336 0.866673 0.754360
O O4 0.684670 0.243692 0.118894
O O5 0.963351 0.169252 0.852150
O O6 0.975359 0.812265 0.622790
O O7 0.000000 0.000000 0.000000
O O8 0.500000 0.500000 0.500000
O O9 0.681388 0.601212 0.432829
O O10 0.452761 0.682375 0.365852
O O11 0.843618 0.418952 0.486744
O O12 0.897641 0.270347 0.641231
O O13 0.090766 0.514262 0.713530
O O14 0.254450 0.636426 0.105874
O O15 0.000000 0.500000 0.000000
O O16 0.500000 0.500000 0.000000
#
# Coordination Sequence:
#
# PCOD9056807 Si02
#       7
#     2   2   2   2   2   2   2
#     4  11  23  44  69  98 137 186 233 282 349 424
#     4  11  22  40  70 102 136 186 230 284 360 419
#     4  12  26  44  70 101 136 182 241 291 345 420
#     4  11  22  42  69 104 144 178 234 296 348 415
#     4  11  23  41  72 100 140 187 231 285 361 412
#     4  11  26  42  68 108 140 176 239 293 343 419
#     4  11  24  47  71  98 143 189 230 284 356 422
#
# _framework density 21.655104000000001
#
# number of rings (size 3 to 8) (size 9 to 14) (size 15 to 20)
#    0.000    0.857    4.286    3.429    2.000    1.714 
#    0.000    1.429    0.000    0.000    0.000    0.000 
#    0.000    0.000    0.000    0.000    0.000    0.000 
#
# Total GULP energy -78093.167283 kJ/mol
# GULP energy per Si atom -5578.083377 kJ/mol
# Density = 2.160582 g / cm^3
# Si number density = 21.655104 Si / 1000 Ang^3
#
#
#
# Elastic Constant Matrix: (Units=GPa)
#
#
# Indices 1 2 3 4 5 6 
#
# 1 56.3440 31.9046 24.3426 0.3836 -1.4094 -10.4021
# 2 31.9046 166.5037 52.3891 -1.9951 27.9131 -2.2642
# 3 24.3426 52.3891 116.5984 15.5439 10.2683 -2.4599
# 4 0.3836 -1.9951 15.5439 44.5745 1.3939 2.7243
# 5 -1.4094 27.9131 10.2683 1.3939 29.3573 0.4729
# 6 -10.4021 -2.2642 -2.4599 2.7243 0.4729 46.8850
#
#
#
# Elastic Compliance Matrix: (Units=1/GPa)
#
#
# Indices 1 2 3 4 5 6 
#
# 1 0.022577 -0.004267 -0.003285 0.000288 0.006203 0.004551
# 2 -0.004267 0.009006 -0.002697 0.001668 -0.007893 -0.000671
# 3 -0.003285 -0.002697 0.011110 -0.003924 -0.001292 -0.000035
# 4 0.000288 0.001668 -0.003924 0.024004 -0.001316 -0.001443
# 5 0.006203 -0.007893 -0.001292 -0.001316 0.042371 0.000576
# 6 0.004551 -0.000671 -0.000035 -0.001443 0.000576 0.022382
#
#
# Mechanical properties :
#
#
# Convention : Reuss Voigt Hill
#
# Bulk Modulus (GPa) = 45.05457 61.85762 53.45609
# Shear Modulus (GPa) = 31.37791 39.55068 35.46430
#
# Velocity S-wave (km/s) = 3.81068 4.27827 4.05123
# Velocity P-wave (km/s) = 6.34133 7.28228 6.82803
#
# Compressibility (1/GPa) = 0.02219531
#
# Stress axis : x y z
#
# Youngs Moduli (GPa) = 44.29292 111.03422 90.00616
#
# Poissons Ratio (x) = 0.47379 0.29566
# Poissons Ratio (y) = 0.18900 0.24276
# Poissons Ratio (z) = 0.14550 0.29948
#
# Static dielectric constant tensor:
#      x y z
#    x 1.813390 0.099320 0.001560 
#    y 0.099320 1.879580 -0.074660 
#    z 0.001560 -0.074660 1.918260 
# 
# From -- ./inp_files/168251.got.cif
#   From: 2010.05.17/outbox.cif.g08.bks.cpg/sg2_85_cif.got.tgz:168251.got - 2010.06.03 11:33:40.
