data_PCOD9056472
_publ_section_title
;
Structure prediction by ZEFSAII (Michael W. Deem and Ramdas Pophale) SiO2 
 PCOD9056472
Probable space group: P -1
;
_chemical_formula_sum "Si O2"
_cell_formula_units_Z 12
_cell_length_a 12.010396
_cell_length_b 8.418305
_cell_length_c 14.580092
_cell_angle_alpha 35.895618
_cell_angle_beta 34.537715
_cell_angle_gamma 49.796585
_cell_volume 488.963980
_symmetry_space_group_name_H-M "P -1"
_symmetry_group_IT_number 2
_symmetry_cell_setting 'triclinic'
loop_
_space_group_symop_operation_xyz
x,y,z
-x,-y,-z
loop_
_atom_site_type_symbol
_atom_site_label
_atom_site_fract_x
_atom_site_fract_y
_atom_site_fract_z
Si Si1 0.961324 0.808112 0.281709
Si Si2 0.332854 0.808112 0.910179
Si Si3 0.681553 0.038144 0.674354
Si Si4 0.602700 0.629402 0.497317
Si Si5 0.931594 0.961856 0.712498
Si Si6 0.773264 0.370598 0.126719
O O1 0.911041 0.119750 0.148977
O O2 0.034648 0.824389 0.328551
O O3 0.760594 0.641499 0.468031
O O4 0.133759 0.722312 0.138844
O O5 0.338155 0.641499 0.890470
O O6 0.516140 0.824389 0.847059
O O7 0.328746 0.119750 0.731273
O O8 0.608092 0.340925 0.580463
O O9 0.871836 0.026505 0.486748
O O10 0.750946 0.000000 0.749054
O O11 0.389252 0.674129 0.662935
O O12 0.890058 0.659075 0.921388
#
# Coordination Sequence:
#
# PCOD9056472 Si02
#       6
#     2   2   2   2   2   2
#     4  11  22  39  63  89 118 152 195 242 290 344
#     4  11  22  39  63  89 118 152 195 242 290 344
#     4  11  24  41  60  85 119 157 196 239 290 347
#     4  11  22  39  63  89 118 152 195 242 290 344
#     4  11  24  41  60  85 119 157 196 239 290 347
#     4  11  22  39  63  89 118 152 195 242 290 344
#
# _framework density 24.541684
#
# number of rings (size 3 to 8) (size 9 to 14) (size 15 to 20)
#    0.000    1.000    0.000   10.000    0.000    4.000 
#    0.000    0.000    0.000    0.000    0.000    0.000 
#    0.000    0.000    0.000    0.000    0.000    0.000 
#
# Total GULP energy -67260.105806 kJ/mol
# GULP energy per Si atom -5605.008817 kJ/mol
# Density = 2.448583 g / cm^3
# Si number density = 24.541684 Si / 1000 Ang^3
#
#
#
# Elastic Constant Matrix: (Units=GPa)
#
#
# Indices 1 2 3 4 5 6 
#
# 1 145.9605 2.0185 -3.9084 -6.6803 -14.4282 12.9890
# 2 2.0185 51.7627 8.6834 -11.2302 0.1226 14.2132
# 3 -3.9084 8.6834 56.2943 10.5350 -10.7998 1.0374
# 4 -6.6803 -11.2302 10.5350 42.5008 9.2847 -5.4410
# 5 -14.4282 0.1226 -10.7998 9.2847 39.8467 -2.5303
# 6 12.9890 14.2132 1.0374 -5.4410 -2.5303 40.7310
#
#
#
# Elastic Compliance Matrix: (Units=1/GPa)
#
#
# Indices 1 2 3 4 5 6 
#
# 1 0.007356 0.000154 0.001059 0.000035 0.002799 -0.002248
# 2 0.000154 0.024002 -0.005722 0.007662 -0.003830 -0.007493
# 3 0.001059 -0.005722 0.021914 -0.008543 0.008361 0.000479
# 4 0.000035 0.007662 -0.008543 0.029810 -0.009212 0.000942
# 5 0.002799 -0.003830 0.008361 -0.009212 0.030591 0.000901
# 6 -0.002248 -0.007493 0.000479 0.000942 0.000901 0.028053
#
#
# Mechanical properties :
#
#
# Convention : Reuss Voigt Hill
#
# Bulk Modulus (GPa) = 22.59785 29.73383 26.16584
# Shear Modulus (GPa) = 30.21230 41.09730 35.65480
#
# Velocity S-wave (km/s) = 3.51245 4.09662 3.81573
# Velocity P-wave (km/s) = 5.06732 5.87523 5.48617
#
# Compressibility (1/GPa) = 0.04425200
#
# Stress axis : x y z
#
# Youngs Moduli (GPa) = 135.94880 41.66353 45.63306
#
# Poissons Ratio (x) = -0.00640 -0.04832
# Poissons Ratio (y) = -0.02090 0.26112
# Poissons Ratio (z) = -0.14394 0.23841
#
# Static dielectric constant tensor:
#      x y z
#    x 2.044740 -0.065020 0.025190 
#    y -0.065020 1.916550 -0.060340 
#    z 0.025190 -0.060340 1.853730 
# 
# From -- ./inp_files/145082.got.cif
#   From: 2010.05.17/outbox.cif.g08.bks.cpg/sg2_73_cif.got.tgz:145082.got - 2010.06.03 11:33:40.
