data_PCOD9056486
_publ_section_title
;
Structure prediction by ZEFSAII (Michael W. Deem and Ramdas Pophale) SiO2 
 PCOD9056486
Probable space group: P -1
;
_chemical_formula_sum "Si O2"
_cell_formula_units_Z 16
_cell_length_a 27.891317
_cell_length_b 9.016539
_cell_length_c 15.418263
_cell_angle_alpha 49.560205
_cell_angle_beta 159.590479
_cell_angle_gamma 138.985364
_cell_volume 857.855185
_symmetry_space_group_name_H-M "P -1"
_symmetry_group_IT_number 2
_symmetry_cell_setting 'triclinic'
loop_
_space_group_symop_operation_xyz
x,y,z
-x,-y,-z
loop_
_atom_site_type_symbol
_atom_site_label
_atom_site_fract_x
_atom_site_fract_y
_atom_site_fract_z
Si Si1 0.448438 0.243318 0.586645
Si Si2 0.055336 0.252101 0.458536
Si Si3 0.930511 0.378337 0.520473
Si Si4 0.443840 0.954447 0.018681
Si Si5 0.766467 0.592349 0.888105
Si Si6 0.270738 0.820651 0.133354
Si Si7 0.404833 0.837476 0.541197
Si Si8 0.635944 0.441520 0.259049
O O1 0.618711 0.472297 0.753832
O O2 0.284663 0.248006 0.307182
O O3 0.503875 0.206253 0.787239
O O4 0.415444 0.037786 0.543380
O O5 0.084923 0.443553 0.509883
O O6 0.207214 0.370680 0.603452
O O7 0.000000 0.000000 0.500000
O O8 0.898742 0.203969 0.158186
O O9 0.000000 0.500000 0.500000
O O10 0.058008 0.323696 0.801883
O O11 0.750674 0.158916 0.273175
O O12 0.548032 0.192405 0.157484
O O13 0.500000 0.000000 0.000000
O O14 0.736692 0.393055 0.846351
O O15 0.302829 0.809137 0.293094
O O16 0.413712 0.050957 0.236551
O O17 0.341747 0.615843 0.581637
O O18 0.500000 0.500000 0.000000
#
# Coordination Sequence:
#
# PCOD9056486 Si02
#       8
#     2   2   2   2   2   2   2   2
#     4   9  18  34  57  86 115 152 195 243 292 352
#     4  11  24  40  61  91 120 156 207 253 297 360
#     4  11  22  39  64  91 121 159 200 253 298 360
#     4  11  22  41  61  88 124 160 197 245 309 361
#     4   9  18  34  58  86 115 148 199 246 288 344
#     4   9  19  37  59  84 117 156 200 244 290 359
#     4   9  19  37  59  82 117 159 195 241 302 351
#     4  11  24  40  61  87 125 161 198 252 304 356
#
# _framework density 18.651168999999999
#
# number of rings (size 3 to 8) (size 9 to 14) (size 15 to 20)
#    0.000    2.000    2.500    0.750    3.500    2.500 
#    4.500    0.625    0.000    0.000    0.000    0.000 
#    0.000    0.000    0.000    0.000    0.000    0.000 
#
# Total GULP energy -89076.878248 kJ/mol
# GULP energy per Si atom -5567.304890 kJ/mol
# Density = 1.860872 g / cm^3
# Si number density = 18.651169 Si / 1000 Ang^3
#
#
#
# Elastic Constant Matrix: (Units=GPa)
#
#
# Indices 1 2 3 4 5 6 
#
# 1 108.6145 25.4868 59.6816 -6.2798 -1.9767 34.9618
# 2 25.4868 56.9832 45.6765 -7.7330 9.5254 23.8735
# 3 59.6816 45.6765 145.2070 -15.1800 6.0095 22.2787
# 4 -6.2798 -7.7330 -15.1800 28.8537 -1.6961 2.6143
# 5 -1.9767 9.5254 6.0095 -1.6961 33.8352 -0.2022
# 6 34.9618 23.8735 22.2787 2.6143 -0.2022 20.4499
#
#
#
# Elastic Compliance Matrix: (Units=1/GPa)
#
#
# Indices 1 2 3 4 5 6 
#
# 1 0.043307 0.041317 -0.010382 0.024993 -0.006687 -0.114225
# 2 0.041317 0.086238 -0.014834 0.037736 -0.018295 -0.160156
# 3 -0.010382 -0.014834 0.012203 -0.001724 0.001447 0.022006
# 4 0.024993 0.037736 -0.001724 0.057282 -0.006537 -0.092293
# 5 -0.006687 -0.018295 0.001447 -0.006537 0.033924 0.032385
# 6 -0.114225 -0.160156 0.022006 -0.092293 0.032385 0.419296
#
#
# Mechanical properties :
#
#
# Convention : Reuss Voigt Hill
#
# Bulk Modulus (GPa) = 5.74877 63.61050 34.67963
# Shear Modulus (GPa) = 7.37427 28.62506 17.99966
#
# Velocity S-wave (km/s) = 1.99057 3.92185 3.10993
# Velocity P-wave (km/s) = 2.89346 7.39509 5.61513
#
# Compressibility (1/GPa) = 0.17395029
#
# Stress axis : x y z
#
# Youngs Moduli (GPa) = 23.09078 11.59578 81.94374
#
# Poissons Ratio (x) = -0.47910 0.85071
# Poissons Ratio (y) = -0.95403 1.21558
# Poissons Ratio (z) = 0.23972 0.17202
#
# Static dielectric constant tensor:
#      x y z
#    x 1.591190 0.069020 0.004280 
#    y 0.069020 1.637930 -0.032560 
#    z 0.004280 -0.032560 1.612620 
# 
# From -- ./inp_files/216718.got.cif
#   From: 2010.05.17/outbox.cif.g08.bks.cpg/sg2_109_cif.got.tgz:216718.got - 2010.06.03 11:33:40.
