data_PCOD9056574
_publ_section_title
;
Structure prediction by ZEFSAII (Michael W. Deem and Ramdas Pophale) SiO2 
 PCOD9056574
Probable space group: P -1
;
_chemical_formula_sum "Si O2"
_cell_formula_units_Z 16
_cell_length_a 16.044487
_cell_length_b 20.067533
_cell_length_c 9.769471
_cell_angle_alpha 39.922301
_cell_angle_beta 40.611478
_cell_angle_gamma 19.334337
_cell_volume 658.943366
_symmetry_space_group_name_H-M "P -1"
_symmetry_group_IT_number 2
_symmetry_cell_setting 'triclinic'
loop_
_space_group_symop_operation_xyz
x,y,z
-x,-y,-z
loop_
_atom_site_type_symbol
_atom_site_label
_atom_site_fract_x
_atom_site_fract_y
_atom_site_fract_z
Si Si1 0.434221 0.754333 0.108766
Si Si2 0.778744 0.729422 0.972787
Si Si3 0.690333 0.150121 0.293349
Si Si4 0.959511 0.157653 0.888364
Si Si5 0.884418 0.440631 0.649212
Si Si6 0.671554 0.816346 0.680772
Si Si7 0.324254 0.888049 0.319052
Si Si8 0.956707 0.321694 0.041871
O O1 0.551253 0.788401 0.897667
O O2 0.169823 0.952491 0.046094
O O3 0.402379 0.756427 0.306547
O O4 0.654959 0.529949 0.121203
O O5 0.688044 0.853105 0.753821
O O6 0.897910 0.719025 0.954634
O O7 0.549667 0.815708 0.170083
O O8 0.000000 0.500000 0.000000
O O9 0.401805 0.317618 0.360681
O O10 0.726847 0.123458 0.452056
O O11 0.898928 0.938118 0.283552
O O12 0.725404 0.242674 0.047807
O O13 0.887677 0.321223 0.772401
O O14 0.056510 0.382842 0.419474
O O15 0.999930 0.348105 0.801906
O O16 0.500000 0.000000 0.500000
O O17 0.081084 0.121465 0.199011
#
# Coordination Sequence:
#
# PCOD9056574 Si02
#       8
#     2   2   2   2   2   2   2   2
#     4  11  23  44  65  95 143 167 209 277 326 391
#     4  11  22  42  63  94 142 174 206 269 325 389
#     4  11  27  43  72  97 123 178 225 276 331 381
#     4  11  24  49  66  94 137 165 225 285 322 384
#     4  12  24  43  70  98 132 176 221 263 336 399
#     4  11  22  39  69 100 134 175 208 268 329 385
#     4  11  24  43  65  98 129 174 221 265 326 396
#     4  12  24  41  66  95 134 180 211 260 337 386
#
# _framework density 24.281296000000001
#
# number of rings (size 3 to 8) (size 9 to 14) (size 15 to 20)
#    0.000    0.750    6.250    2.250    1.750    2.000 
#    0.000    0.625    0.000    0.000    0.000    0.000 
#    0.000    0.000    0.000    0.000    0.000    0.000 
#
# Total GULP energy -89651.306673 kJ/mol
# GULP energy per Si atom -5603.206667 kJ/mol
# Density = 2.422603 g / cm^3
# Si number density = 24.281296 Si / 1000 Ang^3
#
#
#
# Elastic Constant Matrix: (Units=GPa)
#
#
# Indices 1 2 3 4 5 6 
#
# 1 64.5815 -3.2321 28.6019 14.5652 20.8037 9.4124
# 2 -3.2321 89.0495 17.7773 20.1737 -2.4905 3.2953
# 3 28.6019 17.7773 105.6820 30.5609 29.7745 3.0758
# 4 14.5652 20.1737 30.5609 36.7389 7.2237 5.6328
# 5 20.8037 -2.4905 29.7745 7.2237 41.1309 4.1525
# 6 9.4124 3.2953 3.0758 5.6328 4.1525 37.6970
#
#
#
# Elastic Compliance Matrix: (Units=1/GPa)
#
#
# Indices 1 2 3 4 5 6 
#
# 1 0.020770 0.002414 -0.002170 -0.005752 -0.007420 -0.003543
# 2 0.002414 0.013346 -0.001232 -0.007514 0.001874 -0.000753
# 3 -0.002170 -0.001232 0.015517 -0.009951 -0.008646 0.001823
# 4 -0.005752 -0.007514 -0.009951 0.041940 0.002661 -0.003655
# 5 -0.007420 0.001874 -0.008646 0.002661 0.034149 -0.001765
# 6 -0.003543 -0.000753 0.001823 -0.003655 -0.001765 0.028070
#
#
# Mechanical properties :
#
#
# Convention : Reuss Voigt Hill
#
# Bulk Modulus (GPa) = 20.98296 38.40081 29.69189
# Shear Modulus (GPa) = 29.12839 37.52440 33.32639
#
# Velocity S-wave (km/s) = 3.46731 3.93543 3.70876
# Velocity P-wave (km/s) = 4.96891 6.04148 5.53125
#
# Compressibility (1/GPa) = 0.04765771
#
# Stress axis : x y z
#
# Youngs Moduli (GPa) = 48.14565 74.93056 64.44416
#
# Poissons Ratio (x) = -0.18087 0.13985
# Poissons Ratio (y) = -0.11622 0.07936
# Poissons Ratio (z) = 0.10448 0.09228
#
# Static dielectric constant tensor:
#      x y z
#    x 1.967690 -0.022540 0.028260 
#    y -0.022540 1.949430 -0.006330 
#    z 0.028260 -0.006330 1.905770 
# 
# From -- ./inp_files/338080.got.cif
#   From: 2010.05.17/outbox.cif.g08.bks.cpg/sg2_170_cif.got.tgz:338080.got - 2010.06.03 11:33:40.
