data_PCOD9056084
_publ_section_title
;
Structure prediction by ZEFSAII (Michael W. Deem and Ramdas Pophale) SiO2 
 PCOD9056084
Probable space group: P -1
;
_chemical_formula_sum "Si O2"
_cell_formula_units_Z 14
_cell_length_a 8.555241
_cell_length_b 18.621108
_cell_length_c 13.372261
_cell_angle_alpha 155.187965
_cell_angle_beta 142.961585
_cell_angle_gamma 45.070828
_cell_volume 537.067114
_symmetry_space_group_name_H-M "P -1"
_symmetry_group_IT_number 2
_symmetry_cell_setting 'triclinic'
loop_
_space_group_symop_operation_xyz
x,y,z
-x,-y,-z
loop_
_atom_site_type_symbol
_atom_site_label
_atom_site_fract_x
_atom_site_fract_y
_atom_site_fract_z
Si Si1 0.967597 0.924387 0.277743
Si Si2 0.817326 0.326235 0.272347
Si Si3 0.725721 0.650647 0.315901
Si Si4 0.049276 0.596297 0.014309
Si Si5 0.422380 0.580466 0.352533
Si Si6 0.393596 0.844327 0.852286
Si Si7 0.150810 0.000623 0.258284
O O1 0.006611 0.723539 0.062258
O O2 0.150188 0.997074 0.373602
O O3 0.670925 0.948964 0.128799
O O4 0.000000 0.000000 0.500000
O O5 0.695984 0.496797 0.387386
O O6 0.641597 0.261535 0.196176
O O7 0.103476 0.347977 0.495290
O O8 0.199171 0.820069 0.005150
O O9 0.670392 0.843420 0.502393
O O10 0.500000 0.500000 0.000000
O O11 0.914437 0.590395 0.248195
O O12 0.305412 0.650333 0.278490
O O13 0.797203 0.574004 0.927447
O O14 0.419505 0.718063 0.612545
O O15 0.144881 0.956480 0.865809
#
# Coordination Sequence:
#
# PCOD9056084 Si02
#       7
#     2   2   2   2   2   2   2
#     4  12  27  44  73 114 150 196 255 310 377 450
#     4  11  23  45  78 114 150 198 252 316 381 445
#     4  11  25  47  76 109 155 199 248 311 381 452
#     4  11  24  44  74 106 143 196 259 309 358 447
#     4  11  22  44  80 107 144 200 257 305 370 444
#     4  11  21  45  77 105 148 203 251 304 378 466
#     4  11  26  48  76 111 155 197 245 314 387 447
#
# _framework density 26.067506999999999
#
# number of rings (size 3 to 8) (size 9 to 14) (size 15 to 20)
#    0.000    0.857    4.286    4.286    2.000    4.571 
#    0.000    4.286    3.143    0.000    0.000    1.000 
#    0.000    0.000    0.000    0.000    0.000    0.000 
#
# Total GULP energy -78459.700001 kJ/mol
# GULP energy per Si atom -5604.264286 kJ/mol
# Density = 2.600818 g / cm^3
# Si number density = 26.067507 Si / 1000 Ang^3
#
#
#
# Elastic Constant Matrix: (Units=GPa)
#
#
# Indices 1 2 3 4 5 6 
#
# 1 105.1613 43.2086 48.1032 0.0496 -21.5770 21.6830
# 2 43.2086 128.5320 30.6988 -1.7926 6.1827 -6.2277
# 3 48.1032 30.6988 112.4779 -14.7157 -5.3739 -0.7340
# 4 0.0496 -1.7926 -14.7157 34.8894 2.8779 1.4890
# 5 -21.5770 6.1827 -5.3739 2.8779 59.2675 6.7859
# 6 21.6830 -6.2277 -0.7340 1.4890 6.7859 50.0346
#
#
#
# Elastic Compliance Matrix: (Units=1/GPa)
#
#
# Indices 1 2 3 4 5 6 
#
# 1 0.018379 -0.005535 -0.006462 -0.003277 0.007956 -0.009730
# 2 -0.005535 0.010137 -0.000487 0.000445 -0.003611 0.004130
# 3 -0.006462 -0.000487 0.012407 0.005235 -0.001775 0.003007
# 4 -0.003277 0.000445 0.005235 0.031054 -0.002382 0.000951
# 5 0.007956 -0.003611 -0.001775 -0.002382 0.020866 -0.006682
# 6 -0.009730 0.004130 0.003007 0.000951 -0.006682 0.025639
#
#
# Mechanical properties :
#
#
# Convention : Reuss Voigt Hill
#
# Bulk Modulus (GPa) = 62.67297 65.57693 64.12495
# Shear Modulus (GPa) = 33.60953 43.78234 38.69594
#
# Velocity S-wave (km/s) = 3.59462 4.10271 3.85704
# Velocity P-wave (km/s) = 6.42830 6.90320 6.66998
#
# Compressibility (1/GPa) = 0.01595584
#
# Stress axis : x y z
#
# Youngs Moduli (GPa) = 54.40895 98.64631 80.60149
#
# Poissons Ratio (x) = 0.54602 0.52082
# Poissons Ratio (y) = 0.30116 0.03925
# Poissons Ratio (z) = 0.35157 0.04804
#
# Static dielectric constant tensor:
#      x y z
#    x 2.048740 -0.019150 0.060010 
#    y -0.019150 2.068260 0.014540 
#    z 0.060010 0.014540 2.093800 
# 
# From -- ./inp_files/570827.got.cif
#   From: 2010.05.17/outbox.cif.g08.bks.cpg/sg2_286_cif.got.tgz:570827.got - 2010.06.03 11:33:40.
