data_PCOD9056401
_publ_section_title
;
Structure prediction by ZEFSAII (Michael W. Deem and Ramdas Pophale) SiO2 
 PCOD9056401
Probable space group: P -1
;
_chemical_formula_sum "Si O2"
_cell_formula_units_Z 14
_cell_length_a 18.247183
_cell_length_b 16.133806
_cell_length_c 9.063950
_cell_angle_alpha 116.562890
_cell_angle_beta 50.162922
_cell_angle_gamma 156.304504
_cell_volume 734.602101
_symmetry_space_group_name_H-M "P -1"
_symmetry_group_IT_number 2
_symmetry_cell_setting 'triclinic'
loop_
_space_group_symop_operation_xyz
x,y,z
-x,-y,-z
loop_
_atom_site_type_symbol
_atom_site_label
_atom_site_fract_x
_atom_site_fract_y
_atom_site_fract_z
Si Si1 0.699684 0.612235 0.404392
Si Si2 0.594456 0.497512 0.779560
Si Si3 0.584731 0.317816 0.165304
Si Si4 0.919995 0.020300 0.030063
Si Si5 0.147478 0.386452 0.215192
Si Si6 0.260046 0.874587 0.330725
Si Si7 0.215290 0.684867 0.982446
O O1 0.500000 0.500000 0.500000
O O2 0.705209 0.627434 0.584866
O O3 0.625131 0.442001 0.316089
O O4 0.945163 0.856218 0.201646
O O5 0.764732 0.586084 0.729009
O O6 0.360174 0.231471 0.827858
O O7 0.500000 0.500000 0.000000
O O8 0.340089 0.045564 0.294875
O O9 0.630124 0.386649 0.993112
O O10 0.779734 0.412716 0.029103
O O11 0.006866 0.185835 0.140640
O O12 0.000000 0.000000 0.000000
O O13 0.967371 0.309188 0.422348
O O14 0.201427 0.750575 0.178290
O O15 0.510503 0.064430 0.232965
O O16 0.000000 0.500000 0.000000
#
# Coordination Sequence:
#
# PCOD9056401 Si02
#       7
#     2   2   2   2   2   2   2
#     4  11  22  38  66  87 124 170 199 253 310 352
#     4  12  24  39  60  89 121 166 214 246 299 369
#     4   9  21  41  61  90 125 156 203 253 304 357
#     4  11  22  41  57  85 126 158 207 261 296 352
#     4  11  23  39  61  90 123 159 205 252 301 367
#     4   9  21  39  64  88 120 158 195 255 312 345
#     4   9  20  41  65  88 121 156 201 253 307 368
#
# _framework density 19.057936000000002
#
# number of rings (size 3 to 8) (size 9 to 14) (size 15 to 20)
#    0.857    0.857    2.857    1.714    2.000    2.286 
#    2.571    0.714    0.000    0.000    0.000    0.000 
#    0.000    0.000    0.000    0.000    0.000    0.000 
#
# Total GULP energy -78060.978293 kJ/mol
# GULP energy per Si atom -5575.784164 kJ/mol
# Density = 1.901456 g / cm^3
# Si number density = 19.057936 Si / 1000 Ang^3
#
#
#
# Elastic Constant Matrix: (Units=GPa)
#
#
# Indices 1 2 3 4 5 6 
#
# 1 70.5519 14.5894 26.7941 12.1594 12.6168 12.4403
# 2 14.5894 60.6445 12.2704 1.0745 3.6453 4.4541
# 3 26.7941 12.2704 107.2403 7.4507 12.5998 6.0067
# 4 12.1594 1.0745 7.4507 23.6017 -0.8764 -9.4945
# 5 12.6168 3.6453 12.5998 -0.8764 31.6776 3.7641
# 6 12.4403 4.4541 6.0067 -9.4945 3.7641 40.9706
#
#
#
# Elastic Compliance Matrix: (Units=1/GPa)
#
#
# Indices 1 2 3 4 5 6 
#
# 1 0.020634 -0.003227 -0.002705 -0.013069 -0.006185 -0.007978
# 2 -0.003227 0.017541 -0.001228 0.001049 -0.000158 -0.000490
# 3 -0.002705 -0.001228 0.010711 -0.002404 -0.003002 -0.000897
# 4 -0.013069 0.001049 -0.002404 0.056802 0.005609 0.016855
# 5 -0.006185 -0.000158 -0.003002 0.005609 0.035353 0.000387
# 6 -0.007978 -0.000490 -0.000897 0.016855 0.000387 0.030885
#
#
# Mechanical properties :
#
#
# Convention : Reuss Voigt Hill
#
# Bulk Modulus (GPa) = 28.92962 38.41605 33.67284
# Shear Modulus (GPa) = 25.28222 31.56884 28.42553
#
# Velocity S-wave (km/s) = 3.64620 4.07439 3.86623
# Velocity P-wave (km/s) = 5.73926 6.50657 6.13492
#
# Compressibility (1/GPa) = 0.03456665
#
# Stress axis : x y z
#
# Youngs Moduli (GPa) = 48.46472 57.00873 93.36166
#
# Poissons Ratio (x) = 0.18399 0.25250
# Poissons Ratio (y) = 0.15641 0.11461
# Poissons Ratio (z) = 0.13108 0.06999
#
# Static dielectric constant tensor:
#      x y z
#    x 1.660010 -0.025460 0.004740 
#    y -0.025460 1.651870 -0.018250 
#    z 0.004740 -0.018250 1.694130 
# 
# From -- ./inp_files/348096.got.cif
#   From: 2010.05.17/outbox.cif.g08.bks.cpg/sg2_175_cif.got.tgz:348096.got - 2010.06.03 11:33:40.
