data_PCOD9056551
_publ_section_title
;
Structure prediction by ZEFSAII (Michael W. Deem and Ramdas Pophale) SiO2 
 PCOD9056551
Probable space group: P -1
;
_chemical_formula_sum "Si O2"
_cell_formula_units_Z 16
_cell_length_a 10.160218
_cell_length_b 10.757785
_cell_length_c 10.545639
_cell_angle_alpha 121.241462
_cell_angle_beta 78.573136
_cell_angle_gamma 58.737845
_cell_volume 647.740495
_symmetry_space_group_name_H-M "P -1"
_symmetry_group_IT_number 2
_symmetry_cell_setting 'triclinic'
loop_
_space_group_symop_operation_xyz
x,y,z
-x,-y,-z
loop_
_atom_site_type_symbol
_atom_site_label
_atom_site_fract_x
_atom_site_fract_y
_atom_site_fract_z
Si Si1 0.910569 0.726848 0.487824
Si Si2 0.536662 0.814666 0.177907
Si Si3 0.509354 0.337430 0.150892
Si Si4 0.459869 0.362537 0.448759
Si Si5 0.196042 0.120056 0.878963
Si Si6 0.010424 0.673922 0.722092
Si Si7 0.843332 0.249909 0.680619
Si Si8 0.250372 0.609679 0.955318
O O1 0.987494 0.501715 0.363501
O O2 0.963138 0.756679 0.630560
O O3 0.032045 0.703637 0.340049
O O4 0.674492 0.936854 0.623033
O O5 0.706596 0.801310 0.123686
O O6 0.507609 0.753473 0.016070
O O7 0.600981 0.646583 0.184752
O O8 0.452140 0.306061 0.275925
O O9 0.333776 0.598376 0.304789
O O10 0.699295 0.293036 0.092447
O O11 0.500000 0.500000 0.500000
O O12 0.240654 0.523265 0.634931
O O13 0.649613 0.121586 0.336178
O O14 0.972279 0.274459 0.953922
O O15 0.152871 0.136934 0.047917
O O16 0.745065 0.315935 0.869692
O O17 0.000000 0.000000 0.500000
#
# Coordination Sequence:
#
# PCOD9056551 Si02
#       8
#     2   2   2   2   2   2   2   2
#     4  11  22  41  71 102 133 174 232 289 343 397
#     4  11  23  44  72 103 137 182 233 285 346 414
#     4  11  23  43  69  98 134 180 237 285 338 408
#     4  12  27  45  69 101 140 183 233 287 348 420
#     4  12  27  46  70 102 146 186 221 290 358 407
#     4  11  24  44  69 101 136 175 230 287 343 410
#     4  11  22  39  67  99 134 176 230 286 329 403
#     4  11  25  44  66 101 142 186 228 277 353 418
#
# _framework density 24.701249000000001
#
# number of rings (size 3 to 8) (size 9 to 14) (size 15 to 20)
#    0.000    0.750    2.500    6.375    3.500    4.000 
#    2.250    1.250    0.000    0.000    0.000    0.000 
#    0.000    0.000    0.000    0.000    0.000    0.000 
#
# Total GULP energy -89481.420416 kJ/mol
# GULP energy per Si atom -5592.588776 kJ/mol
# Density = 2.464503 g / cm^3
# Si number density = 24.701249 Si / 1000 Ang^3
#
#
#
# Elastic Constant Matrix: (Units=GPa)
#
#
# Indices 1 2 3 4 5 6 
#
# 1 123.1992 -1.8017 18.9362 8.0304 -16.7746 6.7636
# 2 -1.8017 33.7061 4.0993 17.0599 1.4109 -0.0477
# 3 18.9362 4.0993 75.0599 30.6191 -11.7214 5.5178
# 4 8.0304 17.0599 30.6191 37.5614 -1.1791 -8.0152
# 5 -16.7746 1.4109 -11.7214 -1.1791 37.2946 0.9746
# 6 6.7636 -0.0477 5.5178 -8.0152 0.9746 38.7588
#
#
#
# Elastic Compliance Matrix: (Units=1/GPa)
#
#
# Indices 1 2 3 4 5 6 
#
# 1 0.009029 0.001685 -0.000581 -0.002554 0.003790 -0.002114
# 2 0.001685 0.043821 0.010453 -0.030455 0.001633 -0.008067
# 3 -0.000581 0.010453 0.025893 -0.027530 0.006858 -0.009438
# 4 -0.002554 -0.030455 -0.027530 0.067147 -0.007007 0.018390
# 5 0.003790 0.001633 0.006858 -0.007007 0.030491 -0.003851
# 6 -0.002114 -0.008067 -0.009438 0.018390 -0.003851 0.031403
#
#
# Mechanical properties :
#
#
# Convention : Reuss Voigt Hill
#
# Bulk Modulus (GPa) = 9.81759 30.49251 20.15505
# Shear Modulus (GPa) = 22.87042 36.77173 29.82107
#
# Velocity S-wave (km/s) = 3.04613 3.86250 3.47835
# Velocity P-wave (km/s) = 4.04414 5.68007 4.93043
#
# Compressibility (1/GPa) = 0.10185803
#
# Stress axis : x y z
#
# Youngs Moduli (GPa) = 110.74943 22.81992 38.62028
#
# Poissons Ratio (x) = -0.03844 0.02243
# Poissons Ratio (y) = -0.18656 -0.40371
# Poissons Ratio (z) = 0.06431 -0.23854
#
# Static dielectric constant tensor:
#      x y z
#    x 1.996440 0.006650 -0.087020 
#    y 0.006650 2.104810 -0.194530 
#    z -0.087020 -0.194530 2.251330 
# 
# From -- ./inp_files/393097.got.cif
#   From: 2010.05.17/outbox.cif.g08.bks.cpg/sg2_197_cif.got.tgz:393097.got - 2010.06.03 11:33:40.
