data_PCOD9056669
_publ_section_title
;
Structure prediction by ZEFSAII (Michael W. Deem and Ramdas Pophale) SiO2 
 PCOD9056669
Probable space group: P -1
;
_chemical_formula_sum "Si O2"
_cell_formula_units_Z 10
_cell_length_a 5.045238
_cell_length_b 4.793889
_cell_length_c 18.205075
_cell_angle_alpha 97.518789
_cell_angle_beta 81.073021
_cell_angle_gamma 125.551181
_cell_volume 353.445814
_symmetry_space_group_name_H-M "P -1"
_symmetry_group_IT_number 2
_symmetry_cell_setting 'triclinic'
loop_
_space_group_symop_operation_xyz
x,y,z
-x,-y,-z
loop_
_atom_site_type_symbol
_atom_site_label
_atom_site_fract_x
_atom_site_fract_y
_atom_site_fract_z
Si Si1 0.195516 0.955073 0.551878
Si Si2 0.739836 0.251551 0.255781
Si Si3 0.191589 0.305690 0.057675
Si Si4 0.169954 0.838746 0.161888
Si Si5 0.309797 0.636929 0.347973
O O1 0.964576 0.583892 0.586485
O O2 0.500000 0.000000 0.500000
O O3 0.358771 0.254535 0.618500
O O4 0.000000 0.000000 0.500000
O O5 0.871245 0.622063 0.225765
O O6 0.092579 0.373866 0.281000
O O7 0.523584 0.989954 0.189690
O O8 0.459940 0.023542 0.323053
O O9 0.096950 0.561675 0.093817
O O10 0.205125 0.150277 0.128904
O O11 0.500000 0.500000 0.000000
O O12 0.000000 0.000000 0.000000
#
# Coordination Sequence:
#
# PCOD9056669 Si02
#       5
#     2   2   2   2   2
#     4  11  22  40  65  97 136 179 226 286 350 415
#     4   9  20  41  64  91 129 174 226 280 338 408
#     4  12  24  40  63  94 128 168 219 278 341 412
#     4  11  22  41  64  91 128 174 221 280 343 408
#     4   9  20  40  64  95 131 175 228 282 340 411
#
# _framework density 28.292878999999999
#
# number of rings (size 3 to 8) (size 9 to 14) (size 15 to 20)
#    0.000    1.600    0.000    4.800    0.000    0.000 
#    0.000   30.000    0.000    0.000    0.000    0.000 
#    0.000    0.000    0.000    0.000    0.000    0.000 
#
# Total GULP energy -55690.084844 kJ/mol
# GULP energy per Si atom -5569.008484 kJ/mol
# Density = 2.822848 g / cm^3
# Si number density = 28.292879 Si / 1000 Ang^3
#
#
#
# Elastic Constant Matrix: (Units=GPa)
#
#
# Indices 1 2 3 4 5 6 
#
# 1 94.4147 55.6152 58.2860 -8.1122 15.5670 11.9311
# 2 55.6152 260.7887 95.9371 -20.5450 0.4335 51.5199
# 3 58.2860 95.9371 190.8430 -21.0318 8.1533 16.7136
# 4 -8.1122 -20.5450 -21.0318 108.3260 21.3687 3.5760
# 5 15.5670 0.4335 8.1533 21.3687 51.9881 6.1165
# 6 11.9311 51.5199 16.7136 3.5760 6.1165 57.7577
#
#
#
# Elastic Compliance Matrix: (Units=1/GPa)
#
#
# Indices 1 2 3 4 5 6 
#
# 1 0.014410 -0.001800 -0.003209 0.000940 -0.004176 -0.000058
# 2 -0.001800 0.005870 -0.002004 0.000516 0.001114 -0.004435
# 3 -0.003209 -0.002004 0.007322 0.000905 -0.000582 0.000337
# 4 0.000940 0.000516 0.000905 0.010524 -0.004627 -0.001078
# 5 -0.004176 0.001114 -0.000582 -0.004627 0.022714 -0.002081
# 6 -0.000058 -0.004435 0.000337 -0.001078 -0.002081 0.021471
#
#
# Mechanical properties :
#
#
# Convention : Reuss Voigt Hill
#
# Bulk Modulus (GPa) = 73.65201 107.30258 90.47730
# Shear Modulus (GPa) = 49.57274 66.02822 57.80048
#
# Velocity S-wave (km/s) = 4.19038 4.83612 4.52479
# Velocity P-wave (km/s) = 7.03569 8.31818 7.70367
#
# Compressibility (1/GPa) = 0.01357736
#
# Stress axis : x y z
#
# Youngs Moduli (GPa) = 69.39857 170.34748 136.56905
#
# Poissons Ratio (x) = 0.30661 0.43823
# Poissons Ratio (y) = 0.12491 0.27363
# Poissons Ratio (z) = 0.22269 0.34131
#
# Static dielectric constant tensor:
#      x y z
#    x 2.327240 -0.057810 -0.061130 
#    y -0.057810 2.100850 0.088500 
#    z -0.061130 0.088500 2.249360 
# 
# From -- ./inp_files/7770.got.cif
#   From: 2010.05.17/outbox.cif.g08.bks.cpg/sg2_4_cif.got.tgz:7770.got - 2010.06.03 11:33:40.
