data_PCOD9056362
_publ_section_title
;
Structure prediction by ZEFSAII (Michael W. Deem and Ramdas Pophale) SiO2 
 PCOD9056362
Probable space group: P -1
;
_chemical_formula_sum "Si O2"
_cell_formula_units_Z 14
_cell_length_a 13.550593
_cell_length_b 5.529782
_cell_length_c 8.408821
_cell_angle_alpha 89.134294
_cell_angle_beta 66.180862
_cell_angle_gamma 70.061350
_cell_volume 536.333348
_symmetry_space_group_name_H-M "P -1"
_symmetry_group_IT_number 2
_symmetry_cell_setting 'triclinic'
loop_
_space_group_symop_operation_xyz
x,y,z
-x,-y,-z
loop_
_atom_site_type_symbol
_atom_site_label
_atom_site_fract_x
_atom_site_fract_y
_atom_site_fract_z
Si Si1 0.290127 0.144797 0.933706
Si Si2 0.654734 0.610290 0.799267
Si Si3 0.974893 0.914727 0.228085
Si Si4 0.123793 0.347958 0.502326
Si Si5 0.893350 0.418874 0.123288
Si Si6 0.185275 0.907401 0.241917
Si Si7 0.480041 0.763180 0.615204
O O1 0.231961 0.387737 0.852627
O O2 0.355022 0.905275 0.778430
O O3 0.361124 0.207749 0.035407
O O4 0.185684 0.112429 0.102885
O O5 0.774173 0.565334 0.624400
O O6 0.691266 0.323506 0.852178
O O7 0.561020 0.689881 0.721027
O O8 0.900751 0.724234 0.300619
O O9 0.067072 0.858762 0.310000
O O10 0.905965 0.225437 0.266032
O O11 0.073754 0.814018 0.029812
O O12 0.000000 0.500000 0.500000
O O13 0.178848 0.051665 0.408058
O O14 0.000000 0.500000 0.000000
O O15 0.500000 0.500000 0.500000
O O16 0.500000 0.000000 0.500000
#
# Coordination Sequence:
#
# PCOD9056362 Si02
#       7
#     2   2   2   2   2   2   2
#     4  11  25  50  80 108 154 212 267 323 396 484
#     4  11  26  50  79 110 153 209 268 322 397 480
#     4  11  22  38  63 109 159 199 254 310 386 467
#     4  11  23  39  67 109 154 201 253 318 386 471
#     4  11  23  40  65 105 154 203 253 311 391 474
#     4  11  22  41  73 107 145 202 266 309 392 477
#     4  12  33  58  81 120 157 203 276 349 412 465
#
# _framework density 26.103169999999999
#
# number of rings (size 3 to 8) (size 9 to 14) (size 15 to 20)
#    0.000    0.857    4.286    1.714    6.000    2.857 
#    0.000    0.000    0.000    0.000    0.000    0.000 
#    0.000    0.000    0.000    0.000    0.000    0.000 
#
# Total GULP energy -77950.212359 kJ/mol
# GULP energy per Si atom -5567.872311 kJ/mol
# Density = 2.604376 g / cm^3
# Si number density = 26.103170 Si / 1000 Ang^3
#
#
#
# Elastic Constant Matrix: (Units=GPa)
#
#
# Indices 1 2 3 4 5 6 
#
# 1 66.1321 28.7905 -0.0366 -5.0441 20.9406 -25.9393
# 2 28.7905 138.1650 9.1828 -9.2550 -3.9932 -33.2416
# 3 -0.0366 9.1828 115.7634 15.7668 -6.1397 -21.1145
# 4 -5.0441 -9.2550 15.7668 52.6817 1.5921 -0.5002
# 5 20.9406 -3.9932 -6.1397 1.5921 35.3049 -8.2823
# 6 -25.9393 -33.2416 -21.1145 -0.5002 -8.2823 25.2742
#
#
#
# Elastic Compliance Matrix: (Units=1/GPa)
#
#
# Indices 1 2 3 4 5 6 
#
# 1 0.031947 0.001740 0.005825 0.002249 -0.009164 0.036983
# 2 0.001740 0.012495 0.003379 0.001378 0.006337 0.023146
# 3 0.005825 0.003379 0.013173 -0.002716 0.004717 0.022920
# 4 0.002249 0.001378 -0.002716 0.020334 -0.002208 0.001531
# 5 -0.009164 0.006337 0.004717 -0.002208 0.039063 0.015627
# 6 0.036983 0.023146 0.022920 0.001531 0.015627 0.132264
#
#
# Mechanical properties :
#
#
# Convention : Reuss Voigt Hill
#
# Bulk Modulus (GPa) = 12.57822 43.99267 28.28544
# Shear Modulus (GPa) = 19.69379 41.46042 30.57710
#
# Velocity S-wave (km/s) = 2.74972 3.98971 3.42628
# Velocity P-wave (km/s) = 3.86140 6.17363 5.14898
#
# Compressibility (1/GPa) = 0.07950252
#
# Stress axis : x y z
#
# Youngs Moduli (GPa) = 31.30229 80.03203 75.91513
#
# Poissons Ratio (x) = -0.13922 -0.44222
# Poissons Ratio (y) = -0.05445 -0.25655
# Poissons Ratio (z) = -0.18234 -0.27047
#
# Static dielectric constant tensor:
#      x y z
#    x 2.025810 0.124240 0.380690 
#    y 0.124240 2.113610 -0.140170 
#    z 0.380690 -0.140170 2.800580 
# 
# From -- ./inp_files/288775.got.cif
#   From: 2010.05.17/outbox.cif.g08.bks.cpg/sg2_145_cif.got.tgz:288775.got - 2010.06.03 11:33:40.
