data_PCOD9056901
_publ_section_title
;
Structure prediction by ZEFSAII (Michael W. Deem and Ramdas Pophale) SiO2 
 PCOD9056901
Probable space group: P -1
;
_chemical_formula_sum "Si O2"
_cell_formula_units_Z 16
_cell_length_a 11.518108
_cell_length_b 7.626584
_cell_length_c 21.883308
_cell_angle_alpha 118.695640
_cell_angle_beta 34.579980
_cell_angle_gamma 141.579030
_cell_volume 599.333990
_symmetry_space_group_name_H-M "P -1"
_symmetry_group_IT_number 2
_symmetry_cell_setting 'triclinic'
loop_
_space_group_symop_operation_xyz
x,y,z
-x,-y,-z
loop_
_atom_site_type_symbol
_atom_site_label
_atom_site_fract_x
_atom_site_fract_y
_atom_site_fract_z
Si Si1 0.460728 0.362066 0.799788
Si Si2 0.865970 0.979268 0.792515
Si Si3 0.594935 0.357421 0.961451
Si Si4 0.302338 0.527283 0.553502
Si Si5 0.213590 0.906058 0.942852
Si Si6 0.411880 0.129041 0.283288
Si Si7 0.540528 0.688712 0.339986
Si Si8 0.735496 0.305812 0.288564
O O1 0.513183 0.276228 0.700034
O O2 0.764746 0.741353 0.745771
O O3 0.397768 0.177634 0.855891
O O4 0.133297 0.252167 0.921148
O O5 0.078247 0.031844 0.761604
O O6 0.073198 0.332625 0.744430
O O7 0.535044 0.779347 0.937483
O O8 0.980061 0.628226 0.840415
O O9 0.424237 0.077743 0.941705
O O10 0.500000 0.500000 0.000000
O O11 0.500000 0.500000 0.500000
O O12 0.398519 0.633280 0.458976
O O13 0.355314 0.760835 0.612254
O O14 0.917111 0.189782 0.659633
O O15 0.268640 0.724320 0.862905
O O16 0.425202 0.374764 0.323783
O O17 0.434539 0.080697 0.335830
#
# Coordination Sequence:
#
# PCOD9056901 Si02
#       8
#     2   2   2   2   2   2   2   2
#     4  11  24  42  65  95 139 176 216 271 330 397
#     4  11  22  41  64 100 133 170 219 274 331 390
#     4  12  23  43  68  99 139 177 216 266 333 400
#     4  12  23  44  68  99 133 171 223 275 332 384
#     4  11  24  42  65  98 133 180 217 266 337 398
#     4  11  24  42  69  98 131 172 220 275 330 392
#     4  11  25  39  68  99 126 178 219 272 331 384
#     4  11  25  42  69 100 133 174 220 274 330 391
#
# _framework density 26.696301999999999
#
# number of rings (size 3 to 8) (size 9 to 14) (size 15 to 20)
#    0.000    0.750    6.250    2.250    1.750    1.500 
#    0.000    0.625    0.000    3.750    0.000    0.000 
#    0.000    0.000    0.000    0.000    0.000    0.000 
#
# Total GULP energy -89564.475239 kJ/mol
# GULP energy per Si atom -5597.779702 kJ/mol
# Density = 2.663554 g / cm^3
# Si number density = 26.696302 Si / 1000 Ang^3
#
#
#
# Elastic Constant Matrix: (Units=GPa)
#
#
# Indices 1 2 3 4 5 6 
#
# 1 133.2474 36.1837 20.7984 -7.2959 14.9496 25.0159
# 2 36.1837 48.1717 2.9684 1.5179 10.9320 32.6276
# 3 20.7984 2.9684 84.3780 27.3975 16.4510 6.3024
# 4 -7.2959 1.5179 27.3975 30.0014 16.7464 15.7311
# 5 14.9496 10.9320 16.4510 16.7464 48.1705 3.4715
# 6 25.0159 32.6276 6.3024 15.7311 3.4715 65.8004
#
#
#
# Elastic Compliance Matrix: (Units=1/GPa)
#
#
# Indices 1 2 3 4 5 6 
#
# 1 0.011907 -0.004706 -0.005917 0.013813 -0.005072 -0.004661
# 2 -0.004706 0.041126 -0.001641 0.015932 -0.011290 -0.021660
# 3 -0.005917 -0.001641 0.020519 -0.025866 0.003683 0.007088
# 4 0.013813 0.015932 -0.025866 0.091884 -0.028769 -0.031123
# 5 -0.005072 -0.011290 0.003683 -0.028769 0.032752 0.012324
# 6 -0.004661 -0.021660 0.007088 -0.031123 0.012324 0.033821
#
#
# Mechanical properties :
#
#
# Convention : Reuss Voigt Hill
#
# Bulk Modulus (GPa) = 20.39870 42.85536 31.62703
# Shear Modulus (GPa) = 18.32318 42.51754 30.42036
#
# Velocity S-wave (km/s) = 2.62268 3.99512 3.37931
# Velocity P-wave (km/s) = 4.10230 6.11302 5.20567
#
# Compressibility (1/GPa) = 0.04902274
#
# Stress axis : x y z
#
# Youngs Moduli (GPa) = 83.98473 24.31564 48.73528
#
# Poissons Ratio (x) = 0.11444 0.28838
# Poissons Ratio (y) = 0.39525 0.07997
# Poissons Ratio (z) = 0.49696 0.03990
#
# Static dielectric constant tensor:
#      x y z
#    x 2.150540 -0.105960 0.090320 
#    y -0.105960 2.169180 0.041110 
#    z 0.090320 0.041110 2.155910 
# 
# From -- ./inp_files/594143.got.cif
#   From: 2010.05.17/outbox.cif.g08.bks.cpg/sg2_298_cif.got.tgz:594143.got - 2010.06.03 11:33:40.
