data_PCOD9056597
_publ_section_title
;
Structure prediction by ZEFSAII (Michael W. Deem and Ramdas Pophale) SiO2 
 PCOD9056597
Probable space group: P -1
;
_chemical_formula_sum "Si O2"
_cell_formula_units_Z 13
_cell_length_a 8.970097
_cell_length_b 9.289890
_cell_length_c 14.467339
_cell_angle_alpha 37.972063
_cell_angle_beta 131.251804
_cell_angle_gamma 129.293325
_cell_volume 540.625738
_symmetry_space_group_name_H-M "P -1"
_symmetry_group_IT_number 2
_symmetry_cell_setting 'triclinic'
loop_
_space_group_symop_operation_xyz
x,y,z
-x,-y,-z
loop_
_atom_site_type_symbol
_atom_site_label
_atom_site_fract_x
_atom_site_fract_y
_atom_site_fract_z
Si Si1 0.706738 0.223151 0.856897
Si Si2 0.115913 0.032215 0.668143
Si Si3 0.500000 0.500000 0.500000
Si Si4 0.116257 0.500905 0.952527
Si Si5 0.676460 0.883094 0.476166
Si Si6 0.651884 0.740736 0.173644
Si Si7 0.503140 0.348071 0.173119
O O1 0.606807 0.291339 0.689732
O O2 0.570325 0.262098 0.871072
O O3 0.937719 0.382045 0.869788
O O4 0.702032 0.945494 0.010832
O O5 0.194999 0.785919 0.818788
O O6 0.228794 0.193162 0.545907
O O7 0.874988 0.954726 0.586475
O O8 0.187475 0.166825 0.724424
O O9 0.517976 0.628140 0.550088
O O10 0.271215 0.334154 0.113906
O O11 0.000000 0.500000 0.000000
O O12 0.574060 0.104139 0.317084
O O13 0.640659 0.500003 0.233568
O O14 0.500000 0.500000 0.000000
#
# Coordination Sequence:
#
# PCOD9056597 Si02
#       7
#     2   2   1   2   2   2   2
#     4  11  22  39  71 103 126 189 234 278 331 434
#     4  11  22  43  71  97 134 193 232 272 352 431
#     4  12  22  42  68 100 140 180 230 286 356 414
#     4  12  21  41  72  99 134 182 237 276 340 423
#     4  11  25  42  69 102 139 180 232 292 347 409
#     4  11  22  42  74  97 140 184 239 276 353 418
#     4  12  25  44  67 107 143 179 232 302 344 402
#
# _framework density 24.046212000000001
#
# number of rings (size 3 to 8) (size 9 to 14) (size 15 to 20)
#    0.000    0.615    7.692    1.846    0.000    0.615 
#    0.000    9.231    0.000    0.000    0.000    0.000 
#    0.000    0.000    0.000    0.000    0.000    0.000 
#
# Total GULP energy -72405.144728 kJ/mol
# GULP energy per Si atom -5569.626518 kJ/mol
# Density = 2.399148 g / cm^3
# Si number density = 24.046212 Si / 1000 Ang^3
#
#
#
# Elastic Constant Matrix: (Units=GPa)
#
#
# Indices 1 2 3 4 5 6 
#
# 1 40.3932 19.8931 28.1254 3.2032 10.0562 -7.2839
# 2 19.8931 195.4267 71.1275 17.6137 33.5998 -12.3920
# 3 28.1254 71.1275 141.0207 9.4459 16.8270 -6.2281
# 4 3.2032 17.6137 9.4459 52.8608 2.1787 14.2262
# 5 10.0562 33.5998 16.8270 2.1787 33.6373 -2.2522
# 6 -7.2839 -12.3920 -6.2281 14.2262 -2.2522 19.6521
#
#
#
# Elastic Compliance Matrix: (Units=1/GPa)
#
#
# Indices 1 2 3 4 5 6 
#
# 1 0.032476 0.001117 -0.005281 -0.004812 -0.006950 0.013754
# 2 0.001117 0.007837 -0.002933 -0.003616 -0.006036 0.006352
# 3 -0.005281 -0.002933 0.009655 -0.000251 -0.000346 -0.000605
# 4 -0.004812 -0.003616 -0.000251 0.026624 0.001898 -0.023198
# 5 -0.006950 -0.006036 -0.000346 0.001898 0.037648 -0.003551
# 6 0.013754 0.006352 -0.000605 -0.023198 -0.003551 0.076183
#
#
# Mechanical properties :
#
#
# Convention : Reuss Voigt Hill
#
# Bulk Modulus (GPa) = 27.95318 68.34804 48.15061
# Shear Modulus (GPa) = 23.09023 38.40969 30.74996
#
# Velocity S-wave (km/s) = 3.10214 4.00099 3.57989
# Velocity P-wave (km/s) = 4.94783 7.05899 6.09550
#
# Compressibility (1/GPa) = 0.03577411
#
# Stress axis : x y z
#
# Youngs Moduli (GPa) = 30.79202 127.59836 103.57271
#
# Poissons Ratio (x) = -0.14255 0.54702
# Poissons Ratio (y) = -0.03440 0.30375
# Poissons Ratio (z) = 0.16263 0.37421
#
# Static dielectric constant tensor:
#      x y z
#    x 1.871320 -0.296680 0.110090 
#    y -0.296680 1.554070 0.173870 
#    z 0.110090 0.173870 1.903080 
# 
# From -- ./inp_files/155201.got.cif
#   From: 2010.05.17/outbox.cif.g08.bks.cpg/sg2_78_cif.got.tgz:155201.got - 2010.06.03 11:33:40.
