data_PCOD9056485
_publ_section_title
;
Structure prediction by ZEFSAII (Michael W. Deem and Ramdas Pophale) SiO2 
 PCOD9056485
Probable space group: P -1
;
_chemical_formula_sum "Si O2"
_cell_formula_units_Z 16
_cell_length_a 6.506664
_cell_length_b 18.089037
_cell_length_c 18.110136
_cell_angle_alpha 23.783891
_cell_angle_beta 93.566507
_cell_angle_gamma 81.921418
_cell_volume 747.634358
_symmetry_space_group_name_H-M "P -1"
_symmetry_group_IT_number 2
_symmetry_cell_setting 'triclinic'
loop_
_space_group_symop_operation_xyz
x,y,z
-x,-y,-z
loop_
_atom_site_type_symbol
_atom_site_label
_atom_site_fract_x
_atom_site_fract_y
_atom_site_fract_z
Si Si1 0.057344 0.327631 0.057473
Si Si2 0.504182 0.406044 0.747725
Si Si3 0.096257 0.580416 0.702370
Si Si4 0.599096 0.652685 0.838381
Si Si5 0.525357 0.975129 0.906873
Si Si6 0.407572 0.240852 0.524011
Si Si7 0.751033 0.661104 0.315024
Si Si8 0.743579 0.127290 0.493969
O O1 0.289691 0.290832 0.141481
O O2 0.057377 0.110160 0.268119
O O3 0.078139 0.396198 0.913108
O O4 0.822638 0.518869 0.911957
O O5 0.297614 0.491428 0.726673
O O6 0.635452 0.536520 0.647664
O O7 0.384881 0.450465 0.623483
O O8 0.621059 0.153064 0.987439
O O9 0.157474 0.710588 0.644457
O O10 0.846658 0.734343 0.519261
O O11 0.390362 0.839456 0.616874
O O12 0.500000 0.500000 0.000000
O O13 0.552167 0.059971 0.752015
O O14 0.394842 0.173982 0.775561
O O15 0.751243 0.802699 0.115655
O O16 0.552131 0.190208 0.497782
O O17 0.000000 0.500000 0.500000
#
# Coordination Sequence:
#
# PCOD9056485 Si02
#       8
#     2   2   2   2   2   2   2   2
#     4  11  24  41  66  92 121 165 207 248 322 363
#     4   9  21  38  60  90 126 157 206 252 302 361
#     4  11  22  40  62  91 125 164 208 254 301 371
#     4  11  23  44  65  92 128 155 208 265 300 371
#     4   9  20  38  62  89 124 163 199 255 308 353
#     4  11  22  39  64  89 127 166 206 252 305 367
#     4   9  18  39  64  90 125 158 204 257 301 363
#     4  11  24  42  63  94 123 164 210 252 311 365
#
# _framework density 21.400836000000002
#
# number of rings (size 3 to 8) (size 9 to 14) (size 15 to 20)
#    0.750    1.000    2.500    1.875    0.000    3.000 
#    0.000    1.875    0.000    0.000    0.000    0.000 
#    0.000    0.000    0.000    0.000    0.000    0.000 
#
# Total GULP energy -89257.461044 kJ/mol
# GULP energy per Si atom -5578.591315 kJ/mol
# Density = 2.135213 g / cm^3
# Si number density = 21.400836 Si / 1000 Ang^3
#
#
#
# Elastic Constant Matrix: (Units=GPa)
#
#
# Indices 1 2 3 4 5 6 
#
# 1 33.6792 0.2257 2.4123 15.6028 -1.6892 6.5049
# 2 0.2257 42.5419 3.2638 4.9296 2.4958 8.4460
# 3 2.4123 3.2638 95.9160 21.0225 -3.9521 -3.5023
# 4 15.6028 4.9296 21.0225 33.5840 -3.3339 -6.2071
# 5 -1.6892 2.4958 -3.9521 -3.3339 26.3911 2.3332
# 6 6.5049 8.4460 -3.5023 -6.2071 2.3332 17.0319
#
#
#
# Elastic Compliance Matrix: (Units=1/GPa)
#
#
# Indices 1 2 3 4 5 6 
#
# 1 0.053870 0.011172 0.004986 -0.036760 0.001920 -0.038749
# 2 0.011172 0.029975 0.001001 -0.014841 -0.001714 -0.024099
# 3 0.004986 0.001001 0.012567 -0.010955 0.001072 -0.003956
# 4 -0.036760 -0.014841 -0.010955 0.063859 0.001748 0.042180
# 5 0.001920 -0.001714 0.001072 0.001748 0.038944 -0.004361
# 6 -0.038749 -0.024099 -0.003956 0.042180 -0.004361 0.100619
#
#
# Mechanical properties :
#
#
# Convention : Reuss Voigt Hill
#
# Bulk Modulus (GPa) = 7.64936 20.43785 14.04360
# Shear Modulus (GPa) = 16.17638 26.48376 21.33007
#
# Velocity S-wave (km/s) = 2.75230 3.52164 3.16047
# Velocity P-wave (km/s) = 3.69896 5.10947 4.46033
#
# Compressibility (1/GPa) = 0.13072986
#
# Stress axis : x y z
#
# Youngs Moduli (GPa) = 18.56316 33.36125 79.57298
#
# Poissons Ratio (x) = -0.37270 -0.39676
# Poissons Ratio (y) = -0.20738 -0.07967
# Poissons Ratio (z) = -0.09256 -0.03340
#
# Static dielectric constant tensor:
#      x y z
#    x 1.764210 0.021920 -0.017460 
#    y 0.021920 1.788870 -0.016320 
#    z -0.017460 -0.016320 1.776950 
# 
# From -- ./inp_files/584294.got.cif
#   From: 2010.05.17/outbox.cif.g08.bks.cpg/sg2_293_cif.got.tgz:584294.got - 2010.06.03 11:33:40.
