data_PCOD9056203
_publ_section_title
;
Structure prediction by ZEFSAII (Michael W. Deem and Ramdas Pophale) SiO2 
 PCOD9056203
Probable space group: P -1
;
_chemical_formula_sum "Si O2"
_cell_formula_units_Z 13
_cell_length_a 9.302315
_cell_length_b 20.312994
_cell_length_c 11.505138
_cell_angle_alpha 32.603575
_cell_angle_beta 114.937151
_cell_angle_gamma 138.160270
_cell_volume 640.320139
_symmetry_space_group_name_H-M "P -1"
_symmetry_group_IT_number 2
_symmetry_cell_setting 'triclinic'
loop_
_space_group_symop_operation_xyz
x,y,z
-x,-y,-z
loop_
_atom_site_type_symbol
_atom_site_label
_atom_site_fract_x
_atom_site_fract_y
_atom_site_fract_z
Si Si1 0.748003 0.317008 0.608958
Si Si2 0.382318 0.488958 0.747425
Si Si3 0.389136 0.955345 0.207578
Si Si4 0.824387 0.935809 0.927135
Si Si5 0.842283 0.064147 0.300221
Si Si6 0.857997 0.819938 0.556237
Si Si7 0.500000 0.500000 0.500000
O O1 0.641951 0.380472 0.434811
O O2 0.000000 0.500000 0.500000
O O3 0.798572 0.253276 0.616360
O O4 0.533918 0.123817 0.907084
O O5 0.615371 0.593753 0.758462
O O6 0.453661 0.511001 0.605226
O O7 0.101519 0.259514 0.024293
O O8 0.247909 0.967530 0.220575
O O9 0.607749 0.010200 0.266414
O O10 0.583234 0.693868 0.206111
O O11 0.992622 0.033339 0.722542
O O12 0.000000 0.000000 0.000000
O O13 0.938816 0.128379 0.370502
O O14 0.769533 0.880520 0.515015
#
# Coordination Sequence:
#
# PCOD9056203 Si02
#       7
#     2   2   2   2   2   2   1
#     4  11  22  35  63  95 127 159 209 269 320 371
#     4  12  22  41  66  96 127 165 217 267 319 382
#     4  11  24  39  63  97 126 168 214 262 324 380
#     4  12  25  42  66  93 134 163 212 269 327 382
#     4  11  24  42  66  91 130 172 220 257 315 385
#     4  11  24  43  64  93 129 176 210 263 317 387
#     4  12  24  36  66 100 126 164 206 268 336 366
#
# _framework density 20.302344999999999
#
# number of rings (size 3 to 8) (size 9 to 14) (size 15 to 20)
#    0.000    0.615    7.692    0.462    4.308    0.615 
#    0.000    0.000    0.000    1.846    0.000    0.000 
#    0.000    0.000    0.000    0.000    0.000    0.000 
#
# Total GULP energy -72380.192578 kJ/mol
# GULP energy per Si atom -5567.707121 kJ/mol
# Density = 2.025614 g / cm^3
# Si number density = 20.302345 Si / 1000 Ang^3
#
#
#
# Elastic Constant Matrix: (Units=GPa)
#
#
# Indices 1 2 3 4 5 6 
#
# 1 76.0352 34.0933 13.6457 -13.9336 18.8926 -14.8603
# 2 34.0933 102.3682 21.7391 -14.8130 -0.2233 1.0515
# 3 13.6457 21.7391 43.9589 -5.0659 9.6710 -3.3129
# 4 -13.9336 -14.8130 -5.0659 26.8438 -10.2864 4.7678
# 5 18.8926 -0.2233 9.6710 -10.2864 32.0034 -1.2787
# 6 -14.8603 1.0515 -3.3129 4.7678 -1.2787 26.0471
#
#
#
# Elastic Compliance Matrix: (Units=1/GPa)
#
#
# Indices 1 2 3 4 5 6 
#
# 1 0.022046 -0.007586 0.000660 0.000347 -0.012664 0.012282
# 2 -0.007586 0.014870 -0.006553 0.007569 0.008726 -0.006719
# 3 0.000660 -0.006553 0.027907 -0.002373 -0.009465 0.004160
# 4 0.000347 0.007569 -0.002373 0.048774 0.015900 -0.008557
# 5 -0.012664 0.008726 -0.009465 0.015900 0.046378 -0.009415
# 6 0.012282 -0.006719 0.004160 -0.008557 -0.009415 0.047304
#
#
# Mechanical properties :
#
#
# Convention : Reuss Voigt Hill
#
# Bulk Modulus (GPa) = 26.40995 40.14648 33.27822
# Shear Modulus (GPa) = 20.25468 27.17114 23.71291
#
# Velocity S-wave (km/s) = 3.16199 3.66228 3.42129
# Velocity P-wave (km/s) = 5.13493 6.14006 5.65985
#
# Compressibility (1/GPa) = 0.03786451
#
# Stress axis : x y z
#
# Youngs Moduli (GPa) = 45.36069 67.24999 35.83386
#
# Poissons Ratio (x) = 0.51015 -0.02365
# Poissons Ratio (y) = 0.34410 0.23481
# Poissons Ratio (z) = -0.02993 0.44067
#
# Static dielectric constant tensor:
#      x y z
#    x 1.726270 0.034170 -0.007330 
#    y 0.034170 1.803100 -0.035050 
#    z -0.007330 -0.035050 1.741810 
# 
# From -- ./inp_files/63170.got.cif
#   From: 2010.05.17/outbox.cif.g08.bks.cpg/sg2_32_cif.got.tgz:63170.got - 2010.06.03 11:33:40.
