data_PCOD9056188
_publ_section_title
;
Structure prediction by ZEFSAII (Michael W. Deem and Ramdas Pophale) SiO2 
 PCOD9056188
Probable space group: P -1
;
_chemical_formula_sum "Si O2"
_cell_formula_units_Z 16
_cell_length_a 16.750385
_cell_length_b 10.982337
_cell_length_c 10.670800
_cell_angle_alpha 43.242240
_cell_angle_beta 54.845453
_cell_angle_gamma 34.664618
_cell_volume 763.511836
_symmetry_space_group_name_H-M "P -1"
_symmetry_group_IT_number 2
_symmetry_cell_setting 'triclinic'
loop_
_space_group_symop_operation_xyz
x,y,z
-x,-y,-z
loop_
_atom_site_type_symbol
_atom_site_label
_atom_site_fract_x
_atom_site_fract_y
_atom_site_fract_z
Si Si1 0.988183 0.638020 0.028447
Si Si2 0.316185 0.718937 0.813488
Si Si3 0.900416 0.120390 0.619378
Si Si4 0.704796 0.002555 0.139937
Si Si5 0.607137 0.458899 0.709262
Si Si6 0.966765 0.814098 0.356797
Si Si7 0.847773 0.588395 0.711312
Si Si8 0.586739 0.734339 0.760043
O O1 0.122760 0.464183 0.128150
O O2 0.856126 0.743186 0.151957
O O3 0.000000 0.500000 0.000000
O O4 0.948484 0.885667 0.831337
O O5 0.449517 0.615731 0.691931
O O6 0.169386 0.881818 0.755971
O O7 0.360831 0.487536 0.024748
O O8 0.653654 0.225494 0.924534
O O9 0.732408 0.325347 0.598170
O O10 0.929733 0.250109 0.583361
O O11 0.000000 0.000000 0.500000
O O12 0.579040 0.025525 0.244836
O O13 0.600879 0.628090 0.689137
O O14 0.285002 0.912182 0.800247
O O15 0.903002 0.707683 0.530336
O O16 0.053580 0.682432 0.248414
O O17 0.690458 0.759618 0.676364
#
# Coordination Sequence:
#
# PCOD9056188 Si02
#       8
#     2   2   2   2   2   2   2   2
#     4  11  22  38  58  81 111 148 183 222 273 328
#     4   9  16  32  57  83 106 137 181 227 274 322
#     4  11  22  38  58  81 111 148 183 222 273 328
#     4   8  16  31  55  82 108 138 179 225 272 324
#     4   8  16  31  55  82 108 138 179 225 272 324
#     4  11  22  35  53  83 116 144 181 227 269 319
#     4  11  22  35  53  83 116 144 181 227 269 319
#     4   9  16  32  57  83 106 137 181 227 274 322
#
# _framework density 20.955798000000001
#
# number of rings (size 3 to 8) (size 9 to 14) (size 15 to 20)
#    0.000    2.250    2.500    3.000    0.000    1.000 
#    0.000    6.250    0.000    0.000    0.000    0.000 
#    0.000    0.000    0.000    0.000    0.000    0.000 
#
# Total GULP energy -89324.079610 kJ/mol
# GULP energy per Si atom -5582.754976 kJ/mol
# Density = 2.090810 g / cm^3
# Si number density = 20.955798 Si / 1000 Ang^3
#
#
#
# Elastic Constant Matrix: (Units=GPa)
#
#
# Indices 1 2 3 4 5 6 
#
# 1 68.4991 13.7770 5.2249 9.5977 -18.3006 -5.2019
# 2 13.7770 80.9631 8.9741 25.8242 -8.9063 -14.7772
# 3 5.2249 8.9741 50.5661 5.8941 -6.6320 -3.4416
# 4 9.5977 25.8242 5.8941 26.7507 -4.5540 -2.5511
# 5 -18.3006 -8.9063 -6.6320 -4.5540 25.4672 3.9266
# 6 -5.2019 -14.7772 -3.4416 -2.5511 3.9266 31.6218
#
#
#
# Elastic Compliance Matrix: (Units=1/GPa)
#
#
# Indices 1 2 3 4 5 6 
#
# 1 0.018636 -0.000280 0.000328 -0.004265 0.012450 0.001080
# 2 -0.000280 0.019709 -0.000610 -0.017707 0.002226 0.007393
# 3 0.000328 -0.000610 0.020926 -0.003223 0.004710 0.001202
# 4 -0.004265 -0.017707 -0.003223 0.056377 0.000735 -0.004870
# 5 0.012450 0.002226 0.004710 0.000735 0.050756 -0.002642
# 6 0.001080 0.007393 0.001202 -0.004870 -0.002642 0.035322
#
#
# Mechanical properties :
#
#
# Convention : Reuss Voigt Hill
#
# Bulk Modulus (GPa) = 17.19816 28.44225 22.82021
# Shear Modulus (GPa) = 22.49891 28.23807 25.36849
#
# Velocity S-wave (km/s) = 3.28019 3.67482 3.48310
# Velocity P-wave (km/s) = 4.75089 5.62207 5.20474
#
# Compressibility (1/GPa) = 0.05814574
#
# Stress axis : x y z
#
# Youngs Moduli (GPa) = 53.65977 50.73893 47.78821
#
# Poissons Ratio (x) = 0.01422 -0.01566
# Poissons Ratio (y) = 0.01504 0.02914
# Poissons Ratio (z) = -0.01758 0.03094
#
# Static dielectric constant tensor:
#      x y z
#    x 1.740340 -0.042310 -0.021190 
#    y -0.042310 1.791180 -0.010570 
#    z -0.021190 -0.010570 1.788320 
# 
# From -- ./inp_files/464295.got.cif
#   From: 2010.05.17/outbox.cif.g08.bks.cpg/sg2_233_cif.got.tgz:464295.got - 2010.06.03 11:33:40.
