data_PCOD9056326
_publ_section_title
;
Structure prediction by ZEFSAII (Michael W. Deem and Ramdas Pophale) SiO2 
 PCOD9056326
Probable space group: P -1
;
_chemical_formula_sum "Si O2"
_cell_formula_units_Z 16
_cell_length_a 6.675208
_cell_length_b 23.602752
_cell_length_c 11.596007
_cell_angle_alpha 151.351261
_cell_angle_beta 57.440152
_cell_angle_gamma 123.495338
_cell_volume 723.802451
_symmetry_space_group_name_H-M "P -1"
_symmetry_group_IT_number 2
_symmetry_cell_setting 'triclinic'
loop_
_space_group_symop_operation_xyz
x,y,z
-x,-y,-z
loop_
_atom_site_type_symbol
_atom_site_label
_atom_site_fract_x
_atom_site_fract_y
_atom_site_fract_z
Si Si1 0.982281 0.783227 0.604880
Si Si2 0.239841 0.429420 0.049497
Si Si3 0.333966 0.300719 0.235645
Si Si4 0.330752 0.031940 0.713606
Si Si5 0.252521 0.585933 0.111852
Si Si6 0.429340 0.967743 0.829735
Si Si7 0.167667 0.167279 0.491007
Si Si8 0.190737 0.533560 0.599388
O O1 0.174404 0.714115 0.360671
O O2 0.151283 0.901589 0.811777
O O3 0.844953 0.707721 0.615700
O O4 0.793669 0.812724 0.622827
O O5 0.486147 0.427739 0.046034
O O6 0.184554 0.301399 0.773172
O O7 0.296432 0.546716 0.159214
O O8 0.979383 0.437728 0.194876
O O9 0.293624 0.412496 0.370969
O O10 0.607773 0.348772 0.278446
O O11 0.294262 0.169697 0.955721
O O12 0.500000 0.000000 0.500000
O O13 0.425070 0.033013 0.821337
O O14 0.085692 0.929087 0.596295
O O15 0.000000 0.500000 0.000000
O O16 0.627097 0.884507 0.599648
O O17 0.500000 0.000000 0.000000
O O18 0.000000 0.500000 0.500000
#
# Coordination Sequence:
#
# PCOD9056326 Si02
#       8
#     2   2   2   2   2   2   2   2
#     4  11  22  41  68 101 136 179 226 284 360 411
#     4  11  23  40  63 100 132 173 235 276 346 419
#     4  11  25  45  67  94 136 180 231 282 345 420
#     4  11  26  47  71 100 138 191 236 285 354 422
#     4  11  22  37  67  97 133 180 216 288 346 409
#     4  11  24  43  68 106 139 178 233 294 349 409
#     4  11  23  41  70 102 136 175 228 293 346 416
#     4  11  27  43  64  95 133 184 225 283 342 417
#
# _framework density 22.10548
#
# number of rings (size 3 to 8) (size 9 to 14) (size 15 to 20)
#    0.000    1.000    3.750    2.250    1.750    6.500 
#    0.000    0.000    0.000    0.000    0.000    0.000 
#    0.000    0.000    0.000    0.000    0.000    0.000 
#
# Total GULP energy -89110.622497 kJ/mol
# GULP energy per Si atom -5569.413906 kJ/mol
# Density = 2.205517 g / cm^3
# Si number density = 22.105480 Si / 1000 Ang^3
#
#
#
# Elastic Constant Matrix: (Units=GPa)
#
#
# Indices 1 2 3 4 5 6 
#
# 1 100.4790 8.3337 28.6018 14.4023 0.9393 5.3601
# 2 8.3337 75.3746 21.0078 7.4419 6.1020 5.5170
# 3 28.6018 21.0078 90.4817 16.7395 0.6265 2.6847
# 4 14.4023 7.4419 16.7395 30.5884 1.5927 1.2224
# 5 0.9393 6.1020 0.6265 1.5927 34.4990 5.1423
# 6 5.3601 5.5170 2.6847 1.2224 5.1423 25.9994
#
#
#
# Elastic Compliance Matrix: (Units=1/GPa)
#
#
# Indices 1 2 3 4 5 6 
#
# 1 0.011402 0.000032 -0.002864 -0.003743 0.000196 -0.001924
# 2 0.000032 0.014609 -0.003000 -0.001726 -0.002108 -0.002299
# 3 -0.002864 -0.003000 0.013654 -0.005424 0.000619 -0.000050
# 4 -0.003743 -0.001726 -0.005424 0.037902 -0.001269 0.000167
# 5 0.000196 -0.002108 0.000619 -0.001269 0.030232 -0.005577
# 6 -0.001924 -0.002299 -0.000050 0.000167 -0.005577 0.040447
#
#
# Mechanical properties :
#
#
# Convention : Reuss Voigt Hill
#
# Bulk Modulus (GPa) = 35.71098 42.46911 39.09005
# Shear Modulus (GPa) = 29.54309 32.11016 30.82662
#
# Velocity S-wave (km/s) = 3.65973 3.81542 3.73838
# Velocity P-wave (km/s) = 5.83507 6.21801 6.02958
#
# Compressibility (1/GPa) = 0.02800259
#
# Stress axis : x y z
#
# Youngs Moduli (GPa) = 87.70328 68.45119 73.23643
#
# Poissons Ratio (x) = -0.00219 0.20972
# Poissons Ratio (y) = -0.00281 0.21970
# Poissons Ratio (z) = 0.25114 0.20534
#
# Static dielectric constant tensor:
#      x y z
#    x 1.889720 0.018770 -0.022180 
#    y 0.018770 1.757240 0.015010 
#    z -0.022180 0.015010 1.881150 
# 
# From -- ./inp_files/371089.got.cif
#   From: 2010.05.17/outbox.cif.g08.bks.cpg/sg2_186_cif.got.tgz:371089.got - 2010.06.03 11:33:40.
