data_PCOD9056548
_publ_section_title
;
Structure prediction by ZEFSAII (Michael W. Deem and Ramdas Pophale) SiO2 
 PCOD9056548
Probable space group: P -1
;
_chemical_formula_sum "Si O2"
_cell_formula_units_Z 16
_cell_length_a 9.035918
_cell_length_b 20.166311
_cell_length_c 8.319242
_cell_angle_alpha 54.745255
_cell_angle_beta 90.582928
_cell_angle_gamma 45.449965
_cell_volume 618.265358
_symmetry_space_group_name_H-M "P -1"
_symmetry_group_IT_number 2
_symmetry_cell_setting 'triclinic'
loop_
_space_group_symop_operation_xyz
x,y,z
-x,-y,-z
loop_
_atom_site_type_symbol
_atom_site_label
_atom_site_fract_x
_atom_site_fract_y
_atom_site_fract_z
Si Si1 0.878213 0.893988 0.530668
Si Si2 0.405509 0.444209 0.997504
Si Si3 0.783950 0.111120 0.191198
Si Si4 0.047734 0.069501 0.966732
Si Si5 0.553248 0.426517 0.367746
Si Si6 0.987234 0.366701 0.738124
Si Si7 0.117182 0.462390 0.780326
Si Si8 0.596455 0.990841 0.738776
O O1 0.707731 0.973597 0.590692
O O2 0.233703 0.734490 0.770410
O O3 0.776303 0.022295 0.250922
O O4 0.741593 0.879236 0.465405
O O5 0.377656 0.492235 0.107961
O O6 0.324810 0.542553 0.712951
O O7 0.185282 0.472780 0.935938
O O8 0.908374 0.120902 0.067849
O O9 0.455935 0.292644 0.967210
O O10 0.000000 0.000000 0.500000
O O11 0.825702 0.235470 0.644677
O O12 0.344915 0.975618 0.158168
O O13 0.000000 0.000000 0.000000
O O14 0.334223 0.518344 0.385282
O O15 0.035601 0.402676 0.534867
O O16 0.004958 0.425107 0.802087
O O17 0.207395 0.185129 0.993769
#
# Coordination Sequence:
#
# PCOD9056548 Si02
#       8
#     2   2   2   2   2   2   2   2
#     4  11  22  39  67  99 127 172 219 269 328 383
#     4  11  23  43  66  95 135 176 220 270 327 400
#     4  12  21  39  66  95 127 170 220 268 323 389
#     4  12  26  44  65  97 133 176 218 271 333 394
#     4  11  25  43  64  96 133 176 222 265 335 393
#     4  11  23  42  67 100 131 171 222 275 330 385
#     4  11  23  39  68  96 130 170 220 277 324 390
#     4  11  23  41  68  99 131 167 223 274 322 393
#
# _framework density 25.878852999999999
#
# number of rings (size 3 to 8) (size 9 to 14) (size 15 to 20)
#    0.000    0.750    6.250    1.500    0.000    1.500 
#    0.000    5.000    0.000    0.000    0.000    0.000 
#    0.000    0.000    0.000    0.000    0.000    0.000 
#
# Total GULP energy -89311.985271 kJ/mol
# GULP energy per Si atom -5581.999079 kJ/mol
# Density = 2.581995 g / cm^3
# Si number density = 25.878853 Si / 1000 Ang^3
#
#
#
# Elastic Constant Matrix: (Units=GPa)
#
#
# Indices 1 2 3 4 5 6 
#
# 1 158.1960 19.9931 26.1634 12.6468 23.5328 30.1029
# 2 19.9931 36.5011 12.6018 3.8461 2.2213 10.2793
# 3 26.1634 12.6018 89.3538 -9.2455 -4.8732 8.5882
# 4 12.6468 3.8461 -9.2455 29.2554 17.5140 5.7331
# 5 23.5328 2.2213 -4.8732 17.5140 38.6193 14.4254
# 6 30.1029 10.2793 8.5882 5.7331 14.4254 49.0596
#
#
#
# Elastic Compliance Matrix: (Units=1/GPa)
#
#
# Indices 1 2 3 4 5 6 
#
# 1 0.008156 -0.002593 -0.002050 -0.001199 -0.003433 -0.002953
# 2 -0.002593 0.031782 -0.003620 -0.005372 0.003542 -0.004848
# 3 -0.002050 -0.003620 0.013001 0.004917 0.001325 -0.001224
# 4 -0.001199 -0.005372 0.004917 0.049427 -0.021312 0.001491
# 5 -0.003433 0.003542 0.001325 -0.021312 0.040735 -0.008355
# 6 -0.002953 -0.004848 -0.001224 0.001491 -0.008355 0.025708
#
#
# Mechanical properties :
#
#
# Convention : Reuss Voigt Hill
#
# Bulk Modulus (GPa) = 27.46186 44.61862 36.04024
# Shear Modulus (GPa) = 25.31994 38.40636 31.86315
#
# Velocity S-wave (km/s) = 3.13134 3.85656 3.51271
# Velocity P-wave (km/s) = 4.86913 6.09176 5.51443
#
# Compressibility (1/GPa) = 0.03641414
#
# Stress axis : x y z
#
# Youngs Moduli (GPa) = 122.60167 31.46416 76.91761
#
# Poissons Ratio (x) = 0.08159 0.15768
# Poissons Ratio (y) = 0.31790 0.27842
# Poissons Ratio (z) = 0.25134 0.11389
#
# Static dielectric constant tensor:
#      x y z
#    x 2.220500 0.247920 0.067730 
#    y 0.247920 2.198100 0.078440 
#    z 0.067730 0.078440 2.030150 
# 
# From -- ./inp_files/223220.got.cif
#   From: 2010.05.17/outbox.cif.g08.bks.cpg/sg2_112_cif.got.tgz:223220.got - 2010.06.03 11:33:40.
