data_PCOD9056545
_publ_section_title
;
Structure prediction by ZEFSAII (Michael W. Deem and Ramdas Pophale) SiO2 
 PCOD9056545
Probable space group: P -1
;
_chemical_formula_sum "Si O2"
_cell_formula_units_Z 16
_cell_length_a 9.480026
_cell_length_b 15.595541
_cell_length_c 8.371802
_cell_angle_alpha 42.578068
_cell_angle_beta 114.918813
_cell_angle_gamma 101.273953
_cell_volume 746.086207
_symmetry_space_group_name_H-M "P -1"
_symmetry_group_IT_number 2
_symmetry_cell_setting 'triclinic'
loop_
_space_group_symop_operation_xyz
x,y,z
-x,-y,-z
loop_
_atom_site_type_symbol
_atom_site_label
_atom_site_fract_x
_atom_site_fract_y
_atom_site_fract_z
Si Si1 0.988259 0.270925 0.051688
Si Si2 0.811009 0.027489 0.859111
Si Si3 0.529597 0.326076 0.892863
Si Si4 0.612391 0.459505 0.262278
Si Si5 0.226764 0.234236 0.955953
Si Si6 0.030093 0.560080 0.644574
Si Si7 0.317316 0.788250 0.194165
Si Si8 0.147171 0.757576 0.663150
O O1 0.978175 0.426189 0.854053
O O2 0.847750 0.246134 0.901839
O O3 0.151093 0.218725 0.112201
O O4 0.969956 0.196733 0.308572
O O5 0.728264 0.077097 0.919181
O O6 0.793796 0.137192 0.563332
O O7 0.765544 0.895587 0.961905
O O8 0.000000 0.000000 0.000000
O O9 0.448904 0.474227 0.688398
O O10 0.402337 0.260612 0.014505
O O11 0.564174 0.251136 0.844089
O O12 0.697202 0.314833 0.073436
O O13 0.619691 0.309811 0.500067
O O14 0.792653 0.477879 0.293559
O O15 0.500000 0.500000 0.000000
O O16 0.102986 0.351965 0.650135
O O17 0.063593 0.658215 0.662471
#
# Coordination Sequence:
#
# PCOD9056545 Si02
#       8
#     2   2   2   2   2   2   2   2
#     4  11  22  39  67  97 128 159 214 274 312 374
#     4  12  22  45  70  88 129 176 217 260 320 378
#     4  11  25  41  64  98 128 166 215 265 328 374
#     4  12  20  38  66  92 131 175 205 258 335 382
#     4  12  24  42  69  95 125 176 216 263 320 376
#     4  12  21  41  67  98 132 164 214 266 316 391
#     4  11  23  43  63  93 130 172 214 264 316 389
#     4  11  24  43  64  96 132 168 210 263 324 387
#
# _framework density 21.445242
#
# number of rings (size 3 to 8) (size 9 to 14) (size 15 to 20)
#    0.000    0.500    7.500    1.875    0.000    2.500 
#    2.250    0.000    0.000    0.000    0.000    0.000 
#    0.000    0.000    0.000    0.000    0.000    0.000 
#
# Total GULP energy -89226.015638 kJ/mol
# GULP energy per Si atom -5576.625977 kJ/mol
# Density = 2.139643 g / cm^3
# Si number density = 21.445242 Si / 1000 Ang^3
#
#
#
# Elastic Constant Matrix: (Units=GPa)
#
#
# Indices 1 2 3 4 5 6 
#
# 1 102.6991 28.1198 -2.2265 5.5820 1.0344 -28.7116
# 2 28.1198 105.0194 22.4600 -3.6914 6.8367 -9.7617
# 3 -2.2265 22.4600 25.6902 4.4681 -3.2289 -16.3644
# 4 5.5820 -3.6914 4.4681 31.1547 -3.5420 -0.5524
# 5 1.0344 6.8367 -3.2289 -3.5420 10.3832 -1.8359
# 6 -28.7116 -9.7617 -16.3644 -0.5524 -1.8359 43.9984
#
#
#
# Elastic Compliance Matrix: (Units=1/GPa)
#
#
# Indices 1 2 3 4 5 6 
#
# 1 0.018938 -0.009934 0.026235 -0.006350 0.014259 0.020427
# 2 -0.009934 0.018905 -0.030211 0.005658 -0.021460 -0.014349
# 3 0.026235 -0.030211 0.112167 -0.017045 0.055938 0.054256
# 4 -0.006350 0.005658 -0.017045 0.036483 0.002520 -0.008664
# 5 0.014259 -0.021460 0.055938 0.002520 0.132741 0.030919
# 6 0.020427 -0.014349 0.054256 -0.008664 0.030919 0.054235
#
#
# Mechanical properties :
#
#
# Convention : Reuss Voigt Hill
#
# Bulk Modulus (GPa) = 8.18397 36.67947 22.43172
# Shear Modulus (GPa) = 11.31170 29.44429 20.37800
#
# Velocity S-wave (km/s) = 2.29916 3.70942 3.08593
# Velocity P-wave (km/s) = 3.29738 5.95712 4.81456
#
# Compressibility (1/GPa) = 0.12219016
#
# Stress axis : x y z
#
# Youngs Moduli (GPa) = 52.80265 52.89536 8.91531
#
# Poissons Ratio (x) = 0.52548 -0.23389
# Poissons Ratio (y) = 0.52456 0.26934
# Poissons Ratio (z) = -1.38528 1.59801
#
# Static dielectric constant tensor:
#      x y z
#    x 1.763090 -0.075010 0.007720 
#    y -0.075010 1.808490 0.011550 
#    z 0.007720 0.011550 1.763480 
# 
# From -- ./inp_files/199749.got.cif
#   From: 2010.05.17/outbox.cif.g08.bks.cpg/sg2_100_cif.got.tgz:199749.got - 2010.06.03 11:33:40.
