data_PCOD9056666
_publ_section_title
;
Structure prediction by ZEFSAII (Michael W. Deem and Ramdas Pophale) SiO2 
 PCOD9056666
Probable space group: P -1
;
_chemical_formula_sum "Si O2"
_cell_formula_units_Z 16
_cell_length_a 18.093764
_cell_length_b 11.463869
_cell_length_c 6.632642
_cell_angle_alpha 94.026454
_cell_angle_beta 65.168431
_cell_angle_gamma 145.488522
_cell_volume 597.011555
_symmetry_space_group_name_H-M "P -1"
_symmetry_group_IT_number 2
_symmetry_cell_setting 'triclinic'
loop_
_space_group_symop_operation_xyz
x,y,z
-x,-y,-z
loop_
_atom_site_type_symbol
_atom_site_label
_atom_site_fract_x
_atom_site_fract_y
_atom_site_fract_z
Si Si1 0.130504 0.143761 0.486687
Si Si2 0.482060 0.952337 0.752572
Si Si3 0.448465 0.697644 0.199906
Si Si4 0.928706 0.000782 0.978023
Si Si5 0.628080 0.747881 0.771001
Si Si6 0.897231 0.546318 0.979840
Si Si7 0.631295 0.804330 0.324447
Si Si8 0.189937 0.762746 0.646182
O O1 0.269694 0.418200 0.303045
O O2 0.194215 0.091929 0.420462
O O3 0.109376 0.128587 0.782944
O O4 0.943377 0.971060 0.704757
O O5 0.282141 0.667475 0.960605
O O6 0.500000 0.000000 0.500000
O O7 0.534842 0.143564 0.807745
O O8 0.633259 0.052404 0.637550
O O9 0.471096 0.658477 0.380544
O O10 0.609601 0.842880 0.922782
O O11 0.748241 0.844288 0.126715
O O12 0.038352 0.249766 0.978158
O O13 0.574441 0.700106 0.600105
O O14 0.500000 0.500000 0.000000
O O15 0.869137 0.427391 0.193031
O O16 0.037671 0.646294 0.706387
O O17 0.752123 0.069747 0.233054
#
# Coordination Sequence:
#
# PCOD9056666 Si02
#       8
#     2   2   2   2   2   2   2   2
#     4  11  23  43  61  92 135 179 229 280 335 407
#     4  10  17  36  63 101 128 169 231 275 342 409
#     4  11  23  42  70  98 131 186 223 282 353 401
#     4  11  22  39  66 102 131 178 226 271 344 410
#     4  10  24  43  62  94 139 177 226 283 335 407
#     4   9  18  33  60  98 132 165 222 281 335 402
#     4  11  21  42  69  99 133 174 234 280 336 417
#     4   9  18  33  62  97 132 170 214 288 333 394
#
# _framework density 26.800151
#
# number of rings (size 3 to 8) (size 9 to 14) (size 15 to 20)
#    0.000    1.750    3.750    2.250    0.000    2.000 
#    6.750    0.625    0.000    4.500    0.000    0.000 
#    0.000    0.000    0.000    0.000    0.000    0.000 
#
# Total GULP energy -89226.030286 kJ/mol
# GULP energy per Si atom -5576.626893 kJ/mol
# Density = 2.673915 g / cm^3
# Si number density = 26.800151 Si / 1000 Ang^3
#
#
#
# Elastic Constant Matrix: (Units=GPa)
#
#
# Indices 1 2 3 4 5 6 
#
# 1 152.6760 67.8242 39.4780 -9.4798 -19.8520 -17.3204
# 2 67.8242 163.7497 51.3903 -18.1470 -26.8203 -16.1184
# 3 39.4780 51.3903 100.1736 13.2452 -30.5629 -0.5698
# 4 -9.4798 -18.1470 13.2452 47.6655 0.1577 -11.9797
# 5 -19.8520 -26.8203 -30.5629 0.1577 62.4211 3.8115
# 6 -17.3204 -16.1184 -0.5698 -11.9797 3.8115 52.4242
#
#
#
# Elastic Compliance Matrix: (Units=1/GPa)
#
#
# Indices 1 2 3 4 5 6 
#
# 1 0.008663 -0.002269 -0.002387 0.002175 0.000447 0.002603
# 2 -0.002269 0.009452 -0.004305 0.005147 0.001023 0.003212
# 3 -0.002387 -0.004305 0.015740 -0.007523 0.005364 -0.004050
# 4 0.002175 0.005147 -0.007523 0.027637 -0.001377 0.008635
# 5 0.000447 0.001023 0.005364 -0.001377 0.019305 -0.001198
# 6 0.002603 0.003212 -0.004050 0.008635 -0.001198 0.022939
#
#
# Mechanical properties :
#
#
# Convention : Reuss Voigt Hill
#
# Bulk Modulus (GPa) = 62.75739 81.55383 72.15561
# Shear Modulus (GPa) = 39.37984 49.69593 44.53789
#
# Velocity S-wave (km/s) = 3.83742 4.31085 4.08100
# Velocity P-wave (km/s) = 6.56521 7.43467 7.01343
#
# Compressibility (1/GPa) = 0.01593438
#
# Stress axis : x y z
#
# Youngs Moduli (GPa) = 115.42873 105.80131 63.53195
#
# Poissons Ratio (x) = 0.24003 0.15163
# Poissons Ratio (y) = 0.26187 0.27351
# Poissons Ratio (z) = 0.27548 0.45548
#
# Static dielectric constant tensor:
#      x y z
#    x 2.190130 0.239620 0.081010 
#    y 0.239620 2.296170 0.149140 
#    z 0.081010 0.149140 2.356950 
# 
# From -- ./inp_files/267121.got.cif
#   From: 2010.05.17/outbox.cif.g08.bks.cpg/sg2_134_cif.got.tgz:267121.got - 2010.06.03 11:33:40.
