data_PCOD9056701
_publ_section_title
;
Structure prediction by ZEFSAII (Michael W. Deem and Ramdas Pophale) SiO2 
 PCOD9056701
Probable space group: P -1
;
_chemical_formula_sum "Si O2"
_cell_formula_units_Z 14
_cell_length_a 23.602636
_cell_length_b 13.172028
_cell_length_c 5.263655
_cell_angle_alpha 107.425958
_cell_angle_beta 71.221074
_cell_angle_gamma 153.991330
_cell_volume 679.189066
_symmetry_space_group_name_H-M "P -1"
_symmetry_group_IT_number 2
_symmetry_cell_setting 'triclinic'
loop_
_space_group_symop_operation_xyz
x,y,z
-x,-y,-z
loop_
_atom_site_type_symbol
_atom_site_label
_atom_site_fract_x
_atom_site_fract_y
_atom_site_fract_z
Si Si1 0.283446 0.703822 0.586163
Si Si2 0.379070 0.304385 0.841880
Si Si3 0.896798 0.166532 0.910142
Si Si4 0.472204 0.280133 0.316910
Si Si5 0.787242 0.203554 0.921328
Si Si6 0.934806 0.580671 0.650606
Si Si7 0.457960 0.842989 0.739497
O O1 0.228220 0.710241 0.845307
O O2 0.184356 0.534744 0.367853
O O3 0.354522 0.069350 0.133518
O O4 0.324479 0.667020 0.664622
O O5 0.392509 0.213846 0.606551
O O6 0.414470 0.457417 0.718732
O O7 0.500000 0.500000 0.000000
O O8 0.244679 0.106324 0.035611
O O9 0.963166 0.254490 0.606105
O O10 0.866766 0.245242 0.002981
O O11 0.986335 0.271607 0.094455
O O12 0.539285 0.272393 0.253629
O O13 0.861597 0.354207 0.665921
O O14 0.578155 0.035127 0.515050
O O15 0.500000 0.000000 0.000000
#
# Coordination Sequence:
#
# PCOD9056701 Si02
#       7
#     2   2   2   2   2   2   2
#     4  11  23  37  63  99 136 171 215 268 350 394
#     4  11  25  43  64  95 131 186 222 277 318 395
#     4  12  26  39  64  93 139 181 222 261 337 405
#     4  11  23  41  69  94 140 168 229 276 332 393
#     4  12  22  41  63 102 137 174 213 277 343 401
#     4  12  25  40  62  99 140 174 216 275 338 411
#     4  11  22  40  66  99 133 176 217 281 342 389
#
# _framework density 20.612815999999999
#
# number of rings (size 3 to 8) (size 9 to 14) (size 15 to 20)
#    0.000    0.571    5.714    2.571    4.000    0.000 
#    0.000    0.000    0.000    1.714    0.000    0.000 
#    0.000    0.000    0.000    0.000    0.000    0.000 
#
# Total GULP energy -78106.594473 kJ/mol
# GULP energy per Si atom -5579.042462 kJ/mol
# Density = 2.056590 g / cm^3
# Si number density = 20.612816 Si / 1000 Ang^3
#
#
#
# Elastic Constant Matrix: (Units=GPa)
#
#
# Indices 1 2 3 4 5 6 
#
# 1 74.0261 -1.5736 8.0358 17.5417 23.7011 -6.7182
# 2 -1.5736 90.7718 18.8696 -15.7586 6.6771 8.3492
# 3 8.0358 18.8696 80.9084 -13.9228 14.8956 -7.5129
# 4 17.5417 -15.7586 -13.9228 38.2243 5.2471 0.7898
# 5 23.7011 6.6771 14.8956 5.2471 30.0135 10.6586
# 6 -6.7182 8.3492 -7.5129 0.7898 10.6586 31.8984
#
#
#
# Elastic Compliance Matrix: (Units=1/GPa)
#
#
# Indices 1 2 3 4 5 6 
#
# 1 0.023663 -0.000892 0.002041 -0.007608 -0.022989 0.013568
# 2 -0.000892 0.012750 -0.002338 0.004952 -0.000393 -0.004067
# 3 0.002041 -0.002338 0.017268 0.006135 -0.014177 0.009694
# 4 -0.007608 0.004952 0.006135 0.034472 -0.003796 -0.001039
# 5 -0.022989 -0.000393 -0.014177 -0.003796 0.070454 -0.031526
# 6 0.013568 -0.004067 0.009694 -0.001039 -0.031526 0.048114
#
#
# Mechanical properties :
#
#
# Convention : Reuss Voigt Hill
#
# Bulk Modulus (GPa) = 19.49221 32.93000 26.21111
# Shear Modulus (GPa) = 22.10430 34.71888 28.41159
#
# Velocity S-wave (km/s) = 3.27824 4.10852 3.71664
# Velocity P-wave (km/s) = 4.87914 6.20618 5.58224
#
# Compressibility (1/GPa) = 0.05130254
#
# Stress axis : x y z
#
# Youngs Moduli (GPa) = 42.26049 78.43196 57.91025
#
# Poissons Ratio (x) = 0.06994 -0.11818
# Poissons Ratio (y) = 0.03769 0.13540
# Poissons Ratio (z) = -0.08624 0.18338
#
# Static dielectric constant tensor:
#      x y z
#    x 1.827960 -0.027610 0.030870 
#    y -0.027610 1.809810 -0.019010 
#    z 0.030870 -0.019010 1.860020 
# 
# From -- ./inp_files/123318.got.cif
#   From: 2010.05.17/outbox.cif.g08.bks.cpg/sg2_62_cif.got.tgz:123318.got - 2010.06.03 11:33:40.
