data_PCOD9056311
_publ_section_title
;
Structure prediction by ZEFSAII (Michael W. Deem and Ramdas Pophale) SiO2 
 PCOD9056311
Probable space group: P -1
;
_chemical_formula_sum "Si O2"
_cell_formula_units_Z 16
_cell_length_a 24.189292
_cell_length_b 25.070727
_cell_length_c 8.592586
_cell_angle_alpha 42.393884
_cell_angle_beta 42.339211
_cell_angle_gamma 11.678590
_cell_volume 706.309170
_symmetry_space_group_name_H-M "P -1"
_symmetry_group_IT_number 2
_symmetry_cell_setting 'triclinic'
loop_
_space_group_symop_operation_xyz
x,y,z
-x,-y,-z
loop_
_atom_site_type_symbol
_atom_site_label
_atom_site_fract_x
_atom_site_fract_y
_atom_site_fract_z
Si Si1 0.469398 0.581938 0.125132
Si Si2 0.335200 0.947174 0.898715
Si Si3 0.528946 0.373093 0.320565
Si Si4 0.073186 0.121945 0.491094
Si Si5 0.059481 0.607144 0.026038
Si Si6 0.954294 0.953020 0.772945
Si Si7 0.996531 0.592765 0.863817
Si Si8 0.448835 0.872393 0.461339
O O1 0.473477 0.482845 0.342659
O O2 0.763171 0.334582 0.114923
O O3 0.251756 0.831945 0.128387
O O4 0.391228 0.663257 0.932416
O O5 0.620082 0.683101 0.971692
O O6 0.429999 0.877265 0.674510
O O7 0.136158 0.201481 0.827974
O O8 0.179413 0.005093 0.108262
O O9 0.232062 0.610840 0.390330
O O10 0.782587 0.083482 0.451548
O O11 0.039105 0.225327 0.223524
O O12 0.280545 0.955948 0.552299
O O13 0.022420 0.575182 0.036656
O O14 0.000000 0.000000 0.500000
O O15 0.254609 0.396427 0.660318
O O16 0.722084 0.891725 0.739129
O O17 0.000000 0.500000 0.000000
#
# Coordination Sequence:
#
# PCOD9056311 Si02
#       8
#     2   2   2   2   2   2   2   2
#     4  11  24  41  56  88 118 161 226 275 351 386
#     4  12  25  44  68  97 143 175 235 282 323 408
#     4  11  22  37  65  85 118 160 219 300 323 382
#     4  11  22  39  66  92 125 168 230 268 329 391
#     4  11  25  42  68 103 130 178 222 272 335 392
#     4  12  27  42  60  86 133 183 223 272 343 382
#     4  11  24  48  75 106 140 171 216 269 331 417
#     4  11  23  43  70 104 133 186 220 263 342 401
#
# _framework density 22.652968000000001
#
# number of rings (size 3 to 8) (size 9 to 14) (size 15 to 20)
#    0.000    0.750    0.000    9.000    5.250    2.000 
#    0.000    3.750    0.000    0.000    0.000    0.000 
#    0.000    0.000    0.000    0.000    0.000    0.000 
#
# Total GULP energy -89312.840527 kJ/mol
# GULP energy per Si atom -5582.052533 kJ/mol
# Density = 2.260141 g / cm^3
# Si number density = 22.652968 Si / 1000 Ang^3
#
#
#
# Elastic Constant Matrix: (Units=GPa)
#
#
# Indices 1 2 3 4 5 6 
#
# 1 309.8855 129.7468 15.8626 -55.2686 -96.4844 -15.5556
# 2 129.7468 196.8513 -7.8992 -39.5069 -51.8618 -4.6576
# 3 15.8626 -7.8992 25.8831 2.6997 9.5722 -1.9783
# 4 -55.2686 -39.5069 2.6997 50.5804 31.5246 13.5867
# 5 -96.4844 -51.8618 9.5722 31.5246 86.1923 9.3111
# 6 -15.5556 -4.6576 -1.9783 13.5867 9.3111 46.8738
#
#
#
# Elastic Compliance Matrix: (Units=1/GPa)
#
#
# Indices 1 2 3 4 5 6 
#
# 1 0.007265 -0.002999 -0.007985 0.002000 0.006494 -0.000094
# 2 -0.002999 0.007743 0.003865 0.002845 -0.000074 -0.000873
# 3 -0.007985 0.003865 0.049441 -0.001731 -0.011758 0.002658
# 4 0.002000 0.002845 -0.001731 0.029803 -0.006048 -0.006564
# 5 0.006494 -0.000074 -0.011758 -0.006048 0.022459 -0.001057
# 6 -0.000094 -0.000873 0.002658 -0.006564 -0.001057 0.023441
#
#
# Mechanical properties :
#
#
# Convention : Reuss Voigt Hill
#
# Bulk Modulus (GPa) = 19.91649 89.78225 54.84937
# Shear Modulus (GPa) = 29.21814 63.05662 46.13738
#
# Velocity S-wave (km/s) = 3.59530 5.28170 4.51788
# Velocity P-wave (km/s) = 5.10352 8.77012 7.17499
#
# Compressibility (1/GPa) = 0.05020964
#
# Stress axis : x y z
#
# Youngs Moduli (GPa) = 137.64014 129.15613 20.22631
#
# Poissons Ratio (x) = 0.38734 0.16151
# Poissons Ratio (y) = 0.41279 -0.07817
# Poissons Ratio (z) = 1.09908 -0.49916
#
# Static dielectric constant tensor:
#      x y z
#    x 1.865970 -0.010950 0.002060 
#    y -0.010950 1.703490 0.003850 
#    z 0.002060 0.003850 1.945860 
# 
# From -- ./inp_files/357951.got.cif
#   From: 2010.05.17/outbox.cif.g08.bks.cpg/sg2_179_cif.got.tgz:357951.got - 2010.06.03 11:33:40.
