data_PCOD9056751
_publ_section_title
;
Structure prediction by ZEFSAII (Michael W. Deem and Ramdas Pophale) SiO2 
 PCOD9056751
Probable space group: P -1
;
_chemical_formula_sum "Si O2"
_cell_formula_units_Z 16
_cell_length_a 9.144754
_cell_length_b 15.042481
_cell_length_c 13.376389
_cell_angle_alpha 129.061145
_cell_angle_beta 96.724919
_cell_angle_gamma 43.168387
_cell_volume 747.190548
_symmetry_space_group_name_H-M "P -1"
_symmetry_group_IT_number 2
_symmetry_cell_setting 'triclinic'
loop_
_space_group_symop_operation_xyz
x,y,z
-x,-y,-z
loop_
_atom_site_type_symbol
_atom_site_label
_atom_site_fract_x
_atom_site_fract_y
_atom_site_fract_z
Si Si1 0.944352 0.669549 0.120279
Si Si2 0.880558 0.267048 0.153678
Si Si3 0.550675 0.871348 0.534090
Si Si4 0.612207 0.227750 0.205762
Si Si5 0.616773 0.510969 0.098033
Si Si6 0.160642 0.989227 0.439907
Si Si7 0.892023 0.387256 0.689001
Si Si8 0.777506 0.552055 0.480404
O O1 0.099947 0.614958 0.192439
O O2 0.618193 0.912258 0.278566
O O3 0.000000 0.500000 0.000000
O O4 0.080234 0.644061 0.020422
O O5 0.768328 0.243015 0.202936
O O6 0.666631 0.434205 0.161709
O O7 0.911257 0.360996 0.290200
O O8 0.164041 0.023529 0.958183
O O9 0.351735 0.950653 0.490463
O O10 0.846293 0.713239 0.402580
O O11 0.583028 0.750399 0.530196
O O12 0.420761 0.358718 0.382225
O O13 0.386077 0.369703 0.199655
O O14 0.395792 0.760097 0.242360
O O15 0.500000 0.500000 0.000000
O O16 0.940589 0.223550 0.539805
O O17 0.000000 0.000000 0.500000
O O18 0.000000 0.500000 0.500000
#
# Coordination Sequence:
#
# PCOD9056751 Si02
#       8
#     2   2   2   2   2   2   2   2
#     4  11  23  37  65  98 131 177 220 284 347 406
#     4  11  26  48  72  99 148 183 234 310 341 419
#     4  11  22  43  64  94 140 175 227 288 342 410
#     4  11  25  48  70 101 139 191 239 286 360 421
#     4  12  23  43  67 102 132 173 229 285 356 411
#     4  11  22  40  68  95 130 180 220 284 346 405
#     4  11  23  43  64  97 139 178 226 279 348 419
#     4  12  25  45  72 104 135 190 241 281 358 421
#
# _framework density 21.413547999999999
#
# number of rings (size 3 to 8) (size 9 to 14) (size 15 to 20)
#    0.000    0.750    2.500    7.125    0.000    1.500 
#    6.750    0.000    0.000    0.000    0.000    0.000 
#    0.000    0.000    0.000    0.000    0.000    0.000 
#
# Total GULP energy -89313.600710 kJ/mol
# GULP energy per Si atom -5582.100044 kJ/mol
# Density = 2.136481 g / cm^3
# Si number density = 21.413548 Si / 1000 Ang^3
#
#
#
# Elastic Constant Matrix: (Units=GPa)
#
#
# Indices 1 2 3 4 5 6 
#
# 1 90.1682 6.2474 40.5384 -0.8164 10.2972 1.6745
# 2 6.2474 65.7465 24.6708 6.3023 11.7831 14.7392
# 3 40.5384 24.6708 114.6550 7.8907 26.8401 -4.2846
# 4 -0.8164 6.3023 7.8907 33.0782 5.6613 -7.9366
# 5 10.2972 11.7831 26.8401 5.6613 49.0792 -1.6282
# 6 1.6745 14.7392 -4.2846 -7.9366 -1.6282 30.5693
#
#
#
# Elastic Compliance Matrix: (Units=1/GPa)
#
#
# Indices 1 2 3 4 5 6 
#
# 1 0.013340 0.000943 -0.004934 0.001019 -0.000499 -0.001639
# 2 0.000943 0.020341 -0.004190 -0.005280 -0.002577 -0.011954
# 3 -0.004934 -0.004190 0.012645 -0.000666 -0.004676 0.003641
# 4 0.001019 -0.005280 -0.000666 0.034491 -0.002188 0.011235
# 5 -0.000499 -0.002577 -0.004676 -0.002188 0.023952 0.001322
# 6 -0.001639 -0.011954 0.003641 0.011235 0.001322 0.042064
#
#
# Mechanical properties :
#
#
# Convention : Reuss Voigt Hill
#
# Bulk Modulus (GPa) = 33.37493 45.94255 39.65874
# Shear Modulus (GPa) = 28.87122 35.81954 32.34538
#
# Velocity S-wave (km/s) = 3.67586 4.09437 3.89074
# Velocity P-wave (km/s) = 5.79963 6.62218 6.22450
#
# Compressibility (1/GPa) = 0.02996261
#
# Stress axis : x y z
#
# Youngs Moduli (GPa) = 74.96269 49.16259 79.08550
#
# Poissons Ratio (x) = -0.04636 0.39022
# Poissons Ratio (y) = -0.07070 0.33139
# Poissons Ratio (z) = 0.36987 0.20600
#
# Static dielectric constant tensor:
#      x y z
#    x 1.892370 -0.065470 0.193000 
#    y -0.065470 1.948150 -0.084320 
#    z 0.193000 -0.084320 2.205110 
# 
# From -- ./inp_files/505484.got.cif
#   From: 2010.05.17/outbox.cif.g08.bks.cpg/sg2_253_cif.got.tgz:505484.got - 2010.06.03 11:33:40.
