data_PCOD9056349
_publ_section_title
;
Structure prediction by ZEFSAII (Michael W. Deem and Ramdas Pophale) SiO2 
 PCOD9056349
Probable space group: P -1
;
_chemical_formula_sum "Si O2"
_cell_formula_units_Z 14
_cell_length_a 14.930362
_cell_length_b 14.920422
_cell_length_c 10.903173
_cell_angle_alpha 111.462856
_cell_angle_beta 118.247414
_cell_angle_gamma 19.039455
_cell_volume 669.333481
_symmetry_space_group_name_H-M "P -1"
_symmetry_group_IT_number 2
_symmetry_cell_setting 'triclinic'
loop_
_space_group_symop_operation_xyz
x,y,z
-x,-y,-z
loop_
_atom_site_type_symbol
_atom_site_label
_atom_site_fract_x
_atom_site_fract_y
_atom_site_fract_z
Si Si1 0.695130 0.224846 0.672230
Si Si2 0.691561 0.403606 0.157775
Si Si3 0.694455 0.568176 0.634082
Si Si4 0.676912 0.932477 0.250747
Si Si5 0.681108 0.539260 0.005869
Si Si6 0.776488 0.659193 0.044791
Si Si7 0.976932 0.170532 0.810633
O O1 0.437162 0.480805 0.730787
O O2 0.556093 0.274108 0.511217
O O3 0.832998 0.198335 0.688401
O O4 0.965670 0.936373 0.779813
O O5 0.500000 0.500000 0.000000
O O6 0.665959 0.528053 0.133632
O O7 0.823662 0.394381 0.747942
O O8 0.001860 0.308849 0.628494
O O9 0.563837 0.790696 0.690469
O O10 0.733577 0.767970 0.188167
O O11 0.547546 0.063048 0.093871
O O12 0.868627 0.286679 0.936914
O O13 0.848535 0.489108 0.055292
O O14 0.339465 0.842881 0.882319
O O15 0.000000 0.500000 0.000000
#
# Coordination Sequence:
#
# PCOD9056349 Si02
#       7
#     2   2   2   2   2   2   2
#     4  12  25  41  64  89 131 178 209 247 310 385
#     4  12  23  44  63  91 126 174 218 258 297 362
#     4  12  23  40  61  94 132 169 202 253 324 382
#     4  11  22  38  61  92 128 157 202 260 321 377
#     4  12  24  37  68  92 132 155 211 269 315 364
#     4  11  22  40  65  99 124 161 208 266 336 360
#     4  12  21  39  60  98 127 165 201 259 320 376
#
# _framework density 20.916331
#
# number of rings (size 3 to 8) (size 9 to 14) (size 15 to 20)
#    0.000    0.286    7.143    2.571    2.000    0.000 
#    0.000    4.286    0.000    5.143    0.000    0.000 
#    0.000    0.000    0.000    0.000    0.000    0.000 
#
# Total GULP energy -78082.445297 kJ/mol
# GULP energy per Si atom -5577.317521 kJ/mol
# Density = 2.086872 g / cm^3
# Si number density = 20.916331 Si / 1000 Ang^3
#
#
#
# Elastic Constant Matrix: (Units=GPa)
#
#
# Indices 1 2 3 4 5 6 
#
# 1 88.4333 11.1217 4.9453 -1.9007 14.8864 4.1722
# 2 11.1217 93.0119 19.3034 -4.6249 15.1206 0.0975
# 3 4.9453 19.3034 38.8224 -7.0189 16.3752 2.8131
# 4 -1.9007 -4.6249 -7.0189 30.1761 -0.4100 4.4901
# 5 14.8864 15.1206 16.3752 -0.4100 24.4147 0.1122
# 6 4.1722 0.0975 2.8131 4.4901 0.1122 22.9327
#
#
#
# Elastic Compliance Matrix: (Units=1/GPa)
#
#
# Indices 1 2 3 4 5 6 
#
# 1 0.013021 -0.000560 0.003286 0.001824 -0.009752 -0.003079
# 2 -0.000560 0.012453 -0.004044 0.000809 -0.004647 0.000409
# 3 0.003286 -0.004044 0.040961 0.009852 -0.026772 -0.007403
# 4 0.001824 0.000809 0.009852 0.036865 -0.007562 -0.008725
# 5 -0.009752 -0.004647 -0.026772 -0.007562 0.067584 0.006228
# 6 -0.003079 0.000409 -0.007403 -0.008725 0.006228 0.046750
#
#
# Mechanical properties :
#
#
# Convention : Reuss Voigt Hill
#
# Bulk Modulus (GPa) = 15.67430 32.33426 24.00428
# Shear Modulus (GPa) = 20.70100 27.83117 24.26609
#
# Velocity S-wave (km/s) = 3.14937 3.65169 3.40979
# Velocity P-wave (km/s) = 4.55355 5.76821 5.19649
#
# Compressibility (1/GPa) = 0.06379869
#
# Stress axis : x y z
#
# Youngs Moduli (GPa) = 76.80135 80.30382 24.41369
#
# Poissons Ratio (x) = 0.04494 -0.08022
# Poissons Ratio (y) = 0.04298 0.09872
# Poissons Ratio (z) = -0.25235 0.32473
#
# Static dielectric constant tensor:
#      x y z
#    x 1.850780 0.012550 0.025010 
#    y 0.012550 1.770260 0.016720 
#    z 0.025010 0.016720 1.724320 
# 
# From -- ./inp_files/88836.got.cif
#   From: 2010.05.17/outbox.cif.g08.bks.cpg/sg2_45_cif.got.tgz:88836.got - 2010.06.03 11:33:40.
