data_PCOD9056341
_publ_section_title
;
Structure prediction by ZEFSAII (Michael W. Deem and Ramdas Pophale) SiO2 
 PCOD9056341
Probable space group: P -1
;
_chemical_formula_sum "Si O2"
_cell_formula_units_Z 16
_cell_length_a 12.107031
_cell_length_b 14.296471
_cell_length_c 12.649589
_cell_angle_alpha 85.908712
_cell_angle_beta 85.794484
_cell_angle_gamma 19.481701
_cell_volume 728.225278
_symmetry_space_group_name_H-M "P -1"
_symmetry_group_IT_number 2
_symmetry_cell_setting 'triclinic'
loop_
_space_group_symop_operation_xyz
x,y,z
-x,-y,-z
loop_
_atom_site_type_symbol
_atom_site_label
_atom_site_fract_x
_atom_site_fract_y
_atom_site_fract_z
Si Si1 0.253851 0.722978 0.404662
Si Si2 0.337321 0.388526 0.165009
Si Si3 0.512488 0.325312 0.366080
Si Si4 0.389433 0.692671 0.021492
Si Si5 0.411044 0.999544 0.751352
Si Si6 0.636933 0.027734 0.702297
Si Si7 0.610135 0.580725 0.246500
Si Si8 0.644133 0.738504 0.528360
O O1 0.500000 0.500000 0.500000
O O2 0.318131 0.576890 0.344772
O O3 0.385046 0.709972 0.339046
O O4 0.865014 0.046821 0.422756
O O5 0.582304 0.230792 0.252018
O O6 0.970646 0.698749 0.211172
O O7 0.397677 0.229019 0.171648
O O8 0.424410 0.378168 0.057188
O O9 0.309274 0.408388 0.436087
O O10 0.479862 0.647805 0.138392
O O11 0.500000 0.500000 0.000000
O O12 0.000000 0.000000 0.000000
O O13 0.535872 0.006045 0.752077
O O14 0.482935 0.912192 0.631076
O O15 0.419906 0.283904 0.746957
O O16 0.575614 0.076545 0.576210
O O17 0.013654 0.747814 0.729542
O O18 0.000000 0.500000 0.500000
#
# Coordination Sequence:
#
# PCOD9056341 Si02
#       8
#     2   2   2   2   2   2   2   2
#     4  12  23  39  58  88 128 169 205 254 323 397
#     4  11  23  43  67  96 128 166 223 282 328 385
#     4  11  22  38  60  89 122 163 210 265 319 379
#     4  12  25  47  74 100 128 172 227 285 338 397
#     4  11  24  42  67  99 134 176 222 268 326 394
#     4  12  24  43  64  97 139 176 216 272 327 397
#     4  12  26  43  66  98 132 175 222 273 337 398
#     4  11  23  41  68 101 136 181 225 267 323 397
#
# _framework density 21.971223999999999
#
# number of rings (size 3 to 8) (size 9 to 14) (size 15 to 20)
#    0.000    0.500    0.000   10.500    0.000    3.000 
#    0.000    3.750    0.000    0.000    0.000    0.000 
#    0.000    0.000    0.000    0.000    0.000    0.000 
#
# Total GULP energy -89560.925834 kJ/mol
# GULP energy per Si atom -5597.557865 kJ/mol
# Density = 2.192122 g / cm^3
# Si number density = 21.971224 Si / 1000 Ang^3
#
#
#
# Elastic Constant Matrix: (Units=GPa)
#
#
# Indices 1 2 3 4 5 6 
#
# 1 95.6733 7.0909 32.1403 3.5943 -10.4873 19.4392
# 2 7.0909 135.6540 34.7325 -1.4421 -5.0961 -2.4169
# 3 32.1403 34.7325 117.2993 -7.8875 -10.0221 -14.6465
# 4 3.5943 -1.4421 -7.8875 25.8496 -6.2785 1.1929
# 5 -10.4873 -5.0961 -10.0221 -6.2785 31.9101 -1.6496
# 6 19.4392 -2.4169 -14.6465 1.1929 -1.6496 50.7521
#
#
#
# Elastic Compliance Matrix: (Units=1/GPa)
#
#
# Indices 1 2 3 4 5 6 
#
# 1 0.013615 0.000417 -0.004622 -0.002431 0.002281 -0.006397
# 2 0.000417 0.008003 -0.002511 -0.000220 0.000559 -0.000480
# 3 -0.004622 -0.002511 0.011717 0.004554 0.002916 0.005020
# 4 -0.002431 -0.000220 0.004554 0.042527 0.009043 0.001529
# 5 0.002281 0.000559 0.002916 0.009043 0.034919 0.000917
# 6 -0.006397 -0.000480 0.005020 0.001529 0.000917 0.023574
#
#
# Mechanical properties :
#
#
# Convention : Reuss Voigt Hill
#
# Bulk Modulus (GPa) = 50.23912 55.17265 52.70588
# Shear Modulus (GPa) = 32.37925 40.01320 36.19622
#
# Velocity S-wave (km/s) = 3.84306 4.27214 4.06327
# Velocity P-wave (km/s) = 6.52745 7.03568 6.78632
#
# Compressibility (1/GPa) = 0.01990481
#
# Stress axis : x y z
#
# Youngs Moduli (GPa) = 73.44811 124.95481 85.34455
#
# Poissons Ratio (x) = -0.05216 0.39443
# Poissons Ratio (y) = -0.03066 0.21431
# Poissons Ratio (z) = 0.33945 0.31377
#
# Static dielectric constant tensor:
#      x y z
#    x 1.527200 -0.376150 -0.212560 
#    y -0.376150 1.387520 -0.309970 
#    z -0.212560 -0.309970 1.606740 
# 
# From -- ./inp_files/434046.got.cif
#   From: 2010.05.17/outbox.cif.g08.bks.cpg/sg2_218_cif.got.tgz:434046.got - 2010.06.03 11:33:40.
