data_PCOD9056487
_publ_section_title
;
Structure prediction by ZEFSAII (Michael W. Deem and Ramdas Pophale) SiO2 
 PCOD9056487
Probable space group: P -1
;
_chemical_formula_sum "Si O2"
_cell_formula_units_Z 16
_cell_length_a 14.733999
_cell_length_b 9.049776
_cell_length_c 9.678823
_cell_angle_alpha 67.658815
_cell_angle_beta 131.566150
_cell_angle_gamma 89.065505
_cell_volume 823.139813
_symmetry_space_group_name_H-M "P -1"
_symmetry_group_IT_number 2
_symmetry_cell_setting 'triclinic'
loop_
_space_group_symop_operation_xyz
x,y,z
-x,-y,-z
loop_
_atom_site_type_symbol
_atom_site_label
_atom_site_fract_x
_atom_site_fract_y
_atom_site_fract_z
Si Si1 0.880124 0.357356 0.021173
Si Si2 0.066986 0.594304 0.436054
Si Si3 0.624778 0.040992 0.563067
Si Si4 0.630356 0.379517 0.596957
Si Si5 0.113327 0.826705 0.625094
Si Si6 0.619708 0.216969 0.207876
Si Si7 0.899249 0.719322 0.941878
Si Si8 0.640023 0.550269 0.263469
O O1 0.759125 0.329720 0.837785
O O2 0.861796 0.557267 0.921332
O O3 0.877286 0.309252 0.195441
O O4 0.013822 0.253745 0.106497
O O5 0.075871 0.756621 0.470333
O O6 0.216079 0.456447 0.617820
O O7 0.000000 0.500000 0.500000
O O8 0.992789 0.658250 0.193369
O O9 0.620765 0.207652 0.585612
O O10 0.617282 0.093925 0.374919
O O11 0.500000 0.000000 0.500000
O O12 0.765671 0.882751 0.780361
O O13 0.500000 0.500000 0.500000
O O14 0.641494 0.497531 0.441088
O O15 0.249633 0.851646 0.729125
O O16 0.000000 0.000000 0.500000
O O17 0.626836 0.390756 0.221644
O O18 0.484269 0.280167 0.963772
#
# Coordination Sequence:
#
# PCOD9056487 Si02
#       8
#     2   2   2   2   2   2   2   2
#     4  11  23  41  65  94 127 171 208 265 316 371
#     4  11  22  40  64  93 124 172 206 253 315 380
#     4  11  25  41  63  93 126 169 210 263 320 380
#     4  11  22  39  64  93 124 164 212 259 319 376
#     4  11  23  39  64  94 129 164 212 261 311 373
#     4   9  20  39  61  88 121 163 206 256 308 372
#     4  11  24  42  64  93 134 167 212 259 319 381
#     4   9  19  38  62  87 120 161 211 249 306 377
#
# _framework density 19.437767999999998
#
# number of rings (size 3 to 8) (size 9 to 14) (size 15 to 20)
#    0.000    1.500    2.500    2.250    3.500    2.500 
#    0.000    0.000    0.000    3.000    0.000    0.000 
#    0.000    0.000    0.000    0.000    0.000    0.000 
#
# Total GULP energy -89342.554159 kJ/mol
# GULP energy per Si atom -5583.909635 kJ/mol
# Density = 1.939353 g / cm^3
# Si number density = 19.437768 Si / 1000 Ang^3
#
#
#
# Elastic Constant Matrix: (Units=GPa)
#
#
# Indices 1 2 3 4 5 6 
#
# 1 168.9833 29.1157 39.8402 -9.9210 22.8481 -1.9703
# 2 29.1157 53.0687 17.5814 -0.6583 11.9720 -7.4800
# 3 39.8402 17.5814 79.6254 -1.4611 16.5684 3.0714
# 4 -9.9210 -0.6583 -1.4611 28.8830 -8.7866 5.2975
# 5 22.8481 11.9720 16.5684 -8.7866 34.5818 -4.5863
# 6 -1.9703 -7.4800 3.0714 5.2975 -4.5863 30.5986
#
#
#
# Elastic Compliance Matrix: (Units=1/GPa)
#
#
# Indices 1 2 3 4 5 6 
#
# 1 0.007407 -0.002749 -0.002555 0.001745 -0.002354 -0.000593
# 2 -0.002749 0.023186 -0.003018 -0.003056 -0.004798 0.005604
# 3 -0.002555 -0.003018 0.015754 -0.001269 -0.005548 -0.003095
# 4 0.001745 -0.003056 -0.001269 0.039100 0.009675 -0.005826
# 5 -0.002354 -0.004798 -0.005548 0.009675 0.037675 0.003204
# 6 -0.000593 0.005604 -0.003095 -0.005826 0.003204 0.035813
#
#
# Mechanical properties :
#
#
# Convention : Reuss Voigt Hill
#
# Bulk Modulus (GPa) = 33.66499 52.75019 43.20759
# Shear Modulus (GPa) = 26.95732 33.15536 30.05634
#
# Velocity S-wave (km/s) = 3.72809 4.13452 3.93655
# Velocity P-wave (km/s) = 5.99070 7.07030 6.55277
#
# Compressibility (1/GPa) = 0.02970445
#
# Stress axis : x y z
#
# Youngs Moduli (GPa) = 134.99933 43.12996 63.47600
#
# Poissons Ratio (x) = 0.11855 0.16216
# Poissons Ratio (y) = 0.37107 0.19157
# Poissons Ratio (z) = 0.34488 0.13017
#
# Static dielectric constant tensor:
#      x y z
#    x 1.676610 -0.008570 -0.010070 
#    y -0.008570 1.680590 0.004840 
#    z -0.010070 0.004840 1.677140 
# 
# From -- ./inp_files/184805.got.cif
#   From: 2010.05.17/outbox.cif.g08.bks.cpg/sg2_93_cif.got.tgz:184805.got - 2010.06.03 11:33:40.
