data_PCOD9056085
_publ_section_title
;
Structure prediction by ZEFSAII (Michael W. Deem and Ramdas Pophale) SiO2 
 PCOD9056085
Probable space group: P -1
;
_chemical_formula_sum "Si O2"
_cell_formula_units_Z 16
_cell_length_a 8.311641
_cell_length_b 8.615868
_cell_length_c 14.711183
_cell_angle_alpha 50.975334
_cell_angle_beta 95.630042
_cell_angle_gamma 67.436111
_cell_volume 665.680768
_symmetry_space_group_name_H-M "P -1"
_symmetry_group_IT_number 2
_symmetry_cell_setting 'triclinic'
loop_
_space_group_symop_operation_xyz
x,y,z
-x,-y,-z
loop_
_atom_site_type_symbol
_atom_site_label
_atom_site_fract_x
_atom_site_fract_y
_atom_site_fract_z
Si Si1 0.962650 0.647243 0.176089
Si Si2 0.498867 0.402396 0.246525
Si Si3 0.082270 0.148074 0.102346
Si Si4 0.700620 0.162171 0.060418
Si Si5 0.215607 0.431411 0.569493
Si Si6 0.886656 0.274623 0.357512
Si Si7 0.433482 0.144152 0.193348
Si Si8 0.306082 0.586773 0.337946
O O1 0.971871 0.402216 0.260179
O O2 0.145031 0.580810 0.272707
O O3 0.783892 0.888837 0.130275
O O4 0.959137 0.748560 0.039891
O O5 0.721148 0.300042 0.274195
O O6 0.434674 0.245388 0.254290
O O7 0.495265 0.402946 0.355413
O O8 0.370863 0.667777 0.095370
O O9 0.210450 0.232522 0.125918
O O10 0.879952 0.170792 0.108968
O O11 0.247040 0.857003 0.223237
O O12 0.520498 0.243083 0.088925
O O13 0.182622 0.558034 0.617444
O O14 0.289557 0.533335 0.459632
O O15 0.000000 0.500000 0.500000
O O16 0.391768 0.144680 0.689355
O O17 0.000000 0.000000 0.500000
#
# Coordination Sequence:
#
# PCOD9056085 Si02
#       8
#     2   2   2   2   2   2   2   2
#     4  11  21  45  78 103 139 192 239 300 369 430
#     4  12  26  45  68 108 149 186 246 301 358 430
#     4  11  23  45  76 108 141 192 246 299 372 430
#     4  11  22  46  75 108 148 189 243 305 363 435
#     4  12  24  48  72 101 145 197 245 293 363 436
#     4  12  27  46  74 106 141 195 243 299 366 435
#     4  12  27  44  71 111 150 194 244 301 363 434
#     4  11  23  45  74 103 143 192 242 298 357 435
#
# _framework density 24.035544000000002
#
# number of rings (size 3 to 8) (size 9 to 14) (size 15 to 20)
#    0.000    0.500    5.000    4.125    0.000    4.000 
#    4.500    0.000    0.000    0.000    0.000    0.000 
#    0.000    0.000    0.000    0.000    0.000    0.000 
#
# Total GULP energy -89384.144799 kJ/mol
# GULP energy per Si atom -5586.509050 kJ/mol
# Density = 2.398084 g / cm^3
# Si number density = 24.035544 Si / 1000 Ang^3
#
#
#
# Elastic Constant Matrix: (Units=GPa)
#
#
# Indices 1 2 3 4 5 6 
#
# 1 119.2710 18.2492 33.0951 1.9235 3.6031 20.5477
# 2 18.2492 49.1916 24.7592 -5.8580 -16.1700 -12.5125
# 3 33.0951 24.7592 99.7150 -13.0733 -18.6370 1.5027
# 4 1.9235 -5.8580 -13.0733 43.2135 -1.7072 -5.2078
# 5 3.6031 -16.1700 -18.6370 -1.7072 48.7994 9.2540
# 6 20.5477 -12.5125 1.5027 -5.2078 9.2540 30.5976
#
#
#
# Elastic Compliance Matrix: (Units=1/GPa)
#
#
# Indices 1 2 3 4 5 6 
#
# 1 0.012368 -0.007070 -0.003166 -0.003885 -0.002527 -0.010939
# 2 -0.007070 0.032121 -0.003880 0.005813 0.006654 0.017051
# 3 -0.003166 -0.003880 0.013353 0.003730 0.004328 -0.000790
# 4 -0.003885 0.005813 0.003730 0.026359 0.002968 0.008391
# 5 -0.002527 0.006654 0.004328 0.002968 0.025192 -0.002909
# 6 -0.010939 0.017051 -0.000790 0.008391 -0.002909 0.049348
#
#
# Mechanical properties :
#
#
# Convention : Reuss Voigt Hill
#
# Bulk Modulus (GPa) = 33.77407 46.70940 40.24174
# Shear Modulus (GPa) = 25.40087 37.32701 31.36394
#
# Velocity S-wave (km/s) = 3.25438 3.94508 3.61626
# Velocity P-wave (km/s) = 5.31070 6.34249 5.84939
#
# Compressibility (1/GPa) = 0.02960851
#
# Stress axis : x y z
#
# Youngs Moduli (GPa) = 80.85340 31.13197 74.89084
#
# Poissons Ratio (x) = 0.22011 0.23711
# Poissons Ratio (y) = 0.57166 0.29060
# Poissons Ratio (z) = 0.25599 0.12080
#
# Static dielectric constant tensor:
#      x y z
#    x 2.030770 -0.045990 -0.043730 
#    y -0.045990 1.953220 -0.029840 
#    z -0.043730 -0.029840 1.912050 
# 
# From -- ./inp_files/494400.got.cif
#   From: 2010.05.17/outbox.cif.g08.bks.cpg/sg2_248_cif.got.tgz:494400.got - 2010.06.03 11:33:40.
