data_PCOD9056161
_publ_section_title
;
Structure prediction by ZEFSAII (Michael W. Deem and Ramdas Pophale) SiO2 
 PCOD9056161
Probable space group: P -1
;
_chemical_formula_sum "Si O2"
_cell_formula_units_Z 16
_cell_length_a 9.759655
_cell_length_b 17.339814
_cell_length_c 13.397868
_cell_angle_alpha 22.562561
_cell_angle_beta 64.908350
_cell_angle_gamma 65.992501
_cell_volume 787.100100
_symmetry_space_group_name_H-M "P -1"
_symmetry_group_IT_number 2
_symmetry_cell_setting 'triclinic'
loop_
_space_group_symop_operation_xyz
x,y,z
-x,-y,-z
loop_
_atom_site_type_symbol
_atom_site_label
_atom_site_fract_x
_atom_site_fract_y
_atom_site_fract_z
Si Si1 0.736884 0.800979 0.855030
Si Si2 0.396246 0.714477 0.064115
Si Si3 0.865482 0.556753 0.548191
Si Si4 0.514996 0.526183 0.847351
Si Si5 0.952511 0.307046 0.017516
Si Si6 0.239021 0.142557 0.641119
Si Si7 0.207207 0.727833 0.687189
Si Si8 0.901248 0.838016 0.554037
O O1 0.872889 0.687222 0.009251
O O2 0.782963 0.785933 0.740698
O O3 0.748608 0.040072 0.589218
O O4 0.571202 0.732557 0.019283
O O5 0.291260 0.528378 0.345186
O O6 0.418608 0.676132 0.983731
O O7 0.302774 0.914847 0.884956
O O8 0.849018 0.787692 0.314455
O O9 0.000000 0.500000 0.500000
O O10 0.906389 0.438385 0.779814
O O11 0.622709 0.709207 0.578195
O O12 0.354428 0.598865 0.763635
O O13 0.500000 0.500000 0.000000
O O14 0.849625 0.350981 0.094067
O O15 0.927478 0.074464 0.277461
O O16 0.150104 0.189810 0.509505
O O17 0.061867 0.726875 0.662193
#
# Coordination Sequence:
#
# PCOD9056161 Si02
#       8
#     2   2   2   2   2   2   2   2
#     4   9  18  32  59  86 120 155 177 218 278 345
#     4  11  22  38  56  84 116 150 191 231 283 338
#     4  11  25  43  61  81 106 143 199 255 289 326
#     4  11  22  31  51  86 123 156 184 222 268 338
#     4   9  18  36  56  85 117 150 192 228 270 333
#     4  11  22  37  58  84 114 149 191 232 284 339
#     4   9  17  33  55  87 123 152 184 214 269 342
#     4   9  18  32  57  88 119 154 181 219 272 342
#
# _framework density 20.327781999999999
#
# number of rings (size 3 to 8) (size 9 to 14) (size 15 to 20)
#    0.000    2.000    2.500    3.750    1.750    2.500 
#    0.000    3.750    0.000    0.750    0.000    0.000 
#    0.000    0.000    0.000    0.000    0.000    0.000 
#
# Total GULP energy -89310.301559 kJ/mol
# GULP energy per Si atom -5581.893847 kJ/mol
# Density = 2.028152 g / cm^3
# Si number density = 20.327782 Si / 1000 Ang^3
#
#
#
# Elastic Constant Matrix: (Units=GPa)
#
#
# Indices 1 2 3 4 5 6 
#
# 1 129.1270 45.9895 13.5741 -0.0493 -14.2827 -11.8026
# 2 45.9895 120.6118 17.5237 -29.8068 -7.2580 -17.3251
# 3 13.5741 17.5237 20.3163 -15.9760 -3.8830 4.7875
# 4 -0.0493 -29.8068 -15.9760 28.6683 -0.2597 -4.8849
# 5 -14.2827 -7.2580 -3.8830 -0.2597 28.6669 -4.4856
# 6 -11.8026 -17.3251 4.7875 -4.8849 -4.4856 22.7913
#
#
#
# Elastic Compliance Matrix: (Units=1/GPa)
#
#
# Indices 1 2 3 4 5 6 
#
# 1 0.011353 -0.004613 -0.012566 -0.011199 0.003192 0.003240
# 2 -0.004613 0.018202 0.002916 0.023483 0.005572 0.016965
# 3 -0.012566 0.002916 0.107215 0.060732 0.007627 -0.012294
# 4 -0.011199 0.023483 0.060732 0.097104 0.013019 0.022669
# 5 0.003192 0.005572 0.007627 0.013019 0.041418 0.015229
# 6 0.003240 0.016965 -0.012294 0.022669 0.015229 0.068889
#
#
# Mechanical properties :
#
#
# Convention : Reuss Voigt Hill
#
# Bulk Modulus (GPa) = 9.23846 47.13663 28.18754
# Shear Modulus (GPa) = 12.23124 28.88982 20.56053
#
# Velocity S-wave (km/s) = 2.45562 3.77397 3.18378
# Velocity P-wave (km/s) = 3.54890 6.49839 5.23564
#
# Compressibility (1/GPa) = 0.10824320
#
# Stress axis : x y z
#
# Youngs Moduli (GPa) = 88.07995 54.93861 9.32706
#
# Poissons Ratio (x) = 0.25345 0.11721
# Poissons Ratio (y) = 0.40635 -0.02720
# Poissons Ratio (z) = 1.10683 -0.16020
#
# Static dielectric constant tensor:
#      x y z
#    x 1.765930 -0.013390 -0.024570 
#    y -0.013390 1.765460 -0.053950 
#    z -0.024570 -0.053950 1.722710 
# 
# From -- ./inp_files/398077.got.cif
#   From: 2010.05.17/outbox.cif.g08.bks.cpg/sg2_200_cif.got.tgz:398077.got - 2010.06.03 11:33:40.
