data_PCOD9056628
_publ_section_title
;
Structure prediction by ZEFSAII (Michael W. Deem and Ramdas Pophale) SiO2 
 PCOD9056628
Probable space group: P -1
;
_chemical_formula_sum "Si O2"
_cell_formula_units_Z 16
_cell_length_a 8.572797
_cell_length_b 13.030554
_cell_length_c 14.973836
_cell_angle_alpha 46.388616
_cell_angle_beta 74.037467
_cell_angle_gamma 109.912839
_cell_volume 754.351662
_symmetry_space_group_name_H-M "P -1"
_symmetry_group_IT_number 2
_symmetry_cell_setting 'triclinic'
loop_
_space_group_symop_operation_xyz
x,y,z
-x,-y,-z
loop_
_atom_site_type_symbol
_atom_site_label
_atom_site_fract_x
_atom_site_fract_y
_atom_site_fract_z
Si Si1 0.625802 0.731218 0.819573
Si Si2 0.618168 0.266617 0.983777
Si Si3 0.603365 0.409112 0.253557
Si Si4 0.597839 0.983825 0.266339
Si Si5 0.248181 0.173179 0.970296
Si Si6 0.833188 0.277483 0.361703
Si Si7 0.848143 0.042061 0.351969
Si Si8 0.333215 0.253783 0.697518
O O1 0.508132 0.759959 0.890059
O O2 0.534500 0.701175 0.753065
O O3 0.915027 0.893208 0.695888
O O4 0.500000 0.500000 0.000000
O O5 0.653551 0.127693 0.089796
O O6 0.428275 0.182899 0.986311
O O7 0.879928 0.521244 0.773061
O O8 0.701756 0.633075 0.117748
O O9 0.784475 0.396277 0.249471
O O10 0.375449 0.218795 0.469846
O O11 0.366226 0.869558 0.437838
O O12 0.545939 0.801098 0.336215
O O13 0.834669 0.122661 0.213716
O O14 0.312706 0.219994 0.827531
O O15 0.959050 0.937092 0.172105
O O16 0.805938 0.131609 0.382520
O O17 0.500000 0.500000 0.500000
#
# Coordination Sequence:
#
# PCOD9056628 Si02
#       8
#     2   2   2   2   2   2   2   2
#     4  12  22  36  61  97 132 172 217 254 307 375
#     4  12  25  41  65  95 136 170 207 263 313 384
#     4  11  22  40  64  92 131 171 214 266 313 379
#     4  11  25  42  65  95 127 171 217 261 323 380
#     4  11  25  45  68  99 124 163 216 266 326 375
#     4  11  23  40  62  95 136 173 211 257 314 377
#     4  11  22  40  63  92 133 175 218 260 311 374
#     4  11  25  48  74  94 121 162 216 272 325 384
#
# _framework density 21.210267000000002
#
# number of rings (size 3 to 8) (size 9 to 14) (size 15 to 20)
#    0.000    0.750    2.500    6.375    1.750    4.500 
#    0.000    1.250    0.000    0.000    0.000    0.000 
#    0.000    0.000    0.000    0.000    0.000    0.000 
#
# Total GULP energy -89376.620394 kJ/mol
# GULP energy per Si atom -5586.038775 kJ/mol
# Density = 2.116199 g / cm^3
# Si number density = 21.210267 Si / 1000 Ang^3
#
#
#
# Elastic Constant Matrix: (Units=GPa)
#
#
# Indices 1 2 3 4 5 6 
#
# 1 55.8160 19.9088 31.4477 -10.0517 -7.1371 29.6685
# 2 19.9088 77.0796 35.8704 -9.0578 -9.3699 3.1850
# 3 31.4477 35.8704 110.7787 -14.4384 0.3398 9.1142
# 4 -10.0517 -9.0578 -14.4384 34.9580 -3.4130 0.1501
# 5 -7.1371 -9.3699 0.3398 -3.4130 34.9006 4.1445
# 6 29.6685 3.1850 9.1142 0.1501 4.1445 40.3545
#
#
#
# Elastic Compliance Matrix: (Units=1/GPa)
#
#
# Indices 1 2 3 4 5 6 
#
# 1 0.043388 -0.003852 -0.007251 0.009846 0.012587 -0.031286
# 2 -0.003852 0.016480 -0.004196 0.001772 0.003601 0.002103
# 3 -0.007251 -0.004196 0.012409 0.001652 -0.002943 0.003156
# 4 0.009846 0.001772 0.001652 0.033274 0.006744 -0.008568
# 5 0.012587 0.003601 -0.002943 0.006744 0.034358 -0.012427
# 6 -0.031286 0.002103 0.003156 -0.008568 -0.012427 0.048212
#
#
# Mechanical properties :
#
#
# Convention : Reuss Voigt Hill
#
# Bulk Modulus (GPa) = 23.99293 46.45866 35.22580
# Shear Modulus (GPa) = 21.49513 32.47244 26.98378
#
# Velocity S-wave (km/s) = 3.18690 3.91702 3.57067
# Velocity P-wave (km/s) = 4.98781 6.51220 5.80030
#
# Compressibility (1/GPa) = 0.04167894
#
# Stress axis : x y z
#
# Youngs Moduli (GPa) = 23.04788 60.67831 80.58842
#
# Poissons Ratio (x) = 0.23376 0.58433
# Poissons Ratio (y) = 0.08879 0.33814
# Poissons Ratio (z) = 0.16712 0.25460
#
# Static dielectric constant tensor:
#      x y z
#    x 2.153010 0.523740 0.176670 
#    y 0.523740 2.270170 0.246260 
#    z 0.176670 0.246260 1.922230 
# 
# From -- ./inp_files/477766.got.cif
#   From: 2010.05.17/outbox.cif.g08.bks.cpg/sg2_239_cif.got.tgz:477766.got - 2010.06.03 11:33:40.
