data_PCOD9056871
_publ_section_title
;
Structure prediction by ZEFSAII (Michael W. Deem and Ramdas Pophale) SiO2 
 PCOD9056871
Probable space group: P -1
;
_chemical_formula_sum "Si O2"
_cell_formula_units_Z 16
_cell_length_a 21.553349
_cell_length_b 18.642078
_cell_length_c 12.945416
_cell_angle_alpha 27.044346
_cell_angle_beta 144.870731
_cell_angle_gamma 161.574942
_cell_volume 734.037696
_symmetry_space_group_name_H-M "P -1"
_symmetry_group_IT_number 2
_symmetry_cell_setting 'triclinic'
loop_
_space_group_symop_operation_xyz
x,y,z
-x,-y,-z
loop_
_atom_site_type_symbol
_atom_site_label
_atom_site_fract_x
_atom_site_fract_y
_atom_site_fract_z
Si Si1 0.449574 0.296190 0.770829
Si Si2 0.238116 0.768766 0.493090
Si Si3 0.794653 0.313017 0.220078
Si Si4 0.936695 0.644080 0.532267
Si Si5 0.660456 0.389382 0.298168
Si Si6 0.421963 0.916810 0.116161
Si Si7 0.020635 0.887537 0.756996
Si Si8 0.191585 0.245493 0.168008
O O1 0.500000 0.500000 0.500000
O O2 0.610417 0.498440 0.821469
O O3 0.234892 0.072357 0.810167
O O4 0.439847 0.116233 0.930398
O O5 0.240067 0.679573 0.718742
O O6 0.310442 0.757108 0.509376
O O7 0.000000 0.500000 0.500000
O O8 0.418415 0.117853 0.311833
O O9 0.956096 0.373800 0.352362
O O10 0.579153 0.002292 0.282868
O O11 0.869666 0.559462 0.946132
O O12 0.787529 0.552030 0.368062
O O13 0.799965 0.415590 0.733795
O O14 0.113966 0.975031 0.385735
O O15 0.767829 0.620879 0.057400
O O16 0.500000 0.000000 0.000000
O O17 0.974697 0.890469 0.805830
O O18 0.000000 0.000000 0.500000
#
# Coordination Sequence:
#
# PCOD9056871 Si02
#       8
#     2   2   2   2   2   2   2   2
#     4  12  26  48  73 105 142 189 243 287 354 435
#     4  11  22  40  76 107 134 184 238 295 349 423
#     4  12  24  46  72 105 139 187 241 285 356 428
#     4  12  28  46  71 105 147 188 237 298 358 424
#     4  11  24  45  71 103 144 184 243 292 358 425
#     4  12  28  46  74 105 142 186 238 297 355 424
#     4  12  25  45  73 102 143 187 235 289 350 427
#     4  12  28  45  72 106 147 190 236 298 358 420
#
# _framework density 21.797246000000001
#
# number of rings (size 3 to 8) (size 9 to 14) (size 15 to 20)
#    0.000    0.250    7.500    0.375    8.750    0.500 
#    0.000    0.625    0.000    0.000    0.000    0.000 
#    0.000    0.000    0.000    0.000    0.000    0.000 
#
# Total GULP energy -89319.504581 kJ/mol
# GULP energy per Si atom -5582.469036 kJ/mol
# Density = 2.174763 g / cm^3
# Si number density = 21.797246 Si / 1000 Ang^3
#
#
#
# Elastic Constant Matrix: (Units=GPa)
#
#
# Indices 1 2 3 4 5 6 
#
# 1 90.8697 40.8060 38.4027 -3.2756 -8.5201 7.7637
# 2 40.8060 92.9304 22.2118 -0.7169 6.8717 18.8049
# 3 38.4027 22.2118 111.9150 -14.0073 -4.8977 -4.2532
# 4 -3.2756 -0.7169 -14.0073 32.6588 -6.3441 -6.3816
# 5 -8.5201 6.8717 -4.8977 -6.3441 27.5474 -4.8258
# 6 7.7637 18.8049 -4.2532 -6.3816 -4.8258 41.4580
#
#
#
# Elastic Compliance Matrix: (Units=1/GPa)
#
#
# Indices 1 2 3 4 5 6 
#
# 1 0.016261 -0.006832 -0.003763 0.001241 0.006457 0.000611
# 2 -0.006832 0.016621 -0.002259 -0.004694 -0.009193 -0.008284
# 3 -0.003763 -0.002259 0.011773 0.006179 0.003672 0.004316
# 4 0.001241 -0.004694 0.006179 0.037759 0.013077 0.009865
# 5 0.006457 -0.009193 0.003672 0.013077 0.046134 0.010720
# 6 0.000611 -0.008284 0.004316 0.009865 0.010720 0.030973
#
#
# Mechanical properties :
#
#
# Convention : Reuss Voigt Hill
#
# Bulk Modulus (GPa) = 52.77968 55.39510 54.08739
# Shear Modulus (GPa) = 26.10366 33.28582 29.69474
#
# Velocity S-wave (km/s) = 3.46434 3.91201 3.69496
# Velocity P-wave (km/s) = 6.34576 6.77304 6.56288
#
# Compressibility (1/GPa) = 0.01894668
#
# Stress axis : x y z
#
# Youngs Moduli (GPa) = 61.49627 60.16642 84.94116
#
# Poissons Ratio (x) = 0.41108 0.31961
# Poissons Ratio (y) = 0.42017 0.19186
# Poissons Ratio (z) = 0.23139 0.13590
#
# Static dielectric constant tensor:
#      x y z
#    x 1.852150 -0.018070 -0.007930 
#    y -0.018070 1.876780 -0.042320 
#    z -0.007930 -0.042320 1.824860 
# 
# From -- ./inp_files/472344.got.cif
#   From: 2010.05.17/outbox.cif.g08.bks.cpg/sg2_237_cif.got.tgz:472344.got - 2010.06.03 11:33:40.
