data_PCOD9056412
_publ_section_title
;
Structure prediction by ZEFSAII (Michael W. Deem and Ramdas Pophale) SiO2 
 PCOD9056412
Probable space group: P -1
;
_chemical_formula_sum "Si O2"
_cell_formula_units_Z 16
_cell_length_a 11.379768
_cell_length_b 5.057078
_cell_length_c 17.023694
_cell_angle_alpha 69.674334
_cell_angle_beta 53.269782
_cell_angle_gamma 63.696683
_cell_volume 699.244111
_symmetry_space_group_name_H-M "P -1"
_symmetry_group_IT_number 2
_symmetry_cell_setting 'triclinic'
loop_
_space_group_symop_operation_xyz
x,y,z
-x,-y,-z
loop_
_atom_site_type_symbol
_atom_site_label
_atom_site_fract_x
_atom_site_fract_y
_atom_site_fract_z
Si Si1 0.038280 0.235836 0.736637
Si Si2 0.466029 0.252897 0.095260
Si Si3 0.528547 0.690949 0.734237
Si Si4 0.171852 0.905416 0.874647
Si Si5 0.644710 0.726768 0.438469
Si Si6 0.149254 0.166596 0.181298
Si Si7 0.795199 0.759000 0.026080
Si Si8 0.563286 0.271349 0.619028
O O1 0.201868 0.179405 0.634914
O O2 0.965790 0.581462 0.746538
O O3 0.075102 0.074156 0.823046
O O4 0.909342 0.116971 0.760993
O O5 0.434375 0.384865 0.182085
O O6 0.321759 0.153002 0.136331
O O7 0.618403 0.967381 0.065751
O O8 0.500000 0.500000 0.000000
O O9 0.348799 0.888003 0.787063
O O10 0.542617 0.422424 0.697179
O O11 0.616695 0.916916 0.644654
O O12 0.186094 0.562640 0.914343
O O13 0.134285 0.071769 0.955762
O O14 0.664210 0.436605 0.513560
O O15 0.591422 0.652257 0.381055
O O16 0.500000 0.000000 0.500000
O O17 0.134742 0.268081 0.085585
#
# Coordination Sequence:
#
# PCOD9056412 Si02
#       8
#     2   2   2   2   2   2   2   2
#     4  12  27  41  67  99 148 174 216 284 349 447
#     4  11  25  48  74  98 136 188 249 290 315 388
#     4  11  22  39  68 102 130 166 233 294 323 386
#     4  11  22  39  64  99 134 179 222 275 357 386
#     4  11  24  42  71 102 140 171 222 275 350 437
#     4  12  27  43  63  99 137 191 229 272 356 392
#     4  11  24  42  68  92 131 180 240 291 316 398
#     4  11  22  38  68 103 128 165 221 277 354 390
#
# _framework density 22.881851000000001
#
# number of rings (size 3 to 8) (size 9 to 14) (size 15 to 20)
#    0.000    0.750    2.500    5.625    5.250    7.000 
#    0.000    0.000    0.000    4.500    0.000    0.000 
#    0.000    0.000    0.000    0.000    0.000    0.000 
#
# Total GULP energy -89592.037579 kJ/mol
# GULP energy per Si atom -5599.502349 kJ/mol
# Density = 2.282977 g / cm^3
# Si number density = 22.881851 Si / 1000 Ang^3
#
#
#
# Elastic Constant Matrix: (Units=GPa)
#
#
# Indices 1 2 3 4 5 6 
#
# 1 136.7532 32.9432 48.9183 1.6131 -1.6895 19.8165
# 2 32.9432 97.0786 17.9659 7.0408 -0.5495 15.3434
# 3 48.9183 17.9659 82.7896 -4.1807 -13.5509 12.2266
# 4 1.6131 7.0408 -4.1807 34.0941 -0.0998 -0.4082
# 5 -1.6895 -0.5495 -13.5509 -0.0998 35.0681 6.9473
# 6 19.8165 15.3434 12.2266 -0.4082 6.9473 38.6527
#
#
#
# Elastic Compliance Matrix: (Units=1/GPa)
#
#
# Indices 1 2 3 4 5 6 
#
# 1 0.010067 -0.001981 -0.005377 -0.000760 -0.001135 -0.002478
# 2 -0.001981 0.011888 -0.000952 -0.002519 0.000410 -0.003502
# 3 -0.005377 -0.000952 0.017287 0.002549 0.007124 -0.003587
# 4 -0.000760 -0.002519 0.002549 0.030211 0.000846 0.000750
# 5 -0.001135 0.000410 0.007124 0.000846 0.032751 -0.007712
# 6 -0.002478 -0.003502 -0.003587 0.000750 -0.007712 0.031061
#
#
# Mechanical properties :
#
#
# Convention : Reuss Voigt Hill
#
# Bulk Modulus (GPa) = 44.20393 57.36401 50.78397
# Shear Modulus (GPa) = 31.76141 36.01594 33.88867
#
# Velocity S-wave (km/s) = 3.72971 3.97167 3.85259
# Velocity P-wave (km/s) = 6.15694 6.79384 6.48322
#
# Compressibility (1/GPa) = 0.02262242
#
# Stress axis : x y z
#
# Youngs Moduli (GPa) = 99.33536 84.11915 57.84754
#
# Poissons Ratio (x) = 0.16662 0.31102
# Poissons Ratio (y) = 0.19676 0.05508
# Poissons Ratio (z) = 0.53408 0.08010
#
# Static dielectric constant tensor:
#      x y z
#    x 1.877430 0.012780 -0.014770 
#    y 0.012780 1.834520 0.003300 
#    z -0.014770 0.003300 1.894290 
# 
# From -- ./inp_files/564067.got.cif
#   From: 2010.05.17/outbox.cif.g08.bks.cpg/sg2_283_cif.got.tgz:564067.got - 2010.06.03 11:33:40.
