data_PCOD9056405
_publ_section_title
;
Structure prediction by ZEFSAII (Michael W. Deem and Ramdas Pophale) SiO2 
 PCOD9056405
Probable space group: P -1
;
_chemical_formula_sum "Si O2"
_cell_formula_units_Z 12
_cell_length_a 22.680859
_cell_length_b 7.714059
_cell_length_c 11.107706
_cell_angle_alpha 144.206097
_cell_angle_beta 155.511979
_cell_angle_gamma 37.605511
_cell_volume 459.278785
_symmetry_space_group_name_H-M "P -1"
_symmetry_group_IT_number 2
_symmetry_cell_setting 'triclinic'
loop_
_space_group_symop_operation_xyz
x,y,z
-x,-y,-z
loop_
_atom_site_type_symbol
_atom_site_label
_atom_site_fract_x
_atom_site_fract_y
_atom_site_fract_z
Si Si1 0.657190 0.081000 0.337255
Si Si2 0.817145 0.963616 0.992433
Si Si3 0.042595 0.482988 0.817036
Si Si4 0.945273 0.908583 0.665386
Si Si5 0.463011 0.673342 0.252068
Si Si6 0.260450 0.375142 0.564111
O O1 0.604871 0.440351 0.431695
O O2 0.771063 0.928738 0.359541
O O3 0.721150 0.938494 0.502018
O O4 0.500000 0.000000 0.000000
O O5 0.772358 0.707992 0.678345
O O6 0.682915 0.254198 0.896442
O O7 0.843183 0.806414 0.083083
O O8 0.963970 0.038183 0.252505
O O9 0.030404 0.614106 0.733167
O O10 0.886390 0.429533 0.540100
O O11 0.057209 0.783383 0.088114
O O12 0.500000 0.000000 0.500000
O O13 0.396014 0.528090 0.930279
#
# Coordination Sequence:
#
# PCOD9056405 Si02
#       6
#     2   2   2   2   2   2
#     4   9  19  39  61  86 128 170 205 257 316 375
#     4  11  22  38  66  96 124 164 215 262 317 378
#     4   9  18  35  62  93 124 159 209 266 311 368
#     4   9  17  35  65  88 119 171 211 253 314 375
#     4  11  24  39  61  96 132 163 209 269 318 373
#     4   9  20  40  63  88 126 170 210 257 315 379
#
# _framework density 26.127921000000001
#
# number of rings (size 3 to 8) (size 9 to 14) (size 15 to 20)
#    0.000    2.333    0.000    4.000    0.000    2.000 
#    0.000    9.167    0.000   17.000    0.000    2.333 
#    0.000    0.000    0.000    0.000    0.000    0.000 
#
# Total GULP energy -67038.471811 kJ/mol
# GULP energy per Si atom -5586.539318 kJ/mol
# Density = 2.606845 g / cm^3
# Si number density = 26.127921 Si / 1000 Ang^3
#
#
#
# Elastic Constant Matrix: (Units=GPa)
#
#
# Indices 1 2 3 4 5 6 
#
# 1 129.3347 56.2885 28.6609 -18.6953 14.0957 -1.8290
# 2 56.2885 190.3134 42.3356 -11.6202 11.0240 25.0931
# 3 28.6609 42.3356 123.9140 10.3954 18.1197 9.6375
# 4 -18.6953 -11.6202 10.3954 53.1925 -5.5435 7.7539
# 5 14.0957 11.0240 18.1197 -5.5435 43.5302 -7.1155
# 6 -1.8290 25.0931 9.6375 7.7539 -7.1155 34.8458
#
#
#
# Elastic Compliance Matrix: (Units=1/GPa)
#
#
# Indices 1 2 3 4 5 6 
#
# 1 0.009751 -0.002545 -0.001596 0.002779 -0.001180 0.001927
# 2 -0.002545 0.007218 -0.001424 0.001652 -0.001105 -0.005531
# 3 -0.001596 -0.001424 0.009899 -0.002933 -0.003934 -0.001947
# 4 0.002779 0.001652 -0.002933 0.021585 0.001891 -0.004649
# 5 -0.001180 -0.001105 -0.003934 0.001891 0.026631 0.006839
# 6 0.001927 -0.005531 -0.001947 -0.004649 0.006839 0.035751
#
#
# Mechanical properties :
#
#
# Convention : Reuss Voigt Hill
#
# Bulk Modulus (GPa) = 63.54659 77.57025 70.55842
# Shear Modulus (GPa) = 39.30457 47.39884 43.35171
#
# Velocity S-wave (km/s) = 3.88276 4.26385 4.07776
# Velocity P-wave (km/s) = 6.66897 7.34804 7.01673
#
# Compressibility (1/GPa) = 0.01573648
#
# Stress axis : x y z
#
# Youngs Moduli (GPa) = 102.55629 138.54066 101.02262
#
# Poissons Ratio (x) = 0.35256 0.16127
# Poissons Ratio (y) = 0.26099 0.14389
# Poissons Ratio (z) = 0.16372 0.19733
#
# Static dielectric constant tensor:
#      x y z
#    x 2.070620 -0.033060 -0.011060 
#    y -0.033060 2.109360 0.046450 
#    z -0.011060 0.046450 2.241330 
# 
# From -- ./inp_files/544807.got.cif
#   From: 2010.05.17/outbox.cif.g08.bks.cpg/sg2_273_cif.got.tgz:544807.got - 2010.06.03 11:33:40.
