data_PCOD9056211
_publ_section_title
;
Structure prediction by ZEFSAII (Michael W. Deem and Ramdas Pophale) SiO2 
 PCOD9056211
Probable space group: P -1
;
_chemical_formula_sum "Si O2"
_cell_formula_units_Z 14
_cell_length_a 8.936723
_cell_length_b 12.690710
_cell_length_c 15.336993
_cell_angle_alpha 48.842247
_cell_angle_beta 95.781115
_cell_angle_gamma 52.888076
_cell_volume 583.818180
_symmetry_space_group_name_H-M "P -1"
_symmetry_group_IT_number 2
_symmetry_cell_setting 'triclinic'
loop_
_space_group_symop_operation_xyz
x,y,z
-x,-y,-z
loop_
_atom_site_type_symbol
_atom_site_label
_atom_site_fract_x
_atom_site_fract_y
_atom_site_fract_z
Si Si1 0.114834 0.059923 0.711369
Si Si2 0.873693 0.800397 0.897436
Si Si3 0.177949 0.203807 0.479982
Si Si4 0.574400 0.463350 0.667568
Si Si5 0.835147 0.514729 0.576195
Si Si6 0.052806 0.346886 0.204858
Si Si7 0.766418 0.245532 0.978806
O O1 0.751114 0.293681 0.542136
O O2 0.070400 0.226903 0.684651
O O3 0.213188 0.043752 0.633618
O O4 0.328049 0.766773 0.935373
O O5 0.008106 0.689930 0.865903
O O6 0.117934 0.695909 0.022079
O O7 0.493083 0.171445 0.669923
O O8 0.869430 0.647220 0.017213
O O9 0.018729 0.467829 0.379955
O O10 0.005880 0.325809 0.309926
O O11 0.553842 0.942866 0.625111
O O12 0.691583 0.526616 0.633776
O O13 0.521649 0.458392 0.766255
O O14 0.890813 0.113936 0.839469
#
# Coordination Sequence:
#
# PCOD9056211 Si02
#       7
#     2   2   2   2   2   2   2
#     4  11  20  37  56  92 117 139 175 243 285 329
#     4  10  17  36  61  78 106 148 198 227 262 336
#     4  10  21  38  57  78 116 146 192 231 275 325
#     4  10  19  34  59  88 115 146 183 214 290 349
#     4  10  18  35  62  83 113 148 177 230 286 337
#     4   9  21  37  57  77 104 161 197 220 268 333
#     4  10  19  34  60  84 116 148 180 225 281 343
#
# _framework density 23.980067999999999
#
# number of rings (size 3 to 8) (size 9 to 14) (size 15 to 20)
#    0.000    2.000    2.857    2.143    0.000    0.000 
#    7.714    2.143    0.000    0.000    0.000    0.000 
#    0.000    0.000    0.000    0.000    0.000    0.000 
#
# Total GULP energy -78277.199220 kJ/mol
# GULP energy per Si atom -5591.228516 kJ/mol
# Density = 2.392549 g / cm^3
# Si number density = 23.980068 Si / 1000 Ang^3
#
#
#
# Elastic Constant Matrix: (Units=GPa)
#
#
# Indices 1 2 3 4 5 6 
#
# 1 47.4276 25.3823 6.0127 12.5521 -10.0968 -20.3750
# 2 25.3823 36.7093 33.5692 28.4018 -10.2089 -15.4305
# 3 6.0127 33.5692 80.1135 36.4118 -8.1811 -6.6390
# 4 12.5521 28.4018 36.4118 46.1404 -5.7464 -16.8445
# 5 -10.0968 -10.2089 -8.1811 -5.7464 27.4875 12.4003
# 6 -20.3750 -15.4305 -6.6390 -16.8445 12.4003 28.6067
#
#
#
# Elastic Compliance Matrix: (Units=1/GPa)
#
#
# Indices 1 2 3 4 5 6 
#
# 1 0.050483 -0.047811 0.011018 0.014971 -0.003134 0.022898
# 2 -0.047811 0.114171 -0.026917 -0.036494 0.011552 -0.005212
# 3 0.011018 -0.026917 0.027458 -0.010611 0.003677 -0.008141
# 4 0.014971 -0.036494 -0.010611 0.056854 -0.011497 0.026977
# 5 -0.003134 0.011552 0.003677 -0.011497 0.048574 -0.022973
# 6 0.022898 -0.005212 -0.008141 0.026977 -0.022973 0.072408
#
#
# Mechanical properties :
#
#
# Convention : Reuss Voigt Hill
#
# Bulk Modulus (GPa) = 15.45797 32.68652 24.07225
# Shear Modulus (GPa) = 9.63517 27.06599 18.35058
#
# Velocity S-wave (km/s) = 2.00667 3.36324 2.76930
# Velocity P-wave (km/s) = 3.43935 5.36117 4.50396
#
# Compressibility (1/GPa) = 0.06469154
#
# Stress axis : x y z
#
# Youngs Moduli (GPa) = 19.80865 8.75879 36.41953
#
# Poissons Ratio (x) = 0.41877 -0.40128
# Poissons Ratio (y) = 0.94707 0.98032
# Poissons Ratio (z) = -0.21825 0.23576
#
# Static dielectric constant tensor:
#      x y z
#    x 1.928780 -0.037930 -0.017920 
#    y -0.037930 1.960260 -0.014450 
#    z -0.017920 -0.014450 1.902120 
# 
# From -- ./inp_files/168771.got.cif
#   From: 2010.05.17/outbox.cif.g08.bks.cpg/sg2_85_cif.got.tgz:168771.got - 2010.06.03 11:33:40.
