data_PCOD9056110
_publ_section_title
;
Structure prediction by ZEFSAII (Michael W. Deem and Ramdas Pophale) SiO2 
 PCOD9056110
Probable space group: P -1
;
_chemical_formula_sum "Si O2"
_cell_formula_units_Z 16
_cell_length_a 19.820482
_cell_length_b 8.866490
_cell_length_c 5.242493
_cell_angle_alpha 88.170106
_cell_angle_beta 88.981000
_cell_angle_gamma 39.945835
_cell_volume 591.202627
_symmetry_space_group_name_H-M "P -1"
_symmetry_group_IT_number 2
_symmetry_cell_setting 'triclinic'
loop_
_space_group_symop_operation_xyz
x,y,z
-x,-y,-z
loop_
_atom_site_type_symbol
_atom_site_label
_atom_site_fract_x
_atom_site_fract_y
_atom_site_fract_z
Si Si1 0.642470 0.912570 0.912076
Si Si2 0.318995 0.665598 0.470396
Si Si3 0.116431 0.851925 0.203157
Si Si4 0.822052 0.856805 0.374130
Si Si5 0.522109 0.142743 0.416223
Si Si6 0.817369 0.542754 0.555856
Si Si7 0.713015 0.519695 0.161681
Si Si8 0.067976 0.245811 0.117408
O O1 0.601870 0.035094 0.181544
O O2 0.636560 0.740610 0.967611
O O3 0.573559 0.098705 0.684658
O O4 0.762198 0.710082 0.803280
O O5 0.214171 0.770653 0.343497
O O6 0.423076 0.421414 0.351160
O O7 0.328208 0.569251 0.749254
O O8 0.286269 0.892702 0.513030
O O9 0.095782 0.731391 0.362183
O O10 0.036104 0.123460 0.132238
O O11 0.172785 0.698714 0.952457
O O12 0.839017 0.648691 0.374479
O O13 0.904483 0.764680 0.592162
O O14 0.839729 0.902896 0.096020
O O15 0.500000 0.000000 0.500000
O O16 0.731051 0.592907 0.405411
O O17 0.000000 0.500000 0.000000
#
# Coordination Sequence:
#
# PCOD9056110 Si02
#       8
#     2   2   2   2   2   2   2   2
#     4  11  22  34  52  85 119 162 206 260 309 338
#     4  10  21  36  58  90 116 163 213 258 299 360
#     4   9  20  38  64  92 120 164 206 248 302 368
#     4  11  25  43  68  94 123 164 204 245 305 378
#     4  12  21  31  55  85 122 155 212 271 305 343
#     4  10  22  40  64  88 125 169 212 246 298 372
#     4  10  17  36  60  84 119 160 211 252 295 354
#     4  11  24  45  70  98 128 153 192 253 313 365
#
# _framework density 27.063479000000001
#
# number of rings (size 3 to 8) (size 9 to 14) (size 15 to 20)
#    0.000    1.500    3.750    2.250    5.250    0.000 
#    0.000    2.500    0.000    0.000    0.000    0.000 
#    0.000    0.000    0.000    0.000    0.000    0.000 
#
# Total GULP energy -89243.116509 kJ/mol
# GULP energy per Si atom -5577.694782 kJ/mol
# Density = 2.700188 g / cm^3
# Si number density = 27.063479 Si / 1000 Ang^3
#
#
#
# Elastic Constant Matrix: (Units=GPa)
#
#
# Indices 1 2 3 4 5 6 
#
# 1 61.8920 38.2152 24.4666 -3.9967 -15.0976 21.9205
# 2 38.2152 188.7541 21.6720 1.1709 5.6537 22.6416
# 3 24.4666 21.6720 144.3412 1.4775 -10.3642 3.9350
# 4 -3.9967 1.1709 1.4775 36.5311 -2.5420 -6.4210
# 5 -15.0976 5.6537 -10.3642 -2.5420 36.8657 -9.7601
# 6 21.9205 22.6416 3.9350 -6.4210 -9.7601 29.0238
#
#
#
# Elastic Compliance Matrix: (Units=1/GPa)
#
#
# Indices 1 2 3 4 5 6 
#
# 1 0.026255 -0.003468 -0.003070 0.001080 0.006735 -0.014205
# 2 -0.003468 0.006686 -0.000560 -0.001565 -0.003809 -0.004148
# 3 -0.003070 -0.000560 0.007584 -0.000128 0.001539 0.002217
# 4 0.001080 -0.001565 -0.000128 0.029402 0.004948 0.008591
# 5 0.006735 -0.003809 0.001539 0.004948 0.033938 0.010183
# 6 -0.014205 -0.004148 0.002217 0.008591 0.010183 0.053443
#
#
# Mechanical properties :
#
#
# Convention : Reuss Voigt Hill
#
# Bulk Modulus (GPa) = 37.98142 62.63278 50.30710
# Shear Modulus (GPa) = 27.73468 41.19301 34.46385
#
# Velocity S-wave (km/s) = 3.20472 3.90563 3.57241
# Velocity P-wave (km/s) = 5.26862 6.59786 5.97035
#
# Compressibility (1/GPa) = 0.02632867
#
# Stress axis : x y z
#
# Youngs Moduli (GPa) = 38.08734 149.57432 131.85790
#
# Poissons Ratio (x) = 0.51869 0.40480
# Poissons Ratio (y) = 0.13208 0.07389
# Poissons Ratio (z) = 0.11693 0.08382
#
# Static dielectric constant tensor:
#      x y z
#    x 2.223420 -0.062130 0.045000 
#    y -0.062130 2.182340 0.022580 
#    z 0.045000 0.022580 2.171820 
# 
# From -- ./inp_files/122596.got.cif
#   From: 2010.05.17/outbox.cif.g08.bks.cpg/sg2_62_cif.got.tgz:122596.got - 2010.06.03 11:33:40.
