data_PCOD9056030
_publ_section_title
;
Structure prediction by ZEFSAII (Michael W. Deem and Ramdas Pophale) SiO2 
 PCOD9056030
Probable space group: P -1
;
_chemical_formula_sum "Si O2"
_cell_formula_units_Z 15
_cell_length_a 6.696335
_cell_length_b 12.593149
_cell_length_c 7.105692
_cell_angle_alpha 78.675623
_cell_angle_beta 84.876896
_cell_angle_gamma 78.317472
_cell_volume 574.605260
_symmetry_space_group_name_H-M "P -1"
_symmetry_group_IT_number 2
_symmetry_cell_setting 'triclinic'
loop_
_space_group_symop_operation_xyz
x,y,z
-x,-y,-z
loop_
_atom_site_type_symbol
_atom_site_label
_atom_site_fract_x
_atom_site_fract_y
_atom_site_fract_z
Si Si1 0.431739 0.263140 0.285156
Si Si2 0.500000 0.000000 0.500000
Si Si3 0.495251 0.353542 0.647521
Si Si4 0.726395 0.118152 0.758622
Si Si5 0.952759 0.631004 0.922077
Si Si6 0.168730 0.546356 0.581033
Si Si7 0.869787 0.168705 0.109449
Si Si8 0.877018 0.892198 0.524420
O O1 0.436293 0.339572 0.438441
O O2 0.331756 0.161726 0.409893
O O3 0.282728 0.324653 0.119712
O O4 0.655025 0.221044 0.205850
O O5 0.599363 0.040230 0.684665
O O6 0.264257 0.004712 0.602581
O O7 0.561574 0.232114 0.760361
O O8 0.312644 0.444201 0.709691
O O9 0.694447 0.406298 0.597468
O O10 0.822073 0.096530 0.963636
O O11 0.919651 0.141198 0.606178
O O12 0.062854 0.636656 0.706048
O O13 0.039860 0.721127 0.006401
O O14 0.000000 0.500000 0.000000
O O15 0.000000 0.500000 0.500000
O O16 0.035863 0.114768 0.268935
#
# Coordination Sequence:
#
# PCOD9056030 Si02
#       8
#     2   1   2   2   2   2   2   2
#     4  11  21  45  69  94 144 191 228 293 350 407
#     4  12  26  48  82 108 134 180 236 298 358 438
#     4  11  22  40  66  94 131 187 238 278 345 416
#     4  12  27  46  76 106 139 186 236 289 362 427
#     4  11  25  38  60 100 147 183 241 292 338 413
#     4  11  23  37  61  95 133 189 237 284 339 401
#     4  11  26  46  70 105 146 190 229 295 355 421
#     4  11  24  49  74 103 140 178 230 292 359 428
#
# _framework density 26.104876999999998
#
# number of rings (size 3 to 8) (size 9 to 14) (size 15 to 20)
#    0.000    0.800    5.333    1.200    3.733    3.200 
#    0.000    3.333    0.000    0.000    0.000    0.000 
#    0.000    0.000    0.000    0.000    0.000    0.000 
#
# Total GULP energy -83606.753065 kJ/mol
# GULP energy per Si atom -5573.783538 kJ/mol
# Density = 2.604546 g / cm^3
# Si number density = 26.104877 Si / 1000 Ang^3
#
#
#
# Elastic Constant Matrix: (Units=GPa)
#
#
# Indices 1 2 3 4 5 6 
#
# 1 170.4909 58.3518 41.4873 0.8831 30.5182 -9.4540
# 2 58.3518 95.6530 14.6745 2.1635 17.2303 -1.1090
# 3 41.4873 14.6745 113.9001 16.9452 26.5949 -4.2047
# 4 0.8831 2.1635 16.9452 44.4976 3.7201 8.3674
# 5 30.5182 17.2303 26.5949 3.7201 30.3915 1.5686
# 6 -9.4540 -1.1090 -4.2047 8.3674 1.5686 62.0253
#
#
#
# Elastic Compliance Matrix: (Units=1/GPa)
#
#
# Indices 1 2 3 4 5 6 
#
# 1 0.008618 -0.004100 -0.001474 0.000805 -0.005199 0.001163
# 2 -0.004100 0.013603 0.000795 -0.000501 -0.004223 -0.000153
# 3 -0.001474 0.000795 0.011979 -0.004076 -0.009025 0.001380
# 4 0.000805 -0.000501 -0.004076 0.024674 0.000202 -0.003496
# 5 -0.005199 -0.004223 -0.009025 0.000202 0.048533 -0.002734
# 6 0.001163 -0.000153 0.001380 -0.003496 -0.002734 0.016931
#
#
# Mechanical properties :
#
#
# Convention : Reuss Voigt Hill
#
# Bulk Modulus (GPa) = 40.57750 67.67460 54.12605
# Shear Modulus (GPa) = 35.18422 45.08489 40.13456
#
# Velocity S-wave (km/s) = 3.67523 4.16031 3.92527
# Velocity P-wave (km/s) = 5.79547 7.00414 6.42828
#
# Compressibility (1/GPa) = 0.02464420
#
# Stress axis : x y z
#
# Youngs Moduli (GPa) = 116.03535 73.51067 83.48127
#
# Poissons Ratio (x) = 0.30136 0.12305
# Poissons Ratio (y) = 0.47569 -0.06640
# Poissons Ratio (z) = 0.17103 -0.05847
#
# Static dielectric constant tensor:
#      x y z
#    x 1.987910 0.094760 -0.112840 
#    y 0.094760 1.693840 0.184160 
#    z -0.112840 0.184160 1.953220 
# 
# From -- ./inp_files/133237.got.cif
#   From: 2010.05.17/outbox.cif.g08.bks.cpg/sg2_67_cif.got.tgz:133237.got - 2010.06.03 11:33:40.
