data_PCOD9056868
_publ_section_title
;
Structure prediction by ZEFSAII (Michael W. Deem and Ramdas Pophale) SiO2 
 PCOD9056868
Probable space group: P -1
;
_chemical_formula_sum "Si O2"
_cell_formula_units_Z 15
_cell_length_a 11.469594
_cell_length_b 13.010044
_cell_length_c 8.604356
_cell_angle_alpha 127.622749
_cell_angle_beta 45.734373
_cell_angle_gamma 111.569451
_cell_volume 724.365265
_symmetry_space_group_name_H-M "P -1"
_symmetry_group_IT_number 2
_symmetry_cell_setting 'triclinic'
loop_
_space_group_symop_operation_xyz
x,y,z
-x,-y,-z
loop_
_atom_site_type_symbol
_atom_site_label
_atom_site_fract_x
_atom_site_fract_y
_atom_site_fract_z
Si Si1 0.074968 0.571880 0.640503
Si Si2 0.653421 0.066415 0.987279
Si Si3 0.138379 0.216637 0.767539
Si Si4 0.000000 0.000000 0.500000
Si Si5 0.372171 0.661131 0.911512
Si Si6 0.610402 0.362786 0.769370
Si Si7 0.522868 0.879302 0.483189
Si Si8 0.255329 0.424362 0.609435
O O1 0.238929 0.626726 0.476011
O O2 0.128779 0.470494 0.634705
O O3 0.000000 0.500000 0.500000
O O4 0.952964 0.687931 0.931403
O O5 0.669947 0.198952 0.998393
O O6 0.608622 0.099773 0.236760
O O7 0.819910 0.976555 0.719588
O O8 0.500000 0.000000 0.000000
O O9 0.020851 0.116460 0.716199
O O10 0.298692 0.138468 0.621649
O O11 0.196827 0.312403 0.668716
O O12 0.282371 0.550498 0.806081
O O13 0.566997 0.622622 0.672277
O O14 0.331114 0.666212 0.136033
O O15 0.505342 0.251348 0.703335
O O16 0.500000 0.500000 0.000000
O O17 0.500000 0.000000 0.500000
#
# Coordination Sequence:
#
# PCOD9056868 Si02
#       8
#     2   2   2   1   2   2   2   2
#     4  12  26  45  69 110 147 182 231 308 374 430
#     4  12  24  49  71 103 142 193 247 296 357 439
#     4  12  26  47  72 105 145 192 243 306 359 443
#     4  12  26  46  76 102 140 188 256 292 354 430
#     4  11  22  40  76 101 134 189 243 291 361 435
#     4  12  24  43  70 103 143 184 235 299 367 431
#     4  12  26  48  73 104 146 195 245 302 373 434
#     4  11  22  43  72 104 138 187 241 296 364 434
#
# _framework density 20.707787
#
# number of rings (size 3 to 8) (size 9 to 14) (size 15 to 20)
#    0.000    0.267    4.000    6.000    0.000    1.067 
#    2.400    1.333    0.000    0.000    0.000    0.000 
#    0.000    0.000    0.000    0.000    0.000    0.000 
#
# Total GULP energy -83761.664971 kJ/mol
# GULP energy per Si atom -5584.110998 kJ/mol
# Density = 2.066065 g / cm^3
# Si number density = 20.707787 Si / 1000 Ang^3
#
#
#
# Elastic Constant Matrix: (Units=GPa)
#
#
# Indices 1 2 3 4 5 6 
#
# 1 113.1814 51.5963 33.0930 2.4128 11.3029 1.9067
# 2 51.5963 122.6638 20.5339 0.2332 10.2643 -3.1766
# 3 33.0930 20.5339 121.8675 -4.5713 5.4710 -8.3782
# 4 2.4128 0.2332 -4.5713 32.5106 11.5457 12.1689
# 5 11.3029 10.2643 5.4710 11.5457 35.0988 -1.3064
# 6 1.9067 -3.1766 -8.3782 12.1689 -1.3064 52.5469
#
#
#
# Elastic Compliance Matrix: (Units=1/GPa)
#
#
# Indices 1 2 3 4 5 6 
#
# 1 0.011790 -0.004398 -0.002441 0.000013 -0.002177 -0.001140
# 2 -0.004398 0.010222 -0.000393 0.000597 -0.001688 0.000535
# 3 -0.002441 -0.000393 0.009108 0.001348 -0.000918 0.001182
# 4 0.000013 0.000597 0.001348 0.039217 -0.013631 -0.009170
# 5 -0.002177 -0.001688 -0.000918 -0.013631 0.034456 0.003844
# 6 -0.001140 0.000535 0.001182 -0.009170 0.003844 0.021512
#
#
# Mechanical properties :
#
#
# Convention : Reuss Voigt Hill
#
# Bulk Modulus (GPa) = 60.03784 63.12878 61.58331
# Shear Modulus (GPa) = 34.17146 40.86388 37.51767
#
# Velocity S-wave (km/s) = 4.06664 4.44707 4.26110
# Velocity P-wave (km/s) = 7.14884 7.54455 7.34936
#
# Compressibility (1/GPa) = 0.01665616
#
# Stress axis : x y z
#
# Youngs Moduli (GPa) = 84.81499 97.82651 109.79723
#
# Poissons Ratio (x) = 0.43026 0.26799
# Poissons Ratio (y) = 0.37303 0.04316
# Poissons Ratio (z) = 0.20701 0.03845
#
# Static dielectric constant tensor:
#      x y z
#    x 1.747380 -0.001650 -0.012220 
#    y -0.001650 1.686420 0.025680 
#    z -0.012220 0.025680 1.737320 
# 
# From -- ./inp_files/263282.got.cif
#   From: 2010.05.17/outbox.cif.g08.bks.cpg/sg2_132_cif.got.tgz:263282.got - 2010.06.03 11:33:40.
