data_PCOD9056710
_publ_section_title
;
Structure prediction by ZEFSAII (Michael W. Deem and Ramdas Pophale) SiO2 
 PCOD9056710
Probable space group: P -1
;
_chemical_formula_sum "Si O2"
_cell_formula_units_Z 16
_cell_length_a 15.689719
_cell_length_b 6.622583
_cell_length_c 16.343843
_cell_angle_alpha 55.725263
_cell_angle_beta 145.242115
_cell_angle_gamma 127.641272
_cell_volume 759.523853
_symmetry_space_group_name_H-M "P -1"
_symmetry_group_IT_number 2
_symmetry_cell_setting 'triclinic'
loop_
_space_group_symop_operation_xyz
x,y,z
-x,-y,-z
loop_
_atom_site_type_symbol
_atom_site_label
_atom_site_fract_x
_atom_site_fract_y
_atom_site_fract_z
Si Si1 0.931112 0.321547 0.090437
Si Si2 0.883696 0.266412 0.412609
Si Si3 0.540301 0.822150 0.640057
Si Si4 0.079958 0.906282 0.687712
Si Si5 0.877358 0.116530 0.920023
Si Si6 0.591884 0.323524 0.797283
Si Si7 0.433879 0.229202 0.867516
Si Si8 0.439859 0.767316 0.748286
O O1 0.938778 0.199375 0.211822
O O2 0.077608 0.577860 0.133784
O O3 0.906836 0.125798 0.039381
O O4 0.773769 0.407244 0.947040
O O5 0.904754 0.292744 0.325134
O O6 0.713239 0.242475 0.318140
O O7 0.000000 0.500000 0.500000
O O8 0.937358 0.016295 0.530656
O O9 0.554250 0.559901 0.671126
O O10 0.417541 0.746904 0.636807
O O11 0.500000 0.000000 0.500000
O O12 0.707792 0.962811 0.784041
O O13 0.247777 0.131603 0.760535
O O14 0.000000 0.000000 0.000000
O O15 0.481399 0.259536 0.803828
O O16 0.556920 0.052906 0.787398
O O17 0.496597 0.527818 0.878003
O O18 0.500000 0.000000 0.000000
#
# Coordination Sequence:
#
# PCOD9056710 Si02
#       8
#     2   2   2   2   2   2   2   2
#     4  11  24  43  70  99 133 183 235 289 356 407
#     4  11  24  44  63  96 145 182 226 280 345 425
#     4  11  26  44  71 103 136 187 240 291 361 423
#     4  11  24  42  68 101 133 184 234 281 345 433
#     4  11  24  46  68  98 140 174 233 301 348 415
#     4  11  22  43  67 100 137 176 229 293 343 422
#     4  11  22  40  67 102 137 173 226 280 345 417
#     4  11  24  43  68  97 140 185 224 292 347 416
#
# _framework density 21.065829000000001
#
# number of rings (size 3 to 8) (size 9 to 14) (size 15 to 20)
#    0.000    1.000    6.250    0.000    0.000    5.000 
#    2.250    0.000    0.000    0.000    0.000    0.000 
#    0.000    0.000    0.000    0.000    0.000    0.000 
#
# Total GULP energy -89253.597111 kJ/mol
# GULP energy per Si atom -5578.349819 kJ/mol
# Density = 2.101788 g / cm^3
# Si number density = 21.065829 Si / 1000 Ang^3
#
#
#
# Elastic Constant Matrix: (Units=GPa)
#
#
# Indices 1 2 3 4 5 6 
#
# 1 119.3126 24.7028 45.5396 -8.5710 -16.8138 -20.5827
# 2 24.7028 131.8086 37.6904 -8.4674 -3.1987 -20.2370
# 3 45.5396 37.6904 80.5723 -27.0767 -9.5001 -15.8073
# 4 -8.5710 -8.4674 -27.0767 38.1543 0.1665 2.0738
# 5 -16.8138 -3.1987 -9.5001 0.1665 36.3132 0.5756
# 6 -20.5827 -20.2370 -15.8073 2.0738 0.5756 26.1352
#
#
#
# Elastic Compliance Matrix: (Units=1/GPa)
#
#
# Indices 1 2 3 4 5 6 
#
# 1 0.012069 0.000368 -0.005872 -0.001733 0.003993 0.006288
# 2 0.000368 0.009375 -0.003856 -0.000860 -0.000092 0.005287
# 3 -0.005872 -0.003856 0.023834 0.014422 0.003022 0.005595
# 4 -0.001733 -0.000860 0.014422 0.035646 0.002671 0.003804
# 5 0.003993 -0.000092 0.003022 0.002671 0.030093 0.004026
# 6 0.006288 0.005287 0.005595 0.003804 0.004026 0.050302
#
#
# Mechanical properties :
#
#
# Convention : Reuss Voigt Hill
#
# Bulk Modulus (GPa) = 37.65257 60.83991 49.24624
# Shear Modulus (GPa) = 26.47021 35.03792 30.75407
#
# Velocity S-wave (km/s) = 3.54863 4.08273 3.82501
# Velocity P-wave (km/s) = 5.89092 7.15321 6.55253
#
# Compressibility (1/GPa) = 0.02655861
#
# Stress axis : x y z
#
# Youngs Moduli (GPa) = 82.85509 106.67095 41.95616
#
# Poissons Ratio (x) = -0.03926 0.24636
# Poissons Ratio (y) = -0.03050 0.16179
# Poissons Ratio (z) = 0.48650 0.41134
#
# Static dielectric constant tensor:
#      x y z
#    x 1.774410 -0.020820 0.002910 
#    y -0.020820 1.808240 -0.007230 
#    z 0.002910 -0.007230 1.718600 
# 
# From -- ./inp_files/428911.got.cif
#   From: 2010.05.17/outbox.cif.g08.bks.cpg/sg2_215_cif.got.tgz:428911.got - 2010.06.03 11:33:40.
