data_PCOD9056881
_publ_section_title
;
Structure prediction by ZEFSAII (Michael W. Deem and Ramdas Pophale) SiO2 
 PCOD9056881
Probable space group: P -1
;
_chemical_formula_sum "Si O2"
_cell_formula_units_Z 16
_cell_length_a 4.857613
_cell_length_b 14.510417
_cell_length_c 16.225469
_cell_angle_alpha 57.670245
_cell_angle_beta 90.189927
_cell_angle_gamma 118.530252
_cell_volume 798.569828
_symmetry_space_group_name_H-M "P -1"
_symmetry_group_IT_number 2
_symmetry_cell_setting 'triclinic'
loop_
_space_group_symop_operation_xyz
x,y,z
-x,-y,-z
loop_
_atom_site_type_symbol
_atom_site_label
_atom_site_fract_x
_atom_site_fract_y
_atom_site_fract_z
Si Si1 0.839716 0.023589 0.067546
Si Si2 0.945006 0.119879 0.454031
Si Si3 0.368602 0.699853 0.418348
Si Si4 0.949489 0.002195 0.258041
Si Si5 0.548637 0.067628 0.329345
Si Si6 0.608169 0.371424 0.731375
Si Si7 0.750715 0.641290 0.551733
Si Si8 0.136173 0.779473 0.136236
O O1 0.016643 0.027140 0.149700
O O2 0.452811 0.900993 0.127486
O O3 0.864371 0.156214 0.980953
O O4 0.000000 0.000000 0.000000
O O5 0.833650 0.158718 0.352635
O O6 0.228728 0.252455 0.435561
O O7 0.651066 0.060168 0.550125
O O8 0.000000 0.000000 0.500000
O O9 0.717028 0.845360 0.350962
O O10 0.303195 0.659318 0.342813
O O11 0.443359 0.603137 0.510939
O O12 0.071775 0.695482 0.466711
O O13 0.714857 0.049042 0.260788
O O14 0.262562 0.076822 0.284333
O O15 0.706998 0.519274 0.658628
O O16 0.790264 0.332550 0.814442
O O17 0.212520 0.277083 0.792152
#
# Coordination Sequence:
#
# PCOD9056881 Si02
#       8
#     2   2   2   2   2   2   2   2
#     4  11  24  40  65  90 124 162 203 257 320 359
#     4  11  22  41  61  86 128 160 213 261 304 347
#     4  12  21  37  55  88 127 165 208 237 289 374
#     4  12  22  36  61  90 123 158 200 245 319 365
#     4  11  23  36  57  88 120 158 199 260 298 357
#     4  12  24  40  58  86 130 167 211 242 295 377
#     4  12  25  38  59  87 122 177 202 245 307 363
#     4  11  23  40  59  87 119 163 205 254 297 354
#
# _framework density 20.035817000000002
#
# number of rings (size 3 to 8) (size 9 to 14) (size 15 to 20)
#    0.000    0.500    6.250    2.250    7.000    0.000 
#    0.000    0.000    0.000    0.000    0.000    5.250 
#    0.000    0.000    0.000    0.000    0.000    0.000 
#
# Total GULP energy -89274.202525 kJ/mol
# GULP energy per Si atom -5579.637658 kJ/mol
# Density = 1.999021 g / cm^3
# Si number density = 20.035817 Si / 1000 Ang^3
#
#
#
# Elastic Constant Matrix: (Units=GPa)
#
#
# Indices 1 2 3 4 5 6 
#
# 1 104.2284 14.1018 32.6824 -0.6605 0.2209 -6.1137
# 2 14.1018 55.3813 36.0331 0.2648 -3.9714 -6.9617
# 3 32.6824 36.0331 102.3715 4.2235 13.1029 2.0533
# 4 -0.6605 0.2648 4.2235 29.0491 -3.0194 7.9694
# 5 0.2209 -3.9714 13.1029 -3.0194 36.6979 3.1812
# 6 -6.1137 -6.9617 2.0533 7.9694 3.1812 24.3216
#
#
#
# Elastic Compliance Matrix: (Units=1/GPa)
#
#
# Indices 1 2 3 4 5 6 
#
# 1 0.010915 0.000067 -0.003701 0.000093 0.001018 0.002912
# 2 0.000067 0.025927 -0.010018 -0.000279 0.005698 0.007630
# 3 -0.003701 -0.010018 0.015449 -0.001909 -0.006420 -0.003637
# 4 0.000093 -0.000279 -0.001909 0.038871 0.005001 -0.013287
# 5 0.001018 0.005698 -0.006420 0.005001 0.030845 -0.003244
# 6 0.002912 0.007630 -0.003637 -0.013287 -0.003244 0.049117
#
#
# Mechanical properties :
#
#
# Convention : Reuss Voigt Hill
#
# Bulk Modulus (GPa) = 40.01970 47.51288 43.76629
# Shear Modulus (GPa) = 24.18306 29.95799 27.07052
#
# Velocity S-wave (km/s) = 3.47795 3.87100 3.67973
# Velocity P-wave (km/s) = 6.01212 6.61400 6.32023
#
# Compressibility (1/GPa) = 0.02498769
#
# Stress axis : x y z
#
# Youngs Moduli (GPa) = 91.61792 38.57034 64.72745
#
# Poissons Ratio (x) = -0.00259 0.23954
# Poissons Ratio (y) = -0.00616 0.64844
# Poissons Ratio (z) = 0.33906 0.38640
#
# Static dielectric constant tensor:
#      x y z
#    x 1.768690 0.016670 0.020670 
#    y 0.016670 1.764580 -0.021070 
#    z 0.020670 -0.021070 1.725050 
# 
# From -- ./inp_files/483575.got.cif
#   From: 2010.05.17/outbox.cif.g08.bks.cpg/sg2_242_cif.got.tgz:483575.got - 2010.06.03 11:33:40.
