data_PCOD9056656
_publ_section_title
;
Structure prediction by ZEFSAII (Michael W. Deem and Ramdas Pophale) SiO2 
 PCOD9056656
Probable space group: P -1
;
_chemical_formula_sum "Si O2"
_cell_formula_units_Z 12
_cell_length_a 19.639195
_cell_length_b 17.552752
_cell_length_c 10.920003
_cell_angle_alpha 31.293087
_cell_angle_beta 20.252300
_cell_angle_gamma 22.573387
_cell_volume 498.228358
_symmetry_space_group_name_H-M "P -1"
_symmetry_group_IT_number 2
_symmetry_cell_setting 'triclinic'
loop_
_space_group_symop_operation_xyz
x,y,z
-x,-y,-z
loop_
_atom_site_type_symbol
_atom_site_label
_atom_site_fract_x
_atom_site_fract_y
_atom_site_fract_z
Si Si1 0.332284 0.668146 0.156965
Si Si2 0.992406 0.938827 0.962361
Si Si3 0.500244 0.852413 0.121369
Si Si4 0.878393 0.909852 0.768310
Si Si5 0.233543 0.522768 0.117610
Si Si6 0.050228 0.569066 0.120599
O O1 0.046523 0.768966 0.558117
O O2 0.500000 0.500000 0.000000
O O3 0.508013 0.565750 0.121821
O O4 0.256547 0.866492 0.958115
O O5 0.269164 0.855970 0.549592
O O6 0.004975 0.759229 0.199813
O O7 0.000000 0.000000 0.000000
O O8 0.413607 0.924750 0.026231
O O9 0.788471 0.630868 0.955440
O O10 0.500000 0.000000 0.000000
O O11 0.000000 0.000000 0.500000
O O12 0.912521 0.767480 0.007226
O O13 0.270281 0.510145 0.928470
O O14 0.149585 0.415176 0.473275
#
# Coordination Sequence:
#
# PCOD9056656 Si02
#       6
#     2   2   2   2   2   2
#     4  11  23  40  68  98 129 172 223 274 330 398
#     4  11  22  40  65  93 133 174 218 270 333 399
#     4  11  25  42  67 102 135 171 223 281 337 392
#     4  11  25  47  71  98 133 180 228 275 338 406
#     4  11  24  43  65  98 133 177 225 271 336 400
#     4  11  25  43  68  96 136 176 222 279 331 403
#
# _framework density 24.085339000000001
#
# number of rings (size 3 to 8) (size 9 to 14) (size 15 to 20)
#    0.000    1.000    1.667    5.000    2.333    5.333 
#    0.000    4.167    0.000    0.000    0.000    0.000 
#    0.000    0.000    0.000    0.000    0.000    0.000 
#
# Total GULP energy -66996.449835 kJ/mol
# GULP energy per Si atom -5583.037486 kJ/mol
# Density = 2.403052 g / cm^3
# Si number density = 24.085339 Si / 1000 Ang^3
#
#
#
# Elastic Constant Matrix: (Units=GPa)
#
#
# Indices 1 2 3 4 5 6 
#
# 1 87.8091 38.7190 -2.0365 -17.9887 1.2097 -14.7782
# 2 38.7190 150.9335 21.9808 -29.7905 5.3187 -21.4410
# 3 -2.0365 21.9808 63.7840 -11.8619 11.5145 -2.6893
# 4 -17.9887 -29.7905 -11.8619 41.4764 -3.6924 10.0851
# 5 1.2097 5.3187 11.5145 -3.6924 36.3756 -3.6351
# 6 -14.7782 -21.4410 -2.6893 10.0851 -3.6351 58.4087
#
#
#
# Elastic Compliance Matrix: (Units=1/GPa)
#
#
# Indices 1 2 3 4 5 6 
#
# 1 0.013844 -0.002789 0.002291 0.004191 -0.000167 0.001850
# 2 -0.002789 0.008698 -0.002297 0.003978 0.000122 0.001702
# 3 0.002291 -0.002297 0.018233 0.004216 -0.005131 -0.000471
# 4 0.004191 0.003978 0.004216 0.030678 0.000805 -0.002532
# 5 -0.000167 0.000122 -0.005131 0.000805 0.029330 0.001452
# 6 0.001850 0.001702 -0.000471 -0.002532 0.001452 0.018720
#
#
# Mechanical properties :
#
#
# Convention : Reuss Voigt Hill
#
# Bulk Modulus (GPa) = 28.42165 46.65034 37.53599
# Shear Modulus (GPa) = 36.54422 43.50972 40.02697
#
# Velocity S-wave (km/s) = 3.89945 4.25488 4.08104
# Velocity P-wave (km/s) = 5.66572 6.59921 6.15020
#
# Compressibility (1/GPa) = 0.03518444
#
# Stress axis : x y z
#
# Youngs Moduli (GPa) = 72.23573 114.96848 54.84541
#
# Poissons Ratio (x) = 0.32064 -0.12564
# Poissons Ratio (y) = 0.20146 0.12598
# Poissons Ratio (z) = -0.16548 0.26408
#
# Static dielectric constant tensor:
#      x y z
#    x 2.051680 0.042320 -0.145670 
#    y 0.042320 2.019020 0.041490 
#    z -0.145670 0.041490 2.159680 
# 
# From -- ./inp_files/472312.got.cif
#   From: 2010.05.17/outbox.cif.g08.bks.cpg/sg2_237_cif.got.tgz:472312.got - 2010.06.03 11:33:40.
