data_PCOD9056154
_publ_section_title
;
Structure prediction by ZEFSAII (Michael W. Deem and Ramdas Pophale) SiO2 
 PCOD9056154
Probable space group: P -1
;
_chemical_formula_sum "Si O2"
_cell_formula_units_Z 16
_cell_length_a 8.457054
_cell_length_b 14.445300
_cell_length_c 12.407984
_cell_angle_alpha 97.976131
_cell_angle_beta 104.559425
_cell_angle_gamma 31.285447
_cell_volume 753.112969
_symmetry_space_group_name_H-M "P -1"
_symmetry_group_IT_number 2
_symmetry_cell_setting 'triclinic'
loop_
_space_group_symop_operation_xyz
x,y,z
-x,-y,-z
loop_
_atom_site_type_symbol
_atom_site_label
_atom_site_fract_x
_atom_site_fract_y
_atom_site_fract_z
Si Si1 0.865413 0.299323 0.523391
Si Si2 0.186112 0.317380 0.464826
Si Si3 0.862028 0.848651 0.030796
Si Si4 0.232228 0.522085 0.764797
Si Si5 0.773890 0.525462 0.997380
Si Si6 0.899944 0.181188 0.717887
Si Si7 0.111389 0.015102 0.380145
Si Si8 0.882883 0.206537 0.156178
O O1 0.500000 0.500000 0.500000
O O2 0.972297 0.226045 0.651323
O O3 0.054098 0.290434 0.498855
O O4 0.901637 0.188535 0.440577
O O5 0.000000 0.500000 0.500000
O O6 0.089954 0.350135 0.328900
O O7 0.548299 0.149402 0.531998
O O8 0.947560 0.869362 0.150934
O O9 0.066544 0.652759 0.033150
O O10 0.939915 0.865204 0.937419
O O11 0.500000 0.000000 0.000000
O O12 0.274759 0.454857 0.878163
O O13 0.525979 0.356501 0.709718
O O14 0.221272 0.638767 0.799089
O O15 0.436936 0.694015 0.907066
O O16 0.000000 0.500000 0.000000
O O17 0.004958 0.033595 0.657565
O O18 0.100121 0.057256 0.261985
#
# Coordination Sequence:
#
# PCOD9056154 Si02
#       8
#     2   2   2   2   2   2   2   2
#     4  12  25  45  70 100 138 182 238 288 346 417
#     4  12  25  45  70 103 138 186 235 285 353 416
#     4  11  26  44  70 104 138 183 233 292 358 417
#     4  11  21  48  70  95 145 189 224 294 354 411
#     4  11  25  45  73 104 132 188 241 287 354 422
#     4  12  24  45  68 101 145 181 230 293 353 417
#     4  12  27  44  70 104 139 190 231 287 358 418
#     4  11  23  47  72  96 144 186 233 290 353 419
#
# _framework density 21.245152999999998
#
# number of rings (size 3 to 8) (size 9 to 14) (size 15 to 20)
#    0.000    0.500    6.250    1.500    3.500    3.500 
#    2.250    0.000    0.000    0.000    0.000    0.000 
#    0.000    0.000    0.000    0.000    0.000    0.000 
#
# Total GULP energy -89536.045838 kJ/mol
# GULP energy per Si atom -5596.002865 kJ/mol
# Density = 2.119680 g / cm^3
# Si number density = 21.245153 Si / 1000 Ang^3
#
#
#
# Elastic Constant Matrix: (Units=GPa)
#
#
# Indices 1 2 3 4 5 6 
#
# 1 60.9957 18.3985 30.6067 4.5206 10.9559 5.1633
# 2 18.3985 90.4701 40.5269 1.9125 14.6820 -2.6026
# 3 30.6067 40.5269 145.8106 -7.3858 15.9964 -1.2139
# 4 4.5206 1.9125 -7.3858 34.4114 -3.0905 6.7339
# 5 10.9559 14.6820 15.9964 -3.0905 34.6946 -8.7919
# 6 5.1633 -2.6026 -1.2139 6.7339 -8.7919 28.4047
#
#
#
# Elastic Compliance Matrix: (Units=1/GPa)
#
#
# Indices 1 2 3 4 5 6 
#
# 1 0.020250 -0.001806 -0.003314 -0.002785 -0.005636 -0.005072
# 2 -0.001806 0.013428 -0.003025 -0.001621 -0.003692 0.000671
# 3 -0.003314 -0.003025 0.008683 0.002397 -0.001553 -0.000353
# 4 -0.002785 -0.001621 0.002397 0.031447 0.001616 -0.006495
# 5 -0.005636 -0.003692 -0.001553 0.001616 0.035901 0.011349
# 6 -0.005072 0.000671 -0.000353 -0.006495 0.011349 0.041226
#
#
# Mechanical properties :
#
#
# Convention : Reuss Voigt Hill
#
# Bulk Modulus (GPa) = 38.35408 52.92672 45.64040
# Shear Modulus (GPa) = 28.42270 33.35176 30.88723
#
# Velocity S-wave (km/s) = 3.66162 3.96643 3.81707
# Velocity P-wave (km/s) = 5.99741 6.77815 6.39969
#
# Compressibility (1/GPa) = 0.02607285
#
# Stress axis : x y z
#
# Youngs Moduli (GPa) = 49.38216 74.46921 115.16376
#
# Poissons Ratio (x) = 0.13451 0.38161
# Poissons Ratio (y) = 0.08920 0.34833
# Poissons Ratio (z) = 0.16363 0.22524
#
# Static dielectric constant tensor:
#      x y z
#    x 1.778660 -0.014370 0.033080 
#    y -0.014370 1.801400 -0.039120 
#    z 0.033080 -0.039120 1.828020 
# 
# From -- ./inp_files/215158.got.cif
#   From: 2010.05.17/outbox.cif.g08.bks.cpg/sg2_108_cif.got.tgz:215158.got - 2010.06.03 11:33:40.
