data_PCOD9056635
_publ_section_title
;
Structure prediction by ZEFSAII (Michael W. Deem and Ramdas Pophale) SiO2 
 PCOD9056635
Probable space group: P -1
;
_chemical_formula_sum "Si O2"
_cell_formula_units_Z 16
_cell_length_a 15.790529
_cell_length_b 13.288861
_cell_length_c 10.293741
_cell_angle_alpha 75.646567
_cell_angle_beta 32.329600
_cell_angle_gamma 54.365288
_cell_volume 776.371501
_symmetry_space_group_name_H-M "P -1"
_symmetry_group_IT_number 2
_symmetry_cell_setting 'triclinic'
loop_
_space_group_symop_operation_xyz
x,y,z
-x,-y,-z
loop_
_atom_site_type_symbol
_atom_site_label
_atom_site_fract_x
_atom_site_fract_y
_atom_site_fract_z
Si Si1 0.473469 0.697328 0.425140
Si Si2 0.075276 0.953413 0.710528
Si Si3 0.651865 0.664489 0.696554
Si Si4 0.209815 0.980661 0.271751
Si Si5 0.643682 0.304577 0.150139
Si Si6 0.425906 0.451732 0.937148
Si Si7 0.944054 0.569857 0.908187
Si Si8 0.947009 0.244805 0.356421
O O1 0.456452 0.633487 0.595447
O O2 0.525171 0.618950 0.245613
O O3 0.230018 0.866619 0.663403
O O4 0.677957 0.679214 0.192604
O O5 0.230664 0.942826 0.407569
O O6 0.849837 0.127675 0.952255
O O7 0.984841 0.133680 0.238207
O O8 0.540600 0.658275 0.719383
O O9 0.904266 0.568495 0.347189
O O10 0.453164 0.839943 0.936157
O O11 0.677790 0.578005 0.815754
O O12 0.000000 0.000000 0.500000
O O13 0.107731 0.136782 0.303344
O O14 0.712322 0.379110 0.968794
O O15 0.676763 0.362491 0.698232
O O16 0.002836 0.663777 0.786950
O O17 0.000000 0.500000 0.000000
#
# Coordination Sequence:
#
# PCOD9056635 Si02
#       8
#     2   2   2   2   2   2   2   2
#     4  11  24  44  56  90 138 167 193 257 317 372
#     4  10  21  39  66  94 125 153 214 261 309 356
#     4  12  21  38  68  93 121 159 217 255 306 360
#     4  10  17  36  62  95 123 148 204 270 303 346
#     4  12  21  37  70  96 121 159 215 261 307 362
#     4  11  22  38  66  97 119 159 215 267 307 348
#     4  12  26  42  60  91 132 169 204 249 311 385
#     4  10  19  37  66  93 122 161 207 260 304 359
#
# _framework density 20.608692000000001
#
# number of rings (size 3 to 8) (size 9 to 14) (size 15 to 20)
#    0.000    1.000    8.750    1.125    1.750    1.500 
#    0.000    4.375    0.000    0.000    0.000    0.000 
#    0.000    0.000    0.000    0.000    0.000    0.000 
#
# Total GULP energy -89246.777893 kJ/mol
# GULP energy per Si atom -5577.923618 kJ/mol
# Density = 2.056179 g / cm^3
# Si number density = 20.608692 Si / 1000 Ang^3
#
#
#
# Elastic Constant Matrix: (Units=GPa)
#
#
# Indices 1 2 3 4 5 6 
#
# 1 48.8834 25.6241 12.6050 -0.1056 10.6647 -20.9106
# 2 25.6241 119.3507 28.7359 -1.9779 7.3011 -11.8456
# 3 12.6050 28.7359 73.6573 -0.3978 14.0926 1.5544
# 4 -0.1056 -1.9779 -0.3978 34.4802 -9.5785 8.9323
# 5 10.6647 7.3011 14.0926 -9.5785 29.4852 -8.9409
# 6 -20.9106 -11.8456 1.5544 8.9323 -8.9409 25.3123
#
#
#
# Elastic Compliance Matrix: (Units=1/GPa)
#
#
# Indices 1 2 3 4 5 6 
#
# 1 0.038350 -0.003724 -0.005110 -0.009582 -0.003831 0.032280
# 2 -0.003724 0.010207 -0.003652 0.000316 0.001364 0.002295
# 3 -0.005110 -0.003652 0.017769 0.000182 -0.008769 -0.010184
# 4 -0.009582 0.000316 0.000182 0.036153 0.009875 -0.017048
# 5 -0.003831 0.001364 -0.008769 0.009875 0.045586 0.010629
# 6 0.032280 0.002295 -0.010184 -0.017048 0.010629 0.077643
#
#
# Mechanical properties :
#
#
# Convention : Reuss Voigt Hill
#
# Bulk Modulus (GPa) = 24.18162 41.75794 32.96978
# Shear Modulus (GPa) = 18.90607 29.51732 24.21170
#
# Velocity S-wave (km/s) = 3.03212 3.78865 3.43130
# Velocity P-wave (km/s) = 4.90077 6.28051 5.63304
#
# Compressibility (1/GPa) = 0.04135372
#
# Stress axis : x y z
#
# Youngs Moduli (GPa) = 26.07568 97.97059 56.27621
#
# Poissons Ratio (x) = 0.36483 0.28758
# Poissons Ratio (y) = 0.09710 0.20555
# Poissons Ratio (z) = 0.13325 0.35784
#
# Static dielectric constant tensor:
#      x y z
#    x 1.769880 -0.007450 0.036820 
#    y -0.007450 1.748310 0.032110 
#    z 0.036820 0.032110 1.764850 
# 
# From -- ./inp_files/315022.got.cif
#   From: 2010.05.17/outbox.cif.g08.bks.cpg/sg2_158_cif.got.tgz:315022.got - 2010.06.03 11:33:40.
