data_PCOD9056105
_publ_section_title
;
Structure prediction by ZEFSAII (Michael W. Deem and Ramdas Pophale) SiO2 
 PCOD9056105
Probable space group: P -1
;
_chemical_formula_sum "Si O2"
_cell_formula_units_Z 15
_cell_length_a 7.998553
_cell_length_b 9.053550
_cell_length_c 12.168893
_cell_angle_alpha 66.408350
_cell_angle_beta 83.453980
_cell_angle_gamma 51.952355
_cell_volume 625.118202
_symmetry_space_group_name_H-M "P -1"
_symmetry_group_IT_number 2
_symmetry_cell_setting 'triclinic'
loop_
_space_group_symop_operation_xyz
x,y,z
-x,-y,-z
loop_
_atom_site_type_symbol
_atom_site_label
_atom_site_fract_x
_atom_site_fract_y
_atom_site_fract_z
Si Si1 0.000000 0.000000 0.500000
Si Si2 0.547844 0.129397 0.192741
Si Si3 0.625940 0.728969 0.394507
Si Si4 0.924216 0.113688 0.086467
Si Si5 0.841976 0.374349 0.327120
Si Si6 0.434349 0.377833 0.345101
Si Si7 0.797734 0.183056 0.682344
Si Si8 0.213756 0.467662 0.962254
O O1 0.058266 0.141390 0.392828
O O2 0.953395 0.119958 0.586808
O O3 0.778187 0.068554 0.169203
O O4 0.441943 0.293665 0.251173
O O5 0.580147 0.929522 0.289033
O O6 0.411204 0.243693 0.058546
O O7 0.818586 0.524522 0.375804
O O8 0.625582 0.714758 0.529493
O O9 0.431446 0.726993 0.376617
O O10 0.795040 0.357274 0.024291
O O11 0.125367 0.003813 0.186372
O O12 0.000000 0.000000 0.000000
O O13 0.676780 0.313538 0.368760
O O14 0.788495 0.483681 0.180786
O O15 0.260561 0.624591 0.298357
O O16 0.000000 0.500000 0.000000
#
# Coordination Sequence:
#
# PCOD9056105 Si02
#       8
#     1   2   2   2   2   2   2   2
#     4  12  18  40  70 104 126 172 226 286 326 394
#     4  12  27  45  68  97 146 180 219 288 348 399
#     4  11  24  43  69 104 132 179 228 282 337 411
#     4  12  27  45  66 100 138 183 229 277 349 404
#     4  11  23  41  73  98 136 171 236 270 342 400
#     4  11  21  46  69 101 133 183 222 281 345 407
#     4  11  22  41  73  97 131 179 231 281 332 407
#     4  12  27  46  70  98 133 186 233 281 329 410
#
# _framework density 23.995462
#
# number of rings (size 3 to 8) (size 9 to 14) (size 15 to 20)
#    0.000    0.533    5.333    3.200    5.600    0.533 
#    0.000    0.667    0.000    0.000    0.000    0.000 
#    0.000    0.000    0.000    0.000    0.000    0.000 
#
# Total GULP energy -83700.032597 kJ/mol
# GULP energy per Si atom -5580.002173 kJ/mol
# Density = 2.394085 g / cm^3
# Si number density = 23.995462 Si / 1000 Ang^3
#
#
#
# Elastic Constant Matrix: (Units=GPa)
#
#
# Indices 1 2 3 4 5 6 
#
# 1 24.1600 -8.5807 5.9703 -0.4455 -13.6602 7.3080
# 2 -8.5807 119.8729 36.6807 13.1959 -27.4967 7.6983
# 3 5.9703 36.6807 147.4715 7.8048 -27.2184 18.2116
# 4 -0.4455 13.1959 7.8048 51.5037 5.0566 -3.6168
# 5 -13.6602 -27.4967 -27.2184 5.0566 30.5520 -8.2144
# 6 7.3080 7.6983 18.2116 -3.6168 -8.2144 14.4087
#
#
#
# Elastic Compliance Matrix: (Units=1/GPa)
#
#
# Indices 1 2 3 4 5 6 
#
# 1 0.092487 0.022198 0.007197 -0.014496 0.060133 -0.037222
# 2 0.022198 0.016642 0.001020 -0.007286 0.024520 -0.009290
# 3 0.007197 0.001020 0.009744 -0.003496 0.010299 -0.011517
# 4 -0.014496 -0.007286 -0.003496 0.024197 -0.016904 0.012100
# 5 0.060133 0.024520 0.010299 -0.016904 0.091287 -0.008817
# 6 -0.037222 -0.009290 -0.011517 0.012100 -0.008817 0.105812
#
#
# Mechanical properties :
#
#
# Convention : Reuss Voigt Hill
#
# Bulk Modulus (GPa) = 5.56475 39.96054 22.76265
# Shear Modulus (GPa) = 14.73884 36.45517 25.59701
#
# Velocity S-wave (km/s) = 2.48106 3.90199 3.26965
# Velocity P-wave (km/s) = 3.24526 6.08196 4.87452
#
# Compressibility (1/GPa) = 0.17970263
#
# Stress axis : x y z
#
# Youngs Moduli (GPa) = 10.81232 60.08918 102.62806
#
# Poissons Ratio (x) = -1.33384 -0.73860
# Poissons Ratio (y) = -0.24001 -0.10472
# Poissons Ratio (z) = -0.07781 -0.06131
#
# Static dielectric constant tensor:
#      x y z
#    x 1.906160 0.099530 0.006780 
#    y 0.099530 1.729770 0.112330 
#    z 0.006780 0.112330 1.927210 
# 
# From -- ./inp_files/199875.got.cif
#   From: 2010.05.17/outbox.cif.g08.bks.cpg/sg2_100_cif.got.tgz:199875.got - 2010.06.03 11:33:40.
