data_PCOD9056398
_publ_section_title
;
Structure prediction by ZEFSAII (Michael W. Deem and Ramdas Pophale) SiO2 
 PCOD9056398
Probable space group: P -1
;
_chemical_formula_sum "Si O2"
_cell_formula_units_Z 14
_cell_length_a 8.142546
_cell_length_b 11.133309
_cell_length_c 10.466509
_cell_angle_alpha 122.613675
_cell_angle_beta 100.369863
_cell_angle_gamma 53.066972
_cell_volume 624.093979
_symmetry_space_group_name_H-M "P -1"
_symmetry_group_IT_number 2
_symmetry_cell_setting 'triclinic'
loop_
_space_group_symop_operation_xyz
x,y,z
-x,-y,-z
loop_
_atom_site_type_symbol
_atom_site_label
_atom_site_fract_x
_atom_site_fract_y
_atom_site_fract_z
Si Si1 0.053555 0.472555 0.840979
Si Si2 0.474412 0.579693 0.896463
Si Si3 0.441153 0.929623 0.069893
Si Si4 0.854848 0.288931 0.625862
Si Si5 0.494640 0.886533 0.323019
Si Si6 0.008221 0.181271 0.047674
Si Si7 0.969658 0.015730 0.697204
O O1 0.625627 0.418299 0.729276
O O2 0.302816 0.322305 0.763421
O O3 0.962731 0.669453 0.897529
O O4 0.000000 0.500000 0.000000
O O5 0.500000 0.500000 0.000000
O O6 0.236124 0.696392 0.883206
O O7 0.525856 0.722617 0.972266
O O8 0.510386 0.959204 0.230872
O O9 0.187702 0.049538 0.096732
O O10 0.500000 0.000000 0.000000
O O11 0.948394 0.397625 0.707495
O O12 0.883118 0.192251 0.441938
O O13 0.986812 0.127447 0.654111
O O14 0.500000 0.000000 0.500000
O O15 0.272145 0.917157 0.304067
O O16 0.029088 0.066898 0.863219
#
# Coordination Sequence:
#
# PCOD9056398 Si02
#       7
#     2   2   2   2   2   2   2
#     4  12  22  39  70 107 141 187 252 296 353 436
#     4  12  22  44  72 103 140 195 253 292 354 447
#     4  12  27  44  74 111 151 188 244 310 376 427
#     4  11  22  38  66 105 140 182 242 308 348 423
#     4  12  25  46  72 103 146 198 245 299 362 444
#     4  12  24  42  70 104 142 190 237 302 364 436
#     4  11  23  40  67 101 145 182 240 294 373 419
#
# _framework density 22.432518999999999
#
# number of rings (size 3 to 8) (size 9 to 14) (size 15 to 20)
#    0.000    0.286    5.714    4.714    0.000    0.000 
#    0.000    1.429    0.000    0.000    0.000    0.000 
#    0.000    0.000    0.000    0.000    0.000    0.000 
#
# Total GULP energy -78273.387612 kJ/mol
# GULP energy per Si atom -5590.956258 kJ/mol
# Density = 2.238146 g / cm^3
# Si number density = 22.432519 Si / 1000 Ang^3
#
#
#
# Elastic Constant Matrix: (Units=GPa)
#
#
# Indices 1 2 3 4 5 6 
#
# 1 85.1304 39.4741 33.9002 15.7932 0.0462 4.3548
# 2 39.4741 132.0354 64.9767 19.1805 -3.4596 0.9008
# 3 33.9002 64.9767 153.9193 33.1809 2.2246 -5.7774
# 4 15.7932 19.1805 33.1809 42.3282 -5.2841 -2.6083
# 5 0.0462 -3.4596 2.2246 -5.2841 32.9256 10.4240
# 6 4.3548 0.9008 -5.7774 -2.6083 10.4240 61.1740
#
#
#
# Elastic Compliance Matrix: (Units=1/GPa)
#
#
# Indices 1 2 3 4 5 6 
#
# 1 0.014358 -0.003282 -0.001146 -0.003094 -0.000423 -0.001142
# 2 -0.003282 0.010452 -0.003615 -0.000532 0.001429 -0.000528
# 3 -0.001146 -0.003615 0.009572 -0.005653 -0.002309 0.001191
# 4 -0.003094 -0.000532 -0.005653 0.030098 0.005128 0.000104
# 5 -0.000423 0.001429 -0.002309 0.005128 0.033294 -0.005664
# 6 -0.001142 -0.000528 0.001191 0.000104 -0.005664 0.017518
#
#
# Mechanical properties :
#
#
# Convention : Reuss Voigt Hill
#
# Bulk Modulus (GPa) = 54.66093 71.97635 63.31864
# Shear Modulus (GPa) = 36.36921 42.80114 39.58518
#
# Velocity S-wave (km/s) = 4.03087 4.37280 4.20531
# Velocity P-wave (km/s) = 6.78849 7.59280 7.20188
#
# Compressibility (1/GPa) = 0.01829460
#
# Stress axis : x y z
#
# Youngs Moduli (GPa) = 69.64872 95.67108 104.46819
#
# Poissons Ratio (x) = 0.31400 0.11977
# Poissons Ratio (y) = 0.22859 0.37770
# Poissons Ratio (z) = 0.07985 0.34589
#
# Static dielectric constant tensor:
#      x y z
#    x 1.976510 0.014410 -0.016130 
#    y 0.014410 1.806890 0.020860 
#    z -0.016130 0.020860 1.814440 
# 
# From -- ./inp_files/391143.got.cif
#   From: 2010.05.17/outbox.cif.g08.bks.cpg/sg2_196_cif.got.tgz:391143.got - 2010.06.03 11:33:40.
