data_PCOD9056773
_publ_section_title
;
Structure prediction by ZEFSAII (Michael W. Deem and Ramdas Pophale) SiO2 
 PCOD9056773
Probable space group: P -1
;
_chemical_formula_sum "Si O2"
_cell_formula_units_Z 16
_cell_length_a 12.886526
_cell_length_b 16.755228
_cell_length_c 12.108384
_cell_angle_alpha 21.976175
_cell_angle_beta 123.577636
_cell_angle_gamma 133.237352
_cell_volume 679.605553
_symmetry_space_group_name_H-M "P -1"
_symmetry_group_IT_number 2
_symmetry_cell_setting 'triclinic'
loop_
_space_group_symop_operation_xyz
x,y,z
-x,-y,-z
loop_
_atom_site_type_symbol
_atom_site_label
_atom_site_fract_x
_atom_site_fract_y
_atom_site_fract_z
Si Si1 0.350887 0.724739 0.742697
Si Si2 0.292715 0.782788 0.862661
Si Si3 0.550576 0.661167 0.662093
Si Si4 0.236072 0.367367 0.766615
Si Si5 0.194723 0.865284 0.307886
Si Si6 0.120121 0.557364 0.270511
Si Si7 0.091873 0.898494 0.980638
Si Si8 0.383333 0.417971 0.438081
O O1 0.244607 0.697014 0.818423
O O2 0.372781 0.520384 0.734462
O O3 0.500000 0.000000 0.500000
O O4 0.390696 0.513499 0.038478
O O5 0.373790 0.081392 0.552809
O O6 0.173088 0.643662 0.067506
O O7 0.399049 0.678939 0.077700
O O8 0.590142 0.701463 0.501924
O O9 0.230945 0.533290 0.449756
O O10 0.967905 0.283567 0.541080
O O11 0.074548 0.213747 0.929032
O O12 0.263078 0.159746 0.995715
O O13 0.281216 0.753412 0.555173
O O14 0.166012 0.819613 0.220017
O O15 0.086930 0.755332 0.051413
O O16 0.211594 0.202018 0.648385
O O17 0.500000 0.500000 0.500000
#
# Coordination Sequence:
#
# PCOD9056773 Si02
#       8
#     2   2   2   2   2   2   2   2
#     4  11  26  47  67  98 132 185 233 276 330 399
#     4  11  25  44  69  98 139 181 228 276 336 406
#     4  11  24  45  70 101 137 178 230 277 335 401
#     4  11  22  40  69 103 136 178 220 280 346 401
#     4  11  22  43  67  97 138 177 226 280 336 400
#     4  11  23  42  69 104 135 176 222 283 350 402
#     4  11  23  42  70 105 139 171 225 283 346 406
#     4  11  23  40  70 104 138 176 219 283 345 404
#
# _framework density 23.543068000000002
#
# number of rings (size 3 to 8) (size 9 to 14) (size 15 to 20)
#    0.000    1.000    2.500    6.000    3.500    3.000 
#    4.500    0.625    0.000    0.000    0.000    0.000 
#    0.000    0.000    0.000    0.000    0.000    0.000 
#
# Total GULP energy -89533.226625 kJ/mol
# GULP energy per Si atom -5595.826664 kJ/mol
# Density = 2.348948 g / cm^3
# Si number density = 23.543068 Si / 1000 Ang^3
#
#
#
# Elastic Constant Matrix: (Units=GPa)
#
#
# Indices 1 2 3 4 5 6 
#
# 1 91.6591 42.2077 35.3576 9.3552 -3.6355 -11.2988
# 2 42.2077 59.7817 24.7365 9.9592 6.0910 -13.7251
# 3 35.3576 24.7365 107.7172 -9.6601 5.3657 -6.1280
# 4 9.3552 9.9592 -9.6601 34.2805 -6.9616 1.5645
# 5 -3.6355 6.0910 5.3657 -6.9616 37.0569 3.6867
# 6 -11.2988 -13.7251 -6.1280 1.5645 3.6867 42.1717
#
#
#
# Elastic Compliance Matrix: (Units=1/GPa)
#
#
# Indices 1 2 3 4 5 6 
#
# 1 0.017775 -0.010997 -0.003644 -0.001956 0.003671 0.000405
# 2 -0.010997 0.029657 -0.003155 -0.008418 -0.007799 0.007241
# 3 -0.003644 -0.003155 0.011663 0.005113 -0.000522 -0.000453
# 4 -0.001956 -0.008418 0.005113 0.035326 0.007535 -0.004490
# 5 0.003671 -0.007799 -0.000522 0.007535 0.030575 -0.004583
# 6 0.000405 0.007241 -0.000453 -0.004490 -0.004583 0.026679
#
#
# Mechanical properties :
#
#
# Convention : Reuss Voigt Hill
#
# Bulk Modulus (GPa) = 42.55008 51.52907 47.03957
# Shear Modulus (GPa) = 25.62759 33.15889 29.39324
#
# Velocity S-wave (km/s) = 3.30288 3.75698 3.53723
# Velocity P-wave (km/s) = 5.71471 6.38393 6.05857
#
# Compressibility (1/GPa) = 0.02350172
#
# Stress axis : x y z
#
# Youngs Moduli (GPa) = 56.25905 33.71915 85.73978
#
# Poissons Ratio (x) = 0.37080 0.31247
# Poissons Ratio (y) = 0.61867 0.27054
# Poissons Ratio (z) = 0.20503 0.10640
#
# Static dielectric constant tensor:
#      x y z
#    x 1.934020 -0.035860 -0.039270 
#    y -0.035860 1.898250 0.029350 
#    z -0.039270 0.029350 1.922700 
# 
# From -- ./inp_files/454368.got.cif
#   From: 2010.05.17/outbox.cif.g08.bks.cpg/sg2_228_cif.got.tgz:454368.got - 2010.06.03 11:33:40.
