data_PCOD9056252
_publ_section_title
;
Structure prediction by ZEFSAII (Michael W. Deem and Ramdas Pophale) SiO2 
 PCOD9056252
Probable space group: P -1
;
_chemical_formula_sum "Si O2"
_cell_formula_units_Z 12
_cell_length_a 13.140916
_cell_length_b 13.106265
_cell_length_c 6.601994
_cell_angle_alpha 112.488386
_cell_angle_beta 134.337974
_cell_angle_gamma 50.638269
_cell_volume 624.966177
_symmetry_space_group_name_H-M "P -1"
_symmetry_group_IT_number 2
_symmetry_cell_setting 'triclinic'
loop_
_space_group_symop_operation_xyz
x,y,z
-x,-y,-z
loop_
_atom_site_type_symbol
_atom_site_label
_atom_site_fract_x
_atom_site_fract_y
_atom_site_fract_z
Si Si1 0.816353 0.128119 0.786158
Si Si2 0.380303 0.033430 0.166967
Si Si3 0.999459 0.127725 0.674397
Si Si4 0.545854 0.558559 0.798931
Si Si5 0.748182 0.324202 0.178931
Si Si6 0.502776 0.826508 0.829199
O O1 0.680179 0.102195 0.486421
O O2 0.864716 0.190233 0.718382
O O3 0.736249 0.223132 0.938970
O O4 0.000000 0.000000 0.000000
O O5 0.378376 0.146758 0.119533
O O6 0.500000 0.000000 0.500000
O O7 0.186865 0.079244 0.973090
O O8 0.466287 0.902969 0.047096
O O9 0.929256 0.234089 0.475899
O O10 0.000000 0.000000 0.500000
O O11 0.500000 0.500000 0.500000
O O12 0.394268 0.619114 0.801082
O O13 0.563578 0.675711 0.834193
O O14 0.708190 0.442585 0.063175
#
# Coordination Sequence:
#
# PCOD9056252 Si02
#       6
#     2   2   2   2   2   2
#     4  12  21  35  66  94 127 161 213 270 315 375
#     4  11  25  40  63  93 135 171 206 266 337 379
#     4  12  21  39  62  95 125 165 222 265 315 381
#     4  11  22  40  65  97 129 169 223 266 311 389
#     4  11  22  36  65  97 125 165 216 268 321 363
#     4  11  23  40  59  97 128 166 218 263 320 387
#
# _framework density 19.201039000000002
#
# number of rings (size 3 to 8) (size 9 to 14) (size 15 to 20)
#    0.000    0.667    6.667    1.000    2.333    1.333 
#    0.000    0.833    0.000    5.000    0.000    0.000 
#    0.000    0.000    0.000    0.000    0.000    0.000 
#
# Total GULP energy -67012.996386 kJ/mol
# GULP energy per Si atom -5584.416366 kJ/mol
# Density = 1.915734 g / cm^3
# Si number density = 19.201039 Si / 1000 Ang^3
#
#
#
# Elastic Constant Matrix: (Units=GPa)
#
#
# Indices 1 2 3 4 5 6 
#
# 1 79.1357 16.6202 32.8565 19.7393 -2.2770 -3.9482
# 2 16.6202 120.0221 44.0979 -4.3849 -9.8046 17.4783
# 3 32.8565 44.0979 143.5767 -0.1865 -7.5005 -7.4384
# 4 19.7393 -4.3849 -0.1865 43.4627 -5.7451 -6.2149
# 5 -2.2770 -9.8046 -7.5005 -5.7451 39.6527 5.6007
# 6 -3.9482 17.4783 -7.4384 -6.2149 5.6007 29.5677
#
#
#
# Elastic Compliance Matrix: (Units=1/GPa)
#
#
# Indices 1 2 3 4 5 6 
#
# 1 0.016218 -0.001566 -0.003260 -0.007577 -0.001301 0.000925
# 2 -0.001566 0.011278 -0.003349 0.001119 0.003375 -0.008123
# 3 -0.003260 -0.003349 0.008974 0.001818 0.000364 0.004115
# 4 -0.007577 0.001119 0.001818 0.027608 0.003635 0.003898
# 5 -0.001301 0.003375 0.000364 0.003635 0.027495 -0.006521
# 6 0.000925 -0.008123 0.004115 0.003898 -0.006521 0.041835
#
#
# Mechanical properties :
#
#
# Convention : Reuss Voigt Hill
#
# Bulk Modulus (GPa) = 49.69990 58.87595 54.28793
# Shear Modulus (GPa) = 31.95586 39.14727 35.55156
#
# Velocity S-wave (km/s) = 4.08398 4.52022 4.30762
# Velocity P-wave (km/s) = 6.94109 7.61398 7.28530
#
# Compressibility (1/GPa) = 0.02012076
#
# Stress axis : x y z
#
# Youngs Moduli (GPa) = 61.66087 88.66485 111.43091
#
# Poissons Ratio (x) = 0.13881 0.36330
# Poissons Ratio (y) = 0.09654 0.37316
# Poissons Ratio (z) = 0.20104 0.29692
#
# Static dielectric constant tensor:
#      x y z
#    x 1.677100 0.015500 -0.040990 
#    y 0.015500 1.710630 -0.044610 
#    z -0.040990 -0.044610 1.681990 
# 
# From -- ./inp_files/25289.got.cif
#   From: 2010.05.17/outbox.cif.g08.bks.cpg/sg2_13_cif.got.tgz:25289.got - 2010.06.03 11:33:40.
