data_PCOD9056012
_publ_section_title
;
Structure prediction by ZEFSAII (Michael W. Deem and Ramdas Pophale) SiO2 
 PCOD9056012
Probable space group: P -1
;
_chemical_formula_sum "Si O2"
_cell_formula_units_Z 16
_cell_length_a 29.333174
_cell_length_b 9.778044
_cell_length_c 22.798782
_cell_angle_alpha 145.897175
_cell_angle_beta 16.182945
_cell_angle_gamma 153.262446
_cell_volume 796.686748
_symmetry_space_group_name_H-M "P -1"
_symmetry_group_IT_number 2
_symmetry_cell_setting 'triclinic'
loop_
_space_group_symop_operation_xyz
x,y,z
-x,-y,-z
loop_
_atom_site_type_symbol
_atom_site_label
_atom_site_fract_x
_atom_site_fract_y
_atom_site_fract_z
Si Si1 0.934148 0.409608 0.742237
Si Si2 0.576705 0.424158 0.506576
Si Si3 0.136123 0.176800 0.951548
Si Si4 0.223235 0.302884 0.416571
Si Si5 0.479719 0.272541 0.992666
Si Si6 0.519967 0.815762 0.326488
Si Si7 0.044710 0.416407 0.477186
Si Si8 0.961362 0.178422 0.941612
O O1 0.967388 0.470340 0.652750
O O2 0.095795 0.359005 0.549579
O O3 0.946285 0.666014 0.855687
O O4 0.702335 0.087322 0.925265
O O5 0.387296 0.419592 0.717724
O O6 0.552804 0.345729 0.577225
O O7 0.814123 0.736522 0.315430
O O8 0.544872 0.132055 0.410388
O O9 0.000000 0.000000 0.000000
O O10 0.105441 0.927243 0.946444
O O11 0.348383 0.573441 0.406030
O O12 0.063974 0.953601 0.516191
O O13 0.397518 0.319346 0.170372
O O14 0.705557 0.366270 0.751529
O O15 0.500000 0.500000 0.000000
O O16 0.756172 0.925527 0.066469
O O17 0.000000 0.500000 0.500000
O O18 0.000000 0.500000 0.000000
#
# Coordination Sequence:
#
# PCOD9056012 Si02
#       8
#     2   2   2   2   2   2   2   2
#     4  11  24  42  65  91 130 169 208 262 318 377
#     4   9  19  39  57  84 131 165 200 255 307 365
#     4  11  24  40  60  94 131 163 208 258 307 372
#     4  11  22  40  67  93 123 161 214 260 318 384
#     4  11  21  45  67  89 124 168 209 260 323 382
#     4   9  19  35  62  91 119 160 207 256 309 365
#     4  11  25  43  67  97 126 161 212 269 322 377
#     4   9  20  40  61  83 122 166 209 255 305 367
#
# _framework density 20.083176000000002
#
# number of rings (size 3 to 8) (size 9 to 14) (size 15 to 20)
#    0.000    1.750    2.500    2.250    0.000    9.500 
#    4.500    0.000    0.000    0.000    0.000    0.000 
#    0.000    0.000    0.000    0.000    0.000    0.000 
#
# Total GULP energy -89300.367406 kJ/mol
# GULP energy per Si atom -5581.272963 kJ/mol
# Density = 2.003747 g / cm^3
# Si number density = 20.083176 Si / 1000 Ang^3
#
#
#
# Elastic Constant Matrix: (Units=GPa)
#
#
# Indices 1 2 3 4 5 6 
#
# 1 118.1257 47.8813 28.2633 -4.1965 -5.1658 4.1602
# 2 47.8813 73.4535 25.5911 -5.9049 11.5528 16.8794
# 3 28.2633 25.5911 119.3377 -22.4367 -7.7733 4.9296
# 4 -4.1965 -5.9049 -22.4367 31.7910 1.5433 -1.3384
# 5 -5.1658 11.5528 -7.7733 1.5433 22.4587 -0.9982
# 6 4.1602 16.8794 4.9296 -1.3384 -0.9982 31.1151
#
#
#
# Elastic Compliance Matrix: (Units=1/GPa)
#
#
# Indices 1 2 3 4 5 6 
#
# 1 0.013200 -0.010865 -0.000589 -0.000925 0.008683 0.004461
# 2 -0.010865 0.028380 -0.003922 0.001416 -0.019169 -0.013876
# 3 -0.000589 -0.003922 0.010920 0.006685 0.005244 0.000932
# 4 -0.000925 0.001416 0.006685 0.036362 -0.001134 -0.000176
# 5 0.008683 -0.019169 0.005244 -0.001134 0.058732 0.010243
# 6 0.004461 -0.013876 0.000932 -0.000176 0.010243 0.039243
#
#
# Mechanical properties :
#
#
# Convention : Reuss Voigt Hill
#
# Bulk Modulus (GPa) = 45.97930 57.15426 51.56678
# Shear Modulus (GPa) = 22.23819 31.01837 26.62828
#
# Velocity S-wave (km/s) = 3.33123 3.93427 3.64524
# Velocity P-wave (km/s) = 6.14331 7.01131 6.59162
#
# Compressibility (1/GPa) = 0.02174892
#
# Stress axis : x y z
#
# Youngs Moduli (GPa) = 75.75706 35.23610 91.57398
#
# Poissons Ratio (x) = 0.38282 0.05394
# Poissons Ratio (y) = 0.82306 0.35916
# Poissons Ratio (z) = 0.04462 0.13820
#
# Static dielectric constant tensor:
#      x y z
#    x 1.475640 0.043500 0.077820 
#    y 0.043500 1.722970 0.000720 
#    z 0.077820 0.000720 1.729450 
# 
# From -- ./inp_files/602278.got.cif
#   From: 2010.05.17/outbox.cif.g08.bks.cpg/sg2_302_cif.got.tgz:602278.got - 2010.06.03 11:33:40.
