data_PCOD9056842
_publ_section_title
;
Structure prediction by ZEFSAII (Michael W. Deem and Ramdas Pophale) SiO2 
 PCOD9056842
Probable space group: P -1
;
_chemical_formula_sum "Si O2"
_cell_formula_units_Z 16
_cell_length_a 11.978944
_cell_length_b 5.086565
_cell_length_c 11.246567
_cell_angle_alpha 109.143048
_cell_angle_beta 89.558198
_cell_angle_gamma 80.611920
_cell_volume 637.329156
_symmetry_space_group_name_H-M "P -1"
_symmetry_group_IT_number 2
_symmetry_cell_setting 'triclinic'
loop_
_space_group_symop_operation_xyz
x,y,z
-x,-y,-z
loop_
_atom_site_type_symbol
_atom_site_label
_atom_site_fract_x
_atom_site_fract_y
_atom_site_fract_z
Si Si1 0.919883 0.649526 0.622868
Si Si2 0.584764 0.171279 0.091681
Si Si3 0.972767 0.936592 0.858679
Si Si4 0.684428 0.980241 0.403650
Si Si5 0.778772 0.239512 0.657110
Si Si6 0.750722 0.338443 0.934761
Si Si7 0.811538 0.804053 0.159402
Si Si8 0.561514 0.498109 0.371521
O O1 0.816328 0.485033 0.615147
O O2 0.000000 0.500000 0.500000
O O3 0.884612 0.983865 0.644297
O O4 0.979659 0.638154 0.749646
O O5 0.524702 0.353646 0.230241
O O6 0.699078 0.982120 0.119479
O O7 0.639145 0.344138 0.015086
O O8 0.500000 0.000000 0.000000
O O9 0.073992 0.069506 0.817400
O O10 0.835852 0.040878 0.880839
O O11 0.000000 0.000000 0.000000
O O12 0.774547 0.772718 0.291881
O O13 0.581649 0.807063 0.381894
O O14 0.704208 0.069380 0.550928
O O15 0.672648 0.272518 0.374188
O O16 0.728924 0.383631 0.801346
O O17 0.825863 0.529702 0.034237
O O18 0.500000 0.500000 0.500000
#
# Coordination Sequence:
#
# PCOD9056842 Si02
#       8
#     2   2   2   2   2   2   2   2
#     4  11  24  43  63 101 142 184 233 280 342 408
#     4  11  26  46  70 102 139 185 230 297 354 414
#     4  11  22  40  71  99 141 185 228 284 338 420
#     4  11  24  45  71 101 138 183 232 292 346 419
#     4  11  25  41  67 101 140 184 228 285 347 411
#     4  11  24  43  67 104 143 181 236 280 355 418
#     4  11  23  44  69 102 140 183 235 283 352 415
#     4  11  25  47  71 102 135 180 240 293 353 412
#
# _framework density 25.104769999999998
#
# number of rings (size 3 to 8) (size 9 to 14) (size 15 to 20)
#    0.000    1.000    2.500    3.375    3.500    5.500 
#    0.000    0.000    0.000    0.000    0.000    0.000 
#    0.000    0.000    0.000    0.000    0.000    0.000 
#
# Total GULP energy -89161.355800 kJ/mol
# GULP energy per Si atom -5572.584738 kJ/mol
# Density = 2.504763 g / cm^3
# Si number density = 25.104770 Si / 1000 Ang^3
#
#
#
# Elastic Constant Matrix: (Units=GPa)
#
#
# Indices 1 2 3 4 5 6 
#
# 1 84.4291 20.9700 43.6038 -0.2744 4.2716 15.8510
# 2 20.9700 59.6768 3.3561 11.9054 -1.3898 10.9717
# 3 43.6038 3.3561 222.3559 20.5966 -4.2769 26.8630
# 4 -0.2744 11.9054 20.5966 33.2999 14.2259 -1.3572
# 5 4.2716 -1.3898 -4.2769 14.2259 48.7664 2.1630
# 6 15.8510 10.9717 26.8630 -1.3572 2.1630 37.2621
#
#
#
# Elastic Compliance Matrix: (Units=1/GPa)
#
#
# Indices 1 2 3 4 5 6 
#
# 1 0.015679 -0.006184 -0.003339 0.005793 -0.003442 -0.002031
# 2 -0.006184 0.022689 0.002987 -0.012619 0.005441 -0.006979
# 3 -0.003339 0.002987 0.006295 -0.006453 0.003008 -0.004407
# 4 0.005793 -0.012619 -0.006453 0.045348 -0.015036 0.008428
# 5 -0.003442 0.005441 0.003008 -0.015036 0.025805 -0.004352
# 6 -0.002031 -0.006979 -0.004407 0.008428 -0.004352 0.033493
#
#
# Mechanical properties :
#
#
# Convention : Reuss Voigt Hill
#
# Bulk Modulus (GPa) = 31.65418 55.81351 43.73384
# Shear Modulus (GPa) = 28.91660 43.76782 36.34221
#
# Velocity S-wave (km/s) = 3.39755 4.17994 3.80889
# Velocity P-wave (km/s) = 5.29409 6.75103 6.06645
#
# Compressibility (1/GPa) = 0.03159140
#
# Stress axis : x y z
#
# Youngs Moduli (GPa) = 63.78047 44.07357 158.85682
#
# Poissons Ratio (x) = 0.27255 0.53037
# Poissons Ratio (y) = 0.39442 -0.47449
# Poissons Ratio (z) = 0.21294 -0.13164
#
# Static dielectric constant tensor:
#      x y z
#    x 2.612460 -0.042030 0.215350 
#    y -0.042030 2.186370 -0.038870 
#    z 0.215350 -0.038870 2.097080 
# 
# From -- ./inp_files/98687.got.cif
#   From: 2010.05.17/outbox.cif.g08.bks.cpg/sg2_50_cif.got.tgz:98687.got - 2010.06.03 11:33:40.
