data_PCOD9056708
_publ_section_title
;
Structure prediction by ZEFSAII (Michael W. Deem and Ramdas Pophale) SiO2 
 PCOD9056708
Probable space group: P -1
;
_chemical_formula_sum "Si O2"
_cell_formula_units_Z 16
_cell_length_a 19.937686
_cell_length_b 11.689942
_cell_length_c 15.108331
_cell_angle_alpha 28.876479
_cell_angle_beta 28.586054
_cell_angle_gamma 46.977021
_cell_volume 754.316865
_symmetry_space_group_name_H-M "P -1"
_symmetry_group_IT_number 2
_symmetry_cell_setting 'triclinic'
loop_
_space_group_symop_operation_xyz
x,y,z
-x,-y,-z
loop_
_atom_site_type_symbol
_atom_site_label
_atom_site_fract_x
_atom_site_fract_y
_atom_site_fract_z
Si Si1 0.081203 0.079085 0.013494
Si Si2 0.866345 0.478027 0.100633
Si Si3 0.268817 0.018310 0.501490
Si Si4 0.081485 0.622518 0.231095
Si Si5 0.492827 0.063829 0.604278
Si Si6 0.613127 0.417682 0.068001
Si Si7 0.757838 0.902688 0.004908
Si Si8 0.086722 0.584981 0.612911
O O1 0.133830 0.924518 0.984514
O O2 0.124733 0.016115 0.103115
O O3 0.152693 0.384468 0.712883
O O4 0.899566 0.993940 0.272370
O O5 0.774256 0.650173 0.118995
O O6 0.761520 0.182764 0.407200
O O7 0.000000 0.500000 0.000000
O O8 0.952283 0.573307 0.843034
O O9 0.345335 0.919021 0.558835
O O10 0.379604 0.305501 0.155594
O O11 0.000000 0.500000 0.500000
O O12 0.976451 0.536046 0.326934
O O13 0.221271 0.537048 0.117464
O O14 0.502915 0.258736 0.380756
O O15 0.399223 0.119836 0.754188
O O16 0.413721 0.777845 0.850405
O O17 0.805400 0.127038 0.725619
#
# Coordination Sequence:
#
# PCOD9056708 Si02
#       8
#     2   2   2   2   2   2   2   2
#     4  11  22  40  67 101 134 164 225 279 331 396
#     4  11  24  46  70  98 132 171 230 285 320 386
#     4  11  23  43  65  96 130 174 218 273 330 389
#     4  12  20  39  69 104 133 168 216 285 337 394
#     4  11  26  42  64  98 134 180 218 265 332 407
#     4  11  22  43  66  94 142 176 209 272 344 391
#     4  12  23  46  66  96 135 176 225 270 326 398
#     4  11  23  38  69 101 129 175 215 282 343 376
#
# _framework density 21.211244000000001
#
# number of rings (size 3 to 8) (size 9 to 14) (size 15 to 20)
#    0.000    0.750    6.250    2.625    0.000    1.500 
#    2.250    0.625    0.000    0.000    0.000    0.000 
#    0.000    0.000    0.000    0.000    0.000    0.000 
#
# Total GULP energy -89420.656281 kJ/mol
# GULP energy per Si atom -5588.791018 kJ/mol
# Density = 2.116297 g / cm^3
# Si number density = 21.211244 Si / 1000 Ang^3
#
#
#
# Elastic Constant Matrix: (Units=GPa)
#
#
# Indices 1 2 3 4 5 6 
#
# 1 56.9008 7.7619 14.5451 -4.8048 11.6183 -5.5286
# 2 7.7619 110.2604 35.1742 -13.7935 18.7112 11.0578
# 3 14.5451 35.1742 76.1543 -12.6045 22.3723 1.3061
# 4 -4.8048 -13.7935 -12.6045 36.5971 -1.8002 -2.3753
# 5 11.6183 18.7112 22.3723 -1.8002 26.7353 2.2481
# 6 -5.5286 11.0578 1.3061 -2.3753 2.2481 33.9507
#
#
#
# Elastic Compliance Matrix: (Units=1/GPa)
#
#
# Indices 1 2 3 4 5 6 
#
# 1 0.020067 0.000232 -0.001313 0.002132 -0.007970 0.003919
# 2 0.000232 0.011652 -0.003472 0.002784 -0.004902 -0.003104
# 3 -0.001313 -0.003472 0.019627 0.004717 -0.013221 0.001368
# 4 0.002132 0.002784 0.004717 0.030146 -0.004935 0.001695
# 5 -0.007970 -0.004902 -0.013221 -0.004935 0.055298 -0.003200
# 6 0.003919 -0.003104 0.001368 0.001695 -0.003200 0.031382
#
#
# Mechanical properties :
#
#
# Convention : Reuss Voigt Hill
#
# Bulk Modulus (GPa) = 23.67390 39.80867 31.74129
# Shear Modulus (GPa) = 26.12922 31.84557 28.98740
#
# Velocity S-wave (km/s) = 3.51359 3.87893 3.70077
# Velocity P-wave (km/s) = 5.25791 6.23458 5.76696
#
# Compressibility (1/GPa) = 0.04224061
#
# Stress axis : x y z
#
# Youngs Moduli (GPa) = 49.83395 85.82078 50.95023
#
# Poissons Ratio (x) = -0.01995 0.06689
# Poissons Ratio (y) = -0.01158 0.17691
# Poissons Ratio (z) = 0.06542 0.29799
#
# Static dielectric constant tensor:
#      x y z
#    x 1.760090 -0.011720 0.003280 
#    y -0.011720 1.768170 -0.023990 
#    z 0.003280 -0.023990 1.830580 
# 
# From -- ./inp_files/541059.got.cif
#   From: 2010.05.17/outbox.cif.g08.bks.cpg/sg2_271_cif.got.tgz:541059.got - 2010.06.03 11:33:40.
