data_PCOD9056271
_publ_section_title
;
Structure prediction by ZEFSAII (Michael W. Deem and Ramdas Pophale) SiO2 
 PCOD9056271
Probable space group: P -1
;
_chemical_formula_sum "Si O2"
_cell_formula_units_Z 14
_cell_length_a 15.425857
_cell_length_b 12.266692
_cell_length_c 18.420112
_cell_angle_alpha 154.374124
_cell_angle_beta 156.889063
_cell_angle_gamma 26.600195
_cell_volume 546.788303
_symmetry_space_group_name_H-M "P -1"
_symmetry_group_IT_number 2
_symmetry_cell_setting 'triclinic'
loop_
_space_group_symop_operation_xyz
x,y,z
-x,-y,-z
loop_
_atom_site_type_symbol
_atom_site_label
_atom_site_fract_x
_atom_site_fract_y
_atom_site_fract_z
Si Si1 0.798088 0.628673 0.512825
Si Si2 0.609361 0.623015 0.595341
Si Si3 0.547407 0.666246 0.938850
Si Si4 0.556029 0.949548 0.387140
Si Si5 0.066018 0.439847 0.932672
Si Si6 0.757522 0.082363 0.318278
Si Si7 0.191044 0.696739 0.943992
O O1 0.693044 0.392056 0.279729
O O2 0.622729 0.839048 0.564059
O O3 0.058222 0.569634 0.710018
O O4 0.768747 0.779754 0.502924
O O5 0.500000 0.500000 0.500000
O O6 0.429060 0.889876 0.577435
O O7 0.853483 0.607106 0.813169
O O8 0.698652 0.532833 0.902472
O O9 0.326001 0.598961 0.552388
O O10 0.566426 0.964255 0.133164
O O11 0.716283 0.499775 0.033956
O O12 0.419952 0.762669 0.139437
O O13 0.146680 0.110501 0.792289
O O14 0.000000 0.500000 0.000000
O O15 0.000000 0.000000 0.500000
O O16 0.000000 0.000000 0.000000
#
# Coordination Sequence:
#
# PCOD9056271 Si02
#       7
#     2   2   2   2   2   2   2
#     4   9  17  31  57  86 113 147 207 263 287 354
#     4  11  22  37  59  86 125 165 197 242 302 367
#     4   9  18  33  58  85 122 150 199 248 305 361
#     4   9  19  32  51  86 119 151 202 249 299 354
#     4   9  19  36  55  85 120 155 194 243 303 359
#     4   8  19  37  58  81 122 169 194 238 311 360
#     4   9  16  30  55  84 113 154 198 255 300 351
#
# _framework density 25.60406
#
# number of rings (size 3 to 8) (size 9 to 14) (size 15 to 20)
#    0.857    2.000    0.000    2.571    2.000    0.000 
#    0.000    2.857    0.000    3.429    0.000   10.000 
#    0.000    2.286    0.000    0.000    0.000    0.000 
#
# Total GULP energy -78102.602173 kJ/mol
# GULP energy per Si atom -5578.757298 kJ/mol
# Density = 2.554578 g / cm^3
# Si number density = 25.604060 Si / 1000 Ang^3
#
#
#
# Elastic Constant Matrix: (Units=GPa)
#
#
# Indices 1 2 3 4 5 6 
#
# 1 81.1974 29.9627 29.7697 -3.1223 -13.4786 20.1297
# 2 29.9627 110.7241 60.7511 -23.7692 -16.2679 36.4971
# 3 29.7697 60.7511 194.5621 -32.0075 -1.4263 18.0526
# 4 -3.1223 -23.7692 -32.0075 40.9472 -5.3692 -10.9144
# 5 -13.4786 -16.2679 -1.4263 -5.3692 36.4316 -1.3547
# 6 20.1297 36.4971 18.0526 -10.9144 -1.3547 41.2082
#
#
#
# Elastic Compliance Matrix: (Units=1/GPa)
#
#
# Indices 1 2 3 4 5 6 
#
# 1 0.015598 -0.000766 -0.001800 -0.001746 0.004861 -0.006455
# 2 -0.000766 0.017104 -0.003221 0.005216 0.007561 -0.011733
# 3 -0.001800 -0.003221 0.006856 0.003629 -0.001240 0.001649
# 4 -0.001746 0.005216 0.003629 0.031908 0.006651 0.003313
# 5 0.004861 0.007561 -0.001240 0.006651 0.033344 -0.005670
# 6 -0.006455 -0.011733 0.001649 0.003313 -0.005670 0.037781
#
#
# Mechanical properties :
#
#
# Convention : Reuss Voigt Hill
#
# Bulk Modulus (GPa) = 35.73524 69.71673 52.72599
# Shear Modulus (GPa) = 30.58202 41.45075 36.01639
#
# Velocity S-wave (km/s) = 3.45979 4.02794 3.75462
# Velocity P-wave (km/s) = 5.47242 6.99430 6.27963
#
# Compressibility (1/GPa) = 0.02798358
#
# Stress axis : x y z
#
# Youngs Moduli (GPa) = 64.10906 58.46451 145.86020
#
# Poissons Ratio (x) = 0.04480 0.26255
# Poissons Ratio (y) = 0.04912 0.46986
# Poissons Ratio (z) = 0.11540 0.18833
#
# Static dielectric constant tensor:
#      x y z
#    x 1.939950 0.311540 0.030300 
#    y 0.311540 1.487500 0.041470 
#    z 0.030300 0.041470 2.075700 
# 
# From -- ./inp_files/601392.got.cif
#   From: 2010.05.17/outbox.cif.g08.bks.cpg/sg2_301_cif.got.tgz:601392.got - 2010.06.03 11:33:40.
