data_PCOD9056307
_publ_section_title
;
Structure prediction by ZEFSAII (Michael W. Deem and Ramdas Pophale) SiO2 
 PCOD9056307
Probable space group: P -1
;
_chemical_formula_sum "Si O2"
_cell_formula_units_Z 14
_cell_length_a 15.996399
_cell_length_b 7.789063
_cell_length_c 7.200412
_cell_angle_alpha 101.336680
_cell_angle_beta 81.270001
_cell_angle_gamma 133.743112
_cell_volume 635.337744
_symmetry_space_group_name_H-M "P -1"
_symmetry_group_IT_number 2
_symmetry_cell_setting 'triclinic'
loop_
_space_group_symop_operation_xyz
x,y,z
-x,-y,-z
loop_
_atom_site_type_symbol
_atom_site_label
_atom_site_fract_x
_atom_site_fract_y
_atom_site_fract_z
Si Si1 0.219205 0.649624 0.605988
Si Si2 0.800007 0.768050 0.899333
Si Si3 0.443099 0.472369 0.208757
Si Si4 0.223138 0.285123 0.664921
Si Si5 0.103469 0.740080 0.913061
Si Si6 0.371372 0.149461 0.491204
Si Si7 0.013552 0.207961 0.364880
O O1 0.089629 0.426565 0.528204
O O2 0.268209 0.529003 0.615350
O O3 0.201857 0.745649 0.813596
O O4 0.293096 0.867530 0.482503
O O5 0.676116 0.595976 0.807110
O O6 0.894348 0.775934 0.778845
O O7 0.527256 0.706549 0.359290
O O8 0.845510 0.031596 0.933108
O O9 0.418743 0.263475 0.296006
O O10 0.500000 0.500000 0.000000
O O11 0.297605 0.219285 0.582991
O O12 0.213581 0.294713 0.891723
O O13 0.093849 0.060951 0.585439
O O14 0.050945 0.755823 0.750510
O O15 0.000000 0.500000 0.000000
#
# Coordination Sequence:
#
# PCOD9056307 Si02
#       7
#     2   2   2   2   2   2   2
#     4  12  23  41  66 104 137 175 228 279 333 409
#     4  11  22  43  68  96 137 185 220 277 344 399
#     4  11  23  47  73  93 133 183 230 286 350 393
#     4  11  22  43  68 100 145 174 220 277 339 409
#     4  11  22  37  64  99 141 175 223 272 331 414
#     4  11  25  45  72 101 132 179 234 288 334 405
#     4  11  23  39  63 103 143 176 217 271 345 407
#
# _framework density 22.035523999999999
#
# number of rings (size 3 to 8) (size 9 to 14) (size 15 to 20)
#    0.000    0.857    4.286    5.143    2.000    0.000 
#    2.571    7.143    0.000    0.000    0.000    0.000 
#    0.000    0.000    0.000    0.000    0.000    0.000 
#
# Total GULP energy -78352.525204 kJ/mol
# GULP energy per Si atom -5596.608943 kJ/mol
# Density = 2.198537 g / cm^3
# Si number density = 22.035524 Si / 1000 Ang^3
#
#
#
# Elastic Constant Matrix: (Units=GPa)
#
#
# Indices 1 2 3 4 5 6 
#
# 1 89.0404 50.2447 14.1110 14.5106 -5.5826 3.0690
# 2 50.2447 117.6985 25.0145 -13.0095 -2.6867 -20.4792
# 3 14.1110 25.0145 93.9198 -12.5152 -6.0318 -13.3885
# 4 14.5106 -13.0095 -12.5152 34.7076 -5.2598 10.0459
# 5 -5.5826 -2.6867 -6.0318 -5.2598 34.0136 2.0393
# 6 3.0690 -20.4792 -13.3885 10.0459 2.0393 45.6055
#
#
#
# Elastic Compliance Matrix: (Units=1/GPa)
#
#
# Indices 1 2 3 4 5 6 
#
# 1 0.018901 -0.009451 -0.002312 -0.011120 0.000452 -0.003765
# 2 -0.009451 0.014431 -0.000634 0.007673 0.000350 0.005224
# 3 -0.002312 -0.000634 0.012290 0.004852 0.002362 0.002305
# 4 -0.011120 0.007673 0.004852 0.040004 0.006035 -0.003464
# 5 0.000452 0.000350 0.002362 0.006035 0.030967 -0.001894
# 6 -0.003765 0.005224 0.002305 -0.003464 -0.001894 0.026051
#
#
# Mechanical properties :
#
#
# Convention : Reuss Voigt Hill
#
# Bulk Modulus (GPa) = 48.01331 53.26655 50.63993
# Shear Modulus (GPa) = 28.67290 36.95125 32.81207
#
# Velocity S-wave (km/s) = 3.61115 4.09943 3.86301
# Velocity P-wave (km/s) = 6.26287 6.82881 6.55195
#
# Compressibility (1/GPa) = 0.02082756
#
# Stress axis : x y z
#
# Youngs Moduli (GPa) = 52.90781 69.29649 81.36478
#
# Poissons Ratio (x) = 0.65494 0.18812
# Poissons Ratio (y) = 0.50004 0.05157
# Poissons Ratio (z) = 0.12233 0.04393
#
# Static dielectric constant tensor:
#      x y z
#    x 1.826440 -0.009720 0.026720 
#    y -0.009720 1.823410 -0.022010 
#    z 0.026720 -0.022010 1.809280 
# 
# From -- ./inp_files/292933.got.cif
#   From: 2010.05.17/outbox.cif.g08.bks.cpg/sg2_147_cif.got.tgz:292933.got - 2010.06.03 11:33:40.
