data_PCOD9056316
_publ_section_title
;
Structure prediction by ZEFSAII (Michael W. Deem and Ramdas Pophale) SiO2 
 PCOD9056316
Probable space group: P -1
;
_chemical_formula_sum "Si O2"
_cell_formula_units_Z 14
_cell_length_a 13.429615
_cell_length_b 12.405924
_cell_length_c 10.752318
_cell_angle_alpha 55.214347
_cell_angle_beta 146.199307
_cell_angle_gamma 139.259752
_cell_volume 641.716864
_symmetry_space_group_name_H-M "P -1"
_symmetry_group_IT_number 2
_symmetry_cell_setting 'triclinic'
loop_
_space_group_symop_operation_xyz
x,y,z
-x,-y,-z
loop_
_atom_site_type_symbol
_atom_site_label
_atom_site_fract_x
_atom_site_fract_y
_atom_site_fract_z
Si Si1 0.402856 0.913518 0.122118
Si Si2 0.783431 0.259049 0.216799
Si Si3 0.265569 0.584657 0.250941
Si Si4 0.806363 0.689887 0.306433
Si Si5 0.986828 0.045291 0.312456
Si Si6 0.734312 0.529386 0.077805
Si Si7 0.323021 0.365265 0.283062
O O1 0.361508 0.772530 0.259206
O O2 0.641416 0.095127 0.264343
O O3 0.365253 0.821511 0.010594
O O4 0.210311 0.935858 0.911354
O O5 0.031339 0.308420 0.425785
O O6 0.801862 0.413462 0.184536
O O7 0.323633 0.512923 0.243019
O O8 0.421502 0.570811 0.517171
O O9 0.000000 0.500000 0.000000
O O10 0.542418 0.593280 0.127382
O O11 0.913341 0.882016 0.270802
O O12 0.817694 0.607216 0.248932
O O13 0.200752 0.213137 0.356378
O O14 0.000000 0.000000 0.500000
O O15 0.805602 0.670266 0.956814
#
# Coordination Sequence:
#
# PCOD9056316 Si02
#       7
#     2   2   2   2   2   2   2
#     4  11  22  37  65  97 130 159 212 270 318 382
#     4  11  22  39  68  95 127 168 213 264 319 376
#     4  11  23  38  59  99 131 161 206 266 327 374
#     4  11  25  43  68  91 132 173 215 264 307 387
#     4  12  24  42  66  96 128 167 213 266 326 375
#     4  11  25  44  64  97 128 173 221 253 316 381
#     4  11  26  39  65  93 131 170 208 266 320 378
#
# _framework density 21.816476000000002
#
# number of rings (size 3 to 8) (size 9 to 14) (size 15 to 20)
#    0.000    0.857    5.714    1.286    8.000    0.571 
#    0.000    0.000    0.000    1.714    0.000    0.000 
#    0.000    0.000    0.000    0.000    0.000    0.000 
#
# Total GULP energy -77979.311127 kJ/mol
# GULP energy per Si atom -5569.950795 kJ/mol
# Density = 2.176682 g / cm^3
# Si number density = 21.816476 Si / 1000 Ang^3
#
#
#
# Elastic Constant Matrix: (Units=GPa)
#
#
# Indices 1 2 3 4 5 6 
#
# 1 38.1001 47.1408 20.9642 -11.5714 24.3397 3.1866
# 2 47.1408 137.9717 42.0100 -14.1474 19.5929 -1.4131
# 3 20.9642 42.0100 88.4304 -15.7170 32.3454 -0.2447
# 4 -11.5714 -14.1474 -15.7170 32.0593 -6.4118 13.6029
# 5 24.3397 19.5929 32.3454 -6.4118 38.1118 -3.7348
# 6 3.1866 -1.4131 -0.2447 13.6029 -3.7348 43.3136
#
#
#
# Elastic Compliance Matrix: (Units=1/GPa)
#
#
# Indices 1 2 3 4 5 6 
#
# 1 0.105567 -0.029435 0.018137 0.031243 -0.064778 -0.024022
# 2 -0.029435 0.016850 -0.008258 -0.006517 0.016651 0.006151
# 3 0.018137 -0.008258 0.022102 0.011895 -0.024815 -0.007354
# 4 0.031243 -0.006517 0.011895 0.049784 -0.020265 -0.019826
# 5 -0.064778 0.016651 -0.024815 -0.020265 0.078493 0.018301
# 6 -0.024022 0.006151 -0.007354 -0.019826 0.018301 0.032818
#
#
# Mechanical properties :
#
#
# Convention : Reuss Voigt Hill
#
# Bulk Modulus (GPa) = 9.48711 53.85914 31.67312
# Shear Modulus (GPa) = 13.16267 32.98942 23.07604
#
# Velocity S-wave (km/s) = 2.45895 3.89283 3.25581
# Velocity P-wave (km/s) = 3.52420 6.70422 5.35567
#
# Compressibility (1/GPa) = 0.10540620
#
# Stress axis : x y z
#
# Youngs Moduli (GPa) = 9.47266 59.34849 45.24403
#
# Poissons Ratio (x) = 1.74693 -0.82059
# Poissons Ratio (y) = 0.27883 0.37364
# Poissons Ratio (z) = -0.17181 0.49012
#
# Static dielectric constant tensor:
#      x y z
#    x 1.887770 0.121370 -0.035570 
#    y 0.121370 1.900080 0.018690 
#    z -0.035570 0.018690 1.844880 
# 
# From -- ./inp_files/451183.got.cif
#   From: 2010.05.17/outbox.cif.g08.bks.cpg/sg2_226_cif.got.tgz:451183.got - 2010.06.03 11:33:40.
