data_PCOD9056099
_publ_section_title
;
Structure prediction by ZEFSAII (Michael W. Deem and Ramdas Pophale) SiO2 
 PCOD9056099
Probable space group: P -1
;
_chemical_formula_sum "Si O2"
_cell_formula_units_Z 14
_cell_length_a 11.757810
_cell_length_b 11.076650
_cell_length_c 8.525028
_cell_angle_alpha 63.908563
_cell_angle_beta 132.663173
_cell_angle_gamma 89.464492
_cell_volume 648.968094
_symmetry_space_group_name_H-M "P -1"
_symmetry_group_IT_number 2
_symmetry_cell_setting 'triclinic'
loop_
_space_group_symop_operation_xyz
x,y,z
-x,-y,-z
loop_
_atom_site_type_symbol
_atom_site_label
_atom_site_fract_x
_atom_site_fract_y
_atom_site_fract_z
Si Si1 0.537861 0.060603 0.164769
Si Si2 0.862949 0.619412 0.679600
Si Si3 0.065060 0.099068 0.399569
Si Si4 0.897584 0.392445 0.563901
Si Si5 0.275978 0.330106 0.936099
Si Si6 0.466794 0.201321 0.514622
Si Si7 0.145258 0.845979 0.143702
O O1 0.737129 0.022902 0.383811
O O2 0.511738 0.964722 0.334728
O O3 0.409066 0.233751 0.979894
O O4 0.500000 0.000000 0.000000
O O5 0.912361 0.754497 0.605584
O O6 0.873232 0.518690 0.598571
O O7 0.670863 0.696704 0.537218
O O8 0.000000 0.500000 0.000000
O O9 0.000000 0.000000 0.500000
O O10 0.945472 0.161367 0.098901
O O11 0.796759 0.490781 0.263576
O O12 0.829441 0.284415 0.635450
O O13 0.105713 0.303061 0.783654
O O14 0.370296 0.274165 0.221266
O O15 0.663620 0.176123 0.707671
O O16 0.000000 0.000000 0.000000
#
# Coordination Sequence:
#
# PCOD9056099 Si02
#       7
#     2   2   2   2   2   2   2
#     4  11  22  42  66  94 129 169 222 265 328 393
#     4  11  21  46  67  94 131 172 219 266 330 388
#     4  11  24  42  69  96 128 169 218 275 324 384
#     4  11  24  42  67  93 131 176 214 272 329 392
#     4  11  22  40  63  93 124 173 220 262 327 392
#     4  11  23  39  67  93 129 175 214 267 325 395
#     4  12  25  43  62  96 135 170 219 271 328 383
#
# _framework density 21.572710000000001
#
# number of rings (size 3 to 8) (size 9 to 14) (size 15 to 20)
#    0.000    0.857    2.857    5.571    0.000    3.429 
#    2.571    0.000    0.000    0.000    0.000    0.000 
#    0.000    0.000    0.000    0.000    0.000    0.000 
#
# Total GULP energy -78241.544612 kJ/mol
# GULP energy per Si atom -5588.681758 kJ/mol
# Density = 2.152361 g / cm^3
# Si number density = 21.572710 Si / 1000 Ang^3
#
#
#
# Elastic Constant Matrix: (Units=GPa)
#
#
# Indices 1 2 3 4 5 6 
#
# 1 139.8178 42.1301 46.0052 -7.0892 24.1438 31.7374
# 2 42.1301 62.4537 13.1994 -12.7005 5.1192 1.2523
# 3 46.0052 13.1994 133.7135 2.9278 9.7749 6.5690
# 4 -7.0892 -12.7005 2.9278 32.6438 -3.4223 -4.9749
# 5 24.1438 5.1192 9.7749 -3.4223 53.4691 -1.6702
# 6 31.7374 1.2523 6.5690 -4.9749 -1.6702 41.4371
#
#
#
# Elastic Compliance Matrix: (Units=1/GPa)
#
#
# Indices 1 2 3 4 5 6 
#
# 1 0.013872 -0.008523 -0.002982 -0.002179 -0.005366 -0.010373
# 2 -0.008523 0.023161 -0.000057 0.008476 0.002401 0.006951
# 3 -0.002982 -0.000057 0.008522 -0.001346 -0.000268 0.000762
# 4 -0.002179 0.008476 -0.001346 0.034777 0.002829 0.005916
# 5 -0.005366 0.002401 -0.000268 0.002829 0.021291 0.005278
# 6 -0.010373 0.006951 0.000762 0.005916 0.005278 0.032670
#
#
# Mechanical properties :
#
#
# Convention : Reuss Voigt Hill
#
# Bulk Modulus (GPa) = 44.57928 59.85049 52.21489
# Shear Modulus (GPa) = 30.32287 41.15335 35.73811
#
# Velocity S-wave (km/s) = 3.75322 4.37241 4.07459
# Velocity P-wave (km/s) = 6.28424 7.30031 6.81125
#
# Compressibility (1/GPa) = 0.02243194
#
# Stress axis : x y z
#
# Youngs Moduli (GPa) = 72.08711 43.17642 117.34562
#
# Poissons Ratio (x) = 0.36799 0.34991
# Poissons Ratio (y) = 0.61440 0.00663
# Poissons Ratio (z) = 0.21495 0.00244
#
# Static dielectric constant tensor:
#      x y z
#    x 1.821730 -0.004600 0.012350 
#    y -0.004600 1.816890 0.041840 
#    z 0.012350 0.041840 1.881620 
# 
# From -- ./inp_files/262132.got.cif
#   From: 2010.05.17/outbox.cif.g08.bks.cpg/sg2_132_cif.got.tgz:262132.got - 2010.06.03 11:33:40.
