data_PCOD9056659
_publ_section_title
;
Structure prediction by ZEFSAII (Michael W. Deem and Ramdas Pophale) SiO2 
 PCOD9056659
Probable space group: P -1
;
_chemical_formula_sum "Si O2"
_cell_formula_units_Z 16
_cell_length_a 23.991616
_cell_length_b 6.777200
_cell_length_c 19.490405
_cell_angle_alpha 55.515185
_cell_angle_beta 19.283660
_cell_angle_gamma 46.010236
_cell_volume 697.665381
_symmetry_space_group_name_H-M "P -1"
_symmetry_group_IT_number 2
_symmetry_cell_setting 'triclinic'
loop_
_space_group_symop_operation_xyz
x,y,z
-x,-y,-z
loop_
_atom_site_type_symbol
_atom_site_label
_atom_site_fract_x
_atom_site_fract_y
_atom_site_fract_z
Si Si1 0.506867 0.221509 0.518914
Si Si2 0.832829 0.754756 0.999071
Si Si3 0.867946 0.876413 0.264760
Si Si4 0.500313 0.028172 0.911530
Si Si5 0.146522 0.576520 0.778773
Si Si6 0.241359 0.347076 0.438779
Si Si7 0.130953 0.015061 0.286442
Si Si8 0.617539 0.356105 0.047574
O O1 0.500000 0.500000 0.500000
O O2 0.394325 0.324450 0.554408
O O3 0.735512 0.953021 0.332858
O O4 0.341951 0.196920 0.755974
O O5 0.915627 0.446215 0.926884
O O6 0.045673 0.679144 0.800748
O O7 0.726186 0.055692 0.022982
O O8 0.748317 0.861617 0.472227
O O9 0.897529 0.131711 0.191834
O O10 0.699251 0.805301 0.675492
O O11 0.326923 0.989843 0.094265
O O12 0.430813 0.359339 0.914002
O O13 0.500000 0.000000 0.000000
O O14 0.000000 0.500000 0.000000
O O15 0.017973 0.661364 0.637625
O O16 0.405403 0.418763 0.252602
O O17 0.221684 0.743298 0.182372
O O18 0.000000 0.000000 0.500000
#
# Coordination Sequence:
#
# PCOD9056659 Si02
#       8
#     2   2   2   2   2   2   2   2
#     4   9  20  41  62  90 128 169 213 261 323 387
#     4  11  22  40  65  94 132 172 213 274 325 384
#     4  11  22  41  67  91 134 175 214 270 330 387
#     4  11  26  45  68  99 133 172 217 278 325 386
#     4   9  22  39  61  95 128 165 221 263 321 390
#     4  11  24  42  66  98 131 176 219 266 331 394
#     4  11  24  44  69  96 131 171 218 264 329 404
#     4  11  24  42  66  98 135 172 219 271 330 388
#
# _framework density 22.933631999999999
#
# number of rings (size 3 to 8) (size 9 to 14) (size 15 to 20)
#    0.000    1.500    2.500    1.500    1.750   11.000 
#    0.000    2.500    0.000    0.000    0.000    0.000 
#    0.000    0.000    0.000    0.000    0.000    0.000 
#
# Total GULP energy -89361.945698 kJ/mol
# GULP energy per Si atom -5585.121606 kJ/mol
# Density = 2.288143 g / cm^3
# Si number density = 22.933632 Si / 1000 Ang^3
#
#
#
# Elastic Constant Matrix: (Units=GPa)
#
#
# Indices 1 2 3 4 5 6 
#
# 1 43.7970 -0.7400 2.6881 3.4847 -5.7468 -0.6547
# 2 -0.7400 91.3839 9.6502 6.0443 0.8405 8.1696
# 3 2.6881 9.6502 53.9472 3.4983 8.4175 4.0405
# 4 3.4847 6.0443 3.4983 39.7750 -3.1460 -1.5780
# 5 -5.7468 0.8405 8.4175 -3.1460 36.2449 6.1542
# 6 -0.6547 8.1696 4.0405 -1.5780 6.1542 34.3407
#
#
#
# Elastic Compliance Matrix: (Units=1/GPa)
#
#
# Indices 1 2 3 4 5 6 
#
# 1 0.023608 0.000474 -0.001764 -0.001676 0.004040 -0.000256
# 2 0.000474 0.011489 -0.001854 -0.001687 0.000548 -0.002682
# 3 -0.001764 -0.001854 0.019907 -0.001741 -0.004815 -0.001152
# 4 -0.001676 -0.001687 -0.001741 0.025926 0.002195 0.001372
# 5 0.004040 0.000548 -0.004815 0.002195 0.030346 -0.004824
# 6 -0.000256 -0.002682 -0.001152 0.001372 -0.004824 0.030816
#
#
# Mechanical properties :
#
#
# Convention : Reuss Voigt Hill
#
# Bulk Modulus (GPa) = 20.52688 23.59163 22.05925
# Shear Modulus (GPa) = 30.37332 33.90743 32.14037
#
# Velocity S-wave (km/s) = 3.64318 3.84930 3.74766
# Velocity P-wave (km/s) = 5.16401 5.48319 5.32599
#
# Compressibility (1/GPa) = 0.04871662
#
# Stress axis : x y z
#
# Youngs Moduli (GPa) = 42.35764 87.04144 50.23432
#
# Poissons Ratio (x) = -0.04126 0.08860
# Poissons Ratio (y) = -0.02008 0.09314
# Poissons Ratio (z) = 0.07470 0.16138
#
# Static dielectric constant tensor:
#      x y z
#    x 1.968250 -0.035570 0.006080 
#    y -0.035570 1.878760 0.051090 
#    z 0.006080 0.051090 1.839040 
# 
# From -- ./inp_files/142709.got.cif
#   From: 2010.05.17/outbox.cif.g08.bks.cpg/sg2_72_cif.got.tgz:142709.got - 2010.06.03 11:33:40.
