data_PCOD9056212
_publ_section_title
;
Structure prediction by ZEFSAII (Michael W. Deem and Ramdas Pophale) SiO2 
 PCOD9056212
Probable space group: P -1
;
_chemical_formula_sum "Si O2"
_cell_formula_units_Z 16
_cell_length_a 5.313449
_cell_length_b 11.311237
_cell_length_c 15.184585
_cell_angle_alpha 127.385620
_cell_angle_beta 78.302676
_cell_angle_gamma 125.088037
_cell_volume 578.144112
_symmetry_space_group_name_H-M "P -1"
_symmetry_group_IT_number 2
_symmetry_cell_setting 'triclinic'
loop_
_space_group_symop_operation_xyz
x,y,z
-x,-y,-z
loop_
_atom_site_type_symbol
_atom_site_label
_atom_site_fract_x
_atom_site_fract_y
_atom_site_fract_z
Si Si1 0.311595 0.535918 0.907577
Si Si2 0.665716 0.156831 0.780631
Si Si3 0.410295 0.387626 0.661666
Si Si4 0.886612 0.439394 0.339108
Si Si5 0.808216 0.202233 0.075201
Si Si6 0.703315 0.954409 0.407899
Si Si7 0.192321 0.128909 0.902193
Si Si8 0.267717 0.138743 0.337819
O O1 0.470460 0.492456 0.798210
O O2 0.207537 0.660270 0.927435
O O3 0.000489 0.337272 0.862271
O O4 0.528338 0.652248 0.028508
O O5 0.510412 0.184794 0.720843
O O6 0.423572 0.070114 0.840001
O O7 0.678549 0.993557 0.672827
O O8 0.194753 0.434604 0.647842
O O9 0.237063 0.175007 0.598497
O O10 0.740443 0.456160 0.620906
O O11 0.838584 0.288576 0.205828
O O12 0.598252 0.326198 0.377511
O O13 0.059391 0.158369 0.012311
O O14 0.500000 0.000000 0.000000
O O15 0.500000 0.000000 0.500000
O O16 0.994453 0.123761 0.408181
O O17 0.905045 0.985684 0.794468
#
# Coordination Sequence:
#
# PCOD9056212 Si02
#       8
#     2   2   2   2   2   2   2   2
#     4  11  23  39  62  98 142 193 236 294 337 427
#     4  11  25  43  67 100 144 182 244 299 371 414
#     4  11  24  47  73 106 142 194 242 290 372 429
#     4  11  25  43  73 102 157 192 235 302 352 431
#     4  11  22  36  57  93 137 197 249 273 341 408
#     4  11  26  51  79 101 132 182 244 310 371 443
#     4  11  23  37  62  95 144 193 238 286 337 420
#     4  11  25  44  68 108 142 190 238 297 362 424
#
# _framework density 27.674762999999999
#
# number of rings (size 3 to 8) (size 9 to 14) (size 15 to 20)
#    0.000    1.000    3.750    2.625    3.500    2.000 
#    0.000    1.250    0.000    0.000    0.000    0.000 
#    0.000    0.000    0.000    0.000    0.000    0.000 
#
# Total GULP energy -89384.610916 kJ/mol
# GULP energy per Si atom -5586.538182 kJ/mol
# Density = 2.761177 g / cm^3
# Si number density = 27.674763 Si / 1000 Ang^3
#
#
#
# Elastic Constant Matrix: (Units=GPa)
#
#
# Indices 1 2 3 4 5 6 
#
# 1 106.8059 55.4394 31.8911 -14.4241 -33.8360 32.9383
# 2 55.4394 130.3142 42.7331 -3.5655 -29.0092 26.1651
# 3 31.8911 42.7331 162.2101 -20.9205 -13.3533 12.0854
# 4 -14.4241 -3.5655 -20.9205 29.5911 3.4223 -16.0491
# 5 -33.8360 -29.0092 -13.3533 3.4223 47.4846 -8.7172
# 6 32.9383 26.1651 12.0854 -16.0491 -8.7172 61.2301
#
#
#
# Elastic Compliance Matrix: (Units=1/GPa)
#
#
# Indices 1 2 3 4 5 6 
#
# 1 0.015907 -0.003748 -0.000722 0.003264 0.007715 -0.004859
# 2 -0.003748 0.011217 -0.002248 -0.004031 0.003304 -0.002919
# 3 -0.000722 -0.002248 0.007502 0.005370 0.000071 0.001286
# 4 0.003264 -0.004031 0.005370 0.044412 0.000112 0.010563
# 5 0.007715 0.003304 0.000071 0.000112 0.028309 -0.001516
# 6 -0.004859 -0.002919 0.001286 0.010563 -0.001516 0.022492
#
#
# Mechanical properties :
#
#
# Convention : Reuss Voigt Hill
#
# Bulk Modulus (GPa) = 47.19476 73.27305 60.23391
# Shear Modulus (GPa) = 33.25801 45.61227 39.43514
#
# Velocity S-wave (km/s) = 3.47038 4.06415 3.77895
# Velocity P-wave (km/s) = 5.75747 6.96829 6.39162
#
# Compressibility (1/GPa) = 0.02118879
#
# Stress axis : x y z
#
# Youngs Moduli (GPa) = 62.86375 89.14932 133.30326
#
# Poissons Ratio (x) = 0.33417 0.09622
# Poissons Ratio (y) = 0.23564 0.29973
# Poissons Ratio (z) = 0.04538 0.20045
#
# Static dielectric constant tensor:
#      x y z
#    x 2.395870 0.025640 0.033230 
#    y 0.025640 2.213600 -0.056050 
#    z 0.033230 -0.056050 2.210830 
# 
# From -- ./inp_files/549546.got.cif
#   From: 2010.05.17/outbox.cif.g08.bks.cpg/sg2_275_cif.got.tgz:549546.got - 2010.06.03 11:33:40.
