data_PCOD9056758
_publ_section_title
;
Structure prediction by ZEFSAII (Michael W. Deem and Ramdas Pophale) SiO2 
 PCOD9056758
Probable space group: P -1
;
_chemical_formula_sum "Si O2"
_cell_formula_units_Z 16
_cell_length_a 16.601828
_cell_length_b 9.207717
_cell_length_c 13.914159
_cell_angle_alpha 40.987804
_cell_angle_beta 35.815543
_cell_angle_gamma 62.371024
_cell_volume 752.913762
_symmetry_space_group_name_H-M "P -1"
_symmetry_group_IT_number 2
_symmetry_cell_setting 'triclinic'
loop_
_space_group_symop_operation_xyz
x,y,z
-x,-y,-z
loop_
_atom_site_type_symbol
_atom_site_label
_atom_site_fract_x
_atom_site_fract_y
_atom_site_fract_z
Si Si1 0.556264 0.522074 0.292094
Si Si2 0.453543 0.951758 0.716021
Si Si3 0.237325 0.067333 0.978867
Si Si4 0.958057 0.399975 0.983421
Si Si5 0.766722 0.645324 0.343364
Si Si6 0.747254 0.843885 0.474024
Si Si7 0.936296 0.684990 0.516015
Si Si8 0.756225 0.476508 0.984435
O O1 0.396979 0.541069 0.433518
O O2 0.637063 0.584346 0.079838
O O3 0.479729 0.761465 0.512374
O O4 0.660823 0.691176 0.186591
O O5 0.586555 0.857225 0.643331
O O6 0.343056 0.795922 0.817082
O O7 0.343552 0.921662 0.928349
O O8 0.197866 0.137183 0.876368
O O9 0.084659 0.928473 0.251162
O O10 0.851347 0.492054 0.980067
O O11 0.865815 0.116520 0.221561
O O12 0.000000 0.500000 0.000000
O O13 0.104917 0.450518 0.752209
O O14 0.754612 0.732623 0.418301
O O15 0.808123 0.712397 0.560160
O O16 0.000000 0.500000 0.500000
O O17 0.864570 0.602106 0.730282
#
# Coordination Sequence:
#
# PCOD9056758 Si02
#       8
#     2   2   2   2   2   2   2   2
#     4  11  23  41  69 104 135 172 226 286 344 385
#     4  11  22  42  71 102 132 177 228 284 330 393
#     4  11  24  42  68 102 137 180 222 280 344 396
#     4  12  25  41  69 106 135 170 228 285 333 395
#     4  11  22  40  68  99 132 169 227 285 326 386
#     4  12  25  42  70  99 136 175 234 277 328 400
#     4  12  27  46  67  98 139 187 220 271 340 415
#     4  12  24  45  70  97 142 179 224 272 344 405
#
# _framework density 21.250772999999999
#
# number of rings (size 3 to 8) (size 9 to 14) (size 15 to 20)
#    0.000    0.500    5.000    5.250    1.750    1.000 
#    0.000    0.000    0.000    3.750    0.000    0.000 
#    0.000    0.000    0.000    0.000    0.000    0.000 
#
# Total GULP energy -89429.406144 kJ/mol
# GULP energy per Si atom -5589.337884 kJ/mol
# Density = 2.120241 g / cm^3
# Si number density = 21.250773 Si / 1000 Ang^3
#
#
#
# Elastic Constant Matrix: (Units=GPa)
#
#
# Indices 1 2 3 4 5 6 
#
# 1 114.2464 39.8757 48.6857 -0.8292 -17.5346 15.1572
# 2 39.8757 68.2254 30.2177 24.1039 -15.5251 12.6861
# 3 48.6857 30.2177 106.7958 23.4011 -16.3982 3.6169
# 4 -0.8292 24.1039 23.4011 37.2200 -2.8592 -9.8815
# 5 -17.5346 -15.5251 -16.3982 -2.8592 37.1139 8.1810
# 6 15.1572 12.6861 3.6169 -9.8815 8.1810 39.1378
#
#
#
# Elastic Compliance Matrix: (Units=1/GPa)
#
#
# Indices 1 2 3 4 5 6 
#
# 1 0.014962 -0.009549 -0.006308 0.010658 0.001029 0.000360
# 2 -0.009549 0.035594 0.003415 -0.029244 0.013690 -0.018400
# 3 -0.006308 0.003415 0.014920 -0.012473 0.005014 -0.004240
# 4 0.010658 -0.029244 -0.012473 0.059299 -0.013496 0.024297
# 5 0.001029 0.013690 0.005014 -0.013496 0.038003 -0.016650
# 6 0.000360 -0.018400 -0.004240 0.024297 -0.016650 0.041382
#
#
# Mechanical properties :
#
#
# Convention : Reuss Voigt Hill
#
# Bulk Modulus (GPa) = 24.63591 58.53621 41.58606
# Shear Modulus (GPa) = 20.61219 34.06025 27.33622
#
# Velocity S-wave (km/s) = 3.11778 4.00781 3.59048
# Velocity P-wave (km/s) = 4.95771 7.00157 6.06634
#
# Compressibility (1/GPa) = 0.04059115
#
# Stress axis : x y z
#
# Youngs Moduli (GPa) = 66.83724 28.09442 67.02504
#
# Poissons Ratio (x) = 0.26827 0.42282
# Poissons Ratio (y) = 0.63821 -0.22888
# Poissons Ratio (z) = 0.42164 -0.09594
#
# Static dielectric constant tensor:
#      x y z
#    x 1.797800 -0.039720 -0.002650 
#    y -0.039720 1.799660 0.007980 
#    z -0.002650 0.007980 1.810290 
# 
# From -- ./inp_files/446754.got.cif
#   From: 2010.05.17/outbox.cif.g08.bks.cpg/sg2_224_cif.got.tgz:446754.got - 2010.06.03 11:33:40.
