data_PCOD9056879
_publ_section_title
;
Structure prediction by ZEFSAII (Michael W. Deem and Ramdas Pophale) SiO2 
 PCOD9056879
Probable space group: P -1
;
_chemical_formula_sum "Si O2"
_cell_formula_units_Z 16
_cell_length_a 12.011298
_cell_length_b 7.151441
_cell_length_c 8.930567
_cell_angle_alpha 87.067037
_cell_angle_beta 119.430146
_cell_angle_gamma 84.793451
_cell_volume 661.302202
_symmetry_space_group_name_H-M "P -1"
_symmetry_group_IT_number 2
_symmetry_cell_setting 'triclinic'
loop_
_space_group_symop_operation_xyz
x,y,z
-x,-y,-z
loop_
_atom_site_type_symbol
_atom_site_label
_atom_site_fract_x
_atom_site_fract_y
_atom_site_fract_z
Si Si1 0.645755 0.168471 0.917895
Si Si2 0.605323 0.725409 0.871411
Si Si3 0.372880 0.294855 0.758606
Si Si4 0.326201 0.859474 0.709871
Si Si5 0.877523 0.615322 0.576707
Si Si6 0.042396 0.791299 0.430414
Si Si7 0.857158 0.625039 0.897715
Si Si8 0.903324 0.988854 0.069367
O O1 0.515230 0.300070 0.786436
O O2 0.618957 0.952731 0.872753
O O3 0.662295 0.192121 0.105426
O O4 0.791785 0.162629 0.961498
O O5 0.453294 0.739081 0.726878
O O6 0.709748 0.590362 0.846080
O O7 0.623797 0.670653 0.062150
O O8 0.252405 0.412753 0.596533
O O9 0.342420 0.081213 0.715355
O O10 0.186250 0.835948 0.555572
O O11 0.946115 0.402085 0.649332
O O12 0.848773 0.699565 0.718149
O O13 0.963717 0.731832 0.524736
O O14 0.962463 0.957741 0.274279
O O15 0.858386 0.788260 0.013750
O O16 0.000000 0.500000 0.000000
O O17 0.000000 0.000000 0.000000
#
# Coordination Sequence:
#
# PCOD9056879 Si02
#       8
#     2   2   2   2   2   2   2   2
#     4   8  17  36  60  88 117 152 197 245 302 353
#     4   8  17  37  62  86 118 155 200 247 295 354
#     4   9  18  37  65  87 112 157 202 248 294 351
#     4   9  18  36  64  89 114 154 203 254 291 340
#     4  11  24  39  60  87 124 164 199 239 294 368
#     4  11  24  40  59  89 124 159 204 243 292 359
#     4  11  22  41  61  84 121 168 198 234 307 362
#     4  11  24  41  60  91 123 154 201 255 300 347
#
# _framework density 24.194686999999998
#
# number of rings (size 3 to 8) (size 9 to 14) (size 15 to 20)
#    0.000    2.250    1.250    3.750    5.250    1.000 
#    2.250    6.250    0.000    0.000    0.000    0.000 
#    0.000    0.000    0.000    0.000    0.000    0.000 
#
# Total GULP energy -89188.129468 kJ/mol
# GULP energy per Si atom -5574.258092 kJ/mol
# Density = 2.413962 g / cm^3
# Si number density = 24.194687 Si / 1000 Ang^3
#
#
#
# Elastic Constant Matrix: (Units=GPa)
#
#
# Indices 1 2 3 4 5 6 
#
# 1 189.0904 21.6594 49.4303 -7.3730 23.1284 -25.7845
# 2 21.6594 73.7746 6.5883 -1.0012 4.6870 -16.8208
# 3 49.4303 6.5883 94.3499 -0.1921 16.5998 3.0961
# 4 -7.3730 -1.0012 -0.1921 23.9220 -0.8506 8.9647
# 5 23.1284 4.6870 16.5998 -0.8506 21.6031 2.6720
# 6 -25.7845 -16.8208 3.0961 8.9647 2.6720 33.4663
#
#
#
# Elastic Compliance Matrix: (Units=1/GPa)
#
#
# Indices 1 2 3 4 5 6 
#
# 1 0.007906 0.000007 -0.003155 -0.000484 -0.006935 0.007070
# 2 0.000007 0.015938 -0.000687 -0.002933 -0.004191 0.009200
# 3 -0.003155 -0.000687 0.013550 0.000218 -0.006434 -0.003575
# 4 -0.000484 -0.002933 0.000218 0.047286 0.004693 -0.014909
# 5 -0.006935 -0.004191 -0.006434 0.004693 0.061361 -0.013010
# 6 0.007070 0.009200 -0.003575 -0.014909 -0.013010 0.045315
#
#
# Mechanical properties :
#
#
# Convention : Reuss Voigt Hill
#
# Bulk Modulus (GPa) = 33.64475 56.95233 45.29854
# Shear Modulus (GPa) = 23.93096 34.43407 29.18251
#
# Velocity S-wave (km/s) = 3.14841 3.77664 3.47674
# Velocity P-wave (km/s) = 5.21082 6.52745 5.90594
#
# Compressibility (1/GPa) = 0.02972232
#
# Stress axis : x y z
#
# Youngs Moduli (GPa) = 126.48771 62.74232 73.80303
#
# Poissons Ratio (x) = -0.00042 0.23287
# Poissons Ratio (y) = -0.00084 0.05070
# Poissons Ratio (z) = 0.39911 0.04310
#
# Static dielectric constant tensor:
#      x y z
#    x 2.593490 0.420980 0.342060 
#    y 0.420980 2.274430 0.174480 
#    z 0.342060 0.174480 1.989960 
# 
# From -- ./inp_files/239302.got.cif
#   From: 2010.05.17/outbox.cif.g08.bks.cpg/sg2_120_cif.got.tgz:239302.got - 2010.06.03 11:33:40.
