data_PCOD9056944
_publ_section_title
;
Structure prediction by ZEFSAII (Michael W. Deem and Ramdas Pophale) SiO2 
 PCOD9056944
Probable space group: P -1
;
_chemical_formula_sum "Si O2"
_cell_formula_units_Z 16
_cell_length_a 19.472444
_cell_length_b 9.768712
_cell_length_c 10.427277
_cell_angle_alpha 43.975934
_cell_angle_beta 131.830743
_cell_angle_gamma 151.665761
_cell_volume 650.270299
_symmetry_space_group_name_H-M "P -1"
_symmetry_group_IT_number 2
_symmetry_cell_setting 'triclinic'
loop_
_space_group_symop_operation_xyz
x,y,z
-x,-y,-z
loop_
_atom_site_type_symbol
_atom_site_label
_atom_site_fract_x
_atom_site_fract_y
_atom_site_fract_z
Si Si1 0.419994 0.549201 0.505632
Si Si2 0.108055 0.404676 0.625344
Si Si3 0.822824 0.391090 0.975190
Si Si4 0.114865 0.206116 0.394869
Si Si5 0.573162 0.180938 0.331731
Si Si6 0.470188 0.293153 0.924673
Si Si7 0.309595 0.434548 0.180863
Si Si8 0.953436 0.260252 0.774685
O O1 0.267005 0.356116 0.509594
O O2 0.496677 0.541206 0.713720
O O3 0.368750 0.400416 0.398536
O O4 0.513099 0.899215 0.362197
O O5 0.253332 0.546107 0.655278
O O6 0.093767 0.599785 0.418925
O O7 0.084659 0.401887 0.749527
O O8 0.968409 0.044396 0.654669
O O9 0.851488 0.512157 0.786046
O O10 0.748924 0.462665 0.898123
O O11 0.974902 0.608137 0.086360
O O12 0.702527 0.025651 0.082337
O O13 0.000000 0.000000 0.500000
O O14 0.500000 0.000000 0.500000
O O15 0.519413 0.298909 0.122865
O O16 0.563457 0.310552 0.933184
O O17 0.181897 0.108816 0.165767
#
# Coordination Sequence:
#
# PCOD9056944 Si02
#       8
#     2   2   2   2   2   2   2   2
#     4  11  24  46  66 101 131 172 231 273 335 403
#     4  11  24  41  68  94 135 174 215 285 337 390
#     4  11  23  39  65 101 131 172 228 265 336 403
#     4  11  23  46  67  92 135 180 223 280 329 395
#     4  12  27  48  67  95 137 181 232 275 334 404
#     4  12  25  42  70  98 132 181 216 282 336 397
#     4  11  22  41  66 100 141 169 217 276 343 407
#     4  11  23  41  65 105 132 166 224 275 347 402
#
# _framework density 24.605153000000001
#
# number of rings (size 3 to 8) (size 9 to 14) (size 15 to 20)
#    0.000    0.750    5.000    4.125    5.250    0.500 
#    2.250    1.250    0.000    0.000    0.000    0.000 
#    0.000    0.000    0.000    0.000    0.000    0.000 
#
# Total GULP energy -89406.646062 kJ/mol
# GULP energy per Si atom -5587.915379 kJ/mol
# Density = 2.454915 g / cm^3
# Si number density = 24.605153 Si / 1000 Ang^3
#
#
#
# Elastic Constant Matrix: (Units=GPa)
#
#
# Indices 1 2 3 4 5 6 
#
# 1 35.8964 1.8902 21.6297 2.7005 -18.3500 14.8222
# 2 1.8902 87.6593 7.9966 -0.6021 11.6339 15.1313
# 3 21.6297 7.9966 146.3620 4.2721 0.1149 7.0579
# 4 2.7005 -0.6021 4.2721 42.0554 4.9117 -1.7949
# 5 -18.3500 11.6339 0.1149 4.9117 31.5316 -8.3827
# 6 14.8222 15.1313 7.0579 -1.7949 -8.3827 23.1518
#
#
#
# Elastic Compliance Matrix: (Units=1/GPa)
#
#
# Indices 1 2 3 4 5 6 
#
# 1 0.057163 -0.000028 -0.007054 -0.007266 0.027808 -0.024923
# 2 -0.000028 0.014843 -0.000203 0.000741 -0.009018 -0.012830
# 3 -0.007054 -0.000203 0.007843 0.000140 -0.003848 0.000875
# 4 -0.007266 0.000741 0.000140 0.025265 -0.007547 0.003351
# 5 0.027808 -0.009018 -0.003848 -0.007547 0.054667 0.008472
# 6 -0.024923 -0.012830 0.000875 0.003351 0.008472 0.070595
#
#
# Mechanical properties :
#
#
# Convention : Reuss Voigt Hill
#
# Bulk Modulus (GPa) = 15.31860 36.99453 26.15657
# Shear Modulus (GPa) = 18.74732 35.24116 26.99424
#
# Velocity S-wave (km/s) = 2.76330 3.78864 3.31584
# Velocity P-wave (km/s) = 4.05220 5.84861 5.03123
#
# Compressibility (1/GPa) = 0.06528013
#
# Stress axis : x y z
#
# Youngs Moduli (GPa) = 17.49384 67.37001 127.50818
#
# Poissons Ratio (x) = 0.00186 0.89945
# Poissons Ratio (y) = 0.00048 0.02586
# Poissons Ratio (z) = 0.12340 0.01366
#
# Static dielectric constant tensor:
#      x y z
#    x 2.081560 -0.073890 -0.027610 
#    y -0.073890 1.968620 0.071160 
#    z -0.027610 0.071160 2.045230 
# 
# From -- ./inp_files/418407.got.cif
#   From: 2010.05.17/outbox.cif.g08.bks.cpg/sg2_210_cif.got.tgz:418407.got - 2010.06.03 11:33:40.
