data_PCOD9056329
_publ_section_title
;
Structure prediction by ZEFSAII (Michael W. Deem and Ramdas Pophale) SiO2 
 PCOD9056329
Probable space group: P -1
;
_chemical_formula_sum "Si O2"
_cell_formula_units_Z 14
_cell_length_a 7.633271
_cell_length_b 14.506835
_cell_length_c 15.746572
_cell_angle_alpha 144.287211
_cell_angle_beta 136.903828
_cell_angle_gamma 68.951375
_cell_volume 563.459112
_symmetry_space_group_name_H-M "P -1"
_symmetry_group_IT_number 2
_symmetry_cell_setting 'triclinic'
loop_
_space_group_symop_operation_xyz
x,y,z
-x,-y,-z
loop_
_atom_site_type_symbol
_atom_site_label
_atom_site_fract_x
_atom_site_fract_y
_atom_site_fract_z
Si Si1 0.672332 0.531196 0.203915
Si Si2 0.862235 0.475683 0.067547
Si Si3 0.637610 0.346151 0.226259
Si Si4 0.651414 0.130500 0.517276
Si Si5 0.718516 0.897042 0.490450
Si Si6 0.393202 0.977897 0.134776
Si Si7 0.673856 0.721461 0.756603
O O1 0.851520 0.472113 0.162691
O O2 0.608672 0.453689 0.217429
O O3 0.843824 0.764235 0.436960
O O4 0.338369 0.442103 0.972207
O O5 0.196704 0.640753 0.271676
O O6 0.647165 0.264075 0.792862
O O7 0.402695 0.291395 0.180146
O O8 0.000000 0.500000 0.500000
O O9 0.578886 0.153233 0.020436
O O10 0.328054 0.053562 0.395341
O O11 0.835724 0.069678 0.595586
O O12 0.602682 0.040266 0.340245
O O13 0.454378 0.166432 0.250959
O O14 0.036039 0.845693 0.947096
O O15 0.500000 0.500000 0.500000
#
# Coordination Sequence:
#
# PCOD9056329 Si02
#       7
#     2   2   2   2   2   2   2
#     4   9  22  41  62  95 135 172 228 270 337 417
#     4   9  20  41  61  90 134 174 217 272 341 404
#     4  12  25  46  75  99 137 189 233 285 349 405
#     4  11  22  37  68  97 131 175 222 285 340 406
#     4   9  21  39  58  96 133 169 224 267 338 419
#     4  11  27  46  70 108 135 180 242 282 347 420
#     4  11  26  49  71  97 143 180 230 293 345 402
#
# _framework density 24.846526000000001
#
# number of rings (size 3 to 8) (size 9 to 14) (size 15 to 20)
#    0.857    0.857    1.429    1.714    4.000    4.000 
#    2.571    0.000    0.000    0.000    0.000    0.000 
#    0.000    0.000    0.000    0.000    0.000    0.000 
#
# Total GULP energy -78235.704199 kJ/mol
# GULP energy per Si atom -5588.264586 kJ/mol
# Density = 2.478997 g / cm^3
# Si number density = 24.846526 Si / 1000 Ang^3
#
#
#
# Elastic Constant Matrix: (Units=GPa)
#
#
# Indices 1 2 3 4 5 6 
#
# 1 106.6677 54.5257 39.7490 2.6553 -29.1816 37.8565
# 2 54.5257 137.5094 32.9795 15.6246 -13.4051 36.1568
# 3 39.7490 32.9795 106.5283 22.1337 -14.8723 14.7081
# 4 2.6553 15.6246 22.1337 39.2382 2.2896 -5.7367
# 5 -29.1816 -13.4051 -14.8723 2.2896 43.6093 0.4648
# 6 37.8565 36.1568 14.7081 -5.7367 0.4648 45.7278
#
#
#
# Elastic Compliance Matrix: (Units=1/GPa)
#
#
# Indices 1 2 3 4 5 6 
#
# 1 0.019820 -0.002110 -0.002765 -0.001710 0.011912 -0.014186
# 2 -0.002110 0.010969 -0.000120 -0.005400 0.002283 -0.007588
# 3 -0.002765 -0.000120 0.012806 -0.007555 0.002906 -0.002712
# 4 -0.001710 -0.005400 -0.007555 0.034265 -0.007313 0.012489
# 5 0.011912 0.002283 0.002906 -0.007313 0.033126 -0.013856
# 6 -0.014186 -0.007588 -0.002712 0.012489 -0.013856 0.042193
#
#
# Mechanical properties :
#
#
# Convention : Reuss Voigt Hill
#
# Bulk Modulus (GPa) = 29.75810 67.24598 48.50204
# Shear Modulus (GPa) = 28.67426 40.61180 34.64303
#
# Velocity S-wave (km/s) = 3.40082 4.04729 3.73806
# Velocity P-wave (km/s) = 5.23675 6.99743 6.18011
#
# Compressibility (1/GPa) = 0.03360430
#
# Stress axis : x y z
#
# Youngs Moduli (GPa) = 50.45366 91.16389 78.08915
#
# Poissons Ratio (x) = 0.19238 0.21593
# Poissons Ratio (y) = 0.10647 0.00937
# Poissons Ratio (z) = 0.13951 0.01094
#
# Static dielectric constant tensor:
#      x y z
#    x 1.994920 -0.035190 0.036680 
#    y -0.035190 1.956940 -0.013700 
#    z 0.036680 -0.013700 1.995740 
# 
# From -- ./inp_files/504507.got.cif
#   From: 2010.05.17/outbox.cif.g08.bks.cpg/sg2_253_cif.got.tgz:504507.got - 2010.06.03 11:33:40.
