data_PCOD9056822
_publ_section_title
;
Structure prediction by ZEFSAII (Michael W. Deem and Ramdas Pophale) SiO2 
 PCOD9056822
Probable space group: P -1
;
_chemical_formula_sum "Si O2"
_cell_formula_units_Z 16
_cell_length_a 9.360355
_cell_length_b 15.433828
_cell_length_c 13.717126
_cell_angle_alpha 147.393930
_cell_angle_beta 131.832583
_cell_angle_gamma 36.861875
_cell_volume 640.431211
_symmetry_space_group_name_H-M "P -1"
_symmetry_group_IT_number 2
_symmetry_cell_setting 'triclinic'
loop_
_space_group_symop_operation_xyz
x,y,z
-x,-y,-z
loop_
_atom_site_type_symbol
_atom_site_label
_atom_site_fract_x
_atom_site_fract_y
_atom_site_fract_z
Si Si1 0.834124 0.937756 0.826788
Si Si2 0.178632 0.838540 0.131124
Si Si3 0.143144 0.549043 0.710915
Si Si4 0.805563 0.541171 0.705224
Si Si5 0.352646 0.921575 0.812651
Si Si6 0.335147 0.763746 0.347061
Si Si7 0.991010 0.239227 0.654464
Si Si8 0.309195 0.190892 0.903777
O O1 0.978370 0.702626 0.694427
O O2 0.770512 0.017430 0.762552
O O3 0.587830 0.071548 0.899584
O O4 0.000000 0.000000 0.000000
O O5 0.309272 0.736453 0.194766
O O6 0.231018 0.666975 0.918637
O O7 0.893289 0.978488 0.149999
O O8 0.390503 0.340547 0.599732
O O9 0.982474 0.532907 0.700247
O O10 0.540492 0.684522 0.676687
O O11 0.898352 0.329806 0.591311
O O12 0.786465 0.652918 0.903692
O O13 0.282046 0.020590 0.768177
O O14 0.500000 0.000000 0.000000
O O15 0.224313 0.689582 0.301228
O O16 0.163634 0.002128 0.499620
O O17 0.161777 0.284246 0.827004
#
# Coordination Sequence:
#
# PCOD9056822 Si02
#       8
#     2   2   2   2   2   2   2   2
#     4  10  22  36  62 100 125 148 193 254 312 353
#     4  11  21  39  64  93 121 159 194 249 308 353
#     4  11  21  39  63  94 121 151 199 258 303 351
#     4  11  21  37  66  94 117 153 202 254 303 352
#     4  10  17  36  63  91 120 147 193 255 301 352
#     4  11  26  44  58  84 128 163 204 247 295 356
#     4  11  26  43  60  85 121 170 205 242 294 361
#     4  11  20  40  65  91 123 157 199 248 298 361
#
# _framework density 24.983167999999999
#
# number of rings (size 3 to 8) (size 9 to 14) (size 15 to 20)
#    0.000    1.250    5.000    3.000    7.000    0.500 
#    0.000    2.500    0.000    0.000    0.000    0.000 
#    0.000    0.000    0.000    0.000    0.000    0.000 
#
# Total GULP energy -89519.636172 kJ/mol
# GULP energy per Si atom -5594.977261 kJ/mol
# Density = 2.492630 g / cm^3
# Si number density = 24.983168 Si / 1000 Ang^3
#
#
#
# Elastic Constant Matrix: (Units=GPa)
#
#
# Indices 1 2 3 4 5 6 
#
# 1 140.4109 61.1279 6.0593 26.2007 -11.1331 1.6765
# 2 61.1279 145.8744 19.0291 28.7436 1.8836 -0.4548
# 3 6.0593 19.0291 44.2806 -0.7403 -7.0383 -3.6713
# 4 26.2007 28.7436 -0.7403 40.0423 -2.0788 -0.4700
# 5 -11.1331 1.8836 -7.0383 -2.0788 20.0112 5.5871
# 6 1.6765 -0.4548 -3.6713 -0.4700 5.5871 53.8200
#
#
#
# Elastic Compliance Matrix: (Units=1/GPa)
#
#
# Indices 1 2 3 4 5 6 
#
# 1 0.009802 -0.003641 0.001052 -0.003477 0.006063 -0.000924
# 2 -0.003641 0.010098 -0.004738 -0.005224 -0.005291 0.000379
# 3 0.001052 -0.004738 0.026257 0.003749 0.010471 0.000664
# 4 -0.003477 -0.005224 0.003749 0.031229 0.003043 0.000277
# 5 0.006063 -0.005291 0.010471 0.003043 0.059423 -0.005661
# 6 -0.000924 0.000379 0.000664 0.000277 -0.005661 0.019248
#
#
# Mechanical properties :
#
#
# Convention : Reuss Voigt Hill
#
# Bulk Modulus (GPa) = 31.74199 55.88871 43.81535
# Shear Modulus (GPa) = 27.59198 39.06469 33.32834
#
# Velocity S-wave (km/s) = 3.32689 3.95858 3.65640
# Velocity P-wave (km/s) = 5.24314 6.58125 5.94993
#
# Compressibility (1/GPa) = 0.03150401
#
# Stress axis : x y z
#
# Youngs Moduli (GPa) = 102.01835 99.03088 38.08439
#
# Poissons Ratio (x) = 0.36056 -0.04008
# Poissons Ratio (y) = 0.37144 0.18045
# Poissons Ratio (z) = -0.10735 0.46922
#
# Static dielectric constant tensor:
#      x y z
#    x 1.967490 0.069390 0.010430 
#    y 0.069390 2.057120 0.069870 
#    z 0.010430 0.069870 2.195990 
# 
# From -- ./inp_files/501005.got.cif
#   From: 2010.05.17/outbox.cif.g08.bks.cpg/sg2_251_cif.got.tgz:501005.got - 2010.06.03 11:33:40.
