data_PCOD9056836
_publ_section_title
;
Structure prediction by ZEFSAII (Michael W. Deem and Ramdas Pophale) SiO2 
 PCOD9056836
Probable space group: P -1
;
_chemical_formula_sum "Si O2"
_cell_formula_units_Z 16
_cell_length_a 9.571194
_cell_length_b 21.077115
_cell_length_c 12.685305
_cell_angle_alpha 140.892423
_cell_angle_beta 35.866879
_cell_angle_gamma 114.677598
_cell_volume 775.913568
_symmetry_space_group_name_H-M "P -1"
_symmetry_group_IT_number 2
_symmetry_cell_setting 'triclinic'
loop_
_space_group_symop_operation_xyz
x,y,z
-x,-y,-z
loop_
_atom_site_type_symbol
_atom_site_label
_atom_site_fract_x
_atom_site_fract_y
_atom_site_fract_z
Si Si1 0.566813 0.445094 0.059679
Si Si2 0.062775 0.685086 0.146546
Si Si3 0.453983 0.894553 0.872428
Si Si4 0.060662 0.715442 0.780656
Si Si5 0.289572 0.752242 0.908979
Si Si6 0.339474 0.320865 0.904455
Si Si7 0.069576 0.482756 0.747018
Si Si8 0.806411 0.119183 0.201296
O O1 0.279726 0.581599 0.424157
O O2 0.663735 0.373180 0.018247
O O3 0.516809 0.369758 0.908936
O O4 0.828351 0.457011 0.885156
O O5 0.770849 0.769968 0.500240
O O6 0.080285 0.761713 0.140428
O O7 0.061808 0.574140 0.954883
O O8 0.300866 0.867659 0.024009
O O9 0.286046 0.915641 0.893285
O O10 0.500000 0.000000 0.000000
O O11 0.204202 0.720719 0.809287
O O12 0.035014 0.817130 0.851224
O O13 0.759506 0.735412 0.020647
O O14 0.608674 0.638673 0.603223
O O15 0.524213 0.223937 0.574405
O O16 0.041389 0.437989 0.189796
O O17 0.000000 0.000000 0.000000
#
# Coordination Sequence:
#
# PCOD9056836 Si02
#       8
#     2   2   2   2   2   2   2   2
#     4  12  24  38  66 104 134 164 206 259 323 388
#     4  12  22  42  67  98 129 167 211 260 323 380
#     4  11  25  45  66  93 125 165 222 270 308 372
#     4  11  22  43  67  96 130 169 210 258 319 383
#     4  11  22  40  71  97 127 167 208 263 321 382
#     4  12  25  43  63  97 137 167 207 262 319 385
#     4  12  20  40  69  96 132 167 203 255 326 384
#     4  11  26  45  67  89 124 176 218 260 319 370
#
# _framework density 20.620854000000001
#
# number of rings (size 3 to 8) (size 9 to 14) (size 15 to 20)
#    0.000    0.500    6.250    3.000    1.750    1.000 
#    2.250    0.000    0.000    0.000    0.000    0.000 
#    0.000    0.000    0.000    0.000    0.000    0.000 
#
# Total GULP energy -89505.179066 kJ/mol
# GULP energy per Si atom -5594.073692 kJ/mol
# Density = 2.057392 g / cm^3
# Si number density = 20.620854 Si / 1000 Ang^3
#
#
#
# Elastic Constant Matrix: (Units=GPa)
#
#
# Indices 1 2 3 4 5 6 
#
# 1 77.0090 21.7397 3.4842 21.3513 0.5105 -0.8790
# 2 21.7397 131.6832 7.8593 -3.2113 -2.7168 -12.8709
# 3 3.4842 7.8593 -7.5769 -2.4141 -7.1921 -12.1807
# 4 21.3513 -3.2113 -2.4141 33.1144 -4.6522 -5.9471
# 5 0.5105 -2.7168 -7.1921 -4.6522 12.9195 7.5661
# 6 -0.8790 -12.8709 -12.1807 -5.9471 7.5661 31.4302
#
#
#
# Elastic Compliance Matrix: (Units=1/GPa)
#
#
# Indices 1 2 3 4 5 6 
#
# 1 0.016525 -0.003438 0.007801 -0.010502 -0.001010 0.000334
# 2 -0.003438 0.008673 -0.000590 0.003801 0.000802 0.003753
# 3 0.007801 -0.000590 -0.062520 -0.017469 -0.029554 -0.020444
# 4 -0.010502 0.003801 -0.017469 0.036764 0.004516 0.000362
# 5 -0.001010 0.000802 -0.029554 0.004516 0.080110 -0.029584
# 6 0.000334 0.003753 -0.020444 0.000362 -0.029584 0.032630
#
#
# Mechanical properties :
#
#
# Convention : Reuss Voigt Hill
#
# Bulk Modulus (GPa) = -33.58341 29.69796 -1.94273
# Shear Modulus (GPa) = 52.79226 26.69496 39.74361
#
# Velocity S-wave (km/s) = 5.06527 3.60190 4.39492
# Velocity P-wave (km/s) = 4.22940 5.63307 4.98093
#
# Compressibility (1/GPa) = -0.02977660
#
# Stress axis : x y z
#
# Youngs Moduli (GPa) = 60.51324 115.30186 -15.99486
#
# Poissons Ratio (x) = 0.39642 0.12478
# Poissons Ratio (y) = 0.20805 -0.00944
# Poissons Ratio (z) = -0.47208 0.06808
#
# Static dielectric constant tensor:
#      x y z
#    x 1.728580 -0.025570 -0.005550 
#    y -0.025570 1.790850 -0.016130 
#    z -0.005550 -0.016130 1.699570 
# 
# From -- ./inp_files/257825.got.cif
#   From: 2010.05.17/outbox.cif.g08.bks.cpg/sg2_129_cif.got.tgz:257825.got - 2010.06.03 11:33:40.
