data_PCOD9056124
_publ_section_title
;
Structure prediction by ZEFSAII (Michael W. Deem and Ramdas Pophale) SiO2 
 PCOD9056124
Probable space group: P -1
;
_chemical_formula_sum "Si O2"
_cell_formula_units_Z 16
_cell_length_a 10.381476
_cell_length_b 8.357256
_cell_length_c 20.768898
_cell_angle_alpha 100.746784
_cell_angle_beta 45.167702
_cell_angle_gamma 134.943283
_cell_volume 709.153162
_symmetry_space_group_name_H-M "P -1"
_symmetry_group_IT_number 2
_symmetry_cell_setting 'triclinic'
loop_
_space_group_symop_operation_xyz
x,y,z
-x,-y,-z
loop_
_atom_site_type_symbol
_atom_site_label
_atom_site_fract_x
_atom_site_fract_y
_atom_site_fract_z
Si Si1 0.547912 0.294360 0.616029
Si Si2 0.865669 0.768189 0.163803
Si Si3 0.171476 0.953614 0.451636
Si Si4 0.268268 0.173504 0.568167
Si Si5 0.748955 0.663558 0.983500
Si Si6 0.464327 0.281441 0.177390
Si Si7 0.263173 0.870031 0.131050
Si Si8 0.222560 0.758329 0.761640
O O1 0.417583 0.330066 0.716134
O O2 0.386812 0.191935 0.595490
O O3 0.919096 0.620743 0.505231
O O4 0.417822 0.029016 0.669160
O O5 0.734057 0.519381 0.152148
O O6 0.049198 0.849495 0.169719
O O7 0.068180 0.029290 0.062718
O O8 0.287582 0.066358 0.492756
O O9 0.486140 0.145188 0.313101
O O10 0.000000 0.000000 0.500000
O O11 0.500000 0.500000 0.500000
O O12 0.894705 0.947208 0.688621
O O13 0.009011 0.712256 0.881115
O O14 0.500000 0.500000 0.000000
O O15 0.554128 0.469330 0.100689
O O16 0.450862 0.089912 0.139727
O O17 0.039114 0.552358 0.203190
O O18 0.500000 0.000000 0.000000
#
# Coordination Sequence:
#
# PCOD9056124 Si02
#       8
#     2   2   2   2   2   2   2   2
#     4  11  23  46  69 102 138 178 231 294 347 414
#     4  11  23  41  72  98 134 181 232 286 347 418
#     4  12  24  45  72 101 141 184 235 290 348 420
#     4  12  24  41  73 103 132 185 237 276 350 415
#     4  11  21  46  73 101 138 184 229 294 356 413
#     4  12  23  41  70 102 132 182 235 280 351 417
#     4  12  23  43  63  97 140 179 229 282 344 414
#     4  11  25  43  71 102 143 184 229 295 353 407
#
# _framework density 22.56212
#
# number of rings (size 3 to 8) (size 9 to 14) (size 15 to 20)
#    0.000    0.500    6.250    3.000    0.000    1.000 
#    0.000    1.250    2.750    0.000    0.000    0.000 
#    0.000    0.000    0.000    0.000    0.000    0.000 
#
# Total GULP energy -89423.616517 kJ/mol
# GULP energy per Si atom -5588.976032 kJ/mol
# Density = 2.251077 g / cm^3
# Si number density = 22.562120 Si / 1000 Ang^3
#
#
#
# Elastic Constant Matrix: (Units=GPa)
#
#
# Indices 1 2 3 4 5 6 
#
# 1 38.6631 13.1025 14.8714 -6.0665 7.4156 -10.3337
# 2 13.1025 168.2054 33.2386 -18.8462 1.6617 -1.0549
# 3 14.8714 33.2386 115.0531 -17.7709 -10.6897 -10.4109
# 4 -6.0665 -18.8462 -17.7709 37.8387 -7.4453 2.7884
# 5 7.4156 1.6617 -10.6897 -7.4453 37.0674 -5.0208
# 6 -10.3337 -1.0549 -10.4109 2.7884 -5.0208 34.1468
#
#
#
# Elastic Compliance Matrix: (Units=1/GPa)
#
#
# Indices 1 2 3 4 5 6 
#
# 1 0.030892 -0.001548 -0.003279 0.000944 -0.005870 0.007361
# 2 -0.001548 0.006614 -0.001417 0.002441 -0.000027 -0.000900
# 3 -0.003279 -0.001417 0.010987 0.004754 0.005207 0.002691
# 4 0.000944 0.002441 0.004754 0.031467 0.007439 0.000335
# 5 -0.005870 -0.000027 0.005207 0.007439 0.031672 0.003860
# 6 0.007361 -0.000900 0.002691 0.000335 0.003860 0.032846
#
#
# Mechanical properties :
#
#
# Convention : Reuss Voigt Hill
#
# Bulk Modulus (GPa) = 27.77589 49.37186 38.57388
# Shear Modulus (GPa) = 29.59133 39.19117 34.39125
#
# Velocity S-wave (km/s) = 3.62546 4.17230 3.90845
# Velocity P-wave (km/s) = 5.46469 6.71870 6.12388
#
# Compressibility (1/GPa) = 0.03600244
#
# Stress axis : x y z
#
# Youngs Moduli (GPa) = 32.37103 151.19494 91.01914
#
# Poissons Ratio (x) = 0.23412 0.29846
# Poissons Ratio (y) = 0.05012 0.12902
# Poissons Ratio (z) = 0.10615 0.21432
#
# Static dielectric constant tensor:
#      x y z
#    x 2.000210 -0.038190 -0.204410 
#    y -0.038190 1.842260 0.012790 
#    z -0.204410 0.012790 2.087870 
# 
# From -- ./inp_files/349700.got.cif
#   From: 2010.05.17/outbox.cif.g08.bks.cpg/sg2_175_cif.got.tgz:349700.got - 2010.06.03 11:33:40.
