data_PCOD9056517
_publ_section_title
;
Structure prediction by ZEFSAII (Michael W. Deem and Ramdas Pophale) SiO2 
 PCOD9056517
Probable space group: P -1
;
_chemical_formula_sum "Si O2"
_cell_formula_units_Z 16
_cell_length_a 27.067752
_cell_length_b 8.341239
_cell_length_c 9.438858
_cell_angle_alpha 57.377636
_cell_angle_beta 152.137254
_cell_angle_gamma 135.963513
_cell_volume 661.100014
_symmetry_space_group_name_H-M "P -1"
_symmetry_group_IT_number 2
_symmetry_cell_setting 'triclinic'
loop_
_space_group_symop_operation_xyz
x,y,z
-x,-y,-z
loop_
_atom_site_type_symbol
_atom_site_label
_atom_site_fract_x
_atom_site_fract_y
_atom_site_fract_z
Si Si1 0.662843 0.799219 0.383071
Si Si2 0.121922 0.790609 0.760442
Si Si3 0.862397 0.967282 0.039800
Si Si4 0.092959 0.417847 0.287435
Si Si5 0.205751 0.198754 0.568721
Si Si6 0.369378 0.827441 0.941765
Si Si7 0.468165 0.557209 0.241837
Si Si8 0.185365 0.533439 0.872213
O O1 0.719800 0.761686 0.407569
O O2 0.564337 0.591058 0.344441
O O3 0.589494 0.909813 0.095041
O O4 0.790191 0.985152 0.715826
O O5 0.199068 0.679098 0.977745
O O6 0.966480 0.571864 0.507054
O O7 0.179203 0.976319 0.947975
O O8 0.128444 0.931534 0.568138
O O9 0.828479 0.709375 0.052895
O O10 0.019772 0.187643 0.318543
O O11 0.119584 0.297040 0.285871
O O12 0.236299 0.643782 0.598010
O O13 0.000000 0.500000 0.000000
O O14 0.320199 0.359821 0.900557
O O15 0.308464 0.722508 0.992761
O O16 0.477869 0.794505 0.182913
O O17 0.500000 0.500000 0.500000
#
# Coordination Sequence:
#
# PCOD9056517 Si02
#       8
#     2   2   2   2   2   2   2   2
#     4  12  25  44  68 102 138 181 233 288 351 411
#     4  11  22  39  67 100 140 185 231 280 344 408
#     4  12  23  40  69  97 146 185 231 276 347 416
#     4  11  22  40  64 104 144 187 221 277 352 421
#     4  11  24  44  70 100 141 182 229 293 350 411
#     4  11  22  42  70  99 139 179 228 288 348 415
#     4  11  25  48  74  95 130 182 241 296 348 407
#     4  11  22  39  66 101 139 184 233 280 338 423
#
# _framework density 24.202089000000001
#
# number of rings (size 3 to 8) (size 9 to 14) (size 15 to 20)
#    0.000    0.750    5.000    4.125    0.000    1.500 
#    0.000    0.625    0.000    0.000    0.000    0.000 
#    0.000    0.000    0.000    0.000    0.000    0.000 
#
# Total GULP energy -89328.065553 kJ/mol
# GULP energy per Si atom -5583.004097 kJ/mol
# Density = 2.414700 g / cm^3
# Si number density = 24.202089 Si / 1000 Ang^3
#
#
#
# Elastic Constant Matrix: (Units=GPa)
#
#
# Indices 1 2 3 4 5 6 
#
# 1 186.4076 53.8447 30.2372 -30.7346 12.9864 -21.3722
# 2 53.8447 90.0330 14.7835 -24.1909 2.6472 -14.1385
# 3 30.2372 14.7835 61.8770 -17.4155 4.7019 -12.8180
# 4 -30.7346 -24.1909 -17.4155 31.4703 -2.4778 11.9658
# 5 12.9864 2.6472 4.7019 -2.4778 23.8146 -6.3513
# 6 -21.3722 -14.1385 -12.8180 11.9658 -6.3513 41.2434
#
#
#
# Elastic Compliance Matrix: (Units=1/GPa)
#
#
# Indices 1 2 3 4 5 6 
#
# 1 0.007340 -0.002986 -0.001498 0.003493 -0.002779 0.000873
# 2 -0.002986 0.015346 0.000454 0.008642 0.001138 0.001522
# 3 -0.001498 0.000454 0.019940 0.008733 -0.001512 0.002810
# 4 0.003493 0.008642 0.008733 0.049219 -0.001335 -0.006999
# 5 -0.002779 0.001138 -0.001512 -0.001335 0.045089 0.005811
# 6 0.000873 0.001522 0.002810 -0.006999 0.005811 0.029019
#
#
# Mechanical properties :
#
#
# Convention : Reuss Voigt Hill
#
# Bulk Modulus (GPa) = 28.93140 59.56093 44.24616
# Shear Modulus (GPa) = 26.94907 35.26912 31.10910
#
# Velocity S-wave (km/s) = 3.34054 3.82157 3.58912
# Velocity P-wave (km/s) = 5.18256 6.64348 5.95797
#
# Compressibility (1/GPa) = 0.03456452
#
# Stress axis : x y z
#
# Youngs Moduli (GPa) = 136.24418 65.16340 50.15140
#
# Poissons Ratio (x) = 0.19460 0.07514
# Poissons Ratio (y) = 0.40687 -0.02277
# Poissons Ratio (z) = 0.20412 -0.02959
#
# Static dielectric constant tensor:
#      x y z
#    x 1.971700 -0.011510 0.016440 
#    y -0.011510 2.011780 -0.013340 
#    z 0.016440 -0.013340 2.005490 
# 
# From -- ./inp_files/352130.got.cif
#   From: 2010.05.17/outbox.cif.g08.bks.cpg/sg2_177_cif.got.tgz:352130.got - 2010.06.03 11:33:40.
