data_PCOD9056168
_publ_section_title
;
Structure prediction by ZEFSAII (Michael W. Deem and Ramdas Pophale) SiO2 
 PCOD9056168
Probable space group: P -1
;
_chemical_formula_sum "Si O2"
_cell_formula_units_Z 16
_cell_length_a 20.358177
_cell_length_b 8.714418
_cell_length_c 7.825302
_cell_angle_alpha 129.779747
_cell_angle_beta 41.455436
_cell_angle_gamma 135.254280
_cell_volume 629.549319
_symmetry_space_group_name_H-M "P -1"
_symmetry_group_IT_number 2
_symmetry_cell_setting 'triclinic'
loop_
_space_group_symop_operation_xyz
x,y,z
-x,-y,-z
loop_
_atom_site_type_symbol
_atom_site_label
_atom_site_fract_x
_atom_site_fract_y
_atom_site_fract_z
Si Si1 0.064398 0.172478 0.845571
Si Si2 0.326840 0.629729 0.468339
Si Si3 0.498752 0.200557 0.042988
Si Si4 0.936008 0.419449 0.389829
Si Si5 0.763653 0.982707 0.588187
Si Si6 0.518752 0.626145 0.240149
Si Si7 0.754707 0.042786 0.041234
Si Si8 0.130748 0.220367 0.383123
O O1 0.054873 0.104712 0.615695
O O2 0.187444 0.195535 0.663351
O O3 0.020037 0.357433 0.072999
O O4 0.000000 0.000000 0.000000
O O5 0.402135 0.636899 0.490555
O O6 0.251273 0.393236 0.357774
O O7 0.241837 0.730684 0.738638
O O8 0.422716 0.781599 0.257416
O O9 0.542039 0.459894 0.199893
O O10 0.368161 0.128240 0.232104
O O11 0.500000 0.000000 0.000000
O O12 0.824079 0.190302 0.488469
O O13 0.908690 0.614753 0.514429
O O14 0.000000 0.500000 0.500000
O O15 0.790829 0.074133 0.794916
O O16 0.625508 0.862524 0.187664
O O17 0.500000 0.500000 0.000000
O O18 0.830359 0.942357 0.909100
#
# Coordination Sequence:
#
# PCOD9056168 Si02
#       8
#     2   2   2   2   2   2   2   2
#     4   9  21  44  68  91 125 176 223 283 349 395
#     4  11  22  38  68  99 136 179 222 267 334 414
#     4  11  21  38  61  96 137 180 214 269 332 403
#     4  11  25  45  66  96 130 172 231 296 344 399
#     4  10  21  40  63  91 133 172 222 277 337 399
#     4  10  17  36  60  87 136 176 205 261 318 393
#     4  11  21  39  64 102 130 175 229 268 328 412
#     4  11  22  44  70  97 138 177 224 282 350 409
#
# _framework density 25.415004
#
# number of rings (size 3 to 8) (size 9 to 14) (size 15 to 20)
#    0.000    1.500    5.000    2.250    1.750    0.000 
#    9.000    3.750    0.000    0.000    0.000    0.000 
#    0.000    0.000    0.000    0.000    0.000    0.000 
#
# Total GULP energy -89301.588378 kJ/mol
# GULP energy per Si atom -5581.349274 kJ/mol
# Density = 2.535716 g / cm^3
# Si number density = 25.415004 Si / 1000 Ang^3
#
#
#
# Elastic Constant Matrix: (Units=GPa)
#
#
# Indices 1 2 3 4 5 6 
#
# 1 54.3206 13.1999 28.5469 -4.3239 -25.9294 -25.1617
# 2 13.1999 103.3570 41.4093 -14.2322 -14.2197 -30.8351
# 3 28.5469 41.4093 170.7705 10.3021 -35.3076 -16.6424
# 4 -4.3239 -14.2322 10.3021 52.9381 -2.4439 -12.5552
# 5 -25.9294 -14.2197 -35.3076 -2.4439 47.5864 6.3516
# 6 -25.1617 -30.8351 -16.6424 -12.5552 6.3516 53.0417
#
#
#
# Elastic Compliance Matrix: (Units=1/GPa)
#
#
# Indices 1 2 3 4 5 6 
#
# 1 0.037837 0.006795 -0.002779 0.011411 0.018296 0.021537
# 2 0.006795 0.015810 -0.003260 0.008715 0.004735 0.012887
# 3 -0.002779 -0.003260 0.007809 -0.002907 0.003404 -0.001859
# 4 0.011411 0.008715 -0.002907 0.026600 0.006010 0.015144
# 5 0.018296 0.004735 0.003404 0.006010 0.033917 0.009861
# 6 0.021537 0.012887 -0.001859 0.015144 0.009861 0.038382
#
#
# Mechanical properties :
#
#
# Convention : Reuss Voigt Hill
#
# Bulk Modulus (GPa) = 15.88152 54.97336 35.42744
# Shear Modulus (GPa) = 27.80372 47.06606 37.43489
#
# Velocity S-wave (km/s) = 3.31114 4.30804 3.84206
# Velocity P-wave (km/s) = 4.56953 6.81343 5.80101
#
# Compressibility (1/GPa) = 0.06296625
#
# Stress axis : x y z
#
# Youngs Moduli (GPa) = 26.42941 63.25178 128.05711
#
# Poissons Ratio (x) = -0.42980 0.35591
# Poissons Ratio (y) = -0.17959 0.41751
# Poissons Ratio (z) = 0.07345 0.20622
#
# Static dielectric constant tensor:
#      x y z
#    x 2.132970 -0.018480 -0.015570 
#    y -0.018480 2.100100 -0.001930 
#    z -0.015570 -0.001930 2.017530 
# 
# From -- ./inp_files/352367.got.cif
#   From: 2010.05.17/outbox.cif.g08.bks.cpg/sg2_177_cif.got.tgz:352367.got - 2010.06.03 11:33:40.
