data_PCOD9056092
_publ_section_title
;
Structure prediction by ZEFSAII (Michael W. Deem and Ramdas Pophale) SiO2 
 PCOD9056092
Probable space group: P -1
;
_chemical_formula_sum "Si O2"
_cell_formula_units_Z 16
_cell_length_a 11.943052
_cell_length_b 17.940794
_cell_length_c 9.007640
_cell_angle_alpha 28.494468
_cell_angle_beta 58.156253
_cell_angle_gamma 54.400690
_cell_volume 748.051897
_symmetry_space_group_name_H-M "P -1"
_symmetry_group_IT_number 2
_symmetry_cell_setting 'triclinic'
loop_
_space_group_symop_operation_xyz
x,y,z
-x,-y,-z
loop_
_atom_site_type_symbol
_atom_site_label
_atom_site_fract_x
_atom_site_fract_y
_atom_site_fract_z
Si Si1 0.126430 0.571792 0.314542
Si Si2 0.696939 0.184531 0.724097
Si Si3 0.602885 0.732138 0.327222
Si Si4 0.142575 0.862724 0.609321
Si Si5 0.125806 0.639761 0.528626
Si Si6 0.665842 0.985790 0.604358
Si Si7 0.835519 0.712352 0.750603
Si Si8 0.626915 0.855600 0.423104
O O1 0.271945 0.432767 0.470095
O O2 0.102774 0.666438 0.322681
O O3 0.000000 0.500000 0.500000
O O4 0.127922 0.689814 0.970596
O O5 0.544895 0.281409 0.599138
O O6 0.802445 0.141615 0.587860
O O7 0.756822 0.286004 0.622550
O O8 0.681205 0.014255 0.094807
O O9 0.591773 0.806979 0.368769
O O10 0.640679 0.860008 0.965682
O O11 0.254380 0.902583 0.568632
O O12 0.000000 0.000000 0.500000
O O13 0.985435 0.713464 0.590299
O O14 0.158993 0.445881 0.877889
O O15 0.757578 0.875114 0.608315
O O16 0.514757 0.095178 0.471913
O O17 0.743390 0.712293 0.669779
#
# Coordination Sequence:
#
# PCOD9056092 Si02
#       8
#     2   2   2   2   2   2   2   2
#     4  12  28  46  71  97 136 182 225 274 339 395
#     4  11  25  44  67 103 136 175 225 278 338 392
#     4  11  22  47  71  96 139 178 223 280 329 404
#     4  12  26  42  71 101 135 173 227 279 329 405
#     4  11  27  46  63 100 136 177 226 279 334 396
#     4  11  21  46  66 102 132 176 227 274 335 398
#     4  11  25  43  70  93 138 178 224 276 337 401
#     4  11  23  43  73  98 138 174 222 281 335 396
#
# _framework density 21.388891999999998
#
# number of rings (size 3 to 8) (size 9 to 14) (size 15 to 20)
#    0.000    0.750    3.750    3.375    8.750    2.500 
#    0.000    0.000    0.000    0.000    0.000    0.000 
#    0.000    0.000    0.000    0.000    0.000    0.000 
#
# Total GULP energy -89564.849585 kJ/mol
# GULP energy per Si atom -5597.803099 kJ/mol
# Density = 2.134021 g / cm^3
# Si number density = 21.388892 Si / 1000 Ang^3
#
#
#
# Elastic Constant Matrix: (Units=GPa)
#
#
# Indices 1 2 3 4 5 6 
#
# 1 100.5125 22.0440 1.6031 2.5056 -19.5333 2.4890
# 2 22.0440 86.3762 4.2410 9.0326 -14.0937 -4.0678
# 3 1.6031 4.2410 30.5621 3.3929 -9.7583 -16.2005
# 4 2.5056 9.0326 3.3929 15.4989 -0.4964 5.1821
# 5 -19.5333 -14.0937 -9.7583 -0.4964 37.4100 -6.6348
# 6 2.4890 -4.0678 -16.2005 5.1821 -6.6348 45.9635
#
#
#
# Elastic Compliance Matrix: (Units=1/GPa)
#
#
# Indices 1 2 3 4 5 6 
#
# 1 0.011512 -0.001856 0.002331 -0.001455 0.006092 0.001078
# 2 -0.001856 0.014121 0.003618 -0.010076 0.005981 0.004625
# 3 0.002331 0.003618 0.054391 -0.022037 0.020885 0.024864
# 4 -0.001455 -0.010076 -0.022037 0.081603 -0.012700 -0.019613
# 5 0.006092 0.005981 0.020885 -0.012700 0.040065 0.014776
# 6 0.001078 0.004625 0.024864 -0.019613 0.014776 0.035215
#
#
# Mechanical properties :
#
#
# Convention : Reuss Voigt Hill
#
# Bulk Modulus (GPa) = 11.33651 30.35857 20.84754
# Shear Modulus (GPa) = 19.37058 32.41198 25.89128
#
# Velocity S-wave (km/s) = 3.01265 3.89699 3.48300
# Velocity P-wave (km/s) = 4.17290 5.87139 5.09344
#
# Compressibility (1/GPa) = 0.08821057
#
# Stress axis : x y z
#
# Youngs Moduli (GPa) = 86.86386 70.81872 18.38545
#
# Poissons Ratio (x) = 0.13141 -0.04287
# Poissons Ratio (y) = 0.16118 -0.06651
# Poissons Ratio (z) = -0.20252 -0.25619
#
# Static dielectric constant tensor:
#      x y z
#    x 1.772590 0.001000 0.016790 
#    y 0.001000 1.786050 0.005960 
#    z 0.016790 0.005960 1.732160 
# 
# From -- ./inp_files/184358.got.cif
#   From: 2010.05.17/outbox.cif.g08.bks.cpg/sg2_93_cif.got.tgz:184358.got - 2010.06.03 11:33:40.
