data_PCOD9056118
_publ_section_title
;
Structure prediction by ZEFSAII (Michael W. Deem and Ramdas Pophale) SiO2 
 PCOD9056118
Probable space group: P -1
;
_chemical_formula_sum "Si O2"
_cell_formula_units_Z 16
_cell_length_a 9.108902
_cell_length_b 15.364006
_cell_length_c 9.196939
_cell_angle_alpha 51.148850
_cell_angle_beta 109.460290
_cell_angle_gamma 76.006643
_cell_volume 746.035072
_symmetry_space_group_name_H-M "P -1"
_symmetry_group_IT_number 2
_symmetry_cell_setting 'triclinic'
loop_
_space_group_symop_operation_xyz
x,y,z
-x,-y,-z
loop_
_atom_site_type_symbol
_atom_site_label
_atom_site_fract_x
_atom_site_fract_y
_atom_site_fract_z
Si Si1 0.228037 0.859471 0.347636
Si Si2 0.179680 0.850687 0.787833
Si Si3 0.830283 0.654399 0.945965
Si Si4 0.909125 0.839291 0.921818
Si Si5 0.376169 0.875024 0.093988
Si Si6 0.493335 0.634654 0.880166
Si Si7 0.811642 0.651259 0.596214
Si Si8 0.088519 0.183175 0.721491
O O1 0.237772 0.867444 0.169649
O O2 0.425402 0.717781 0.618439
O O3 0.056550 0.850550 0.344521
O O4 0.203071 0.993458 0.265472
O O5 0.323861 0.738569 0.831073
O O6 0.083744 0.796485 0.913977
O O7 0.313354 0.868454 0.919191
O O8 0.000000 0.000000 0.500000
O O9 0.787640 0.792411 0.859140
O O10 0.691145 0.616211 0.999156
O O11 0.805103 0.675780 0.741295
O O12 0.055572 0.518268 0.197539
O O13 0.960804 0.776157 0.168187
O O14 0.597826 0.748180 0.347242
O O15 0.305706 0.032569 0.937280
O O16 0.500000 0.500000 0.000000
O O17 0.924633 0.703173 0.500433
#
# Coordination Sequence:
#
# PCOD9056118 Si02
#       8
#     2   2   2   2   2   2   2   2
#     4  11  21  46  71 103 143 184 232 295 352 418
#     4  12  25  45  75 109 139 181 239 293 349 424
#     4  11  28  47  66 103 143 189 234 293 349 414
#     4  11  24  43  70 104 143 178 235 294 356 409
#     4  11  22  45  71 105 139 181 239 289 350 422
#     4  12  27  47  73 102 143 190 234 288 360 418
#     4  11  26  46  70  96 145 190 237 283 355 424
#     4  11  22  43  73 103 144 182 229 299 359 412
#
# _framework density 21.446712999999999
#
# number of rings (size 3 to 8) (size 9 to 14) (size 15 to 20)
#    0.000    0.750    5.000    1.875    8.750    1.000 
#    2.250    1.250    0.000    0.000    0.000    0.000 
#    0.000    0.000    0.000    0.000    0.000    0.000 
#
# Total GULP energy -89373.892889 kJ/mol
# GULP energy per Si atom -5585.868306 kJ/mol
# Density = 2.139790 g / cm^3
# Si number density = 21.446713 Si / 1000 Ang^3
#
#
#
# Elastic Constant Matrix: (Units=GPa)
#
#
# Indices 1 2 3 4 5 6 
#
# 1 106.5883 43.9085 38.6580 -2.7432 -12.2277 8.7057
# 2 43.9085 117.2277 42.8266 11.1641 -11.2430 -0.3108
# 3 38.6580 42.8266 117.9194 3.9840 3.8281 -3.6384
# 4 -2.7432 11.1641 3.9840 18.3302 2.2536 -3.1240
# 5 -12.2277 -11.2430 3.8281 2.2536 43.8739 3.0619
# 6 8.7057 -0.3108 -3.6384 -3.1240 3.0619 28.6565
#
#
#
# Elastic Compliance Matrix: (Units=1/GPa)
#
#
# Indices 1 2 3 4 5 6 
#
# 1 0.012882 -0.003730 -0.003227 0.003802 0.003019 -0.004272
# 2 -0.003730 0.011994 -0.002972 -0.007588 0.002699 -0.000230
# 3 -0.003227 -0.002972 0.010795 -0.000237 -0.002771 0.002589
# 4 0.003802 -0.007588 -0.000237 0.061346 -0.004427 0.005893
# 5 0.003019 0.002699 -0.002771 -0.004427 0.025102 -0.004404
# 6 -0.004272 -0.000230 0.002589 0.005893 -0.004404 0.037633
#
#
# Mechanical properties :
#
#
# Convention : Reuss Voigt Hill
#
# Bulk Modulus (GPa) = 63.23274 65.83576 64.53425
# Shear Modulus (GPa) = 27.04458 32.59494 29.81976
#
# Velocity S-wave (km/s) = 3.55493 3.90270 3.73287
# Velocity P-wave (km/s) = 6.81158 7.14648 6.98104
#
# Compressibility (1/GPa) = 0.01581459
#
# Stress axis : x y z
#
# Youngs Moduli (GPa) = 77.62921 83.37469 92.63334
#
# Poissons Ratio (x) = 0.31099 0.29889
# Poissons Ratio (y) = 0.28956 0.27526
# Poissons Ratio (z) = 0.25048 0.24775
#
# Static dielectric constant tensor:
#      x y z
#    x 1.852110 -0.018380 0.048230 
#    y -0.018380 1.761830 0.000740 
#    z 0.048230 0.000740 1.797200 
# 
# From -- ./inp_files/205719.got.cif
#   From: 2010.05.17/outbox.cif.g08.bks.cpg/sg2_103_cif.got.tgz:205719.got - 2010.06.03 11:33:40.
