data_PCOD9056940
_publ_section_title
;
Structure prediction by ZEFSAII (Michael W. Deem and Ramdas Pophale) SiO2 
 PCOD9056940
Probable space group: P -1
;
_chemical_formula_sum "Si O2"
_cell_formula_units_Z 14
_cell_length_a 8.638792
_cell_length_b 25.258157
_cell_length_c 9.417264
_cell_angle_alpha 139.413006
_cell_angle_beta 128.372233
_cell_angle_gamma 27.304250
_cell_volume 603.113731
_symmetry_space_group_name_H-M "P -1"
_symmetry_group_IT_number 2
_symmetry_cell_setting 'triclinic'
loop_
_space_group_symop_operation_xyz
x,y,z
-x,-y,-z
loop_
_atom_site_type_symbol
_atom_site_label
_atom_site_fract_x
_atom_site_fract_y
_atom_site_fract_z
Si Si1 0.534303 0.828893 0.478919
Si Si2 0.628374 0.864562 0.312536
Si Si3 0.708167 0.158183 0.097775
Si Si4 0.686478 0.433499 0.618252
Si Si5 0.399189 0.655914 0.382592
Si Si6 0.122948 0.090200 0.934590
Si Si7 0.543952 0.334502 0.893854
O O1 0.442685 0.894098 0.405980
O O2 0.546751 0.728777 0.276492
O O3 0.925371 0.726578 0.519046
O O4 0.250105 0.958910 0.686465
O O5 0.023876 0.743660 0.324590
O O6 0.500000 0.000000 0.500000
O O7 0.569613 0.813500 0.059726
O O8 0.601127 0.256531 0.361347
O O9 0.870138 0.158732 0.063507
O O10 0.000000 0.000000 0.000000
O O11 0.500000 0.500000 0.500000
O O12 0.468532 0.451651 0.642128
O O13 0.686158 0.523920 0.865717
O O14 0.511644 0.624954 0.221185
O O15 0.918619 0.207115 0.930184
O O16 0.500000 0.000000 0.000000
#
# Coordination Sequence:
#
# PCOD9056940 Si02
#       7
#     2   2   2   2   2   2   2
#     4  11  24  43  70 100 136 181 232 284 354 413
#     4  11  22  41  65  99 145 187 222 288 354 414
#     4  12  24  40  67 102 146 183 230 283 356 416
#     4  11  25  48  72  97 137 186 230 288 353 422
#     4  11  25  44  69 101 139 184 237 286 352 415
#     4  12  25  42  70 106 139 180 234 291 345 415
#     4  12  24  46  71  99 142 180 233 290 351 414
#
# _framework density 23.212869999999999
#
# number of rings (size 3 to 8) (size 9 to 14) (size 15 to 20)
#    0.000    0.571    2.857    6.429    2.000    0.000 
#    2.571    0.714    0.000    0.000    0.000    0.000 
#    0.000    0.000    0.000    0.000    0.000    0.000 
#
# Total GULP energy -78160.853481 kJ/mol
# GULP energy per Si atom -5582.918106 kJ/mol
# Density = 2.316004 g / cm^3
# Si number density = 23.212870 Si / 1000 Ang^3
#
#
#
# Elastic Constant Matrix: (Units=GPa)
#
#
# Indices 1 2 3 4 5 6 
#
# 1 75.9094 20.8501 17.2579 -12.8618 1.9999 18.2223
# 2 20.8501 79.1576 23.3076 -16.1116 -7.9643 14.0835
# 3 17.2579 23.3076 120.8397 -18.6612 -5.4288 -12.0067
# 4 -12.8618 -16.1116 -18.6612 43.3039 -0.8581 1.7796
# 5 1.9999 -7.9643 -5.4288 -0.8581 44.5331 -5.5741
# 6 18.2223 14.0835 -12.0067 1.7796 -5.5741 40.7408
#
#
#
# Elastic Compliance Matrix: (Units=1/GPa)
#
#
# Indices 1 2 3 4 5 6 
#
# 1 0.016822 -0.001785 -0.002413 0.003579 -0.002313 -0.008091
# 2 -0.001785 0.015950 -0.002561 0.004562 0.002033 -0.005391
# 3 -0.002413 -0.002561 0.010069 0.002493 0.001556 0.005036
# 4 0.003579 0.004562 0.002493 0.027091 0.001045 -0.003483
# 5 -0.002313 0.002033 0.001556 0.001045 0.023630 0.003978
# 6 -0.008091 -0.005391 0.005036 -0.003483 0.003978 0.032209
#
#
# Mechanical properties :
#
#
# Convention : Reuss Voigt Hill
#
# Bulk Modulus (GPa) = 34.10385 44.30421 39.20403
# Shear Modulus (GPa) = 33.54241 40.01496 36.77868
#
# Velocity S-wave (km/s) = 3.80543 4.15640 3.98478
# Velocity P-wave (km/s) = 5.83370 6.49321 6.17227
#
# Compressibility (1/GPa) = 0.02932220
#
# Stress axis : x y z
#
# Youngs Moduli (GPa) = 59.44529 62.69716 99.30982
#
# Poissons Ratio (x) = 0.11192 0.23967
# Poissons Ratio (y) = 0.10611 0.25435
# Poissons Ratio (z) = 0.14346 0.16058
#
# Static dielectric constant tensor:
#      x y z
#    x 1.996580 0.032620 0.010620 
#    y 0.032620 1.911120 -0.046830 
#    z 0.010620 -0.046830 2.022380 
# 
# From -- ./inp_files/189509.got.cif
#   From: 2010.05.17/outbox.cif.g08.bks.cpg/sg2_95_cif.got.tgz:189509.got - 2010.06.03 11:33:40.
