data_PCOD9056097
_publ_section_title
;
Structure prediction by ZEFSAII (Michael W. Deem and Ramdas Pophale) SiO2 
 PCOD9056097
Probable space group: P -1
;
_chemical_formula_sum "Si O2"
_cell_formula_units_Z 12
_cell_length_a 12.248677
_cell_length_b 9.708327
_cell_length_c 7.067136
_cell_angle_alpha 84.233290
_cell_angle_beta 68.676743
_cell_angle_gamma 35.726807
_cell_volume 426.831296
_symmetry_space_group_name_H-M "P -1"
_symmetry_group_IT_number 2
_symmetry_cell_setting 'triclinic'
loop_
_space_group_symop_operation_xyz
x,y,z
-x,-y,-z
loop_
_atom_site_type_symbol
_atom_site_label
_atom_site_fract_x
_atom_site_fract_y
_atom_site_fract_z
Si Si1 0.183092 0.319012 0.576048
Si Si2 0.307355 0.886077 0.546795
Si Si3 0.460394 0.174224 0.122139
Si Si4 0.778527 0.099103 0.004810
Si Si5 0.842879 0.294295 0.684048
Si Si6 0.219354 0.551566 0.726238
O O1 0.228816 0.116739 0.625567
O O2 0.394200 0.173895 0.364496
O O3 0.145404 0.465151 0.748343
O O4 0.000000 0.500000 0.500000
O O5 0.099606 0.037577 0.548813
O O6 0.535234 0.678094 0.331238
O O7 0.323488 0.779085 0.741287
O O8 0.256870 0.475479 0.171854
O O9 0.500000 0.000000 0.000000
O O10 0.660175 0.079574 0.004587
O O11 0.028854 0.817900 0.914892
O O12 0.757302 0.245851 0.854067
O O13 0.776971 0.386495 0.496874
#
# Coordination Sequence:
#
# PCOD9056097 Si02
#       6
#     2   2   2   2   2   2
#     4  11  21  46  67 100 145 180 231 297 349 408
#     4  12  25  45  73 102 148 183 236 297 349 418
#     4  11  24  43  76 104 135 189 237 288 349 420
#     4  12  26  46  73 107 144 187 236 290 357 421
#     4  11  25  50  71 101 151 187 230 296 352 419
#     4  11  25  45  71 104 143 188 236 288 354 422
#
# _framework density 28.114155
#
# number of rings (size 3 to 8) (size 9 to 14) (size 15 to 20)
#    0.000    0.667    6.667    3.000    0.000    2.667 
#    0.000    0.000    0.000    0.000    0.000    0.000 
#    0.000    0.000    0.000    0.000    0.000    0.000 
#
# Total GULP energy -67324.692887 kJ/mol
# GULP energy per Si atom -5610.391074 kJ/mol
# Density = 2.805017 g / cm^3
# Si number density = 28.114155 Si / 1000 Ang^3
#
#
#
# Elastic Constant Matrix: (Units=GPa)
#
#
# Indices 1 2 3 4 5 6 
#
# 1 134.6749 54.4810 32.6938 8.5069 -37.8759 -3.4387
# 2 54.4810 113.7531 30.2330 -0.1567 -18.7618 7.9145
# 3 32.6938 30.2330 95.3755 5.8128 -23.0592 0.4644
# 4 8.5069 -0.1567 5.8128 64.6126 6.7300 -13.5028
# 5 -37.8759 -18.7618 -23.0592 6.7300 56.5060 8.0440
# 6 -3.4387 7.9145 0.4644 -13.5028 8.0440 73.8347
#
#
#
# Elastic Compliance Matrix: (Units=1/GPa)
#
#
# Indices 1 2 3 4 5 6 
#
# 1 0.011108 -0.004085 -0.000951 -0.002018 0.005950 -0.000056
# 2 -0.004085 0.011475 -0.002179 0.000444 0.000324 -0.001361
# 3 -0.000951 -0.002179 0.012578 -0.001562 0.004045 -0.000616
# 4 -0.002018 0.000444 -0.001562 0.017063 -0.004368 0.003465
# 5 0.005950 0.000324 0.004045 -0.004368 0.024425 -0.003243
# 6 -0.000056 -0.001361 -0.000616 0.003465 -0.003243 0.014678
#
#
# Mechanical properties :
#
#
# Convention : Reuss Voigt Hill
#
# Bulk Modulus (GPa) = 48.23842 64.29102 56.26472
# Shear Modulus (GPa) = 44.37785 54.08370 49.23077
#
# Velocity S-wave (km/s) = 3.97733 4.39078 4.18916
# Velocity P-wave (km/s) = 6.18769 6.97300 6.59205
#
# Compressibility (1/GPa) = 0.02073037
#
# Stress axis : x y z
#
# Youngs Moduli (GPa) = 90.02549 87.14384 79.50363
#
# Poissons Ratio (x) = 0.35597 0.07562
# Poissons Ratio (y) = 0.36774 0.17328
# Poissons Ratio (z) = 0.08563 0.18993
#
# Static dielectric constant tensor:
#      x y z
#    x 2.318190 0.009200 0.079930 
#    y 0.009200 2.220300 0.032450 
#    z 0.079930 0.032450 2.139170 
# 
# From -- ./inp_files/243367.got.cif
#   From: 2010.05.17/outbox.cif.g08.bks.cpg/sg2_122_cif.got.tgz:243367.got - 2010.06.03 11:33:40.
