data_PCOD9056524
_publ_section_title
;
Structure prediction by ZEFSAII (Michael W. Deem and Ramdas Pophale) SiO2 
 PCOD9056524
Probable space group: P -1
;
_chemical_formula_sum "Si O2"
_cell_formula_units_Z 14
_cell_length_a 9.709953
_cell_length_b 24.486113
_cell_length_c 13.449488
_cell_angle_alpha 26.225478
_cell_angle_beta 145.538662
_cell_angle_gamma 148.924614
_cell_volume 706.917360
_symmetry_space_group_name_H-M "P -1"
_symmetry_group_IT_number 2
_symmetry_cell_setting 'triclinic'
loop_
_space_group_symop_operation_xyz
x,y,z
-x,-y,-z
loop_
_atom_site_type_symbol
_atom_site_label
_atom_site_fract_x
_atom_site_fract_y
_atom_site_fract_z
Si Si1 0.428712 0.378920 0.234904
Si Si2 0.170395 0.222886 0.737079
Si Si3 0.967929 0.348498 0.587201
Si Si4 0.676729 0.153869 0.896377
Si Si5 0.106800 0.896345 0.690398
Si Si6 0.515416 0.375072 0.505340
Si Si7 0.393446 0.019539 0.294229
O O1 0.665627 0.334636 0.423553
O O2 0.436962 0.432855 0.265132
O O3 0.137721 0.243233 0.271344
O O4 0.500000 0.500000 0.000000
O O5 0.350812 0.331157 0.581686
O O6 0.070502 0.298166 0.635698
O O7 0.334047 0.150891 0.011725
O O8 0.899548 0.108192 0.705048
O O9 0.927983 0.244731 0.824453
O O10 0.177199 0.507728 0.478125
O O11 0.498936 0.233907 0.680069
O O12 0.784268 0.148368 0.076590
O O13 0.500000 0.000000 0.000000
O O14 0.360295 0.969233 0.647575
O O15 0.000000 0.000000 0.500000
O O16 0.500000 0.000000 0.500000
#
# Coordination Sequence:
#
# PCOD9056524 Si02
#       7
#     2   2   2   2   2   2   2
#     4  11  23  41  66  94 130 168 217 275 326 384
#     4  11  24  44  69  94 137 177 220 272 331 404
#     4  11  24  42  66  96 131 176 220 263 334 399
#     4  11  22  39  66  94 125 170 218 264 324 389
#     4  12  23  39  64  96 129 160 217 277 323 386
#     4  11  22  44  65  92 132 175 217 265 332 394
#     4  11  25  43  66  99 136 172 220 278 335 388
#
# _framework density 19.804295
#
# number of rings (size 3 to 8) (size 9 to 14) (size 15 to 20)
#    0.000    0.857    1.429    8.143    4.000    0.000 
#    2.571    0.714    0.000    0.000    0.000    0.000 
#    0.000    0.000    0.000    0.000    0.000    0.000 
#
# Total GULP energy -78062.692962 kJ/mol
# GULP energy per Si atom -5575.906640 kJ/mol
# Density = 1.975922 g / cm^3
# Si number density = 19.804295 Si / 1000 Ang^3
#
#
#
# Elastic Constant Matrix: (Units=GPa)
#
#
# Indices 1 2 3 4 5 6 
#
# 1 145.7945 13.8898 49.8170 5.3614 -33.4789 11.2172
# 2 13.8898 86.5746 14.5904 6.8787 -8.3476 9.9553
# 3 49.8170 14.5904 99.6062 15.0436 -30.5083 3.0424
# 4 5.3614 6.8787 15.0436 34.1799 -2.1301 -7.1800
# 5 -33.4789 -8.3476 -30.5083 -2.1301 38.1697 -4.4612
# 6 11.2172 9.9553 3.0424 -7.1800 -4.4612 33.8578
#
#
#
# Elastic Compliance Matrix: (Units=1/GPa)
#
#
# Indices 1 2 3 4 5 6 
#
# 1 0.009293 -0.000218 -0.002792 -0.000273 0.005613 -0.002082
# 2 -0.000218 0.012530 -0.000764 -0.002907 0.001310 -0.003987
# 3 -0.002792 -0.000764 0.015217 -0.005570 0.009214 -0.000185
# 4 -0.000273 -0.002907 -0.005570 0.033930 -0.002462 0.008317
# 5 0.005613 0.001310 0.009214 -0.002462 0.038814 0.001519
# 6 -0.002082 -0.003987 -0.000185 0.008317 0.001519 0.033378
#
#
# Mechanical properties :
#
#
# Convention : Reuss Voigt Hill
#
# Bulk Modulus (GPa) = 33.90784 54.28553 44.09669
# Shear Modulus (GPa) = 31.14474 38.15333 34.64903
#
# Velocity S-wave (km/s) = 3.96994 4.39397 4.18733
# Velocity P-wave (km/s) = 6.17839 7.29474 6.75965
#
# Compressibility (1/GPa) = 0.02949171
#
# Stress axis : x y z
#
# Youngs Moduli (GPa) = 107.60971 79.80646 65.71615
#
# Poissons Ratio (x) = 0.01741 0.18346
# Poissons Ratio (y) = 0.02347 0.05023
# Poissons Ratio (z) = 0.30042 0.06100
#
# Static dielectric constant tensor:
#      x y z
#    x 1.653080 -0.050460 -0.035690 
#    y -0.050460 1.576060 0.049420 
#    z -0.035690 0.049420 1.714120 
# 
# From -- ./inp_files/183726.got.cif
#   From: 2010.05.17/outbox.cif.g08.bks.cpg/sg2_92_cif.got.tgz:183726.got - 2010.06.03 11:33:40.
