data_PCOD9056615
_publ_section_title
;
Structure prediction by ZEFSAII (Michael W. Deem and Ramdas Pophale) SiO2 
 PCOD9056615
Probable space group: P -1
;
_chemical_formula_sum "Si O2"
_cell_formula_units_Z 16
_cell_length_a 16.957460
_cell_length_b 8.610084
_cell_length_c 7.888433
_cell_angle_alpha 52.840461
_cell_angle_beta 72.153134
_cell_angle_gamma 106.186465
_cell_volume 691.332880
_symmetry_space_group_name_H-M "P -1"
_symmetry_group_IT_number 2
_symmetry_cell_setting 'triclinic'
loop_
_space_group_symop_operation_xyz
x,y,z
-x,-y,-z
loop_
_atom_site_type_symbol
_atom_site_label
_atom_site_fract_x
_atom_site_fract_y
_atom_site_fract_z
Si Si1 0.564252 0.618598 0.553148
Si Si2 0.412795 0.104243 0.132183
Si Si3 0.211700 0.061920 0.362368
Si Si4 0.891026 0.738700 0.809147
Si Si5 0.418778 0.936378 0.856053
Si Si6 0.261081 0.387130 0.419014
Si Si7 0.997824 0.553835 0.767138
Si Si8 0.926670 0.717703 0.191936
O O1 0.500000 0.500000 0.500000
O O2 0.667444 0.632868 0.483972
O O3 0.587256 0.881890 0.378966
O O4 0.489638 0.403218 0.879035
O O5 0.303927 0.039816 0.304173
O O6 0.468654 0.010739 0.259712
O O7 0.404759 0.004206 0.012354
O O8 0.209336 0.267759 0.134357
O O9 0.205142 0.138928 0.506328
O O10 0.110217 0.818770 0.506810
O O11 0.899148 0.554451 0.813023
O O12 0.900596 0.695188 0.025872
O O13 0.000000 0.000000 0.500000
O O14 0.335653 0.640471 0.096082
O O15 0.177743 0.403866 0.553584
O O16 0.006296 0.379805 0.759645
O O17 0.000000 0.500000 0.000000
O O18 0.000000 0.000000 0.000000
#
# Coordination Sequence:
#
# PCOD9056615 Si02
#       8
#     2   2   2   2   2   2   2   2
#     4   9  20  38  63  87 127 158 209 260 309 369
#     4   9  19  37  62  85 122 168 200 265 313 365
#     4  11  22  40  59  90 130 161 208 255 318 378
#     4   9  20  39  61  85 121 163 199 249 313 369
#     4   9  19  39  60  90 122 160 216 252 312 374
#     4  11  23  39  61  95 128 161 209 266 302 372
#     4   9  19  39  60  84 122 163 197 253 314 365
#     4  11  22  40  66  92 124 161 210 259 305 373
#
# _framework density 23.143698000000001
#
# number of rings (size 3 to 8) (size 9 to 14) (size 15 to 20)
#    0.000    2.250    0.000    3.750    3.500    2.000 
#    9.000    4.375    0.000    0.000    0.000    0.000 
#    0.000    0.000    0.000    0.000    0.000    0.000 
#
# Total GULP energy -89168.621075 kJ/mol
# GULP energy per Si atom -5573.038817 kJ/mol
# Density = 2.309102 g / cm^3
# Si number density = 23.143698 Si / 1000 Ang^3
#
#
#
# Elastic Constant Matrix: (Units=GPa)
#
#
# Indices 1 2 3 4 5 6 
#
# 1 94.5940 36.7546 12.3447 -7.8307 8.0115 -40.7488
# 2 36.7546 106.6051 8.7724 -10.7884 -1.4375 -30.4600
# 3 12.3447 8.7724 24.0856 -15.6697 4.3219 -12.5472
# 4 -7.8307 -10.7884 -15.6697 33.4146 -8.0845 4.2326
# 5 8.0115 -1.4375 4.3219 -8.0845 27.4633 1.0719
# 6 -40.7488 -30.4600 -12.5472 4.2326 1.0719 45.2721
#
#
#
# Elastic Compliance Matrix: (Units=1/GPa)
#
#
# Indices 1 2 3 4 5 6 
#
# 1 0.018562 -0.002004 0.000924 0.000678 -0.006078 0.015695
# 2 -0.002004 0.012226 0.002477 0.004235 0.001821 0.006670
# 3 0.000924 0.002477 0.071011 0.031167 -0.002895 0.019334
# 4 0.000678 0.004235 0.031167 0.047235 0.008732 0.007475
# 5 -0.006078 0.001821 -0.002895 0.008732 0.041574 -0.006849
# 6 0.015695 0.006670 0.019334 0.007475 -0.006849 0.045525
#
#
# Mechanical properties :
#
#
# Convention : Reuss Voigt Hill
#
# Bulk Modulus (GPa) = 9.56083 37.89202 23.72643
# Shear Modulus (GPa) = 18.64256 32.39085 25.51670
#
# Velocity S-wave (km/s) = 2.84124 3.74512 3.32404
# Velocity P-wave (km/s) = 3.86051 5.92531 5.00064
#
# Compressibility (1/GPa) = 0.10459347
#
# Stress axis : x y z
#
# Youngs Moduli (GPa) = 53.87425 81.78964 14.08233
#
# Poissons Ratio (x) = 0.16395 -0.01302
# Poissons Ratio (y) = 0.10799 -0.03489
# Poissons Ratio (z) = -0.04980 -0.20262
#
# Static dielectric constant tensor:
#      x y z
#    x 1.936360 0.000530 0.028370 
#    y 0.000530 1.886940 -0.048720 
#    z 0.028370 -0.048720 1.918110 
# 
# From -- ./inp_files/328410.got.cif
#   From: 2010.05.17/outbox.cif.g08.bks.cpg/sg2_165_cif.got.tgz:328410.got - 2010.06.03 11:33:40.
