data_PCOD9056159
_publ_section_title
;
Structure prediction by ZEFSAII (Michael W. Deem and Ramdas Pophale) SiO2 
 PCOD9056159
Probable space group: P -1
;
_chemical_formula_sum "Si O2"
_cell_formula_units_Z 15
_cell_length_a 9.417902
_cell_length_b 8.367789
_cell_length_c 8.852026
_cell_angle_alpha 88.942319
_cell_angle_beta 114.308369
_cell_angle_gamma 99.386608
_cell_volume 626.322118
_symmetry_space_group_name_H-M "P -1"
_symmetry_group_IT_number 2
_symmetry_cell_setting 'triclinic'
loop_
_space_group_symop_operation_xyz
x,y,z
-x,-y,-z
loop_
_atom_site_type_symbol
_atom_site_label
_atom_site_fract_x
_atom_site_fract_y
_atom_site_fract_z
Si Si1 0.049512 0.181082 0.950914
Si Si2 0.031296 0.726138 0.770666
Si Si3 0.383872 0.829949 0.936505
Si Si4 0.430249 0.655457 0.273153
Si Si5 0.279076 0.143345 0.456605
Si Si6 0.201026 0.780722 0.411481
Si Si7 0.000000 0.500000 0.500000
Si Si8 0.611645 0.719686 0.812908
O O1 0.944617 0.190573 0.759310
O O2 0.237264 0.230435 0.012138
O O3 0.009399 0.293028 0.069573
O O4 0.000000 0.000000 0.000000
O O5 0.201223 0.838804 0.832540
O O6 0.020764 0.554426 0.688191
O O7 0.893558 0.807579 0.631073
O O8 0.456056 0.738751 0.834286
O O9 0.388908 0.730498 0.095507
O O10 0.500000 0.000000 0.000000
O O11 0.610735 0.730533 0.391335
O O12 0.325400 0.712317 0.359919
O O13 0.401677 0.462400 0.250348
O O14 0.350414 0.164404 0.317626
O O15 0.273527 0.958282 0.503120
O O16 0.132355 0.655745 0.510700
#
# Coordination Sequence:
#
# PCOD9056159 Si02
#       8
#     2   2   2   2   2   2   1   2
#     4  11  21  48  79 105 139 201 254 304 370 448
#     4  11  26  49  72 109 147 198 244 312 371 442
#     4  12  27  46  74 110 150 192 252 304 371 447
#     4  12  27  46  75 109 149 199 243 310 378 446
#     4  11  26  49  77 103 149 198 248 303 379 450
#     4  12  25  48  76 109 150 198 254 308 379 448
#     4  12  32  42  72 112 158 190 250 312 378 444
#     4  11  25  44  75 109 150 187 252 311 372 444
#
# _framework density 23.949337
#
# number of rings (size 3 to 8) (size 9 to 14) (size 15 to 20)
#    0.000    0.533    4.000    4.400    7.467    2.667 
#    0.000    0.000    0.000    0.000    0.000    0.000 
#    0.000    0.000    0.000    0.000    0.000    0.000 
#
# Total GULP energy -83872.829543 kJ/mol
# GULP energy per Si atom -5591.521970 kJ/mol
# Density = 2.389483 g / cm^3
# Si number density = 23.949337 Si / 1000 Ang^3
#
#
#
# Elastic Constant Matrix: (Units=GPa)
#
#
# Indices 1 2 3 4 5 6 
#
# 1 125.0512 27.0989 30.3696 -10.0787 34.8902 23.8462
# 2 27.0989 121.0632 6.3264 6.8292 9.7955 27.7473
# 3 30.3696 6.3264 69.2554 15.0288 20.8755 8.6260
# 4 -10.0787 6.8292 15.0288 36.1607 13.9003 -3.6608
# 5 34.8902 9.7955 20.8755 13.9003 39.5776 1.2550
# 6 23.8462 27.7473 8.6260 -3.6608 1.2550 21.7522
#
#
#
# Elastic Compliance Matrix: (Units=1/GPa)
#
#
# Indices 1 2 3 4 5 6 
#
# 1 0.017207 0.000701 -0.002816 0.010827 -0.017158 -0.015829
# 2 0.000701 0.012679 0.002651 -0.003948 -0.003182 -0.018475
# 3 -0.002816 0.002651 0.020096 -0.008472 -0.005501 -0.009373
# 4 0.010827 -0.003948 -0.008472 0.042850 -0.019302 0.004852
# 5 -0.017158 -0.003182 -0.005501 -0.019302 0.050262 0.018902
# 6 -0.015829 -0.018475 -0.009373 0.004852 0.018902 0.090335
#
#
# Mechanical properties :
#
#
# Convention : Reuss Voigt Hill
#
# Bulk Modulus (GPa) = 19.58648 49.21771 34.40210
# Shear Modulus (GPa) = 20.05031 36.26975 28.16003
#
# Velocity S-wave (km/s) = 2.89657 3.89580 3.43274
# Velocity P-wave (km/s) = 4.40260 6.38997 5.48701
#
# Compressibility (1/GPa) = 0.05105562
#
# Stress axis : x y z
#
# Youngs Moduli (GPa) = 58.11631 78.86951 49.76154
#
# Poissons Ratio (x) = -0.05529 0.14011
# Poissons Ratio (y) = -0.04074 -0.13194
# Poissons Ratio (z) = 0.16363 -0.20911
#
# Static dielectric constant tensor:
#      x y z
#    x 1.942230 -0.042770 0.013850 
#    y -0.042770 1.871400 0.028510 
#    z 0.013850 0.028510 1.889040 
# 
# From -- ./inp_files/158912.got.cif
#   From: 2010.05.17/outbox.cif.g08.bks.cpg/sg2_80_cif.got.tgz:158912.got - 2010.06.03 11:33:40.
