data_PCOD9056274
_publ_section_title
;
Structure prediction by ZEFSAII (Michael W. Deem and Ramdas Pophale) SiO2 
 PCOD9056274
Probable space group: P -1
;
_chemical_formula_sum "Si O2"
_cell_formula_units_Z 16
_cell_length_a 7.063002
_cell_length_b 8.325564
_cell_length_c 16.927906
_cell_angle_alpha 68.268591
_cell_angle_beta 48.643092
_cell_angle_gamma 76.800786
_cell_volume 693.878767
_symmetry_space_group_name_H-M "P -1"
_symmetry_group_IT_number 2
_symmetry_cell_setting 'triclinic'
loop_
_space_group_symop_operation_xyz
x,y,z
-x,-y,-z
loop_
_atom_site_type_symbol
_atom_site_label
_atom_site_fract_x
_atom_site_fract_y
_atom_site_fract_z
Si Si1 0.904178 0.752858 0.611328
Si Si2 0.637961 0.054526 0.143650
Si Si3 0.763614 0.368672 0.577184
Si Si4 0.746935 0.044154 0.287235
Si Si5 0.411431 0.572809 0.737667
Si Si6 0.691076 0.886441 0.917708
Si Si7 0.853936 0.727911 0.047363
Si Si8 0.070904 0.077325 0.591423
O O1 0.412471 0.988607 0.742415
O O2 0.670665 0.617563 0.708444
O O3 0.177549 0.686088 0.518788
O O4 0.962690 0.886199 0.639622
O O5 0.427301 0.133185 0.131640
O O6 0.861075 0.201285 0.054137
O O7 0.731229 0.880270 0.106794
O O8 0.515928 0.463639 0.654512
O O9 0.000000 0.500000 0.500000
O O10 0.840509 0.209034 0.641779
O O11 0.708994 0.244837 0.281751
O O12 0.732407 0.927274 0.390629
O O13 0.036726 0.021006 0.184128
O O14 0.177473 0.141746 0.465499
O O15 0.213202 0.451316 0.860172
O O16 0.736375 0.726457 0.992133
O O17 0.500000 0.000000 0.000000
#
# Coordination Sequence:
#
# PCOD9056274 Si02
#       8
#     2   2   2   2   2   2   2   2
#     4   8  19  39  67  86 122 172 207 243 311 368
#     4   9  20  41  63  87 125 163 204 253 311 372
#     4   8  17  37  61  87 123 164 199 253 313 356
#     4  11  24  36  63 100 121 158 217 251 305 377
#     4  11  22  37  59  97 132 152 203 274 302 355
#     4   9  20  39  64  87 119 165 206 248 307 373
#     4   9  20  40  62  90 122 160 209 252 308 371
#     4   9  19  40  65  89 122 166 219 236 301 391
#
# _framework density 23.058783999999999
#
# number of rings (size 3 to 8) (size 9 to 14) (size 15 to 20)
#    0.750    2.000    0.000    0.750    5.250    2.500 
#    2.250    3.125    0.000    0.000    0.000    0.000 
#    0.000    0.000    0.000    0.000    0.000    0.000 
#
# Total GULP energy -89171.280224 kJ/mol
# GULP energy per Si atom -5573.205014 kJ/mol
# Density = 2.300630 g / cm^3
# Si number density = 23.058784 Si / 1000 Ang^3
#
#
#
# Elastic Constant Matrix: (Units=GPa)
#
#
# Indices 1 2 3 4 5 6 
#
# 1 124.0149 24.8239 32.8013 -5.6506 17.6337 -8.0722
# 2 24.8239 74.2949 14.5328 11.8568 5.2347 4.8760
# 3 32.8013 14.5328 79.4629 6.5642 9.1544 -3.6307
# 4 -5.6506 11.8568 6.5642 33.4474 3.9835 -2.3916
# 5 17.6337 5.2347 9.1544 3.9835 29.0050 -3.3759
# 6 -8.0722 4.8760 -3.6307 -2.3916 -3.3759 20.0454
#
#
#
# Elastic Compliance Matrix: (Units=1/GPa)
#
#
# Indices 1 2 3 4 5 6 
#
# 1 0.010927 -0.003665 -0.003451 0.004735 -0.005032 0.004384
# 2 -0.003665 0.016425 -0.001217 -0.006645 -0.000198 -0.006518
# 3 -0.003451 -0.001217 0.014714 -0.002753 -0.001839 0.000933
# 4 0.004735 -0.006645 -0.002753 0.034622 -0.004827 0.006342
# 5 -0.005032 -0.000198 -0.001839 -0.004827 0.039249 0.003723
# 6 0.004384 -0.006518 0.000933 0.006342 0.003723 0.054790
#
#
# Mechanical properties :
#
#
# Convention : Reuss Voigt Hill
#
# Bulk Modulus (GPa) = 39.37199 46.89875 43.13537
# Shear Modulus (GPa) = 25.52869 30.20720 27.86795
#
# Velocity S-wave (km/s) = 3.33094 3.62333 3.48021
# Velocity P-wave (km/s) = 5.64847 6.15529 5.90732
#
# Compressibility (1/GPa) = 0.02539877
#
# Stress axis : x y z
#
# Youngs Moduli (GPa) = 91.52002 60.88425 67.96381
#
# Poissons Ratio (x) = 0.22312 0.23456
# Poissons Ratio (y) = 0.33538 0.08273
# Poissons Ratio (z) = 0.31586 0.07411
#
# Static dielectric constant tensor:
#      x y z
#    x 1.893510 0.005830 -0.000590 
#    y 0.005830 1.934230 0.047600 
#    z -0.000590 0.047600 1.991380 
# 
# From -- ./inp_files/586698.got.cif
#   From: 2010.05.17/outbox.cif.g08.bks.cpg/sg2_294_cif.got.tgz:586698.got - 2010.06.03 11:33:40.
