data_PCOD9056301
_publ_section_title
;
Structure prediction by ZEFSAII (Michael W. Deem and Ramdas Pophale) SiO2 
 PCOD9056301
Probable space group: P -1
;
_chemical_formula_sum "Si O2"
_cell_formula_units_Z 12
_cell_length_a 9.761719
_cell_length_b 11.191893
_cell_length_c 14.185706
_cell_angle_alpha 153.263435
_cell_angle_beta 52.493453
_cell_angle_gamma 134.050961
_cell_volume 500.774573
_symmetry_space_group_name_H-M "P -1"
_symmetry_group_IT_number 2
_symmetry_cell_setting 'triclinic'
loop_
_space_group_symop_operation_xyz
x,y,z
-x,-y,-z
loop_
_atom_site_type_symbol
_atom_site_label
_atom_site_fract_x
_atom_site_fract_y
_atom_site_fract_z
Si Si1 0.065897 0.299849 0.240556
Si Si2 0.067561 0.809404 0.461993
Si Si3 0.375338 0.734043 0.184707
Si Si4 0.645690 0.440521 0.326986
Si Si5 0.564185 0.773259 0.929225
Si Si6 0.756505 0.921187 0.243103
O O1 0.067332 0.547639 0.344723
O O2 0.273565 0.346645 0.222314
O O3 0.904306 0.195152 0.315443
O O4 0.000000 0.000000 0.000000
O O5 0.213991 0.848013 0.343876
O O6 0.853613 0.699696 0.439674
O O7 0.158749 0.071536 0.683412
O O8 0.545786 0.905031 0.307272
O O9 0.462875 0.745300 0.052864
O O10 0.277267 0.389081 0.006730
O O11 0.500000 0.500000 0.500000
O O12 0.573468 0.394908 0.217582
O O13 0.651086 0.125769 0.124163
#
# Coordination Sequence:
#
# PCOD9056301 Si02
#       6
#     2   2   2   2   2   2
#     4  12  19  41  69  94 123 160 213 261 304 360
#     4  12  24  40  66  96 127 166 211 258 311 372
#     4  11  22  40  61  93 132 162 204 259 319 370
#     4  11  25  45  65  90 125 167 214 256 307 378
#     4  11  24  43  67  92 126 167 205 260 317 368
#     4  11  22  37  63  97 130 162 204 262 314 367
#
# _framework density 23.962879000000001
#
# number of rings (size 3 to 8) (size 9 to 14) (size 15 to 20)
#    0.000    0.667    5.000    3.000    0.000    4.667 
#    0.000    1.667    0.000    0.000    0.000    0.000 
#    0.000    0.000    0.000    0.000    0.000    0.000 
#
# Total GULP energy -67121.184803 kJ/mol
# GULP energy per Si atom -5593.432067 kJ/mol
# Density = 2.390834 g / cm^3
# Si number density = 23.962879 Si / 1000 Ang^3
#
#
#
# Elastic Constant Matrix: (Units=GPa)
#
#
# Indices 1 2 3 4 5 6 
#
# 1 154.7425 62.9306 46.5541 -5.1970 24.2663 31.4816
# 2 62.9306 123.0371 35.7932 -11.5266 14.5692 27.1412
# 3 46.5541 35.7932 77.2328 1.1307 23.2088 16.4868
# 4 -5.1970 -11.5266 1.1307 40.4647 -5.9442 -9.5877
# 5 24.2663 14.5692 23.2088 -5.9442 49.9998 9.7121
# 6 31.4816 27.1412 16.4868 -9.5877 9.7121 52.8385
#
#
#
# Elastic Compliance Matrix: (Units=1/GPa)
#
#
# Indices 1 2 3 4 5 6 
#
# 1 0.009533 -0.003180 -0.003130 -0.000526 -0.001758 -0.002842
# 2 -0.003180 0.011371 -0.002932 0.002335 0.000389 -0.002679
# 3 -0.003130 -0.002932 0.018499 -0.003100 -0.006228 -0.001818
# 4 -0.000526 0.002335 -0.003100 0.026922 0.003370 0.004347
# 5 -0.001758 0.000389 -0.006228 0.003370 0.024236 -0.001052
# 6 -0.002842 -0.002679 -0.001818 0.004347 -0.001052 0.023545
#
#
# Mechanical properties :
#
#
# Convention : Reuss Voigt Hill
#
# Bulk Modulus (GPa) = 47.80404 71.72982 59.76693
# Shear Modulus (GPa) = 35.82607 42.64288 39.23448
#
# Velocity S-wave (km/s) = 3.87080 4.22304 4.05075
# Velocity P-wave (km/s) = 6.32218 7.33331 6.84644
#
# Compressibility (1/GPa) = 0.02091873
#
# Stress axis : x y z
#
# Youngs Moduli (GPa) = 104.89405 87.94590 54.05711
#
# Poissons Ratio (x) = 0.27963 0.16922
# Poissons Ratio (y) = 0.33352 0.15851
# Poissons Ratio (z) = 0.32835 0.25788
#
# Static dielectric constant tensor:
#      x y z
#    x 1.930620 -0.009810 -0.014800 
#    y -0.009810 1.995390 -0.039570 
#    z -0.014800 -0.039570 1.989520 
# 
# From -- ./inp_files/160423.got.cif
#   From: 2010.05.17/outbox.cif.g08.bks.cpg/sg2_81_cif.got.tgz:160423.got - 2010.06.03 11:33:40.
