data_PCOD9056647
_publ_section_title
;
Structure prediction by ZEFSAII (Michael W. Deem and Ramdas Pophale) SiO2 
 PCOD9056647
Probable space group: P -1
;
_chemical_formula_sum "Si O2"
_cell_formula_units_Z 14
_cell_length_a 9.106828
_cell_length_b 15.180791
_cell_length_c 14.770043
_cell_angle_alpha 29.898860
_cell_angle_beta 68.785480
_cell_angle_gamma 49.063331
_cell_volume 643.447359
_symmetry_space_group_name_H-M "P -1"
_symmetry_group_IT_number 2
_symmetry_cell_setting 'triclinic'
loop_
_space_group_symop_operation_xyz
x,y,z
-x,-y,-z
loop_
_atom_site_type_symbol
_atom_site_label
_atom_site_fract_x
_atom_site_fract_y
_atom_site_fract_z
Si Si1 0.530985 0.715371 0.531150
Si Si2 0.841389 0.456609 0.949983
Si Si3 0.024939 0.608357 0.672645
Si Si4 0.793643 0.233746 0.012947
Si Si5 0.899168 0.891277 0.628735
Si Si6 0.566812 0.073500 0.249400
Si Si7 0.705345 0.318411 0.544634
O O1 0.387139 0.731335 0.471702
O O2 0.375899 0.859194 0.529335
O O3 0.568062 0.894528 0.346978
O O4 0.743360 0.414803 0.782211
O O5 0.649765 0.721137 0.816170
O O6 0.979294 0.440873 0.851586
O O7 0.736927 0.372389 0.998833
O O8 0.028061 0.250354 0.166527
O O9 0.228360 0.542034 0.634466
O O10 0.015946 0.685495 0.707709
O O11 0.790614 0.866020 0.447622
O O12 0.619959 0.209902 0.061808
O O13 0.059409 0.949629 0.221283
O O14 0.000000 0.000000 0.500000
O O15 0.500000 0.500000 0.500000
#
# Coordination Sequence:
#
# PCOD9056647 Si02
#       7
#     2   2   2   2   2   2   2
#     4  12  23  42  71  99 136 173 223 273 344 404
#     4  12  21  37  66 104 146 176 214 267 342 415
#     4  11  22  40  64  98 138 176 217 275 332 401
#     4  11  24  44  67 100 138 179 221 276 338 398
#     4  12  21  35  62 103 138 176 214 264 339 416
#     4  11  23  38  65 104 140 176 214 266 341 419
#     4  11  27  50  70  93 132 180 238 289 328 388
#
# _framework density 21.757802000000002
#
# number of rings (size 3 to 8) (size 9 to 14) (size 15 to 20)
#    0.000    0.571    5.714    3.857    0.000    0.571 
#    0.000    3.571    0.000    0.000    0.000    0.000 
#    0.000    0.000    0.000    0.000    0.000    0.000 
#
# Total GULP energy -78095.892213 kJ/mol
# GULP energy per Si atom -5578.278015 kJ/mol
# Density = 2.170828 g / cm^3
# Si number density = 21.757802 Si / 1000 Ang^3
#
#
#
# Elastic Constant Matrix: (Units=GPa)
#
#
# Indices 1 2 3 4 5 6 
#
# 1 110.1232 29.9650 35.4484 1.2127 -21.5587 -18.3129
# 2 29.9650 94.1400 30.7626 -3.4108 -1.8589 -28.4394
# 3 35.4484 30.7626 77.9045 -1.2668 -2.1384 -18.2682
# 4 1.2127 -3.4108 -1.2668 13.0408 -2.5937 0.4280
# 5 -21.5587 -1.8589 -2.1384 -2.5937 40.3758 2.8327
# 6 -18.3129 -28.4394 -18.2682 0.4280 2.8327 19.3686
#
#
#
# Elastic Compliance Matrix: (Units=1/GPa)
#
#
# Indices 1 2 3 4 5 6 
#
# 1 0.012808 -0.000771 -0.003851 -0.000767 0.006096 0.006471
# 2 -0.000771 0.019471 -0.000966 0.003942 -0.001210 0.027040
# 3 -0.003851 -0.000966 0.017730 0.001053 -0.001931 0.011921
# 4 -0.000767 0.003942 0.001053 0.078688 0.004627 0.003641
# 5 0.006096 -0.001210 -0.001931 0.004627 0.028307 -0.002076
# 6 0.006471 0.027040 0.011921 0.003641 -0.002076 0.108919
#
#
# Mechanical properties :
#
#
# Convention : Reuss Voigt Hill
#
# Bulk Modulus (GPa) = 25.75192 52.72442 39.23817
# Shear Modulus (GPa) = 17.23872 26.95648 22.09760
#
# Velocity S-wave (km/s) = 2.81784 3.52367 3.19033
# Velocity P-wave (km/s) = 4.73797 6.39062 5.62532
#
# Compressibility (1/GPa) = 0.03883205
#
# Stress axis : x y z
#
# Youngs Moduli (GPa) = 78.07473 51.35792 56.40181
#
# Poissons Ratio (x) = 0.03959 0.21722
# Poissons Ratio (y) = 0.06019 0.05450
# Poissons Ratio (z) = 0.30069 0.04963
#
# Static dielectric constant tensor:
#      x y z
#    x 1.903770 -0.028010 -0.068440 
#    y -0.028010 1.743000 0.003460 
#    z -0.068440 0.003460 1.859710 
# 
# From -- ./inp_files/236790.got.cif
#   From: 2010.05.17/outbox.cif.g08.bks.cpg/sg2_119_cif.got.tgz:236790.got - 2010.06.03 11:33:40.
