data_PCOD9056002
_publ_section_title
;
Structure prediction by ZEFSAII (Michael W. Deem and Ramdas Pophale) SiO2 
 PCOD9056002
Probable space group: P -1
;
_chemical_formula_sum "Si O2"
_cell_formula_units_Z 14
_cell_length_a 12.561276
_cell_length_b 7.781383
_cell_length_c 8.497386
_cell_angle_alpha 110.386869
_cell_angle_beta 71.440791
_cell_angle_gamma 136.583665
_cell_volume 532.337995
_symmetry_space_group_name_H-M "P -1"
_symmetry_group_IT_number 2
_symmetry_cell_setting 'triclinic'
loop_
_space_group_symop_operation_xyz
x,y,z
-x,-y,-z
loop_
_atom_site_type_symbol
_atom_site_label
_atom_site_fract_x
_atom_site_fract_y
_atom_site_fract_z
Si Si1 0.012686 0.580402 0.837201
Si Si2 0.613275 0.321735 0.282642
Si Si3 0.288855 0.166526 0.891208
Si Si4 0.684781 0.367734 0.930168
Si Si5 0.040474 0.227690 0.648932
Si Si6 0.680780 0.804203 0.763490
Si Si7 0.450693 0.736023 0.363420
O O1 0.844700 0.458074 0.832528
O O2 0.068961 0.474079 0.669900
O O3 0.124575 0.881344 0.870510
O O4 0.000000 0.500000 0.000000
O O5 0.787439 0.614876 0.305738
O O6 0.453892 0.256961 0.300539
O O7 0.583665 0.208171 0.435852
O O8 0.638274 0.238291 0.082170
O O9 0.387447 0.190100 0.711309
O O10 0.288193 0.385070 0.970737
O O11 0.364404 0.203549 0.037333
O O12 0.583205 0.219157 0.776847
O O13 0.000000 0.000000 0.500000
O O14 0.863517 0.058529 0.748219
O O15 0.668631 0.572916 0.671815
#
# Coordination Sequence:
#
# PCOD9056002 Si02
#       7
#     2   2   2   2   2   2   2
#     4  12  25  47  78 117 150 213 265 313 403 466
#     4  12  23  45  81 110 155 209 258 312 404 452
#     4  11  22  44  76 116 156 194 266 321 381 478
#     4  11  23  45  78 110 156 205 253 325 387 459
#     4  12  27  47  78 112 152 205 269 319 379 473
#     4  11  21  44  77 110 149 202 261 311 386 466
#     4  11  23  42  74 118 153 202 263 309 394 474
#
# _framework density 26.299078999999999
#
# number of rings (size 3 to 8) (size 9 to 14) (size 15 to 20)
#    0.000    0.571    7.143    1.714    0.000    1.143 
#    5.143    3.571    0.000    0.000    0.000    0.000 
#    0.000    0.000    0.000    0.000    0.000    0.000 
#
# Total GULP energy -78091.399970 kJ/mol
# GULP energy per Si atom -5577.957141 kJ/mol
# Density = 2.623922 g / cm^3
# Si number density = 26.299079 Si / 1000 Ang^3
#
#
#
# Elastic Constant Matrix: (Units=GPa)
#
#
# Indices 1 2 3 4 5 6 
#
# 1 118.0858 37.6638 82.4670 0.6698 -3.4229 12.6399
# 2 37.6638 116.5065 74.3838 4.5122 5.6363 9.5793
# 3 82.4670 74.3838 158.2348 19.8919 -5.3337 21.2288
# 4 0.6698 4.5122 19.8919 54.8387 -10.5497 -5.3798
# 5 -3.4229 5.6363 -5.3337 -10.5497 38.4058 7.3619
# 6 12.6399 9.5793 21.2288 -5.3798 7.3619 34.0319
#
#
#
# Elastic Compliance Matrix: (Units=1/GPa)
#
#
# Indices 1 2 3 4 5 6 
#
# 1 0.013679 0.000252 -0.007524 0.002696 0.000922 -0.000231
# 2 0.000252 0.012592 -0.006393 0.000869 -0.002679 0.001067
# 3 -0.007524 -0.006393 0.014710 -0.004887 0.002081 -0.005804
# 4 0.002696 0.000869 -0.004887 0.021170 0.004447 0.004187
# 5 0.000922 -0.002679 0.002081 0.004447 0.029272 -0.006516
# 6 -0.000231 0.001067 -0.005804 0.004187 -0.006516 0.034862
#
#
# Mechanical properties :
#
#
# Convention : Reuss Voigt Hill
#
# Bulk Modulus (GPa) = 73.26513 86.87292 80.06902
# Shear Modulus (GPa) = 31.61252 38.67610 35.14431
#
# Velocity S-wave (km/s) = 3.47080 3.83903 3.65955
# Velocity P-wave (km/s) = 6.63181 7.26328 6.95472
#
# Compressibility (1/GPa) = 0.01364906
#
# Stress axis : x y z
#
# Youngs Moduli (GPa) = 73.10488 79.41710 67.98271
#
# Poissons Ratio (x) = -0.01999 0.51152
# Poissons Ratio (y) = -0.01840 0.43462
# Poissons Ratio (z) = 0.55006 0.50772
#
# Static dielectric constant tensor:
#      x y z
#    x 2.089630 -0.027290 0.007300 
#    y -0.027290 2.179930 -0.044680 
#    z 0.007300 -0.044680 2.076690 
# 
# From -- ./inp_files/293184.got.cif
#   From: 2010.05.17/outbox.cif.g08.bks.cpg/sg2_147_cif.got.tgz:293184.got - 2010.06.03 11:33:40.
