data_PCOD9056825
_publ_section_title
;
Structure prediction by ZEFSAII (Michael W. Deem and Ramdas Pophale) SiO2 
 PCOD9056825
Probable space group: P -1
;
_chemical_formula_sum "Si O2"
_cell_formula_units_Z 16
_cell_length_a 18.686188
_cell_length_b 8.964735
_cell_length_c 11.845874
_cell_angle_alpha 78.469118
_cell_angle_beta 139.302185
_cell_angle_gamma 133.017287
_cell_volume 706.055745
_symmetry_space_group_name_H-M "P -1"
_symmetry_group_IT_number 2
_symmetry_cell_setting 'triclinic'
loop_
_space_group_symop_operation_xyz
x,y,z
-x,-y,-z
loop_
_atom_site_type_symbol
_atom_site_label
_atom_site_fract_x
_atom_site_fract_y
_atom_site_fract_z
Si Si1 0.862035 0.154430 0.065662
Si Si2 0.873518 0.297992 0.612920
Si Si3 0.958342 0.117773 0.392488
Si Si4 0.347469 0.690306 0.747583
Si Si5 0.555246 0.458335 0.291236
Si Si6 0.297438 0.349720 0.319190
Si Si7 0.997521 0.749157 0.015871
Si Si8 0.646127 0.869452 0.219796
O O1 0.947130 0.112620 0.245202
O O2 0.925233 0.369798 0.188310
O O3 0.977238 0.308722 0.063601
O O4 0.633249 0.848219 0.833896
O O5 0.691988 0.210734 0.396602
O O6 0.897351 0.222404 0.763312
O O7 0.819674 0.128014 0.470030
O O8 0.136910 0.431079 0.596491
O O9 0.752823 0.929205 0.227701
O O10 0.000000 0.000000 0.500000
O O11 0.369075 0.568171 0.710569
O O12 0.511937 0.851687 0.014834
O O13 0.698365 0.647804 0.540185
O O14 0.530856 0.598803 0.185418
O O15 0.500000 0.500000 0.500000
O O16 0.134536 0.053825 0.114351
O O17 0.219601 0.432871 0.187332
#
# Coordination Sequence:
#
# PCOD9056825 Si02
#       8
#     2   2   2   2   2   2   2   2
#     4  11  24  42  71  97 143 182 223 282 350 404
#     4  11  26  47  67 103 140 185 226 287 351 404
#     4  11  22  40  71 103 135 182 230 281 348 404
#     4  11  24  44  68 101 142 182 230 285 345 413
#     4  12  22  44  71 104 135 181 235 281 340 413
#     4  11  23  43  72 104 133 174 234 293 334 401
#     4  11  24  47  70  98 140 182 229 283 344 411
#     4  12  24  45  72 102 139 180 239 284 338 411
#
# _framework density 22.661097999999999
#
# number of rings (size 3 to 8) (size 9 to 14) (size 15 to 20)
#    0.000    0.750    5.000    3.375    0.000    2.000 
#    6.750    1.250    0.000    0.000    0.000    0.000 
#    0.000    0.000    0.000    0.000    0.000    0.000 
#
# Total GULP energy -89107.235636 kJ/mol
# GULP energy per Si atom -5569.202227 kJ/mol
# Density = 2.260952 g / cm^3
# Si number density = 22.661098 Si / 1000 Ang^3
#
#
#
# Elastic Constant Matrix: (Units=GPa)
#
#
# Indices 1 2 3 4 5 6 
#
# 1 67.0533 31.8074 31.6697 -5.5664 -10.3227 0.1876
# 2 31.8074 69.1375 26.1872 -26.2571 2.1612 -3.6823
# 3 31.6697 26.1872 110.3872 -23.2386 -2.9985 7.6375
# 4 -5.5664 -26.2571 -23.2386 54.9618 1.0909 -6.9234
# 5 -10.3227 2.1612 -2.9985 1.0909 42.0143 -1.8495
# 6 0.1876 -3.6823 7.6375 -6.9234 -1.8495 23.4035
#
#
#
# Elastic Compliance Matrix: (Units=1/GPa)
#
#
# Indices 1 2 3 4 5 6 
#
# 1 0.022853 -0.010945 -0.004805 -0.005242 0.005909 -0.001421
# 2 -0.010945 0.024650 -0.000949 0.011264 -0.003996 0.007292
# 3 -0.004805 -0.000949 0.011609 0.003617 -0.000523 -0.002871
# 4 -0.005242 0.011264 0.003617 0.025628 -0.001920 0.008064
# 5 0.005909 -0.003996 -0.000523 -0.001920 0.025513 0.000943
# 6 -0.001421 0.007292 -0.002871 0.008064 0.000943 0.047284
#
#
# Mechanical properties :
#
#
# Convention : Reuss Voigt Hill
#
# Bulk Modulus (GPa) = 38.89042 47.32296 43.10669
# Shear Modulus (GPa) = 25.06178 34.53682 29.79930
#
# Velocity S-wave (km/s) = 3.32917 3.90815 3.63022
# Velocity P-wave (km/s) = 5.65481 6.42597 6.05268
#
# Compressibility (1/GPa) = 0.02571328
#
# Stress axis : x y z
#
# Youngs Moduli (GPa) = 43.75747 40.56737 86.14364
#
# Poissons Ratio (x) = 0.44402 0.41390
# Poissons Ratio (y) = 0.47894 0.08179
# Poissons Ratio (z) = 0.21024 0.03852
#
# Static dielectric constant tensor:
#      x y z
#    x 1.879700 -0.022310 0.039310 
#    y -0.022310 1.923000 0.026570 
#    z 0.039310 0.026570 1.919830 
# 
# From -- ./inp_files/399580.got.cif
#   From: 2010.05.17/outbox.cif.g08.bks.cpg/sg2_200_cif.got.tgz:399580.got - 2010.06.03 11:33:40.
