data_PCOD9056694
_publ_section_title
;
Structure prediction by ZEFSAII (Michael W. Deem and Ramdas Pophale) SiO2 
 PCOD9056694
Probable space group: P -1
;
_chemical_formula_sum "Si O2"
_cell_formula_units_Z 14
_cell_length_a 9.064394
_cell_length_b 14.015015
_cell_length_c 19.491436
_cell_angle_alpha 146.411950
_cell_angle_beta 125.018455
_cell_angle_gamma 32.379767
_cell_volume 659.590250
_symmetry_space_group_name_H-M "P -1"
_symmetry_group_IT_number 2
_symmetry_cell_setting 'triclinic'
loop_
_space_group_symop_operation_xyz
x,y,z
-x,-y,-z
loop_
_atom_site_type_symbol
_atom_site_label
_atom_site_fract_x
_atom_site_fract_y
_atom_site_fract_z
Si Si1 0.412297 0.603800 0.959416
Si Si2 0.505285 0.695291 0.322255
Si Si3 0.264338 0.152885 0.351105
Si Si4 0.557184 0.818394 0.846898
Si Si5 0.356171 0.196528 0.891626
Si Si6 0.835771 0.179001 0.200909
Si Si7 0.207864 0.229867 0.626047
O O1 0.539224 0.366518 0.798380
O O2 0.500000 0.500000 0.000000
O O3 0.523755 0.701250 0.020608
O O4 0.043605 0.899730 0.038830
O O5 0.612706 0.472616 0.272970
O O6 0.770490 0.632009 0.340555
O O7 0.229767 0.026881 0.474524
O O8 0.000000 0.500000 0.500000
O O9 0.072546 0.125457 0.269612
O O10 0.504736 0.988857 0.253499
O O11 0.490164 0.981246 0.373442
O O12 0.343615 0.816387 0.797166
O O13 0.906190 0.486660 0.743121
O O14 0.491478 0.970317 0.850707
O O15 0.500000 0.000000 0.000000
O O16 0.000000 0.500000 0.000000
#
# Coordination Sequence:
#
# PCOD9056694 Si02
#       7
#     2   2   2   2   2   2   2
#     4  11  22  41  68  99 134 177 233 284 341 418
#     4  11  22  40  66  96 130 177 232 275 346 408
#     4  11  23  46  69  98 138 183 231 285 346 420
#     4  12  25  44  67 103 141 179 230 293 349 412
#     4  11  24  43  70 100 136 180 231 289 350 407
#     4  11  23  42  69  97 135 180 234 277 346 417
#     4  11  24  41  69  97 137 179 229 285 349 411
#
# _framework density 21.225297999999999
#
# number of rings (size 3 to 8) (size 9 to 14) (size 15 to 20)
#    0.000    0.857    1.429    7.286    2.000    0.571 
#    2.571    0.714    0.000    0.000    0.000    0.000 
#    0.000    0.000    0.000    0.000    0.000    0.000 
#
# Total GULP energy -78183.071504 kJ/mol
# GULP energy per Si atom -5584.505107 kJ/mol
# Density = 2.117699 g / cm^3
# Si number density = 21.225298 Si / 1000 Ang^3
#
#
#
# Elastic Constant Matrix: (Units=GPa)
#
#
# Indices 1 2 3 4 5 6 
#
# 1 150.4342 53.2689 55.9975 3.6747 7.2594 9.3373
# 2 53.2689 79.1720 48.4154 4.0391 0.9089 2.6479
# 3 55.9975 48.4154 183.6102 4.1090 -10.6998 2.0150
# 4 3.6747 4.0391 4.1090 39.6171 -1.2209 -10.9036
# 5 7.2594 0.9089 -10.6998 -1.2209 36.5091 13.3080
# 6 9.3373 2.6479 2.0150 -10.9036 13.3080 34.9028
#
#
#
# Elastic Compliance Matrix: (Units=1/GPa)
#
#
# Indices 1 2 3 4 5 6 
#
# 1 0.009238 -0.005187 -0.001510 -0.000658 -0.001593 -0.001589
# 2 -0.005187 0.018135 -0.003200 -0.001042 -0.000402 0.000024
# 3 -0.001510 -0.003200 0.006930 -0.000424 0.002735 -0.000928
# 4 -0.000658 -0.001042 -0.000424 0.028151 -0.002710 0.010107
# 5 -0.001593 -0.000402 0.002735 -0.002710 0.033249 -0.013225
# 6 -0.001589 0.000024 -0.000928 0.010107 -0.013225 0.037328
#
#
# Mechanical properties :
#
#
# Convention : Reuss Voigt Hill
#
# Bulk Modulus (GPa) = 68.93104 80.95335 74.94219
# Shear Modulus (GPa) = 31.71362 39.24145 35.47753
#
# Velocity S-wave (km/s) = 3.86961 4.30444 4.09280
# Velocity P-wave (km/s) = 7.24648 7.93266 7.59732
#
# Compressibility (1/GPa) = 0.01450725
#
# Stress axis : x y z
#
# Youngs Moduli (GPa) = 108.24998 55.14322 144.30233
#
# Poissons Ratio (x) = 0.28602 0.21795
# Poissons Ratio (y) = 0.56148 0.46181
# Poissons Ratio (z) = 0.16350 0.17648
#
# Static dielectric constant tensor:
#      x y z
#    x 1.811570 0.027330 -0.037670 
#    y 0.027330 1.811920 -0.007930 
#    z -0.037670 -0.007930 1.834850 
# 
# From -- ./inp_files/246136.got.cif
#   From: 2010.05.17/outbox.cif.g08.bks.cpg/sg2_124_cif.got.tgz:246136.got - 2010.06.03 11:33:40.
