data_PCOD9056886
_publ_section_title
;
Structure prediction by ZEFSAII (Michael W. Deem and Ramdas Pophale) SiO2 
 PCOD9056886
Probable space group: P -1
;
_chemical_formula_sum "Si O2"
_cell_formula_units_Z 16
_cell_length_a 9.339965
_cell_length_b 7.053602
_cell_length_c 22.843515
_cell_angle_alpha 105.602005
_cell_angle_beta 137.885246
_cell_angle_gamma 47.045293
_cell_volume 647.228801
_symmetry_space_group_name_H-M "P -1"
_symmetry_group_IT_number 2
_symmetry_cell_setting 'triclinic'
loop_
_space_group_symop_operation_xyz
x,y,z
-x,-y,-z
loop_
_atom_site_type_symbol
_atom_site_label
_atom_site_fract_x
_atom_site_fract_y
_atom_site_fract_z
Si Si1 0.438197 0.390174 0.614263
Si Si2 0.457808 0.885331 0.117377
Si Si3 0.885256 0.973071 0.218913
Si Si4 0.110267 0.291983 0.276287
Si Si5 0.896218 0.110541 0.356457
Si Si6 0.189711 0.085865 0.930921
Si Si7 0.608312 0.706942 0.529600
Si Si8 0.314858 0.247887 0.204480
O O1 0.221744 0.622801 0.619529
O O2 0.260463 0.476718 0.506150
O O3 0.639790 0.056884 0.664655
O O4 0.734126 0.335860 0.688340
O O5 0.725458 0.539346 0.182038
O O6 0.658846 0.944909 0.163919
O O7 0.289802 0.074558 0.141034
O O8 0.237627 0.984508 0.003399
O O9 0.841507 0.158165 0.273741
O O10 0.835010 0.051192 0.141328
O O11 0.182527 0.400191 0.358763
O O12 0.177317 0.302522 0.230751
O O13 0.677404 0.077907 0.306292
O O14 0.275403 0.829315 0.455759
O O15 0.886700 0.439152 0.861867
O O16 0.500000 0.000000 0.000000
O O17 0.500000 0.000000 0.500000
#
# Coordination Sequence:
#
# PCOD9056886 Si02
#       8
#     2   2   2   2   2   2   2   2
#     4  10  20  38  60  80 116 152 191 231 281 341
#     4  10  21  36  60  86 114 150 188 239 282 331
#     4   9  18  36  59  83 110 150 191 230 274 341
#     4  11  22  37  55  86 120 148 186 239 287 328
#     4  10  20  37  61  86 109 153 195 231 280 335
#     4  10  17  36  64  82 113 151 189 233 282 337
#     4   9  22  38  58  83 113 156 191 228 282 342
#     4  11  21  36  60  88 116 145 193 235 282 337
#
# _framework density 24.720777999999999
#
# number of rings (size 3 to 8) (size 9 to 14) (size 15 to 20)
#    0.000    2.000    3.750    0.375    0.000    6.500 
#    0.000    9.375    0.000    1.500    0.000    0.000 
#    0.000    0.000    0.000    0.000    0.000    0.000 
#
# Total GULP energy -89370.996260 kJ/mol
# GULP energy per Si atom -5585.687266 kJ/mol
# Density = 2.466451 g / cm^3
# Si number density = 24.720778 Si / 1000 Ang^3
#
#
#
# Elastic Constant Matrix: (Units=GPa)
#
#
# Indices 1 2 3 4 5 6 
#
# 1 36.0769 33.9293 23.6968 0.9823 -21.1533 -15.7293
# 2 33.9293 181.4663 75.6467 25.6021 -38.0831 -44.1575
# 3 23.6968 75.6467 140.9631 15.3448 -43.5476 -15.9255
# 4 0.9823 25.6021 15.3448 43.5912 -13.2436 -13.5771
# 5 -21.1533 -38.0831 -43.5476 -13.2436 46.8798 11.2566
# 6 -15.7293 -44.1575 -15.9255 -13.5771 11.2566 39.3293
#
#
#
# Elastic Compliance Matrix: (Units=1/GPa)
#
#
# Indices 1 2 3 4 5 6 
#
# 1 0.047191 -0.003014 -0.000263 0.010664 0.018293 0.013828
# 2 -0.003014 0.009788 -0.003339 -0.001821 0.001183 0.007464
# 3 -0.000263 -0.003339 0.011212 -0.000066 0.007953 -0.001613
# 4 0.010664 -0.001821 -0.000066 0.029663 0.009305 0.009771
# 5 0.018293 0.001183 0.007953 0.009305 0.039668 0.003723
# 6 0.013828 0.007464 -0.001613 0.009771 0.003723 0.040992
#
#
# Mechanical properties :
#
#
# Convention : Reuss Voigt Hill
#
# Bulk Modulus (GPa) = 18.19572 69.45020 43.82296
# Shear Modulus (GPa) = 23.80221 40.97564 32.38892
#
# Velocity S-wave (km/s) = 3.10634 4.07570 3.62358
# Velocity P-wave (km/s) = 4.49914 7.09248 5.93909
#
# Compressibility (1/GPa) = 0.05495797
#
# Stress axis : x y z
#
# Youngs Moduli (GPa) = 21.19061 102.17020 89.19235
#
# Poissons Ratio (x) = 0.30799 0.02343
# Poissons Ratio (y) = 0.06388 0.29780
# Poissons Ratio (z) = 0.00557 0.34113
#
# Static dielectric constant tensor:
#      x y z
#    x 2.017110 0.086520 0.010040 
#    y 0.086520 2.034050 0.028080 
#    z 0.010040 0.028080 1.956250 
# 
# From -- ./inp_files/276442.got.cif
#   From: 2010.05.17/outbox.cif.g08.bks.cpg/sg2_139_cif.got.tgz:276442.got - 2010.06.03 11:33:40.
