data_PCOD9056134
_publ_section_title
;
Structure prediction by ZEFSAII (Michael W. Deem and Ramdas Pophale) SiO2 
 PCOD9056134
Probable space group: P -1
;
_chemical_formula_sum "Si O2"
_cell_formula_units_Z 16
_cell_length_a 13.636632
_cell_length_b 10.063262
_cell_length_c 15.919619
_cell_angle_alpha 45.030214
_cell_angle_beta 31.063231
_cell_angle_gamma 40.418860
_cell_volume 721.072573
_symmetry_space_group_name_H-M "P -1"
_symmetry_group_IT_number 2
_symmetry_cell_setting 'triclinic'
loop_
_space_group_symop_operation_xyz
x,y,z
-x,-y,-z
loop_
_atom_site_type_symbol
_atom_site_label
_atom_site_fract_x
_atom_site_fract_y
_atom_site_fract_z
Si Si1 0.998504 0.733299 0.315112
Si Si2 0.477892 0.607938 0.185123
Si Si3 0.902561 0.420215 0.420672
Si Si4 0.722215 0.915019 0.601433
Si Si5 0.213885 0.993403 0.090488
Si Si6 0.251419 0.385720 0.863964
Si Si7 0.184170 0.708802 0.638048
Si Si8 0.555162 0.614726 0.832805
O O1 0.917671 0.631944 0.345374
O O2 0.828624 0.846251 0.461400
O O3 0.195429 0.533898 0.299187
O O4 0.102828 0.894132 0.151959
O O5 0.288209 0.601380 0.381509
O O6 0.649876 0.609822 0.120951
O O7 0.562670 0.407026 0.152842
O O8 0.386365 0.806666 0.101504
O O9 0.871114 0.388084 0.360505
O O10 0.113985 0.230713 0.383967
O O11 0.539493 0.837652 0.766351
O O12 0.696611 0.146083 0.532945
O O13 0.032255 0.131054 0.229245
O O14 0.300739 0.147517 0.918793
O O15 0.307146 0.524478 0.695174
O O16 0.000000 0.500000 0.000000
O O17 0.500000 0.500000 0.000000
#
# Coordination Sequence:
#
# PCOD9056134 Si02
#       8
#     2   2   2   2   2   2   2   2
#     4   9  17  35  60  86 113 152 189 244 294 340
#     4  11  20  37  63  86 110 156 201 242 289 349
#     4  11  18  33  63  91 113 147 206 238 286 345
#     4  10  17  36  60  85 119 153 193 238 292 349
#     4   9  19  38  63  85 111 156 198 235 297 347
#     4  10  23  40  54  80 126 156 189 242 302 345
#     4  10  21  35  58  88 118 159 188 239 287 345
#     4  10  19  32  56  93 120 143 191 253 296 334
#
# _framework density 22.189167999999999
#
# number of rings (size 3 to 8) (size 9 to 14) (size 15 to 20)
#    0.000    2.000    5.000    1.500    0.000    4.500 
#    4.500    1.250    0.000    0.000    0.000    0.000 
#    0.000    0.000    0.000    0.000    0.000    0.000 
#
# Total GULP energy -89321.053014 kJ/mol
# GULP energy per Si atom -5582.565813 kJ/mol
# Density = 2.213866 g / cm^3
# Si number density = 22.189168 Si / 1000 Ang^3
#
#
#
# Elastic Constant Matrix: (Units=GPa)
#
#
# Indices 1 2 3 4 5 6 
#
# 1 72.6984 123.6594 45.2030 -47.7063 -18.0496 26.9035
# 2 123.6594 77.7559 33.7372 -12.3331 -9.0668 34.9870
# 3 45.2030 33.7372 82.8208 -39.4813 -14.1091 8.6080
# 4 -47.7063 -12.3331 -39.4813 44.6463 10.2666 -9.4623
# 5 -18.0496 -9.0668 -14.1091 10.2666 27.1793 -6.3218
# 6 26.9035 34.9870 8.6080 -9.4623 -6.3218 36.1299
#
#
#
# Elastic Compliance Matrix: (Units=1/GPa)
#
#
# Indices 1 2 3 4 5 6 
#
# 1 -0.003983 0.011258 -0.005157 -0.007379 -0.000822 -0.008783
# 2 0.011258 -0.001491 0.000257 0.010511 0.002245 -0.003855
# 3 -0.005157 0.000257 0.021416 0.013267 0.003360 0.002551
# 4 -0.007379 0.010511 0.013267 0.030370 -0.006206 -0.000977
# 5 -0.000822 0.002245 0.003360 -0.006206 0.041860 0.003337
# 6 -0.008783 -0.003855 0.002551 -0.000977 0.003337 0.037671
#
#
# Mechanical properties :
#
#
# Convention : Reuss Voigt Hill
#
# Bulk Modulus (GPa) = 34.89413 70.94158 52.91785
# Shear Modulus (GPa) = 40.75615 23.63613 32.19614
#
# Velocity S-wave (km/s) = 4.29039 3.26730 3.81331
# Velocity P-wave (km/s) = 6.34848 6.80252 6.57942
#
# Compressibility (1/GPa) = 0.02865811
#
# Stress axis : x y z
#
# Youngs Moduli (GPa) = -251.07185 -670.83982 46.69403
#
# Poissons Ratio (x) = 7.55201 0.24078
# Poissons Ratio (y) = 2.82645 -0.01199
# Poissons Ratio (z) = -1.29465 0.17227
#
# Static dielectric constant tensor:
#      x y z
#    x 1.770340 0.040400 -0.025790 
#    y 0.040400 1.875170 0.035670 
#    z -0.025790 0.035670 1.935070 
# 
# From -- ./inp_files/508055.got.cif
#   From: 2010.05.17/outbox.cif.g08.bks.cpg/sg2_255_cif.got.tgz:508055.got - 2010.06.03 11:33:40.
