data_PCOD9056767
_publ_section_title
;
Structure prediction by ZEFSAII (Michael W. Deem and Ramdas Pophale) SiO2 
 PCOD9056767
Probable space group: P -1
;
_chemical_formula_sum "Si O2"
_cell_formula_units_Z 16
_cell_length_a 16.677803
_cell_length_b 10.662941
_cell_length_c 11.706906
_cell_angle_alpha 128.301902
_cell_angle_beta 47.895309
_cell_angle_gamma 147.281936
_cell_volume 826.772386
_symmetry_space_group_name_H-M "P -1"
_symmetry_group_IT_number 2
_symmetry_cell_setting 'triclinic'
loop_
_space_group_symop_operation_xyz
x,y,z
-x,-y,-z
loop_
_atom_site_type_symbol
_atom_site_label
_atom_site_fract_x
_atom_site_fract_y
_atom_site_fract_z
Si Si1 0.701501 0.359645 0.801278
Si Si2 0.970137 0.887920 0.845797
Si Si3 0.986599 0.226189 0.609235
Si Si4 0.305061 0.137220 0.641530
Si Si5 0.141735 0.632656 0.536802
Si Si6 0.852616 0.899465 0.741840
Si Si7 0.637037 0.927366 0.687361
Si Si8 0.501542 0.388622 0.146455
O O1 0.871437 0.621243 0.817584
O O2 0.731761 0.350178 0.634367
O O3 0.656809 0.140022 0.774639
O O4 0.580218 0.364234 0.959949
O O5 0.874130 0.890018 0.849080
O O6 0.140088 0.044208 0.713679
O O7 0.000000 0.000000 0.000000
O O8 0.070260 0.477681 0.630238
O O9 0.085201 0.190555 0.435394
O O10 0.958889 0.154895 0.727889
O O11 0.810014 0.047610 0.625008
O O12 0.400781 0.193043 0.467330
O O13 0.396348 0.349121 0.761442
O O14 0.235897 0.896161 0.619079
O O15 0.000000 0.500000 0.500000
O O16 0.670793 0.738913 0.798394
O O17 0.519683 0.745743 0.796360
#
# Coordination Sequence:
#
# PCOD9056767 Si02
#       8
#     2   2   2   2   2   2   2   2
#     4  11  20  35  60  90 117 157 206 240 297 356
#     4  12  21  38  63  89 114 155 209 253 285 357
#     4  10  17  36  63  86 111 160 211 242 285 357
#     4  11  20  36  61  93 112 154 214 250 283 349
#     4  11  17  34  65  89 114 155 209 252 278 350
#     4  10  22  37  60  86 125 160 192 247 314 356
#     4  10  19  37  63  85 119 160 207 246 284 359
#     4  11  24  36  55  95 128 157 185 254 317 354
#
# _framework density 19.352364999999999
#
# number of rings (size 3 to 8) (size 9 to 14) (size 15 to 20)
#    0.000    1.250    7.500    0.750    0.000    0.500 
#    0.000    0.625    0.000    9.750    0.000    0.000 
#    0.000    0.000    0.000    0.000    0.000    0.000 
#
# Total GULP energy -89165.725864 kJ/mol
# GULP energy per Si atom -5572.857866 kJ/mol
# Density = 1.930832 g / cm^3
# Si number density = 19.352365 Si / 1000 Ang^3
#
#
#
# Elastic Constant Matrix: (Units=GPa)
#
#
# Indices 1 2 3 4 5 6 
#
# 1 66.2192 41.4779 37.2159 6.8563 -2.0986 -9.7870
# 2 41.4779 106.6015 44.9773 5.0958 1.8776 -19.1715
# 3 37.2159 44.9773 85.4250 6.9014 -12.5817 -0.9554
# 4 6.8563 5.0958 6.9014 27.8998 -0.2575 -4.5640
# 5 -2.0986 1.8776 -12.5817 -0.2575 21.7471 -10.4452
# 6 -9.7870 -19.1715 -0.9554 -4.5640 -10.4452 28.3277
#
#
#
# Elastic Compliance Matrix: (Units=1/GPa)
#
#
# Indices 1 2 3 4 5 6 
#
# 1 0.023186 -0.005218 -0.007040 -0.002333 0.000539 0.004065
# 2 -0.005218 0.015380 -0.006049 0.001278 -0.001436 0.008079
# 3 -0.007040 -0.006049 0.019576 -0.002340 0.009894 -0.002595
# 4 -0.002333 0.001278 -0.002340 0.037899 0.002044 0.006840
# 5 0.000539 -0.001436 0.009894 0.002044 0.063008 0.023111
# 6 0.004065 0.008079 -0.002595 0.006840 0.023111 0.051709
#
#
# Mechanical properties :
#
#
# Convention : Reuss Voigt Hill
#
# Bulk Modulus (GPa) = 46.45303 56.17644 51.31474
# Shear Modulus (GPa) = 19.64263 24.56654 22.10458
#
# Velocity S-wave (km/s) = 3.18936 3.56678 3.38334
# Velocity P-wave (km/s) = 6.13340 6.78629 6.46809
#
# Compressibility (1/GPa) = 0.02152712
#
# Stress axis : x y z
#
# Youngs Moduli (GPa) = 43.12950 65.01815 51.08413
#
# Poissons Ratio (x) = 0.33927 0.35965
# Poissons Ratio (y) = 0.22505 0.30901
# Poissons Ratio (z) = 0.30365 0.39330
#
# Static dielectric constant tensor:
#      x y z
#    x 1.709100 -0.032580 -0.025570 
#    y -0.032580 1.701710 -0.019820 
#    z -0.025570 -0.019820 1.705670 
# 
# From -- ./inp_files/464809.got.cif
#   From: 2010.05.17/outbox.cif.g08.bks.cpg/sg2_233_cif.got.tgz:464809.got - 2010.06.03 11:33:40.
