data_PCOD9056734
_publ_section_title
;
Structure prediction by ZEFSAII (Michael W. Deem and Ramdas Pophale) SiO2 
 PCOD9056734
Probable space group: P -1
;
_chemical_formula_sum "Si O2"
_cell_formula_units_Z 12
_cell_length_a 6.564946
_cell_length_b 13.572911
_cell_length_c 9.369969
_cell_angle_alpha 38.478397
_cell_angle_beta 73.066119
_cell_angle_gamma 79.947648
_cell_volume 494.966603
_symmetry_space_group_name_H-M "P -1"
_symmetry_group_IT_number 2
_symmetry_cell_setting 'triclinic'
loop_
_space_group_symop_operation_xyz
x,y,z
-x,-y,-z
loop_
_atom_site_type_symbol
_atom_site_label
_atom_site_fract_x
_atom_site_fract_y
_atom_site_fract_z
Si Si1 0.327877 0.096018 0.511257
Si Si2 0.023059 0.620354 0.145260
Si Si3 0.265776 0.705702 0.479979
Si Si4 0.385152 0.421656 0.252347
Si Si5 0.145090 0.874059 0.595875
Si Si6 0.859523 0.127515 0.953214
O O1 0.259540 0.263120 0.395641
O O2 0.586165 0.124445 0.407552
O O3 0.149558 0.051846 0.470893
O O4 0.280479 0.963675 0.792459
O O5 0.251913 0.554257 0.195430
O O6 0.988778 0.733271 0.157781
O O7 0.873761 0.460775 0.331110
O O8 0.038845 0.729680 0.877425
O O9 0.473179 0.646503 0.577418
O O10 0.181028 0.824432 0.481739
O O11 0.280013 0.798656 0.223404
O O12 0.500000 0.500000 0.000000
O O13 0.000000 0.000000 0.000000
#
# Coordination Sequence:
#
# PCOD9056734 Si02
#       6
#     2   2   2   2   2   2
#     4  11  23  46  68  98 146 182 230 292 339 416
#     4  11  24  45  67 101 144 181 235 293 346 428
#     4  12  24  42  72 103 137 188 234 286 365 408
#     4  12  24  43  70 104 143 182 236 295 346 422
#     4  11  22  40  68 100 133 191 236 278 347 425
#     4  11  25  48  70 103 144 185 235 298 354 417
#
# _framework density 24.244060000000001
#
# number of rings (size 3 to 8) (size 9 to 14) (size 15 to 20)
#    0.000    0.667    3.333    6.000    2.333    1.333 
#    0.000    0.000    0.000    0.000    0.000    0.000 
#    0.000    0.000    0.000    0.000    0.000    0.000 
#
# Total GULP energy -67049.365119 kJ/mol
# GULP energy per Si atom -5587.447093 kJ/mol
# Density = 2.418888 g / cm^3
# Si number density = 24.244060 Si / 1000 Ang^3
#
#
#
# Elastic Constant Matrix: (Units=GPa)
#
#
# Indices 1 2 3 4 5 6 
#
# 1 100.6600 55.3541 44.7985 -0.1606 24.5357 -6.9883
# 2 55.3541 195.7391 41.4305 -14.5416 1.8795 -1.0486
# 3 44.7985 41.4305 171.9776 0.1747 34.4171 22.7380
# 4 -0.1606 -14.5416 0.1747 41.4575 3.0997 10.0571
# 5 24.5357 1.8795 34.4171 3.0997 38.4947 -4.5965
# 6 -6.9883 -1.0486 22.7380 10.0571 -4.5965 57.1797
#
#
#
# Elastic Compliance Matrix: (Units=1/GPa)
#
#
# Indices 1 2 3 4 5 6 
#
# 1 0.014716 -0.003807 -0.001721 -0.001219 -0.007313 0.002040
# 2 -0.003807 0.006563 -0.001195 0.002065 0.003009 0.000009
# 3 -0.001721 -0.001195 0.008556 0.001139 -0.007112 -0.004407
# 4 -0.001219 0.002065 0.001139 0.026393 -0.003119 -0.005457
# 5 -0.007313 0.003009 -0.007112 -0.003119 0.037767 0.005574
# 6 0.002040 0.000009 -0.004407 -0.005457 0.005574 0.020898
#
#
# Mechanical properties :
#
#
# Convention : Reuss Voigt Hill
#
# Bulk Modulus (GPa) = 61.01671 83.50477 72.26074
# Shear Modulus (GPa) = 37.36876 49.21260 43.29068
#
# Velocity S-wave (km/s) = 3.93027 4.51031 4.23024
# Velocity P-wave (km/s) = 6.76893 7.85124 7.33009
#
# Compressibility (1/GPa) = 0.01638895
#
# Stress axis : x y z
#
# Youngs Moduli (GPa) = 67.95290 152.37278 116.88216
#
# Poissons Ratio (x) = 0.58004 0.20118
# Poissons Ratio (y) = 0.25868 0.13966
# Poissons Ratio (z) = 0.11696 0.18206
#
# Static dielectric constant tensor:
#      x y z
#    x 2.471080 -0.144720 0.048390 
#    y -0.144720 2.189780 -0.043530 
#    z 0.048390 -0.043530 1.868560 
# 
# From -- ./inp_files/95585.got.cif
#   From: 2010.05.17/outbox.cif.g08.bks.cpg/sg2_48_cif.got.tgz:95585.got - 2010.06.03 11:33:40.
