data_PCOD9056122
_publ_section_title
;
Structure prediction by ZEFSAII (Michael W. Deem and Ramdas Pophale) SiO2 
 PCOD9056122
Probable space group: P -1
;
_chemical_formula_sum "Si O2"
_cell_formula_units_Z 16
_cell_length_a 8.527922
_cell_length_b 13.010942
_cell_length_c 8.510873
_cell_angle_alpha 59.220074
_cell_angle_beta 106.661244
_cell_angle_gamma 123.738016
_cell_volume 674.674112
_symmetry_space_group_name_H-M "P -1"
_symmetry_group_IT_number 2
_symmetry_cell_setting 'triclinic'
loop_
_space_group_symop_operation_xyz
x,y,z
-x,-y,-z
loop_
_atom_site_type_symbol
_atom_site_label
_atom_site_fract_x
_atom_site_fract_y
_atom_site_fract_z
Si Si1 0.201778 0.391822 0.187297
Si Si2 0.637259 0.896968 0.355761
Si Si3 0.144660 0.836329 0.606324
Si Si4 0.721733 0.854200 0.080447
Si Si5 0.740331 0.116585 0.753402
Si Si6 0.098439 0.326435 0.846003
Si Si7 0.575748 0.388385 0.301754
Si Si8 0.324531 0.680553 0.956143
O O1 0.420676 0.436700 0.223520
O O2 0.078131 0.266509 0.365986
O O3 0.132265 0.338696 0.032633
O O4 0.189055 0.528932 0.105717
O O5 0.750034 0.895731 0.237561
O O6 0.477458 0.936058 0.232690
O O7 0.512644 0.746172 0.511465
O O8 0.776794 0.009012 0.432373
O O9 0.220416 0.841343 0.450298
O O10 0.225238 0.764943 0.804545
O O11 0.816959 0.765985 0.125607
O O12 0.498246 0.762521 0.056954
O O13 0.783898 0.992732 0.891394
O O14 0.880662 0.245844 0.798611
O O15 0.222890 0.482431 0.696443
O O16 0.594532 0.345448 0.163782
#
# Coordination Sequence:
#
# PCOD9056122 Si02
#       8
#     2   2   2   2   2   2   2   2
#     4  11  24  44  72  99 131 174 221 266 328 396
#     4  12  27  43  69  98 133 176 220 272 327 393
#     4  12  26  44  69  98 133 174 222 273 323 393
#     4  12  24  44  71  95 133 177 217 273 331 384
#     4  12  26  45  67  97 136 173 220 274 330 383
#     4  11  25  45  68  99 135 172 218 275 325 390
#     4  11  23  47  69  97 133 176 220 267 329 388
#     4  11  21  46  72  95 131 177 218 269 330 388
#
# _framework density 23.715153000000001
#
# number of rings (size 3 to 8) (size 9 to 14) (size 15 to 20)
#    0.000    0.500    5.000    3.750    3.500    2.500 
#    0.000    0.000    0.000    0.000    0.000    0.000 
#    0.000    0.000    0.000    0.000    0.000    0.000 
#
# Total GULP energy -89642.652283 kJ/mol
# GULP energy per Si atom -5602.665768 kJ/mol
# Density = 2.366118 g / cm^3
# Si number density = 23.715153 Si / 1000 Ang^3
#
#
#
# Elastic Constant Matrix: (Units=GPa)
#
#
# Indices 1 2 3 4 5 6 
#
# 1 41.6177 1.1362 -1.3062 -7.9717 -10.8373 6.7687
# 2 1.1362 103.8309 13.7184 -11.5921 -7.5965 15.2972
# 3 -1.3062 13.7184 67.7521 -19.8549 -8.4661 -6.1923
# 4 -7.9717 -11.5921 -19.8549 39.7710 2.3720 -0.3092
# 5 -10.8373 -7.5965 -8.4661 2.3720 25.3685 -0.8064
# 6 6.7687 15.2972 -6.1923 -0.3092 -0.8064 35.9574
#
#
#
# Elastic Compliance Matrix: (Units=1/GPa)
#
#
# Indices 1 2 3 4 5 6 
#
# 1 0.029973 0.001831 0.003616 0.007488 0.013686 -0.005427
# 2 0.001831 0.011110 -0.001530 0.002611 0.003188 -0.005241
# 3 0.003616 -0.001530 0.019052 0.009419 0.006674 0.003482
# 4 0.007488 0.002611 0.009419 0.031858 0.004128 -0.000532
# 5 0.013686 0.003188 0.006674 0.004128 0.048009 -0.001671
# 6 -0.005427 -0.005241 0.003482 -0.000532 -0.001671 0.031619
#
#
# Mechanical properties :
#
#
# Convention : Reuss Voigt Hill
#
# Bulk Modulus (GPa) = 14.71272 26.69971 20.70622
# Shear Modulus (GPa) = 26.81800 33.52953 30.17376
#
# Velocity S-wave (km/s) = 3.36644 3.76419 3.57086
# Velocity P-wave (km/s) = 4.61822 5.49319 5.07460
#
# Compressibility (1/GPa) = 0.06796838
#
# Stress axis : x y z
#
# Youngs Moduli (GPa) = 33.36375 90.00971 52.48888
#
# Poissons Ratio (x) = -0.16483 -0.18978
# Poissons Ratio (y) = -0.06110 0.08030
# Poissons Ratio (z) = -0.12063 0.13769
#
# Static dielectric constant tensor:
#      x y z
#    x 1.928290 0.012900 0.042070 
#    y 0.012900 1.858550 -0.045390 
#    z 0.042070 -0.045390 1.882650 
# 
# From -- ./inp_files/185144.got.cif
#   From: 2010.05.17/outbox.cif.g08.bks.cpg/sg2_93_cif.got.tgz:185144.got - 2010.06.03 11:33:40.
