data_PCOD9056604
_publ_section_title
;
Structure prediction by ZEFSAII (Michael W. Deem and Ramdas Pophale) SiO2 
 PCOD9056604
Probable space group: P -1
;
_chemical_formula_sum "Si O2"
_cell_formula_units_Z 16
_cell_length_a 14.861204
_cell_length_b 14.952597
_cell_length_c 9.302140
_cell_angle_alpha 39.864459
_cell_angle_beta 85.966982
_cell_angle_gamma 54.798838
_cell_volume 761.860516
_symmetry_space_group_name_H-M "P -1"
_symmetry_group_IT_number 2
_symmetry_cell_setting 'triclinic'
loop_
_space_group_symop_operation_xyz
x,y,z
-x,-y,-z
loop_
_atom_site_type_symbol
_atom_site_label
_atom_site_fract_x
_atom_site_fract_y
_atom_site_fract_z
Si Si1 0.088001 0.434493 0.425256
Si Si2 0.908718 0.078070 0.559549
Si Si3 0.214313 0.207253 0.186241
Si Si4 0.430906 0.536136 0.314641
Si Si5 0.193184 0.084686 0.639454
Si Si6 0.821759 0.381160 0.707621
Si Si7 0.623496 0.247452 0.379170
Si Si8 0.847720 0.406178 0.334493
O O1 0.201713 0.171175 0.673881
O O2 0.175142 0.469145 0.405514
O O3 0.000000 0.500000 0.500000
O O4 0.945857 0.624253 0.091848
O O5 0.792288 0.100101 0.513699
O O6 0.807149 0.333471 0.320159
O O7 0.000000 0.000000 0.500000
O O8 0.027242 0.884121 0.911785
O O9 0.190587 0.190115 0.373526
O O10 0.357501 0.935526 0.444696
O O11 0.240916 0.337924 0.002484
O O12 0.500000 0.500000 0.500000
O O13 0.323106 0.535649 0.342249
O O14 0.572126 0.324652 0.453491
O O15 0.323604 0.802379 0.949014
O O16 0.028828 0.212585 0.517826
O O17 0.833355 0.383253 0.531441
O O18 0.500000 0.500000 0.000000
#
# Coordination Sequence:
#
# PCOD9056604 Si02
#       8
#     2   2   2   2   2   2   2   2
#     4  11  22  39  72 105 134 173 233 296 337 391
#     4  12  25  41  73 102 134 176 236 288 332 406
#     4  11  23  43  69  98 138 181 224 285 352 403
#     4  12  28  44  69  98 143 187 223 283 353 422
#     4  11  23  43  66 102 139 177 230 282 355 401
#     4  12  24  43  69 106 132 179 237 282 339 408
#     4  12  25  47  66  98 143 179 226 276 354 415
#     4  11  23  40  69 101 133 168 235 293 332 397
#
# _framework density 21.001221000000001
#
# number of rings (size 3 to 8) (size 9 to 14) (size 15 to 20)
#    0.000    0.500    6.250    4.125    5.250    0.000 
#    0.000    4.375    0.000    0.000    0.000    0.000 
#    0.000    0.000    0.000    0.000    0.000    0.000 
#
# Total GULP energy -89466.886328 kJ/mol
# GULP energy per Si atom -5591.680396 kJ/mol
# Density = 2.095342 g / cm^3
# Si number density = 21.001221 Si / 1000 Ang^3
#
#
#
# Elastic Constant Matrix: (Units=GPa)
#
#
# Indices 1 2 3 4 5 6 
#
# 1 77.7278 6.9507 17.0002 3.1958 -24.1705 7.0484
# 2 6.9507 128.1175 25.1100 9.1960 -24.7849 -0.7616
# 3 17.0002 25.1100 64.2841 5.4810 -26.3251 -8.2320
# 4 3.1958 9.1960 5.4810 41.6445 5.0334 -10.4764
# 5 -24.1705 -24.7849 -26.3251 5.0334 33.4798 -7.7485
# 6 7.0484 -0.7616 -8.2320 -10.4764 -7.7485 39.1623
#
#
#
# Elastic Compliance Matrix: (Units=1/GPa)
#
#
# Indices 1 2 3 4 5 6 
#
# 1 0.017490 0.002110 0.001115 -0.004050 0.015468 -0.000895
# 2 0.002110 0.009754 -0.000226 -0.003218 0.009218 0.000726
# 3 0.001115 -0.000226 0.026966 -0.004246 0.024608 0.009196
# 4 -0.004050 -0.003218 -0.004246 0.028273 -0.011734 0.005016
# 5 0.015468 0.009218 0.024608 -0.011734 0.072145 0.013703
# 6 -0.000895 0.000726 0.009196 0.005016 0.013703 0.031696
#
#
# Mechanical properties :
#
#
# Convention : Reuss Voigt Hill
#
# Bulk Modulus (GPa) = 16.60872 40.91681 28.76277
# Shear Modulus (GPa) = 24.95081 37.59522 31.27301
#
# Velocity S-wave (km/s) = 3.45057 4.23560 3.86308
# Velocity P-wave (km/s) = 4.87861 6.59134 5.79856
#
# Compressibility (1/GPa) = 0.06020934
#
# Stress axis : x y z
#
# Youngs Moduli (GPa) = 57.17438 102.52567 37.08346
#
# Poissons Ratio (x) = -0.21635 -0.04135
# Poissons Ratio (y) = -0.12065 0.00837
# Poissons Ratio (z) = -0.06376 0.02314
#
# Static dielectric constant tensor:
#      x y z
#    x 1.714030 0.129920 -0.027880 
#    y 0.129920 1.497070 -0.008330 
#    z -0.027880 -0.008330 1.790590 
# 
# From -- ./inp_files/205232.got.cif
#   From: 2010.05.17/outbox.cif.g08.bks.cpg/sg2_103_cif.got.tgz:205232.got - 2010.06.03 11:33:40.
