data_PCOD9056389
_publ_section_title
;
Structure prediction by ZEFSAII (Michael W. Deem and Ramdas Pophale) SiO2 
 PCOD9056389
Probable space group: P -1
;
_chemical_formula_sum "Si O2"
_cell_formula_units_Z 14
_cell_length_a 19.071730
_cell_length_b 20.921125
_cell_length_c 7.527117
_cell_angle_alpha 35.604936
_cell_angle_beta 138.278643
_cell_angle_gamma 159.896790
_cell_volume 598.783198
_symmetry_space_group_name_H-M "P -1"
_symmetry_group_IT_number 2
_symmetry_cell_setting 'triclinic'
loop_
_space_group_symop_operation_xyz
x,y,z
-x,-y,-z
loop_
_atom_site_type_symbol
_atom_site_label
_atom_site_fract_x
_atom_site_fract_y
_atom_site_fract_z
Si Si1 0.481977 0.888578 0.575638
Si Si2 0.509156 0.708919 0.285019
Si Si3 0.624271 0.455225 0.235205
Si Si4 0.776185 0.814167 0.792079
Si Si5 0.887907 0.555577 0.257781
Si Si6 0.941995 0.738095 0.612409
Si Si7 0.900012 0.291905 0.314845
O O1 0.246761 0.666540 0.567261
O O2 0.500000 0.000000 0.500000
O O3 0.653770 0.065644 0.352861
O O4 0.542507 0.833145 0.926217
O O5 0.434691 0.680312 0.408513
O O6 0.693237 0.792748 0.496648
O O7 0.301836 0.464810 0.383473
O O8 0.412853 0.332969 0.097440
O O9 0.704490 0.466454 0.192171
O O10 0.789357 0.696145 0.058189
O O11 0.955811 0.052051 0.658534
O O12 0.032978 0.669543 0.442029
O O13 0.996058 0.715408 0.941429
O O14 0.012700 0.722705 0.619639
O O15 0.000000 0.500000 0.000000
#
# Coordination Sequence:
#
# PCOD9056389 Si02
#       7
#     2   2   2   2   2   2   2
#     4  11  25  42  66  92 121 165 205 249 317 366
#     4   9  19  40  59  89 127 155 206 254 295 367
#     4   9  19  40  62  88 129 164 198 259 307 351
#     4   9  19  37  63  90 126 163 207 253 302 359
#     4  11  24  43  62  92 130 157 205 260 299 368
#     4  11  22  38  65  90 123 166 203 252 306 363
#     4  12  25  42  65  93 121 164 208 252 312 365
#
# _framework density 23.380749999999999
#
# number of rings (size 3 to 8) (size 9 to 14) (size 15 to 20)
#    0.857    0.857    1.429    3.429    0.000    5.143 
#    0.000    2.857    0.000    0.000    0.000    0.000 
#    0.000    0.000    0.000    0.000    0.000    0.000 
#
# Total GULP energy -78115.995780 kJ/mol
# GULP energy per Si atom -5579.713984 kJ/mol
# Density = 2.332753 g / cm^3
# Si number density = 23.380750 Si / 1000 Ang^3
#
#
#
# Elastic Constant Matrix: (Units=GPa)
#
#
# Indices 1 2 3 4 5 6 
#
# 1 44.2412 12.4448 2.3885 -10.1756 -6.9017 -12.7047
# 2 12.4448 75.9303 39.3297 -19.7177 -3.6718 -15.8539
# 3 2.3885 39.3297 101.7654 -20.6841 -10.8380 -3.4662
# 4 -10.1756 -19.7177 -20.6841 51.0253 -5.8354 -0.5189
# 5 -6.9017 -3.6718 -10.8380 -5.8354 24.1095 -1.9575
# 6 -12.7047 -15.8539 -3.4662 -0.5189 -1.9575 29.5843
#
#
#
# Elastic Compliance Matrix: (Units=1/GPa)
#
#
# Indices 1 2 3 4 5 6 
#
# 1 0.030910 -0.000859 0.003336 0.008876 0.013523 0.014255
# 2 -0.000859 0.020035 -0.006035 0.005479 0.002223 0.009904
# 3 0.003336 -0.006035 0.013868 0.004813 0.007468 0.000402
# 4 0.008876 0.005479 0.004813 0.026985 0.012771 0.008630
# 5 0.013523 0.002223 0.007468 0.012771 0.053078 0.011609
# 6 0.014255 0.009904 0.000402 0.008630 0.011609 0.046197
#
#
# Mechanical properties :
#
#
# Convention : Reuss Voigt Hill
#
# Bulk Modulus (GPa) = 17.33192 36.69589 27.01391
# Shear Modulus (GPa) = 22.99696 32.12875 27.56286
#
# Velocity S-wave (km/s) = 3.13962 3.71098 3.43719
# Velocity P-wave (km/s) = 4.53563 5.83873 5.22794
#
# Compressibility (1/GPa) = 0.05769702
#
# Stress axis : x y z
#
# Youngs Moduli (GPa) = 32.35249 49.91263 72.10919
#
# Poissons Ratio (x) = 0.04287 -0.24058
# Poissons Ratio (y) = 0.02779 0.43519
# Poissons Ratio (z) = -0.10794 0.30123
#
# Static dielectric constant tensor:
#      x y z
#    x 1.858350 0.004830 -0.016440 
#    y 0.004830 2.011980 0.042860 
#    z -0.016440 0.042860 1.909350 
# 
# From -- ./inp_files/355412.got.cif
#   From: 2010.05.17/outbox.cif.g08.bks.cpg/sg2_178_cif.got.tgz:355412.got - 2010.06.03 11:33:40.
