data_PCOD9056153
_publ_section_title
;
Structure prediction by ZEFSAII (Michael W. Deem and Ramdas Pophale) SiO2 
 PCOD9056153
Probable space group: P -1
;
_chemical_formula_sum "Si O2"
_cell_formula_units_Z 12
_cell_length_a 16.122230
_cell_length_b 9.210431
_cell_length_c 9.223158
_cell_angle_alpha 149.701339
_cell_angle_beta 134.512049
_cell_angle_gamma 42.451339
_cell_volume 458.063051
_symmetry_space_group_name_H-M "P -1"
_symmetry_group_IT_number 2
_symmetry_cell_setting 'triclinic'
loop_
_space_group_symop_operation_xyz
x,y,z
-x,-y,-z
loop_
_atom_site_type_symbol
_atom_site_label
_atom_site_fract_x
_atom_site_fract_y
_atom_site_fract_z
Si Si1 0.850391 0.131129 0.516646
Si Si2 0.201381 0.261742 0.453350
Si Si3 0.122652 0.773259 0.034122
Si Si4 0.375648 0.593096 0.836507
Si Si5 0.851965 0.754459 0.925638
Si Si6 0.574830 0.221021 0.253409
O O1 0.896501 0.173054 0.770718
O O2 0.816876 0.473310 0.701729
O O3 0.722795 0.066976 0.332493
O O4 0.913327 0.875189 0.242703
O O5 0.100103 0.361074 0.279440
O O6 0.227290 0.913251 0.234060
O O7 0.156821 0.455822 0.714276
O O8 0.312235 0.352101 0.600017
O O9 0.000000 0.000000 0.000000
O O10 0.261743 0.930295 0.987501
O O11 0.500000 0.500000 0.000000
O O12 0.427665 0.617552 0.763562
O O13 0.500000 0.500000 0.500000
O O14 0.500000 0.000000 0.000000
#
# Coordination Sequence:
#
# PCOD9056153 Si02
#       6
#     2   2   2   2   2   2
#     4  11  24  45  71  96 146 183 237 299 346 423
#     4  12  24  48  73 102 148 184 237 300 356 425
#     4  12  28  49  75 107 138 186 247 307 366 414
#     4  11  26  43  70 106 148 189 239 283 353 429
#     4  11  21  48  69 100 140 191 229 286 352 425
#     4  11  24  39  64  98 138 185 232 273 344 419
#
# _framework density 26.197265999999999
#
# number of rings (size 3 to 8) (size 9 to 14) (size 15 to 20)
#    0.000    0.667    5.000    3.500    4.667    0.667 
#    0.000    5.000    0.000    0.000    0.000    0.000 
#    0.000    0.000    0.000    0.000    0.000    0.000 
#
# Total GULP energy -66981.722230 kJ/mol
# GULP energy per Si atom -5581.810186 kJ/mol
# Density = 2.613764 g / cm^3
# Si number density = 26.197266 Si / 1000 Ang^3
#
#
#
# Elastic Constant Matrix: (Units=GPa)
#
#
# Indices 1 2 3 4 5 6 
#
# 1 121.6151 39.6260 52.0468 -20.2800 -22.3313 49.1037
# 2 39.6260 101.0364 35.1183 -42.0388 -5.5929 27.2422
# 3 52.0468 35.1183 201.8707 -15.9213 -10.8210 20.9867
# 4 -20.2800 -42.0388 -15.9213 67.6240 14.8482 -3.7322
# 5 -22.3313 -5.5929 -10.8210 14.8482 56.6864 -12.6700
# 6 49.1037 27.2422 20.9867 -3.7322 -12.6700 45.4914
#
#
#
# Elastic Compliance Matrix: (Units=1/GPa)
#
#
# Indices 1 2 3 4 5 6 
#
# 1 0.016496 0.000085 -0.002253 0.003222 0.001635 -0.016098
# 2 0.000085 0.017238 -0.001340 0.010653 -0.003526 -0.009904
# 3 -0.002253 -0.001340 0.005698 -0.000189 0.000266 0.000664
# 4 0.003222 0.010653 -0.000189 0.023101 -0.005894 -0.009517
# 5 0.001635 -0.003526 0.000266 -0.005894 0.020766 0.005524
# 6 -0.016098 -0.009904 0.000664 -0.009517 0.005524 0.045741
#
#
# Mechanical properties :
#
#
# Convention : Reuss Voigt Hill
#
# Bulk Modulus (GPa) = 30.84790 75.34490 53.09640
# Shear Modulus (GPa) = 34.04564 53.80909 43.92737
#
# Velocity S-wave (km/s) = 3.60889 4.53702 4.09931
# Velocity P-wave (km/s) = 5.40058 7.50127 6.53588
#
# Compressibility (1/GPa) = 0.03241712
#
# Stress axis : x y z
#
# Youngs Moduli (GPa) = 60.61902 58.01230 175.50421
#
# Poissons Ratio (x) = -0.00492 0.39533
# Poissons Ratio (y) = -0.00514 0.23513
# Poissons Ratio (z) = 0.13655 0.07772
#
# Static dielectric constant tensor:
#      x y z
#    x 2.182610 -0.056920 -0.015600 
#    y -0.056920 2.006820 -0.060650 
#    z -0.015600 -0.060650 2.185980 
# 
# From -- ./inp_files/344004.got.cif
#   From: 2010.05.17/outbox.cif.g08.bks.cpg/sg2_173_cif.got.tgz:344004.got - 2010.06.03 11:33:40.
