data_PCOD9056460
_publ_section_title
;
Structure prediction by ZEFSAII (Michael W. Deem and Ramdas Pophale) SiO2 
 PCOD9056460
Probable space group: P -1
;
_chemical_formula_sum "Si O2"
_cell_formula_units_Z 16
_cell_length_a 23.909068
_cell_length_b 15.134910
_cell_length_c 9.250077
_cell_angle_alpha 46.223810
_cell_angle_beta 148.771836
_cell_angle_gamma 152.980799
_cell_volume 752.804380
_symmetry_space_group_name_H-M "P -1"
_symmetry_group_IT_number 2
_symmetry_cell_setting 'triclinic'
loop_
_space_group_symop_operation_xyz
x,y,z
-x,-y,-z
loop_
_atom_site_type_symbol
_atom_site_label
_atom_site_fract_x
_atom_site_fract_y
_atom_site_fract_z
Si Si1 0.302438 0.045854 0.669569
Si Si2 0.508566 0.142934 0.293311
Si Si3 0.807868 0.771025 0.279295
Si Si4 0.896134 0.456838 0.682864
Si Si5 0.538627 0.372757 0.334639
Si Si6 0.361261 0.613296 0.141287
Si Si7 0.184603 0.711443 0.596727
Si Si8 0.054739 0.246005 0.678829
O O1 0.463966 0.263203 0.704585
O O2 0.243325 0.888817 0.601589
O O3 0.381485 0.053084 0.978943
O O4 0.133163 0.972708 0.427260
O O5 0.708616 0.340779 0.452387
O O6 0.479000 0.211243 0.278109
O O7 0.500000 0.000000 0.500000
O O8 0.704245 0.593332 0.371233
O O9 0.861127 0.749135 0.274689
O O10 0.643787 0.715115 0.945673
O O11 0.000000 0.000000 0.500000
O O12 0.853826 0.316331 0.627882
O O13 0.990218 0.656535 0.587226
O O14 0.000000 0.500000 0.000000
O O15 0.609221 0.387333 0.626088
O O16 0.323155 0.724504 0.909801
O O17 0.194309 0.392429 0.950864
O O18 0.000000 0.500000 0.500000
#
# Coordination Sequence:
#
# PCOD9056460 Si02
#       8
#     2   2   2   2   2   2   2   2
#     4  12  22  41  64  93 139 183 222 268 336 408
#     4  12  24  40  67 102 137 180 224 270 341 409
#     4  11  25  49  74  96 133 175 235 287 340 400
#     4  11  23  39  59  95 137 175 217 276 328 399
#     4  11  26  46  71 104 134 177 227 289 336 401
#     4  11  24  42  65  98 138 175 224 281 339 405
#     4  11  22  39  61  94 138 184 215 269 335 396
#     4  11  23  45  66  94 132 177 224 283 335 392
#
# _framework density 21.253861000000001
#
# number of rings (size 3 to 8) (size 9 to 14) (size 15 to 20)
#    0.000    0.750    6.250    2.625    3.500    2.500 
#    0.000    1.250    0.000    0.000    0.000    0.000 
#    0.000    0.000    0.000    0.000    0.000    0.000 
#
# Total GULP energy -89437.787635 kJ/mol
# GULP energy per Si atom -5589.861727 kJ/mol
# Density = 2.120549 g / cm^3
# Si number density = 21.253861 Si / 1000 Ang^3
#
#
#
# Elastic Constant Matrix: (Units=GPa)
#
#
# Indices 1 2 3 4 5 6 
#
# 1 156.1961 17.8068 77.2566 8.0930 -9.6859 -4.7705
# 2 17.8068 36.4401 27.2416 8.8744 6.6834 1.1123
# 3 77.2566 27.2416 111.8195 21.6033 -24.7832 -3.5682
# 4 8.0930 8.8744 21.6033 22.0407 14.0906 3.9238
# 5 -9.6859 6.6834 -24.7832 14.0906 52.1852 16.3729
# 6 -4.7705 1.1123 -3.5682 3.9238 16.3729 35.6650
#
#
#
# Elastic Compliance Matrix: (Units=1/GPa)
#
#
# Indices 1 2 3 4 5 6 
#
# 1 0.011133 0.002171 -0.012090 0.011450 -0.007847 0.002554
# 2 0.002171 0.039037 -0.016018 0.008546 -0.015681 0.003729
# 3 -0.012090 -0.016018 0.036035 -0.042789 0.030628 -0.006865
# 4 0.011450 0.008546 -0.042789 0.111427 -0.052086 0.008637
# 5 -0.007847 -0.015681 0.030628 -0.052086 0.053437 -0.016297
# 6 0.002554 0.003729 -0.006865 0.008637 -0.016297 0.034109
#
#
# Mechanical properties :
#
#
# Convention : Reuss Voigt Hill
#
# Bulk Modulus (GPa) = 29.12910 61.00730 45.06820
# Shear Modulus (GPa) = 14.34743 34.12156 24.23449
#
# Velocity S-wave (km/s) = 2.60099 4.01113 3.38041
# Velocity P-wave (km/s) = 4.77025 7.08651 6.04044
#
# Compressibility (1/GPa) = 0.03432993
#
# Stress axis : x y z
#
# Youngs Moduli (GPa) = 89.82312 25.61691 27.75112
#
# Poissons Ratio (x) = -0.05561 0.33552
# Poissons Ratio (y) = -0.19500 0.44451
# Poissons Ratio (z) = 1.08601 0.41032
#
# Static dielectric constant tensor:
#      x y z
#    x 1.800540 0.068310 -0.002080 
#    y 0.068310 1.922730 -0.045480 
#    z -0.002080 -0.045480 1.715030 
# 
# From -- ./inp_files/354528.got.cif
#   From: 2010.05.17/outbox.cif.g08.bks.cpg/sg2_178_cif.got.tgz:354528.got - 2010.06.03 11:33:40.
