data_PCOD9056177
_publ_section_title
;
Structure prediction by ZEFSAII (Michael W. Deem and Ramdas Pophale) SiO2 
 PCOD9056177
Probable space group: P -1
;
_chemical_formula_sum "Si O2"
_cell_formula_units_Z 14
_cell_length_a 9.388200
_cell_length_b 18.773173
_cell_length_c 9.290234
_cell_angle_alpha 67.689320
_cell_angle_beta 105.133217
_cell_angle_gamma 157.085855
_cell_volume 571.663990
_symmetry_space_group_name_H-M "P -1"
_symmetry_group_IT_number 2
_symmetry_cell_setting 'triclinic'
loop_
_space_group_symop_operation_xyz
x,y,z
-x,-y,-z
loop_
_atom_site_type_symbol
_atom_site_label
_atom_site_fract_x
_atom_site_fract_y
_atom_site_fract_z
Si Si1 0.463826 0.749572 0.253767
Si Si2 0.550434 0.525841 0.163160
Si Si3 0.030215 0.315573 0.442304
Si Si4 0.227476 0.942443 0.957066
Si Si5 0.766695 0.773202 0.691736
Si Si6 0.651451 0.285535 0.403488
Si Si7 0.822096 0.772380 0.384342
O O1 0.430213 0.748882 0.419368
O O2 0.764949 0.825294 0.245526
O O3 0.053021 0.517628 0.291377
O O4 0.567718 0.878050 0.100194
O O5 0.189225 0.372685 0.281639
O O6 0.603804 0.459829 0.248194
O O7 0.500000 0.500000 0.000000
O O8 0.867646 0.741961 0.110224
O O9 0.396594 0.530708 0.450060
O O10 0.934425 0.189460 0.593663
O O11 0.711097 0.225857 0.424580
O O12 0.048993 0.871857 0.805301
O O13 0.500000 0.000000 0.000000
O O14 0.645276 0.799822 0.683502
O O15 0.914892 0.844957 0.514616
#
# Coordination Sequence:
#
# PCOD9056177 Si02
#       7
#     2   2   2   2   2   2   2
#     4   9  18  33  54  82 112 142 181 226 277 323
#     4   9  19  36  56  78 107 148 186 215 260 332
#     4   9  16  31  58  86 108 138 181 225 276 326
#     4  11  22  34  54  79 110 153 190 220 263 329
#     4   9  18  35  57  82 109 141 187 231 271 320
#     4   9  17  32  58  85 107 137 181 235 278 318
#     4   8  16  30  54  82 107 134 174 230 274 310
#
# _framework density 24.489909999999998
#
# number of rings (size 3 to 8) (size 9 to 14) (size 15 to 20)
#    0.000    2.857    0.000    1.714    0.000    5.714 
#    0.000    5.714    0.000   35.143    0.000    3.000 
#    0.000    0.000    0.000    0.000    0.000    0.000 
#
# Total GULP energy -77979.669439 kJ/mol
# GULP energy per Si atom -5569.976388 kJ/mol
# Density = 2.443417 g / cm^3
# Si number density = 24.489910 Si / 1000 Ang^3
#
#
#
# Elastic Constant Matrix: (Units=GPa)
#
#
# Indices 1 2 3 4 5 6 
#
# 1 203.1032 43.3004 63.9902 -5.3581 60.6138 0.7419
# 2 43.3004 70.1542 38.8650 -20.1908 17.0711 -1.2187
# 3 63.9902 38.8650 89.8323 -10.6450 33.6683 -1.9183
# 4 -5.3581 -20.1908 -10.6450 57.5251 -16.7027 10.2250
# 5 60.6138 17.0711 33.6683 -16.7027 60.9402 1.1793
# 6 0.7419 -1.2187 -1.9183 10.2250 1.1793 26.2065
#
#
#
# Elastic Compliance Matrix: (Units=1/GPa)
#
#
# Indices 1 2 3 4 5 6 
#
# 1 0.008273 -0.002925 -0.002359 -0.002854 -0.006905 0.000881
# 2 -0.002925 0.021549 -0.007596 0.007215 0.003094 -0.002425
# 3 -0.002359 -0.007596 0.018226 -0.001626 -0.006079 0.001955
# 4 -0.002854 0.007215 -0.001626 0.023398 0.008307 -0.009206
# 5 -0.006905 0.003094 -0.006079 0.008307 0.028136 -0.004613
# 6 0.000881 -0.002425 0.001955 -0.009206 -0.004613 0.041963
#
#
# Mechanical properties :
#
#
# Convention : Reuss Voigt Hill
#
# Bulk Modulus (GPa) = 44.86659 72.82229 58.84444
# Shear Modulus (GPa) = 28.61512 43.39663 36.00587
#
# Velocity S-wave (km/s) = 3.42196 4.21410 3.83852
# Velocity P-wave (km/s) = 5.82866 7.31289 6.61255
#
# Compressibility (1/GPa) = 0.02228830
#
# Stress axis : x y z
#
# Youngs Moduli (GPa) = 120.88102 46.40513 54.86758
#
# Poissons Ratio (x) = 0.13574 0.12942
# Poissons Ratio (y) = 0.35360 0.41676
# Poissons Ratio (z) = 0.28512 0.35248
#
# Static dielectric constant tensor:
#      x y z
#    x 1.974570 -0.030090 0.020590 
#    y -0.030090 2.096780 -0.041810 
#    z 0.020590 -0.041810 1.987790 
# 
# From -- ./inp_files/213832.got.cif
#   From: 2010.05.17/outbox.cif.g08.bks.cpg/sg2_107_cif.got.tgz:213832.got - 2010.06.03 11:33:40.
