data_PCOD9056112
_publ_section_title
;
Structure prediction by ZEFSAII (Michael W. Deem and Ramdas Pophale) SiO2 
 PCOD9056112
Probable space group: P -1
;
_chemical_formula_sum "Si O2"
_cell_formula_units_Z 16
_cell_length_a 9.394264
_cell_length_b 13.278250
_cell_length_c 9.679389
_cell_angle_alpha 103.744227
_cell_angle_beta 111.738095
_cell_angle_gamma 37.561023
_cell_volume 680.344907
_symmetry_space_group_name_H-M "P -1"
_symmetry_group_IT_number 2
_symmetry_cell_setting 'triclinic'
loop_
_space_group_symop_operation_xyz
x,y,z
-x,-y,-z
loop_
_atom_site_type_symbol
_atom_site_label
_atom_site_fract_x
_atom_site_fract_y
_atom_site_fract_z
Si Si1 0.154838 0.748615 0.177106
Si Si2 0.678327 0.680417 0.756751
Si Si3 0.440627 0.391535 0.067492
Si Si4 0.581747 0.641276 0.441927
Si Si5 0.016786 0.857044 0.865901
Si Si6 0.497918 0.900491 0.366389
Si Si7 0.128907 0.561744 0.762393
Si Si8 0.356763 0.049056 0.822607
O O1 0.324367 0.563169 0.125371
O O2 0.328924 0.726706 0.325891
O O3 0.923484 0.825816 0.201004
O O4 0.040028 0.868943 0.041490
O O5 0.686844 0.629535 0.895617
O O6 0.589676 0.637429 0.607656
O O7 0.934700 0.582613 0.754912
O O8 0.490999 0.875712 0.754921
O O9 0.731812 0.236689 0.142576
O O10 0.377305 0.411115 0.889899
O O11 0.615692 0.742496 0.437668
O O12 0.802959 0.469738 0.383559
O O13 0.028541 0.725475 0.824610
O O14 0.767212 0.005136 0.743182
O O15 0.617858 0.874808 0.257847
O O16 0.500000 0.000000 0.500000
O O17 0.500000 0.000000 0.000000
#
# Coordination Sequence:
#
# PCOD9056112 Si02
#       8
#     2   2   2   2   2   2   2   2
#     4  11  24  44  69 102 134 172 224 273 330 398
#     4  12  27  43  64 104 136 171 222 279 329 387
#     4  11  24  43  71  99 130 173 223 276 328 389
#     4  12  26  44  68  98 136 177 221 270 337 395
#     4  11  21  46  71  95 134 173 224 275 320 400
#     4  12  26  46  68  98 133 180 219 272 339 389
#     4  11  21  46  70  94 132 175 224 270 327 397
#     4  12  25  45  68  96 136 175 222 276 325 393
#
# _framework density 23.517485000000001
#
# number of rings (size 3 to 8) (size 9 to 14) (size 15 to 20)
#    0.000    0.500    6.250    2.250    5.250    2.500 
#    0.000    0.000    0.000    0.000    0.000    0.000 
#    0.000    0.000    0.000    0.000    0.000    0.000 
#
# Total GULP energy -89576.498370 kJ/mol
# GULP energy per Si atom -5598.531148 kJ/mol
# Density = 2.346396 g / cm^3
# Si number density = 23.517485 Si / 1000 Ang^3
#
#
#
# Elastic Constant Matrix: (Units=GPa)
#
#
# Indices 1 2 3 4 5 6 
#
# 1 83.0894 23.5675 5.5457 -3.2366 6.6505 -34.8052
# 2 23.5675 47.6775 15.7194 1.7773 6.8315 -23.0734
# 3 5.5457 15.7194 72.2933 15.6161 7.1047 -19.5711
# 4 -3.2366 1.7773 15.6161 27.0235 2.6702 -0.7203
# 5 6.6505 6.8315 7.1047 2.6702 42.7769 -4.3261
# 6 -34.8052 -23.0734 -19.5711 -0.7203 -4.3261 46.1260
#
#
#
# Elastic Compliance Matrix: (Units=1/GPa)
#
#
# Indices 1 2 3 4 5 6 
#
# 1 0.018612 -0.003487 0.002811 0.001342 -0.001535 0.013369
# 2 -0.003487 0.029087 -0.002967 -0.000086 -0.002551 0.010420
# 3 0.002811 -0.002967 0.018826 -0.009965 -0.001627 0.008316
# 4 0.001342 -0.000086 -0.009965 0.043005 -0.001500 -0.002727
# 5 -0.001535 -0.002551 -0.001627 -0.001500 0.024299 -0.000869
# 6 0.013369 0.010420 0.008316 -0.002727 -0.000869 0.040384
#
#
# Mechanical properties :
#
#
# Convention : Reuss Voigt Hill
#
# Bulk Modulus (GPa) = 16.88083 32.52506 24.70295
# Shear Modulus (GPa) = 24.84510 33.73378 29.28944
#
# Velocity S-wave (km/s) = 3.25384 3.79147 3.53290
# Velocity P-wave (km/s) = 4.61630 5.74693 5.21236
#
# Compressibility (1/GPa) = 0.05923880
#
# Stress axis : x y z
#
# Youngs Moduli (GPa) = 53.72842 34.37913 53.11867
#
# Poissons Ratio (x) = 0.11987 -0.14930
# Poissons Ratio (y) = 0.18734 0.15761
# Poissons Ratio (z) = -0.15101 0.10201
#
# Static dielectric constant tensor:
#      x y z
#    x 1.863530 0.028080 0.021390 
#    y 0.028080 1.892680 0.008340 
#    z 0.021390 0.008340 1.934460 
# 
# From -- ./inp_files/206404.got.cif
#   From: 2010.05.17/outbox.cif.g08.bks.cpg/sg2_104_cif.got.tgz:206404.got - 2010.06.03 11:33:40.
