data_PCOD9056567
_publ_section_title
;
Structure prediction by ZEFSAII (Michael W. Deem and Ramdas Pophale) SiO2 
 PCOD9056567
Probable space group: P -1
;
_chemical_formula_sum "Si O2"
_cell_formula_units_Z 14
_cell_length_a 10.586976
_cell_length_b 16.693854
_cell_length_c 7.016866
_cell_angle_alpha 52.669030
_cell_angle_beta 117.236986
_cell_angle_gamma 141.950331
_cell_volume 607.274072
_symmetry_space_group_name_H-M "P -1"
_symmetry_group_IT_number 2
_symmetry_cell_setting 'triclinic'
loop_
_space_group_symop_operation_xyz
x,y,z
-x,-y,-z
loop_
_atom_site_type_symbol
_atom_site_label
_atom_site_fract_x
_atom_site_fract_y
_atom_site_fract_z
Si Si1 0.452123 0.529540 0.622419
Si Si2 0.349654 0.014157 0.312768
Si Si3 0.998426 0.476875 0.805941
Si Si4 0.465304 0.773154 0.202570
Si Si5 0.986033 0.696784 0.426911
Si Si6 0.157499 0.985353 0.613570
Si Si7 0.142540 0.345451 0.149219
O O1 0.500000 0.500000 0.500000
O O2 0.462684 0.652647 0.406232
O O3 0.363593 0.407524 0.206377
O O4 0.218176 0.381538 0.717797
O O5 0.957941 0.391604 0.442181
O O6 0.243575 0.014843 0.416487
O O7 0.500000 0.000000 0.500000
O O8 0.171503 0.867395 0.282606
O O9 0.532744 0.845344 0.937074
O O10 0.149945 0.461712 0.903158
O O11 0.000000 0.500000 0.000000
O O12 0.774466 0.322156 0.812647
O O13 0.639322 0.902216 0.279130
O O14 0.923331 0.674049 0.642430
O O15 0.000000 0.000000 0.500000
O O16 0.028040 0.818322 0.808817
#
# Coordination Sequence:
#
# PCOD9056567 Si02
#       7
#     2   2   2   2   2   2   2
#     4   9  17  33  59  89 117 171 214 253 315 388
#     4  11  24  41  66  99 130 165 221 271 316 383
#     4   9  17  33  61  92 119 165 217 258 313 383
#     4  11  22  39  68  92 126 174 213 262 330 374
#     4   8  17  33  56  87 121 160 212 259 313 373
#     4  11  23  41  62  96 138 167 211 269 326 387
#     4   9  16  31  56  86 120 158 211 256 303 376
#
# _framework density 23.053842
#
# number of rings (size 3 to 8) (size 9 to 14) (size 15 to 20)
#    0.000    2.286    1.429    3.429    0.000    2.857 
#    0.000    0.000    0.000   34.286    0.000    0.000 
#    0.000    0.000    0.000    0.000    0.000    0.000 
#
# Total GULP energy -78257.402326 kJ/mol
# GULP energy per Si atom -5589.814452 kJ/mol
# Density = 2.300137 g / cm^3
# Si number density = 23.053842 Si / 1000 Ang^3
#
#
#
# Elastic Constant Matrix: (Units=GPa)
#
#
# Indices 1 2 3 4 5 6 
#
# 1 89.3381 24.7908 48.4498 -4.0632 7.4017 3.6420
# 2 24.7908 144.0646 28.1541 15.6012 3.7857 6.6520
# 3 48.4498 28.1541 71.6536 6.7462 4.2583 9.0885
# 4 -4.0632 15.6012 6.7462 35.9849 5.1041 1.9228
# 5 7.4017 3.7857 4.2583 5.1041 46.9055 4.6323
# 6 3.6420 6.6520 9.0885 1.9228 4.6323 23.7804
#
#
#
# Elastic Compliance Matrix: (Units=1/GPa)
#
#
# Indices 1 2 3 4 5 6 
#
# 1 0.018947 -0.001361 -0.012948 0.005384 -0.002536 0.002486
# 2 -0.001361 0.007914 -0.001756 -0.003224 0.000196 -0.001112
# 3 -0.012948 -0.001756 0.024673 -0.005131 0.001172 -0.006769
# 4 0.005384 -0.003224 -0.005131 0.031249 -0.003544 0.000202
# 5 -0.002536 0.000196 0.001172 -0.003544 0.022397 -0.004191
# 6 0.002486 -0.001112 -0.006769 0.000202 -0.004191 0.045368
#
#
# Mechanical properties :
#
#
# Convention : Reuss Voigt Hill
#
# Bulk Modulus (GPa) = 51.53822 56.42730 53.98276
# Shear Modulus (GPa) = 26.43463 34.91161 30.67312
#
# Velocity S-wave (km/s) = 3.38989 3.89569 3.65156
# Velocity P-wave (km/s) = 6.14214 6.69064 6.42225
#
# Compressibility (1/GPa) = 0.01940308
#
# Stress axis : x y z
#
# Youngs Moduli (GPa) = 52.78006 126.35659 40.53032
#
# Poissons Ratio (x) = 0.17199 0.52477
# Poissons Ratio (y) = 0.07184 0.07119
# Poissons Ratio (z) = 0.68338 0.22193
#
# Static dielectric constant tensor:
#      x y z
#    x 1.857830 0.005050 -0.034000 
#    y 0.005050 1.861030 0.088500 
#    z -0.034000 0.088500 1.868070 
# 
# From -- ./inp_files/395780.got.cif
#   From: 2010.05.17/outbox.cif.g08.bks.cpg/sg2_198_cif.got.tgz:395780.got - 2010.06.03 11:33:40.
