data_PCOD9056051
_publ_section_title
;
Structure prediction by ZEFSAII (Michael W. Deem and Ramdas Pophale) SiO2 
 PCOD9056051
Probable space group: P -1
;
_chemical_formula_sum "Si O2"
_cell_formula_units_Z 16
_cell_length_a 17.808616
_cell_length_b 12.460159
_cell_length_c 11.562261
_cell_angle_alpha 142.554146
_cell_angle_beta 151.716977
_cell_angle_gamma 42.555292
_cell_volume 732.861773
_symmetry_space_group_name_H-M "P -1"
_symmetry_group_IT_number 2
_symmetry_cell_setting 'triclinic'
loop_
_space_group_symop_operation_xyz
x,y,z
-x,-y,-z
loop_
_atom_site_type_symbol
_atom_site_label
_atom_site_fract_x
_atom_site_fract_y
_atom_site_fract_z
Si Si1 0.835250 0.861893 0.597934
Si Si2 0.035335 0.098306 0.944330
Si Si3 0.657822 0.184671 0.208470
Si Si4 0.325195 0.405486 0.987804
Si Si5 0.702090 0.808926 0.012563
Si Si6 0.384451 0.036402 0.267619
Si Si7 0.583509 0.221856 0.557616
Si Si8 0.987528 0.292880 0.809669
O O1 0.934334 0.829977 0.823978
O O2 0.698083 0.034882 0.568504
O O3 0.758909 0.687802 0.309791
O O4 0.943824 0.929792 0.701868
O O5 0.210114 0.040212 0.083168
O O6 0.964794 0.227041 0.854928
O O7 0.514302 0.332922 0.175608
O O8 0.830161 0.250179 0.492363
O O9 0.673538 0.019680 0.178936
O O10 0.607936 0.097692 0.945670
O O11 0.314810 0.616879 0.155611
O O12 0.256282 0.323270 0.938703
O O13 0.848132 0.793485 0.104253
O O14 0.528521 0.766578 0.696978
O O15 0.440952 0.219674 0.455497
O O16 0.500000 0.000000 0.500000
O O17 0.000000 0.500000 0.000000
#
# Coordination Sequence:
#
# PCOD9056051 Si02
#       8
#     2   2   2   2   2   2   2   2
#     4  11  25  46  69  98 132 186 215 280 339 392
#     4  11  24  45  71  90 139 180 223 270 341 400
#     4  11  23  40  66  97 129 181 224 265 346 394
#     4  12  24  42  68 103 134 169 232 273 334 407
#     4  11  23  41  66  97 136 179 221 277 339 392
#     4  11  21  45  71  93 132 176 220 274 329 399
#     4  11  23  42  67 100 132 173 226 275 337 390
#     4  12  26  42  64 102 138 176 226 283 332 396
#
# _framework density 21.83222
#
# number of rings (size 3 to 8) (size 9 to 14) (size 15 to 20)
#    0.000    0.750    6.250    2.625    5.250    0.000 
#    2.250    3.750    0.000    0.000    0.000    0.000 
#    0.000    0.000    0.000    0.000    0.000    0.000 
#
# Total GULP energy -89283.500646 kJ/mol
# GULP energy per Si atom -5580.218790 kJ/mol
# Density = 2.178253 g / cm^3
# Si number density = 21.832220 Si / 1000 Ang^3
#
#
#
# Elastic Constant Matrix: (Units=GPa)
#
#
# Indices 1 2 3 4 5 6 
#
# 1 88.3029 18.2033 25.1097 -0.9894 14.3022 24.3413
# 2 18.2033 34.7241 41.6230 2.9356 -8.7156 9.7121
# 3 25.1097 41.6230 164.6887 10.4656 2.6514 11.7614
# 4 -0.9894 2.9356 10.4656 35.0207 0.8729 1.1430
# 5 14.3022 -8.7156 2.6514 0.8729 33.9661 -10.2759
# 6 24.3413 9.7121 11.7614 1.1430 -10.2759 25.7291
#
#
#
# Elastic Compliance Matrix: (Units=1/GPa)
#
#
# Indices 1 2 3 4 5 6 
#
# 1 0.025389 -0.013324 0.001772 0.002833 -0.023146 -0.029170
# 2 -0.013324 0.054791 -0.012544 -0.002011 0.022770 0.006841
# 3 0.001772 -0.012544 0.009403 -0.001453 -0.005707 -0.003455
# 4 0.002833 -0.002011 -0.001453 0.029456 -0.003559 -0.003987
# 5 -0.023146 0.022770 -0.005707 -0.003559 0.057359 0.038977
# 6 -0.029170 0.006841 -0.003455 -0.003987 0.038977 0.081205
#
#
# Mechanical properties :
#
#
# Convention : Reuss Voigt Hill
#
# Bulk Modulus (GPa) = 24.15928 50.84307 37.50118
# Shear Modulus (GPa) = 15.64499 32.46183 24.05341
#
# Velocity S-wave (km/s) = 2.67984 3.86019 3.32285
# Velocity P-wave (km/s) = 4.54591 6.57318 5.65120
#
# Compressibility (1/GPa) = 0.04139196
#
# Stress axis : x y z
#
# Youngs Moduli (GPa) = 39.38710 18.25119 106.34874
#
# Poissons Ratio (x) = 0.24319 -0.18849
# Poissons Ratio (y) = 0.52481 1.33399
# Poissons Ratio (z) = -0.06981 0.22893
#
# Static dielectric constant tensor:
#      x y z
#    x 1.883560 0.003330 -0.035110 
#    y 0.003330 1.838930 -0.034150 
#    z -0.035110 -0.034150 1.845230 
# 
# From -- ./inp_files/464926.got.cif
#   From: 2010.05.17/outbox.cif.g08.bks.cpg/sg2_233_cif.got.tgz:464926.got - 2010.06.03 11:33:40.
