data_PCOD9056345
_publ_section_title
;
Structure prediction by ZEFSAII (Michael W. Deem and Ramdas Pophale) SiO2 
 PCOD9056345
Probable space group: P -1
;
_chemical_formula_sum "Si O2"
_cell_formula_units_Z 16
_cell_length_a 21.388948
_cell_length_b 11.419505
_cell_length_c 9.268992
_cell_angle_alpha 140.413598
_cell_angle_beta 146.983967
_cell_angle_gamma 34.883517
_cell_volume 680.123793
_symmetry_space_group_name_H-M "P -1"
_symmetry_group_IT_number 2
_symmetry_cell_setting 'triclinic'
loop_
_space_group_symop_operation_xyz
x,y,z
-x,-y,-z
loop_
_atom_site_type_symbol
_atom_site_label
_atom_site_fract_x
_atom_site_fract_y
_atom_site_fract_z
Si Si1 0.749290 0.101400 0.835065
Si Si2 0.058404 0.113703 0.616830
Si Si3 0.617034 0.916555 0.950351
Si Si4 0.848489 0.573342 0.237105
Si Si5 0.453268 0.745861 0.646179
Si Si6 0.298569 0.135183 0.248834
Si Si7 0.953643 0.133483 0.889937
Si Si8 0.214233 0.509765 0.653816
O O1 0.689698 0.132774 0.591103
O O2 0.669892 0.037900 0.731117
O O3 0.736414 0.322173 0.069774
O O4 0.904462 0.920979 0.956663
O O5 0.939618 0.335110 0.538336
O O6 0.111206 0.954160 0.431402
O O7 0.163399 0.155767 0.940434
O O8 0.000000 0.000000 0.500000
O O9 0.766185 0.776032 0.169915
O O10 0.554261 0.152641 0.116813
O O11 0.544607 0.803233 0.778669
O O12 0.612862 0.916526 0.770472
O O13 0.778181 0.596768 0.277748
O O14 0.000000 0.500000 0.500000
O O15 0.860548 0.374926 0.982400
O O16 0.500000 0.500000 0.500000
O O17 0.277858 0.341186 0.489594
O O18 0.000000 0.000000 0.000000
#
# Coordination Sequence:
#
# PCOD9056345 Si02
#       8
#     2   2   2   2   2   2   2   2
#     4  11  24  45  68  99 137 182 229 282 341 406
#     4  11  22  38  60  98 145 185 222 267 339 413
#     4  11  28  45  70 108 130 177 236 279 348 409
#     4  12  23  40  68 100 140 178 223 284 335 401
#     4  11  26  51  76  95 132 176 235 297 335 400
#     4  12  25  42  66  97 144 175 220 286 343 413
#     4  11  22  39  67 102 136 180 233 269 335 413
#     4  11  23  40  62  96 137 185 223 269 344 405
#
# _framework density 23.525130000000001
#
# number of rings (size 3 to 8) (size 9 to 14) (size 15 to 20)
#    0.000    0.750    5.000    4.125    3.500    2.500 
#    0.000    1.250    0.000    0.000    0.000    0.000 
#    0.000    0.000    0.000    0.000    0.000    0.000 
#
# Total GULP energy -89605.234734 kJ/mol
# GULP energy per Si atom -5600.327171 kJ/mol
# Density = 2.347159 g / cm^3
# Si number density = 23.525130 Si / 1000 Ang^3
#
#
#
# Elastic Constant Matrix: (Units=GPa)
#
#
# Indices 1 2 3 4 5 6 
#
# 1 135.7397 29.0245 45.8740 29.9922 -35.6780 -7.4159
# 2 29.0245 68.1164 27.8808 20.9274 -14.2902 0.7853
# 3 45.8740 27.8808 117.0550 32.9476 -27.3339 -19.2025
# 4 29.9922 20.9274 32.9476 53.7802 -11.7112 -5.9786
# 5 -35.6780 -14.2902 -27.3339 -11.7112 52.3171 -0.5433
# 6 -7.4159 0.7853 -19.2025 -5.9786 -0.5433 25.3028
#
#
#
# Elastic Compliance Matrix: (Units=1/GPa)
#
#
# Indices 1 2 3 4 5 6 
#
# 1 0.010303 -0.001888 -0.001309 -0.002911 0.005191 0.001508
# 2 -0.001888 0.018328 -0.002747 -0.004608 0.001207 -0.004270
# 3 -0.001309 -0.002747 0.013498 -0.004493 0.004497 0.008980
# 4 -0.002911 -0.004608 -0.004493 0.024964 0.000016 0.001779
# 5 0.005191 0.001207 0.004497 0.000016 0.025393 0.005445
# 6 0.001508 -0.004270 0.008980 0.001779 0.005445 0.047449
#
#
# Mechanical properties :
#
#
# Convention : Reuss Voigt Hill
#
# Bulk Modulus (GPa) = 33.06850 58.49663 45.78257
# Shear Modulus (GPa) = 30.88240 40.82213 35.85226
#
# Velocity S-wave (km/s) = 3.62711 4.17016 3.90808
# Velocity P-wave (km/s) = 5.62391 6.93589 6.31407
#
# Compressibility (1/GPa) = 0.03024025
#
# Stress axis : x y z
#
# Youngs Moduli (GPa) = 97.05740 54.56169 74.08376
#
# Poissons Ratio (x) = 0.10304 0.09699
# Poissons Ratio (y) = 0.18329 0.20350
# Poissons Ratio (z) = 0.12706 0.14988
#
# Static dielectric constant tensor:
#      x y z
#    x 1.928240 -0.034840 0.050340 
#    y -0.034840 1.880670 -0.038370 
#    z 0.050340 -0.038370 1.918660 
# 
# From -- ./inp_files/345752.got.cif
#   From: 2010.05.17/outbox.cif.g08.bks.cpg/sg2_173_cif.got.tgz:345752.got - 2010.06.03 11:33:40.
