data_PCOD9056937
_publ_section_title
;
Structure prediction by ZEFSAII (Michael W. Deem and Ramdas Pophale) SiO2 
 PCOD9056937
Probable space group: P -1
;
_chemical_formula_sum "Si O2"
_cell_formula_units_Z 16
_cell_length_a 14.275808
_cell_length_b 9.019666
_cell_length_c 11.837604
_cell_angle_alpha 78.375165
_cell_angle_beta 148.480778
_cell_angle_gamma 90.219644
_cell_volume 737.336020
_symmetry_space_group_name_H-M "P -1"
_symmetry_group_IT_number 2
_symmetry_cell_setting 'triclinic'
loop_
_space_group_symop_operation_xyz
x,y,z
-x,-y,-z
loop_
_atom_site_type_symbol
_atom_site_label
_atom_site_fract_x
_atom_site_fract_y
_atom_site_fract_z
Si Si1 0.372254 0.181329 0.382835
Si Si2 0.621450 0.363700 0.229317
Si Si3 0.358829 0.783817 0.154861
Si Si4 0.216043 0.059993 0.806685
Si Si5 0.181581 0.987354 0.547692
Si Si6 0.961014 0.910456 0.861162
Si Si7 0.021374 0.401392 0.652150
Si Si8 0.671657 0.555008 0.892389
O O1 0.471842 0.223220 0.587417
O O2 0.158597 0.192399 0.192252
O O3 0.360849 0.318907 0.260303
O O4 0.500000 0.000000 0.500000
O O5 0.687191 0.192546 0.263531
O O6 0.814291 0.390892 0.465933
O O7 0.484393 0.359389 0.189368
O O8 0.500000 0.500000 0.000000
O O9 0.361893 0.612249 0.139937
O O10 0.165950 0.841355 0.023480
O O11 0.366394 0.911932 0.046623
O O12 0.030951 0.005876 0.642597
O O13 0.165244 0.223598 0.799737
O O14 0.235940 0.088077 0.689021
O O15 0.172209 0.011814 0.398360
O O16 0.000000 0.000000 0.000000
O O17 0.000000 0.500000 0.500000
O O18 0.119200 0.476188 0.835918
#
# Coordination Sequence:
#
# PCOD9056937 Si02
#       8
#     2   2   2   2   2   2   2   2
#     4  12  25  45  70  98 134 179 233 276 341 409
#     4  11  22  41  65  96 137 179 221 278 344 399
#     4  11  25  46  70  99 140 176 228 291 335 405
#     4   9  20  41  69  97 134 176 222 277 346 399
#     4   9  20  38  68  97 130 176 223 274 334 406
#     4  11  24  43  71  99 133 181 230 276 343 406
#     4  11  24  41  68  99 140 179 226 280 342 414
#     4  12  27  43  68 101 138 181 228 285 342 403
#
# _framework density 21.699739999999998
#
# number of rings (size 3 to 8) (size 9 to 14) (size 15 to 20)
#    0.000    1.250    2.500    2.625    8.750    1.500 
#    0.000    1.250    0.000    0.000    0.000    0.000 
#    0.000    0.000    0.000    0.000    0.000    0.000 
#
# Total GULP energy -89251.830353 kJ/mol
# GULP energy per Si atom -5578.239397 kJ/mol
# Density = 2.165035 g / cm^3
# Si number density = 21.699740 Si / 1000 Ang^3
#
#
#
# Elastic Constant Matrix: (Units=GPa)
#
#
# Indices 1 2 3 4 5 6 
#
# 1 52.6704 -42.8343 50.6436 18.4056 -16.8729 33.7186
# 2 -42.8343 -14.2330 86.7474 40.5826 -24.3019 50.1807
# 3 50.6436 86.7474 86.0322 -1.7807 -17.0752 -23.7228
# 4 18.4056 40.5826 -1.7807 33.2950 12.6280 -21.2598
# 5 -16.8729 -24.3019 -17.0752 12.6280 45.7398 3.6992
# 6 33.7186 50.1807 -23.7228 -21.2598 3.6992 6.5817
#
#
#
# Elastic Compliance Matrix: (Units=1/GPa)
#
#
# Indices 1 2 3 4 5 6 
#
# 1 0.010386 -0.005677 0.000576 0.003442 -0.000194 0.003382
# 2 -0.005677 0.004900 0.001155 0.004318 -0.001097 0.010452
# 3 0.000576 0.001155 0.009672 -0.007821 0.007093 -0.006142
# 4 0.003442 0.004318 -0.007821 0.022497 -0.005317 -0.003086
# 5 -0.000194 -0.001097 0.007093 -0.005317 0.025026 0.003682
# 6 0.003382 0.010452 -0.006142 -0.003086 0.003682 0.020747
#
#
# Mechanical properties :
#
#
# Convention : Reuss Voigt Hill
#
# Bulk Modulus (GPa) = 58.59839 34.84255 46.72047
# Shear Modulus (GPa) = 46.81262 19.11750 32.96506
#
# Velocity S-wave (km/s) = 4.64970 2.97139 3.90185
# Velocity P-wave (km/s) = 7.47590 5.27861 6.47120
#
# Compressibility (1/GPa) = 0.01706532
#
# Stress axis : x y z
#
# Youngs Moduli (GPa) = 96.28799 204.08477 103.38817
#
# Poissons Ratio (x) = 1.15861 -0.05955
# Poissons Ratio (y) = 0.54664 -0.11941
# Poissons Ratio (z) = -0.05546 -0.23571
#
# Static dielectric constant tensor:
#      x y z
#    x 1.760980 -0.334540 0.143460 
#    y -0.334540 0.573600 0.901360 
#    z 0.143460 0.901360 1.306200 
# 
# From -- ./inp_files/447264.got.cif
#   From: 2010.05.17/outbox.cif.g08.bks.cpg/sg2_224_cif.got.tgz:447264.got - 2010.06.03 11:33:40.
