data_PCOD9056100
_publ_section_title
;
Structure prediction by ZEFSAII (Michael W. Deem and Ramdas Pophale) SiO2 
 PCOD9056100
Probable space group: P -1
;
_chemical_formula_sum "Si O2"
_cell_formula_units_Z 14
_cell_length_a 15.743055
_cell_length_b 8.757602
_cell_length_c 11.203741
_cell_angle_alpha 77.007106
_cell_angle_beta 38.937637
_cell_angle_gamma 106.571375
_cell_volume 624.270388
_symmetry_space_group_name_H-M "P -1"
_symmetry_group_IT_number 2
_symmetry_cell_setting 'triclinic'
loop_
_space_group_symop_operation_xyz
x,y,z
-x,-y,-z
loop_
_atom_site_type_symbol
_atom_site_label
_atom_site_fract_x
_atom_site_fract_y
_atom_site_fract_z
Si Si1 0.421422 0.878969 0.317872
Si Si2 0.467800 0.233445 0.123501
Si Si3 0.595936 0.924700 0.353510
Si Si4 0.902691 0.244016 0.145140
Si Si5 0.420933 0.515581 0.790597
Si Si6 0.275707 0.450636 0.440285
Si Si7 0.018586 0.949645 0.728609
O O1 0.568818 0.917441 0.242802
O O2 0.294782 0.891428 0.534337
O O3 0.271108 0.621427 0.468240
O O4 0.516932 0.089699 0.088420
O O5 0.560066 0.377793 0.122224
O O6 0.224067 0.064504 0.416276
O O7 0.579662 0.409777 0.858704
O O8 0.475746 0.677850 0.591666
O O9 0.500000 0.000000 0.500000
O O10 0.823354 0.124917 0.123753
O O11 0.009968 0.193444 0.102187
O O12 0.000000 0.500000 0.000000
O O13 0.600198 0.544060 0.599528
O O14 0.194907 0.247724 0.071909
O O15 0.083141 0.178810 0.659377
#
# Coordination Sequence:
#
# PCOD9056100 Si02
#       7
#     2   2   2   2   2   2   2
#     4  10  21  38  59  85 118 152 186 242 294 337
#     4  10  21  39  62  82 112 160 201 233 272 342
#     4  10  17  36  60  84 110 145 194 233 283 338
#     4  10  19  36  62  88 110 151 198 236 278 350
#     4  11  20  38  63  87 112 152 196 238 283 340
#     4  11  23  39  55  87 125 151 187 237 297 338
#     4  10  20  37  60  87 114 150 198 235 282 341
#
# _framework density 22.426179000000001
#
# number of rings (size 3 to 8) (size 9 to 14) (size 15 to 20)
#    0.000    1.714    5.714    3.857    0.000    2.857 
#    2.571    1.429    0.000    4.286    0.000    0.000 
#    0.000    0.000    0.000    0.000    0.000    0.000 
#
# Total GULP energy -78068.208821 kJ/mol
# GULP energy per Si atom -5576.300630 kJ/mol
# Density = 2.237514 g / cm^3
# Si number density = 22.426179 Si / 1000 Ang^3
#
#
#
# Elastic Constant Matrix: (Units=GPa)
#
#
# Indices 1 2 3 4 5 6 
#
# 1 46.6933 20.0993 31.8098 -15.8395 10.1813 -6.7416
# 2 20.0993 108.3496 37.7062 -29.5616 2.2440 -0.5056
# 3 31.8098 37.7062 99.7345 -39.8163 -4.6720 6.6714
# 4 -15.8395 -29.5616 -39.8163 47.8881 3.8023 0.1616
# 5 10.1813 2.2440 -4.6720 3.8023 34.5669 -22.1710
# 6 -6.7416 -0.5056 6.6714 0.1616 -22.1710 22.3142
#
#
#
# Elastic Compliance Matrix: (Units=1/GPa)
#
#
# Indices 1 2 3 4 5 6 
#
# 1 0.031545 -0.001872 -0.009085 0.002331 -0.007822 0.004415
# 2 -0.001872 0.011665 -0.001584 0.005478 -0.002584 -0.002435
# 3 -0.009085 -0.001584 0.019060 0.012232 -0.004097 -0.012638
# 4 0.002331 0.005478 0.012232 0.036443 -0.014836 -0.017833
# 5 -0.007822 -0.002584 -0.004097 -0.014836 0.087617 0.085965
# 6 0.004415 -0.002435 -0.012638 -0.017833 0.085965 0.135415
#
#
# Mechanical properties :
#
#
# Convention : Reuss Voigt Hill
#
# Bulk Modulus (GPa) = 26.89015 48.22310 37.55663
# Shear Modulus (GPa) = 13.91899 31.96464 22.94181
#
# Velocity S-wave (km/s) = 2.49400 3.77945 3.20190
# Velocity P-wave (km/s) = 4.50666 6.37145 5.51839
#
# Compressibility (1/GPa) = 0.03718833
#
# Stress axis : x y z
#
# Youngs Moduli (GPa) = 31.70107 85.72930 52.46564
#
# Poissons Ratio (x) = 0.16045 0.47663
# Poissons Ratio (y) = 0.05933 0.08313
# Poissons Ratio (z) = 0.28799 0.13583
#
# Static dielectric constant tensor:
#      x y z
#    x 1.996060 -0.015770 0.100660 
#    y -0.015770 1.859080 -0.006310 
#    z 0.100660 -0.006310 1.953300 
# 
# From -- ./inp_files/254420.got.cif
#   From: 2010.05.17/outbox.cif.g08.bks.cpg/sg2_128_cif.got.tgz:254420.got - 2010.06.03 11:33:40.
