data_PCOD9056178
_publ_section_title
;
Structure prediction by ZEFSAII (Michael W. Deem and Ramdas Pophale) SiO2 
 PCOD9056178
Probable space group: P -1
;
_chemical_formula_sum "Si O2"
_cell_formula_units_Z 12
_cell_length_a 7.751444
_cell_length_b 14.516615
_cell_length_c 9.410283
_cell_angle_alpha 143.363194
_cell_angle_beta 125.553097
_cell_angle_gamma 53.895936
_cell_volume 497.403380
_symmetry_space_group_name_H-M "P -1"
_symmetry_group_IT_number 2
_symmetry_cell_setting 'triclinic'
loop_
_space_group_symop_operation_xyz
x,y,z
-x,-y,-z
loop_
_atom_site_type_symbol
_atom_site_label
_atom_site_fract_x
_atom_site_fract_y
_atom_site_fract_z
Si Si1 0.329712 0.245212 0.987027
Si Si2 0.362667 0.868686 0.248591
Si Si3 0.025125 0.134270 0.514226
Si Si4 0.030121 0.453650 0.759736
Si Si5 0.368097 0.654575 0.250829
Si Si6 0.653757 0.562151 0.534248
O O1 0.550641 0.209389 0.957045
O O2 0.184099 0.129036 0.721286
O O3 0.168609 0.421918 0.095145
O O4 0.361200 0.261007 0.188853
O O5 0.423042 0.745199 0.252581
O O6 0.500000 0.000000 0.500000
O O7 0.109877 0.966975 0.267794
O O8 0.775078 0.461365 0.021768
O O9 0.785795 0.211880 0.555140
O O10 0.073409 0.274060 0.610682
O O11 0.904450 0.466668 0.564485
O O12 0.563732 0.568871 0.342028
O O13 0.500000 0.500000 0.500000
#
# Coordination Sequence:
#
# PCOD9056178 Si02
#       6
#     2   2   2   2   2   2
#     4   8  18  35  57  85 118 147 191 247 288 338
#     4  10  22  38  60  86 124 162 191 239 307 348
#     4  10  17  36  60  89 114 157 194 241 292 358
#     4   9  19  36  65  89 113 149 206 245 282 351
#     4  11  19  36  68  86 112 165 199 236 291 359
#     4  10  18  34  64  93 113 145 208 245 285 344
#
# _framework density 24.125288000000001
#
# number of rings (size 3 to 8) (size 9 to 14) (size 15 to 20)
#    1.000    1.333    1.667    3.500    0.000    0.000 
#    0.000   17.500   11.000    5.000    0.000    0.000 
#    0.000    0.000    0.000    0.000    0.000    0.000 
#
# Total GULP energy -66909.400337 kJ/mol
# GULP energy per Si atom -5575.783361 kJ/mol
# Density = 2.407038 g / cm^3
# Si number density = 24.125288 Si / 1000 Ang^3
#
#
#
# Elastic Constant Matrix: (Units=GPa)
#
#
# Indices 1 2 3 4 5 6 
#
# 1 72.7344 36.8900 28.4545 -0.8057 -13.4654 -9.8421
# 2 36.8900 120.9834 51.7509 -8.7099 15.2846 -0.2656
# 3 28.4545 51.7509 69.1383 -14.6362 -0.9684 -14.4135
# 4 -0.8057 -8.7099 -14.6362 38.9618 -15.9622 1.3869
# 5 -13.4654 15.2846 -0.9684 -15.9622 49.4213 7.7537
# 6 -9.8421 -0.2656 -14.4135 1.3869 7.7537 37.3448
#
#
#
# Elastic Compliance Matrix: (Units=1/GPa)
#
#
# Indices 1 2 3 4 5 6 
#
# 1 0.019252 -0.005263 -0.003262 0.000632 0.006641 0.002375
# 2 -0.005263 0.015071 -0.010745 -0.003424 -0.006802 -0.003888
# 3 -0.003262 -0.010745 0.027698 0.009583 0.004753 0.008412
# 4 0.000632 -0.003424 0.009583 0.033526 0.012239 0.000055
# 5 0.006641 -0.006802 0.004753 0.012239 0.028643 -0.002865
# 6 0.002375 -0.003888 0.008412 0.000055 -0.002865 0.031215
#
#
# Mechanical properties :
#
#
# Convention : Reuss Voigt Hill
#
# Bulk Modulus (GPa) = 42.58877 55.22743 48.90810
# Shear Modulus (GPa) = 24.78039 34.86295 29.82167
#
# Velocity S-wave (km/s) = 3.20840 3.80554 3.51966
# Velocity P-wave (km/s) = 5.60505 6.50009 6.06909
#
# Compressibility (1/GPa) = 0.02348037
#
# Stress axis : x y z
#
# Youngs Moduli (GPa) = 51.94262 66.35202 36.10368
#
# Poissons Ratio (x) = 0.34924 0.11775
# Poissons Ratio (y) = 0.27340 0.38795
# Poissons Ratio (z) = 0.16941 0.71298
#
# Static dielectric constant tensor:
#      x y z
#    x 2.045000 -0.021790 -0.003970 
#    y -0.021790 1.962820 -0.018950 
#    z -0.003970 -0.018950 2.037720 
# 
# From -- ./inp_files/20149.got.cif
#   From: 2010.05.17/outbox.cif.g08.bks.cpg/sg2_11_cif.got.tgz:20149.got - 2010.06.03 11:33:40.
