data_PCOD9056636
_publ_section_title
;
Structure prediction by ZEFSAII (Michael W. Deem and Ramdas Pophale) SiO2 
 PCOD9056636
Probable space group: P -1
;
_chemical_formula_sum "Si O2"
_cell_formula_units_Z 16
_cell_length_a 6.405317
_cell_length_b 10.132036
_cell_length_c 10.918712
_cell_angle_alpha 86.880422
_cell_angle_beta 77.668522
_cell_angle_gamma 69.273575
_cell_volume 647.287233
_symmetry_space_group_name_H-M "P -1"
_symmetry_group_IT_number 2
_symmetry_cell_setting 'triclinic'
loop_
_space_group_symop_operation_xyz
x,y,z
-x,-y,-z
loop_
_atom_site_type_symbol
_atom_site_label
_atom_site_fract_x
_atom_site_fract_y
_atom_site_fract_z
Si Si1 0.510801 0.443399 0.140086
Si Si2 0.373447 0.141382 0.932458
Si Si3 0.606462 0.571727 0.379425
Si Si4 0.690865 0.144789 0.697428
Si Si5 0.122383 0.026532 0.769409
Si Si6 0.023250 0.776936 0.863663
Si Si7 0.417554 0.105232 0.392447
Si Si8 0.900422 0.618917 0.675499
O O1 0.572974 0.522537 0.246746
O O2 0.728903 0.300268 0.109866
O O3 0.279875 0.423795 0.218110
O O4 0.500000 0.500000 0.000000
O O5 0.561752 0.189092 0.841127
O O6 0.225071 0.111685 0.842048
O O7 0.182441 0.246871 0.035561
O O8 0.500000 0.000000 0.000000
O O9 0.500000 0.500000 0.500000
O O10 0.455479 0.738365 0.385701
O O11 0.878158 0.517331 0.375126
O O12 0.954735 0.124192 0.683997
O O13 0.684619 0.990330 0.674641
O O14 0.984034 0.942202 0.859570
O O15 0.341065 0.903497 0.694080
O O16 0.008210 0.714759 0.736380
O O17 0.249716 0.266166 0.410298
O O18 0.500000 0.000000 0.500000
#
# Coordination Sequence:
#
# PCOD9056636 Si02
#       8
#     2   2   2   2   2   2   2   2
#     4  11  28  45  74 102 140 193 241 293 358 432
#     4  11  23  36  65 104 142 178 222 294 359 426
#     4  11  30  50  71 102 148 197 239 291 358 438
#     4  11  26  44  67 103 141 184 239 288 360 428
#     4  11  22  40  64 103 137 178 230 289 361 421
#     4  11  22  40  67  98 140 178 230 290 360 418
#     4  11  25  43  73 103 133 180 240 302 352 419
#     4  11  25  48  70 104 143 183 241 300 357 422
#
# _framework density 24.718547000000001
#
# number of rings (size 3 to 8) (size 9 to 14) (size 15 to 20)
#    0.000    1.000    3.750    1.125    8.750    3.000 
#    0.000    0.000    0.000    0.000    0.000    0.000 
#    0.000    0.000    0.000    0.000    0.000    0.000 
#
# Total GULP energy -89371.010636 kJ/mol
# GULP energy per Si atom -5585.688165 kJ/mol
# Density = 2.466229 g / cm^3
# Si number density = 24.718547 Si / 1000 Ang^3
#
#
#
# Elastic Constant Matrix: (Units=GPa)
#
#
# Indices 1 2 3 4 5 6 
#
# 1 111.8269 59.3501 24.3517 -10.2197 6.7342 -45.2748
# 2 59.3501 151.1563 47.8468 -25.0345 -0.3099 -42.3148
# 3 24.3517 47.8468 98.6784 -25.1451 5.8568 -17.4435
# 4 -10.2197 -25.0345 -25.1451 46.1536 0.2037 9.6896
# 5 6.7342 -0.3099 5.8568 0.2037 27.4968 -3.4015
# 6 -45.2748 -42.3148 -17.4435 9.6896 -3.4015 46.1170
#
#
#
# Elastic Compliance Matrix: (Units=1/GPa)
#
#
# Indices 1 2 3 4 5 6 
#
# 1 0.015662 -0.002547 -0.000439 -0.000849 -0.002170 0.012892
# 2 -0.002547 0.010556 -0.003014 0.002311 0.002074 0.005713
# 3 -0.000439 -0.003014 0.013343 0.005444 -0.002747 0.000504
# 4 -0.000849 0.002311 0.005444 0.026178 -0.001399 -0.002258
# 5 -0.002170 0.002074 -0.002747 -0.001399 0.037742 0.001812
# 6 0.012892 0.005713 0.000504 -0.002258 0.001812 0.040380
#
#
# Mechanical properties :
#
#
# Convention : Reuss Voigt Hill
#
# Bulk Modulus (GPa) = 36.28312 69.41763 52.85037
# Shear Modulus (GPa) = 30.29401 39.29434 34.79418
#
# Velocity S-wave (km/s) = 3.50460 3.99139 3.75589
# Velocity P-wave (km/s) = 5.57554 7.02750 6.34320
#
# Compressibility (1/GPa) = 0.02756103
#
# Stress axis : x y z
#
# Youngs Moduli (GPa) = 63.84841 94.73280 74.94562
#
# Poissons Ratio (x) = 0.24127 0.03290
# Poissons Ratio (y) = 0.16262 0.22590
# Poissons Ratio (z) = 0.02803 0.28554
#
# Static dielectric constant tensor:
#      x y z
#    x 1.996490 0.017940 -0.020550 
#    y 0.017940 1.991630 -0.017240 
#    z -0.020550 -0.017240 2.116440 
# 
# From -- ./inp_files/364259.got.cif
#   From: 2010.05.17/outbox.cif.g08.bks.cpg/sg2_183_cif.got.tgz:364259.got - 2010.06.03 11:33:40.
