data_PCOD9056204
_publ_section_title
;
Structure prediction by ZEFSAII (Michael W. Deem and Ramdas Pophale) SiO2 
 PCOD9056204
Probable space group: P -1
;
_chemical_formula_sum "Si O2"
_cell_formula_units_Z 12
_cell_length_a 9.141635
_cell_length_b 10.295560
_cell_length_c 12.987355
_cell_angle_alpha 35.226675
_cell_angle_beta 124.678635
_cell_angle_gamma 105.638640
_cell_volume 528.438984
_symmetry_space_group_name_H-M "P -1"
_symmetry_group_IT_number 2
_symmetry_cell_setting 'triclinic'
loop_
_space_group_symop_operation_xyz
x,y,z
-x,-y,-z
loop_
_atom_site_type_symbol
_atom_site_label
_atom_site_fract_x
_atom_site_fract_y
_atom_site_fract_z
Si Si1 0.603398 0.960566 0.175777
Si Si2 0.085378 0.857560 0.863212
Si Si3 0.633938 0.052586 0.603593
Si Si4 0.327102 0.409388 0.378336
Si Si5 0.022728 0.729286 0.707543
Si Si6 0.624002 0.634097 0.017234
O O1 0.613500 0.720667 0.400870
O O2 0.815919 0.957293 0.244241
O O3 0.486035 0.218275 0.022923
O O4 0.500000 0.000000 0.000000
O O5 0.116346 0.674215 0.895382
O O6 0.194334 0.695153 0.112314
O O7 0.852555 0.995634 0.693970
O O8 0.515562 0.314822 0.441169
O O9 0.500000 0.000000 0.500000
O O10 0.643720 0.852896 0.820522
O O11 0.184230 0.282903 0.365256
O O12 0.155937 0.566825 0.774274
O O13 0.000000 0.000000 0.500000
O O14 0.500000 0.500000 0.000000
#
# Coordination Sequence:
#
# PCOD9056204 Si02
#       6
#     2   2   2   2   2   2
#     4  11  27  48  68  95 138 187 232 277 339 410
#     4  12  23  40  70 100 137 177 225 281 348 398
#     4  11  22  35  64 107 136 165 220 281 344 402
#     4  11  23  42  65  98 140 171 226 285 337 405
#     4  12  20  36  67 105 136 169 217 284 343 396
#     4  11  22  39  66 100 131 172 225 277 338 398
#
# _framework density 22.708393000000001
#
# number of rings (size 3 to 8) (size 9 to 14) (size 15 to 20)
#    0.000    0.667    6.667    2.500    0.000    0.667 
#    0.000    4.167    0.000    0.000    0.000    0.000 
#    0.000    0.000    0.000    0.000    0.000    0.000 
#
# Total GULP energy -66993.759333 kJ/mol
# GULP energy per Si atom -5582.813278 kJ/mol
# Density = 2.265671 g / cm^3
# Si number density = 22.708393 Si / 1000 Ang^3
#
#
#
# Elastic Constant Matrix: (Units=GPa)
#
#
# Indices 1 2 3 4 5 6 
#
# 1 159.4703 31.3241 38.9381 3.3939 29.4661 -13.6974
# 2 31.3241 61.1415 17.2520 22.6418 10.6070 -16.0909
# 3 38.9381 17.2520 113.3852 16.7533 6.3410 -17.4081
# 4 3.3939 22.6418 16.7533 34.7907 -2.3985 -2.1645
# 5 29.4661 10.6070 6.3410 -2.3985 46.4764 -0.7480
# 6 -13.6974 -16.0909 -17.4081 -2.1645 -0.7480 14.8659
#
#
#
# Elastic Compliance Matrix: (Units=1/GPa)
#
#
# Indices 1 2 3 4 5 6 
#
# 1 0.008304 -0.003349 -0.002207 0.002250 -0.004058 0.001565
# 2 -0.003349 0.037742 0.005763 -0.025039 -0.007918 0.040471
# 3 -0.002207 0.005763 0.012837 -0.008731 -0.001830 0.017874
# 4 0.002250 -0.025039 -0.008731 0.047804 0.007497 -0.027916
# 5 -0.004058 -0.007918 -0.001830 0.007497 0.026339 -0.012035
# 6 0.001565 0.040471 0.017874 -0.027916 -0.012035 0.128776
#
#
# Mechanical properties :
#
#
# Convention : Reuss Voigt Hill
#
# Bulk Modulus (GPa) = 16.86409 56.55836 36.71123
# Shear Modulus (GPa) = 17.78397 35.65880 26.72139
#
# Velocity S-wave (km/s) = 2.80151 3.96699 3.43405
# Velocity P-wave (km/s) = 4.23168 6.77813 5.65023
#
# Compressibility (1/GPa) = 0.05929758
#
# Stress axis : x y z
#
# Youngs Moduli (GPa) = 120.42607 26.49589 77.89861
#
# Poissons Ratio (x) = 0.08873 0.17195
# Poissons Ratio (y) = 0.40326 -0.44896
# Poissons Ratio (z) = 0.26582 -0.15271
#
# Static dielectric constant tensor:
#      x y z
#    x 1.851010 -0.118170 0.102910 
#    y -0.118170 1.809780 0.117100 
#    z 0.102910 0.117100 1.849950 
# 
# From -- ./inp_files/202923.got.cif
#   From: 2010.05.17/outbox.cif.g08.bks.cpg/sg2_102_cif.got.tgz:202923.got - 2010.06.03 11:33:40.
