data_PCOD9056797
_publ_section_title
;
Structure prediction by ZEFSAII (Michael W. Deem and Ramdas Pophale) SiO2 
 PCOD9056797
Probable space group: P -1
;
_chemical_formula_sum "Si O2"
_cell_formula_units_Z 14
_cell_length_a 15.050404
_cell_length_b 28.187885
_cell_length_c 15.327935
_cell_angle_alpha 160.266103
_cell_angle_beta 19.117947
_cell_angle_gamma 159.356968
_cell_volume 652.629414
_symmetry_space_group_name_H-M "P -1"
_symmetry_group_IT_number 2
_symmetry_cell_setting 'triclinic'
loop_
_space_group_symop_operation_xyz
x,y,z
-x,-y,-z
loop_
_atom_site_type_symbol
_atom_site_label
_atom_site_fract_x
_atom_site_fract_y
_atom_site_fract_z
Si Si1 0.344458 0.836679 0.908469
Si Si2 0.473398 0.335140 0.852080
Si Si3 0.155471 0.888025 0.638811
Si Si4 0.956302 0.666534 0.606174
Si Si5 0.679991 0.696270 0.248850
Si Si6 0.984449 0.344808 0.793284
Si Si7 0.561515 0.331177 0.314383
O O1 0.401631 0.721804 0.589239
O O2 0.490350 0.808343 0.812439
O O3 0.995765 0.794194 0.171452
O O4 0.500000 0.000000 0.000000
O O5 0.288901 0.260980 0.807991
O O6 0.759026 0.300404 0.540268
O O7 0.281761 0.300010 0.057287
O O8 0.603435 0.518345 0.029586
O O9 0.050724 0.783355 0.468307
O O10 0.074506 0.769513 0.589212
O O11 0.500000 0.000000 0.500000
O O12 0.000000 0.000000 0.000000
O O13 0.800488 0.487743 0.409766
O O14 0.276903 0.364948 0.612462
O O15 0.706960 0.299349 0.037391
O O16 0.000000 0.500000 0.000000
#
# Coordination Sequence:
#
# PCOD9056797 Si02
#       7
#     2   2   2   2   2   2   2
#     4  12  25  45  65  96 143 183 225 287 345 404
#     4  11  22  40  70 100 126 173 230 287 324 396
#     4  12  28  49  68 102 146 179 219 294 365 414
#     4  12  23  43  73  96 136 176 231 284 343 415
#     4  11  22  42  66  96 135 173 226 280 339 395
#     4  12  26  46  77 104 136 181 240 289 343 428
#     4  12  24  44  74 103 132 181 244 284 337 415
#
# _framework density 21.451682999999999
#
# number of rings (size 3 to 8) (size 9 to 14) (size 15 to 20)
#    0.000    0.286    4.286    5.143    2.000    2.286 
#   15.429    0.000    0.000    0.000    0.000    0.000 
#    0.000    0.000    0.000    0.000    0.000    0.000 
#
# Total GULP energy -78306.825778 kJ/mol
# GULP energy per Si atom -5593.344698 kJ/mol
# Density = 2.140286 g / cm^3
# Si number density = 21.451683 Si / 1000 Ang^3
#
#
#
# Elastic Constant Matrix: (Units=GPa)
#
#
# Indices 1 2 3 4 5 6 
#
# 1 95.7865 32.7082 16.2296 4.4673 -11.7639 -14.2388
# 2 32.7082 79.1965 19.8170 -8.8254 -14.9112 -20.3489
# 3 16.2296 19.8170 88.6588 -6.9131 -6.5230 4.2445
# 4 4.4673 -8.8254 -6.9131 33.4300 -3.1314 -6.0901
# 5 -11.7639 -14.9112 -6.5230 -3.1314 46.4012 -6.2951
# 6 -14.2388 -20.3489 4.2445 -6.0901 -6.2951 36.3716
#
#
#
# Elastic Compliance Matrix: (Units=1/GPa)
#
#
# Indices 1 2 3 4 5 6 
#
# 1 0.012891 -0.004075 -0.001633 -0.002426 0.001958 0.002890
# 2 -0.004075 0.020924 -0.003344 0.008500 0.007591 0.013239
# 3 -0.001633 -0.003344 0.012592 0.001233 -0.000150 -0.003799
# 4 -0.002426 0.008500 0.001233 0.035243 0.006109 0.010620
# 5 0.001958 0.007591 -0.000150 0.006109 0.026317 0.010608
# 6 0.002890 0.013239 -0.003799 0.010620 0.010608 0.040090
#
#
# Mechanical properties :
#
#
# Convention : Reuss Voigt Hill
#
# Bulk Modulus (GPa) = 35.32823 44.57236 39.95029
# Shear Modulus (GPa) = 28.47466 36.23304 32.35385
#
# Velocity S-wave (km/s) = 3.64728 4.11427 3.88779
# Velocity P-wave (km/s) = 5.85162 6.58732 6.23033
#
# Compressibility (1/GPa) = 0.02830598
#
# Stress axis : x y z
#
# Youngs Moduli (GPa) = 77.57308 47.79152 79.41306
#
# Poissons Ratio (x) = 0.19474 0.12964
# Poissons Ratio (y) = 0.31609 0.26553
# Poissons Ratio (z) = 0.12664 0.15980
#
# Static dielectric constant tensor:
#      x y z
#    x 1.814280 0.010110 -0.003530 
#    y 0.010110 1.757360 0.029880 
#    z -0.003530 0.029880 1.774150 
# 
# From -- ./inp_files/90251.got.cif
#   From: 2010.05.17/outbox.cif.g08.bks.cpg/sg2_46_cif.got.tgz:90251.got - 2010.06.03 11:33:40.
