data_PCOD9056283
_publ_section_title
;
Structure prediction by ZEFSAII (Michael W. Deem and Ramdas Pophale) SiO2 
 PCOD9056283
Probable space group: P -1
;
_chemical_formula_sum "Si O2"
_cell_formula_units_Z 12
_cell_length_a 10.923460
_cell_length_b 8.159715
_cell_length_c 7.093397
_cell_angle_alpha 76.511016
_cell_angle_beta 75.210781
_cell_angle_gamma 124.043980
_cell_volume 447.227645
_symmetry_space_group_name_H-M "P -1"
_symmetry_group_IT_number 2
_symmetry_cell_setting 'triclinic'
loop_
_space_group_symop_operation_xyz
x,y,z
-x,-y,-z
loop_
_atom_site_type_symbol
_atom_site_label
_atom_site_fract_x
_atom_site_fract_y
_atom_site_fract_z
Si Si1 0.752266 0.836347 0.335753
Si Si2 0.911118 0.620925 0.418995
Si Si3 0.317194 0.893573 0.517022
Si Si4 0.894639 0.434271 0.870934
Si Si5 0.533467 0.198055 0.036355
Si Si6 0.475022 0.444924 0.801203
O O1 0.707451 0.750579 0.159544
O O2 0.626041 0.938109 0.727040
O O3 0.576939 0.651260 0.567591
O O4 0.778157 0.055587 0.318841
O O5 0.784280 0.364137 0.444244
O O6 0.868073 0.780696 0.368661
O O7 0.080521 0.719472 0.211328
O O8 0.933747 0.597744 0.637647
O O9 0.500000 0.000000 0.500000
O O10 0.710833 0.337265 0.034427
O O11 0.000000 0.500000 0.000000
O O12 0.561093 0.340518 0.806207
O O13 0.500000 0.000000 0.000000
O O14 0.500000 0.500000 0.000000
#
# Coordination Sequence:
#
# PCOD9056283 Si02
#       6
#     2   2   2   2   2   2
#     4  11  23  41  68 102 139 179 229 287 353 411
#     4  11  25  47  68  99 144 185 226 285 354 416
#     4  12  23  41  73 105 138 176 232 294 345 407
#     4  11  25  43  70  98 142 190 228 281 354 418
#     4  12  22  42  71 102 136 177 236 290 340 411
#     4  11  22  37  62 101 141 170 223 294 349 402
#
# _framework density 26.831970999999999
#
# number of rings (size 3 to 8) (size 9 to 14) (size 15 to 20)
#    0.000    0.667    5.000    4.000    2.333    0.000 
#    0.000    3.333    3.667    4.000    0.000    0.000 
#    0.000    0.000    0.000    0.000    0.000    0.000 
#
# Total GULP energy -66803.815034 kJ/mol
# GULP energy per Si atom -5566.984586 kJ/mol
# Density = 2.677090 g / cm^3
# Si number density = 26.831971 Si / 1000 Ang^3
#
#
#
# Elastic Constant Matrix: (Units=GPa)
#
#
# Indices 1 2 3 4 5 6 
#
# 1 152.8815 43.2820 -5.6234 15.2399 16.7222 3.7611
# 2 43.2820 105.8666 25.0946 11.0122 24.5765 -10.6208
# 3 -5.6234 25.0946 114.9807 13.7020 15.4130 -0.5668
# 4 15.2399 11.0122 13.7020 48.1619 0.8836 -0.1013
# 5 16.7222 24.5765 15.4130 0.8836 38.8671 19.3144
# 6 3.7611 -10.6208 -0.5668 -0.1013 19.3144 52.8388
#
#
#
# Elastic Compliance Matrix: (Units=1/GPa)
#
#
# Indices 1 2 3 4 5 6 
#
# 1 0.007873 -0.002977 0.001542 -0.002217 -0.001828 -0.000478
# 2 -0.002977 0.014376 -0.001632 -0.001672 -0.010576 0.006947
# 3 0.001542 -0.001632 0.010032 -0.002891 -0.004127 0.001173
# 4 -0.002217 -0.001672 -0.002891 0.022605 0.003331 -0.001384
# 5 -0.001828 -0.010576 -0.004127 0.003331 0.043715 -0.018013
# 6 -0.000478 0.006947 0.001173 -0.001384 -0.018013 0.026950
#
#
# Mechanical properties :
#
#
# Convention : Reuss Voigt Hill
#
# Bulk Modulus (GPa) = 38.24651 55.47060 46.85856
# Shear Modulus (GPa) = 35.61193 48.70527 42.15860
#
# Velocity S-wave (km/s) = 3.64706 4.26513 3.96815
# Velocity P-wave (km/s) = 5.65860 6.70622 6.20456
#
# Compressibility (1/GPa) = 0.02614617
#
# Stress axis : x y z
#
# Youngs Moduli (GPa) = 127.01091 69.56030 99.67964
#
# Poissons Ratio (x) = 0.20711 -0.15368
# Poissons Ratio (y) = 0.37816 0.16268
# Poissons Ratio (z) = -0.19582 0.11352
#
# Static dielectric constant tensor:
#      x y z
#    x 2.374000 0.027130 -0.253120 
#    y 0.027130 2.170040 0.077860 
#    z -0.253120 0.077860 2.269560 
# 
# From -- ./inp_files/244461.got.cif
#   From: 2010.05.17/outbox.cif.g08.bks.cpg/sg2_123_cif.got.tgz:244461.got - 2010.06.03 11:33:40.
