data_PCOD9056058
_publ_section_title
;
Structure prediction by ZEFSAII (Michael W. Deem and Ramdas Pophale) SiO2 
 PCOD9056058
Probable space group: P -1
;
_chemical_formula_sum "Si O2"
_cell_formula_units_Z 13
_cell_length_a 8.374059
_cell_length_b 15.185392
_cell_length_c 9.335035
_cell_angle_alpha 132.627793
_cell_angle_beta 132.072832
_cell_angle_gamma 35.453422
_cell_volume 486.725059
_symmetry_space_group_name_H-M "P -1"
_symmetry_group_IT_number 2
_symmetry_cell_setting 'triclinic'
loop_
_space_group_symop_operation_xyz
x,y,z
-x,-y,-z
loop_
_atom_site_type_symbol
_atom_site_label
_atom_site_fract_x
_atom_site_fract_y
_atom_site_fract_z
Si Si1 0.835056 0.448808 0.914625
Si Si2 0.670134 0.072553 0.876164
Si Si3 0.137261 0.242417 0.265014
Si Si4 0.592954 0.188667 0.268187
Si Si5 0.666019 0.678739 0.306972
Si Si6 0.500000 0.500000 0.500000
Si Si7 0.917082 0.183412 0.807218
O O1 0.574120 0.522135 0.731226
O O2 0.980409 0.266732 0.827449
O O3 0.759773 0.526634 0.111841
O O4 0.000000 0.500000 0.000000
O O5 0.481959 0.185694 0.754729
O O6 0.683475 0.924985 0.728304
O O7 0.541667 0.164847 0.048861
O O8 0.000000 0.000000 0.000000
O O9 0.332919 0.238952 0.264578
O O10 0.075811 0.355455 0.485135
O O11 0.931111 0.238651 0.036353
O O12 0.616645 0.321932 0.420545
O O13 0.868715 0.007157 0.278877
O O14 0.406437 0.740829 0.323687
#
# Coordination Sequence:
#
# PCOD9056058 Si02
#       7
#     2   2   2   2   2   1   2
#     4  12  29  46  73 108 147 187 243 300 359 428
#     4  11  21  45  72 107 144 190 239 300 353 424
#     4  11  25  43  75 105 144 189 240 292 360 429
#     4  11  24  46  77 102 144 195 242 293 357 427
#     4  12  25  45  71 109 143 193 237 295 362 425
#     4  12  26  48  72 104 144 184 238 302 360 414
#     4  11  25  48  71 106 148 189 240 297 354 430
#
# _framework density 26.709123999999999
#
# number of rings (size 3 to 8) (size 9 to 14) (size 15 to 20)
#    0.000    0.615    4.615    4.615    2.154    5.538 
#    0.000    0.000    0.000    0.000    0.000    0.000 
#    0.000    0.000    0.000    0.000    0.000    0.000 
#
# Total GULP energy -72528.178677 kJ/mol
# GULP energy per Si atom -5579.090667 kJ/mol
# Density = 2.664833 g / cm^3
# Si number density = 26.709124 Si / 1000 Ang^3
#
#
#
# Elastic Constant Matrix: (Units=GPa)
#
#
# Indices 1 2 3 4 5 6 
#
# 1 81.9608 58.8089 10.3155 -2.2138 5.8931 28.3495
# 2 58.8089 178.1873 25.4430 29.3418 21.8997 47.7333
# 3 10.3155 25.4430 184.1925 -7.2128 0.1277 -2.0231
# 4 -2.2138 29.3418 -7.2128 49.2429 4.0486 12.2809
# 5 5.8931 21.8997 0.1277 4.0486 23.8460 -0.0759
# 6 28.3495 47.7333 -2.0231 12.2809 -0.0759 49.2861
#
#
#
# Elastic Compliance Matrix: (Units=1/GPa)
#
#
# Indices 1 2 3 4 5 6 
#
# 1 0.018512 -0.004928 -0.000214 0.005640 -0.001028 -0.007291
# 2 -0.004928 0.011031 -0.001499 -0.004659 -0.008135 -0.006762
# 3 -0.000214 -0.001499 0.005713 0.001248 0.001192 0.001500
# 4 0.005640 -0.004659 0.001248 0.024847 -0.001356 -0.004874
# 5 -0.001028 -0.008135 0.001192 -0.001356 0.049913 0.008934
# 6 -0.007291 -0.006762 0.001500 -0.004874 0.008934 0.032322
#
#
# Mechanical properties :
#
#
# Convention : Reuss Voigt Hill
#
# Bulk Modulus (GPa) = 45.51105 70.38615 57.94860
# Shear Modulus (GPa) = 30.68489 47.79322 39.23905
#
# Velocity S-wave (km/s) = 3.39315 4.23472 3.83708
# Velocity P-wave (km/s) = 5.69454 7.09369 6.43227
#
# Compressibility (1/GPa) = 0.02197269
#
# Stress axis : x y z
#
# Youngs Moduli (GPa) = 54.01772 90.65302 175.04942
#
# Poissons Ratio (x) = 0.44678 0.03754
# Poissons Ratio (y) = 0.26622 0.26237
# Poissons Ratio (z) = 0.01159 0.13587
#
# Static dielectric constant tensor:
#      x y z
#    x 2.242830 -0.096300 -0.074590 
#    y -0.096300 2.133130 -0.006190 
#    z -0.074590 -0.006190 2.098060 
# 
# From -- ./inp_files/204547.got.cif
#   From: 2010.05.17/outbox.cif.g08.bks.cpg/sg2_103_cif.got.tgz:204547.got - 2010.06.03 11:33:40.
