data_PCOD9056742
_publ_section_title
;
Structure prediction by ZEFSAII (Michael W. Deem and Ramdas Pophale) SiO2 
 PCOD9056742
Probable space group: P -1
;
_chemical_formula_sum "Si O2"
_cell_formula_units_Z 16
_cell_length_a 19.462205
_cell_length_b 10.900890
_cell_length_c 15.893199
_cell_angle_alpha 144.558852
_cell_angle_beta 21.408153
_cell_angle_gamma 135.658432
_cell_volume 698.566123
_symmetry_space_group_name_H-M "P -1"
_symmetry_group_IT_number 2
_symmetry_cell_setting 'triclinic'
loop_
_space_group_symop_operation_xyz
x,y,z
-x,-y,-z
loop_
_atom_site_type_symbol
_atom_site_label
_atom_site_fract_x
_atom_site_fract_y
_atom_site_fract_z
Si Si1 0.913857 0.223101 0.822824
Si Si2 0.094365 0.715551 0.323520
Si Si3 0.645867 0.235757 0.290576
Si Si4 0.475212 0.656266 0.959063
Si Si5 0.973729 0.048385 0.919475
Si Si6 0.149277 0.652986 0.610856
Si Si7 0.644637 0.923159 0.577499
Si Si8 0.671507 0.677193 0.579813
O O1 0.833328 0.278022 0.851703
O O2 0.100759 0.328726 0.677655
O O3 0.759285 0.291628 0.109837
O O4 0.989424 0.963444 0.599054
O O5 0.949396 0.553006 0.400688
O O6 0.269207 0.642193 0.147445
O O7 0.456568 0.167533 0.435372
O O8 0.619830 0.445089 0.495080
O O9 0.784948 0.049654 0.080477
O O10 0.622612 0.439053 0.695394
O O11 0.579584 0.755754 0.817921
O O12 0.439108 0.824775 0.170565
O O13 0.075749 0.819983 0.713804
O O14 0.129211 0.121580 0.722611
O O15 0.920556 0.214641 0.150304
O O16 0.605205 0.813477 0.648523
#
# Coordination Sequence:
#
# PCOD9056742 Si02
#       8
#     2   2   2   2   2   2   2   2
#     4  11  22  40  68 104 141 176 218 278 341 409
#     4  11  23  40  69 100 138 180 219 274 342 405
#     4  12  24  42  69 102 135 179 221 277 342 400
#     4  12  24  44  67 105 135 181 220 278 334 404
#     4  11  26  49  66  99 133 182 229 290 323 398
#     4  11  26  46  73  93 135 180 236 275 340 393
#     4  12  27  42  69 102 143 171 224 279 340 403
#     4  12  23  41  68 102 140 177 214 273 340 410
#
# _framework density 22.904060000000001
#
# number of rings (size 3 to 8) (size 9 to 14) (size 15 to 20)
#    0.000    0.500    5.000    2.625    5.250    1.500 
#    0.000    6.875    0.000    0.000    0.000    0.000 
#    0.000    0.000    0.000    0.000    0.000    0.000 
#
# Total GULP energy -89618.299340 kJ/mol
# GULP energy per Si atom -5601.143709 kJ/mol
# Density = 2.285193 g / cm^3
# Si number density = 22.904060 Si / 1000 Ang^3
#
#
#
# Elastic Constant Matrix: (Units=GPa)
#
#
# Indices 1 2 3 4 5 6 
#
# 1 10.4426 36.7554 -3.8771 38.4326 -24.3695 -48.0002
# 2 36.7554 45.5632 18.5843 12.1992 -15.3114 18.5067
# 3 -3.8771 18.5843 64.9698 25.6282 -13.2325 -2.8665
# 4 38.4326 12.1992 25.6282 23.9061 -3.5759 16.7792
# 5 -24.3695 -15.3114 -13.2325 -3.5759 44.3265 -7.5981
# 6 -48.0002 18.5067 -2.8665 16.7792 -7.5981 -17.1500
#
#
#
# Elastic Compliance Matrix: (Units=1/GPa)
#
#
# Indices 1 2 3 4 5 6 
#
# 1 0.007227 0.001919 -0.001021 0.001047 0.001402 -0.017582
# 2 0.001919 0.027312 0.001601 -0.018365 0.009751 0.001547
# 3 -0.001021 0.001601 0.019582 -0.011702 0.002933 -0.011437
# 4 0.001047 -0.018365 -0.011702 0.045032 -0.001525 0.023940
# 5 0.001402 0.009751 0.002933 -0.001525 0.026249 -0.007013
# 6 -0.017582 0.001547 -0.011437 0.023940 -0.007013 0.021012
#
#
# Mechanical properties :
#
#
# Convention : Reuss Voigt Hill
#
# Bulk Modulus (GPa) = 16.91543 24.87785 20.89664
# Shear Modulus (GPa) = 31.03211 14.85073 22.94142
#
# Velocity S-wave (km/s) = 3.68485 2.54911 3.16829
# Velocity P-wave (km/s) = 5.05030 4.42146 4.74631
#
# Compressibility (1/GPa) = 0.05911764
#
# Stress axis : x y z
#
# Youngs Moduli (GPa) = 138.37015 36.61348 51.06809
#
# Poissons Ratio (x) = -0.07025 0.05214
# Poissons Ratio (y) = -0.26549 -0.08174
# Poissons Ratio (z) = 0.14127 -0.05860
#
# Static dielectric constant tensor:
#      x y z
#    x 1.845040 -0.006270 -0.013930 
#    y -0.006270 1.828990 0.025700 
#    z -0.013930 0.025700 1.865760 
# 
# From -- ./inp_files/272193.got.cif
#   From: 2010.05.17/outbox.cif.g08.bks.cpg/sg2_137_cif.got.tgz:272193.got - 2010.06.03 11:33:40.
