data_PCOD9056343
_publ_section_title
;
Structure prediction by ZEFSAII (Michael W. Deem and Ramdas Pophale) SiO2 
 PCOD9056343
Probable space group: P -1
;
_chemical_formula_sum "Si O2"
_cell_formula_units_Z 16
_cell_length_a 12.987268
_cell_length_b 9.046168
_cell_length_c 22.087294
_cell_angle_alpha 106.752965
_cell_angle_beta 18.929034
_cell_angle_gamma 109.024678
_cell_volume 794.094570
_symmetry_space_group_name_H-M "P -1"
_symmetry_group_IT_number 2
_symmetry_cell_setting 'triclinic'
loop_
_space_group_symop_operation_xyz
x,y,z
-x,-y,-z
loop_
_atom_site_type_symbol
_atom_site_label
_atom_site_fract_x
_atom_site_fract_y
_atom_site_fract_z
Si Si1 0.642085 0.186004 0.097880
Si Si2 0.797616 0.096049 0.382562
Si Si3 0.625383 0.677904 0.932233
Si Si4 0.717901 0.279447 0.646570
Si Si5 0.316784 0.133027 0.755859
Si Si6 0.335545 0.415128 0.237115
Si Si7 0.818863 0.074174 0.756377
Si Si8 0.613624 0.926630 0.648318
O O1 0.637831 0.357831 0.094079
O O2 0.508196 0.179717 0.240205
O O3 0.419428 0.063026 0.163028
O O4 0.988580 0.137265 0.905468
O O5 0.614175 0.163531 0.547921
O O6 0.024707 0.225996 0.231543
O O7 0.500000 0.000000 0.500000
O O8 0.030538 0.991546 0.274520
O O9 0.680328 0.661415 0.828216
O O10 0.500000 0.500000 0.000000
O O11 0.367492 0.786601 0.106041
O O12 0.407975 0.262465 0.772647
O O13 0.669161 0.400116 0.739822
O O14 0.033513 0.344282 0.439327
O O15 0.737719 0.099976 0.629016
O O16 0.340396 0.971305 0.759511
O O17 0.114799 0.123356 0.551014
#
# Coordination Sequence:
#
# PCOD9056343 Si02
#       8
#     2   2   2   2   2   2   2   2
#     4  12  20  35  68  93 124 160 220 267 308 380
#     4  11  22  44  68  91 128 174 214 266 324 383
#     4  12  26  42  64  97 131 169 219 267 321 381
#     4   9  20  40  60  82 133 158 208 256 329 375
#     4   9  20  37  59  93 126 164 207 257 324 376
#     4  11  22  38  60  90 122 170 210 262 319 384
#     4  11  23  40  64  97 123 169 224 261 314 396
#     4   9  20  39  58  95 123 159 210 261 319 367
#
# _framework density 20.148731999999999
#
# number of rings (size 3 to 8) (size 9 to 14) (size 15 to 20)
#    0.750    0.750    3.750    1.875    3.500    1.500 
#    0.000    0.625    0.000    0.000    0.000    0.000 
#    0.000    0.000    0.000    0.000    0.000    0.000 
#
# Total GULP energy -89180.712402 kJ/mol
# GULP energy per Si atom -5573.794525 kJ/mol
# Density = 2.010287 g / cm^3
# Si number density = 20.148732 Si / 1000 Ang^3
#
#
#
# Elastic Constant Matrix: (Units=GPa)
#
#
# Indices 1 2 3 4 5 6 
#
# 1 58.1882 22.3592 39.3617 10.0779 -16.6649 -0.5850
# 2 22.3592 73.4603 44.8294 10.0543 6.4286 5.4394
# 3 39.3617 44.8294 96.2600 12.6472 -13.2342 -0.9453
# 4 10.0779 10.0543 12.6472 29.7617 7.0108 11.7141
# 5 -16.6649 6.4286 -13.2342 7.0108 37.0174 3.1330
# 6 -0.5850 5.4394 -0.9453 11.7141 3.1330 24.2290
#
#
#
# Elastic Compliance Matrix: (Units=1/GPa)
#
#
# Indices 1 2 3 4 5 6 
#
# 1 0.029070 -0.005142 -0.006221 -0.010573 0.013335 0.005001
# 2 -0.005142 0.022165 -0.010036 0.003087 -0.009854 -0.005710
# 3 -0.006221 -0.010036 0.019396 -0.006296 0.006642 0.005045
# 4 -0.010573 0.003087 -0.006296 0.052012 -0.015336 -0.024357
# 5 0.013335 -0.009854 0.006642 -0.015336 0.039577 0.005090
# 6 0.005001 -0.005710 0.005045 -0.024357 0.005090 0.053990
#
#
# Mechanical properties :
#
#
# Convention : Reuss Voigt Hill
#
# Bulk Modulus (GPa) = 35.92824 49.00102 42.46463
# Shear Modulus (GPa) = 18.63672 26.29217 22.46444
#
# Velocity S-wave (km/s) = 3.04461 3.61626 3.34268
# Velocity P-wave (km/s) = 5.49816 6.46598 6.00161
#
# Compressibility (1/GPa) = 0.02783326
#
# Stress axis : x y z
#
# Youngs Moduli (GPa) = 34.39950 45.11571 51.55664
#
# Poissons Ratio (x) = 0.23199 0.32072
# Poissons Ratio (y) = 0.17689 0.51744
# Poissons Ratio (z) = 0.21399 0.45279
#
# Static dielectric constant tensor:
#      x y z
#    x 1.751510 -0.006940 -0.013060 
#    y -0.006940 1.745100 -0.018540 
#    z -0.013060 -0.018540 1.736840 
# 
# From -- ./inp_files/346176.got.cif
#   From: 2010.05.17/outbox.cif.g08.bks.cpg/sg2_174_cif.got.tgz:346176.got - 2010.06.03 11:33:40.
