data_PCOD9056144
_publ_section_title
;
Structure prediction by ZEFSAII (Michael W. Deem and Ramdas Pophale) SiO2 
 PCOD9056144
Probable space group: P -1
;
_chemical_formula_sum "Si O2"
_cell_formula_units_Z 14
_cell_length_a 14.704877
_cell_length_b 8.201758
_cell_length_c 12.936707
_cell_angle_alpha 59.707012
_cell_angle_beta 51.550977
_cell_angle_gamma 30.512523
_cell_volume 618.479176
_symmetry_space_group_name_H-M "P -1"
_symmetry_group_IT_number 2
_symmetry_cell_setting 'triclinic'
loop_
_space_group_symop_operation_xyz
x,y,z
-x,-y,-z
loop_
_atom_site_type_symbol
_atom_site_label
_atom_site_fract_x
_atom_site_fract_y
_atom_site_fract_z
Si Si1 0.066427 0.614379 0.960678
Si Si2 0.107925 0.603975 0.351936
Si Si3 0.635805 0.470530 0.193850
Si Si4 0.278921 0.356894 0.534414
Si Si5 0.315718 0.624472 0.049688
Si Si6 0.936533 0.709728 0.239746
Si Si7 0.678896 0.279022 0.527859
O O1 0.258334 0.489410 0.838139
O O2 0.879523 0.992698 0.949414
O O3 0.000000 0.500000 0.000000
O O4 0.076062 0.575005 0.089618
O O5 0.216541 0.412239 0.441934
O O6 0.246393 0.569150 0.203666
O O7 0.055852 0.532821 0.318303
O O8 0.886767 0.951420 0.434582
O O9 0.417977 0.716811 0.313203
O O10 0.773989 0.097481 0.234053
O O11 0.630895 0.510427 0.061362
O O12 0.159484 0.367172 0.685920
O O13 0.275468 0.575291 0.504396
O O14 0.500000 0.000000 0.500000
O O15 0.500000 0.500000 0.000000
O O16 0.500000 0.500000 0.500000
#
# Coordination Sequence:
#
# PCOD9056144 Si02
#       7
#     2   2   2   2   2   2   2
#     4  11  24  44  74 102 136 181 232 287 337 414
#     4  12  24  46  69 103 142 184 231 289 344 416
#     4  11  21  47  71  98 141 183 223 277 357 411
#     4  12  26  43  68 103 139 183 237 284 348 412
#     4  11  23  43  72  98 137 185 230 272 351 416
#     4  11  22  43  72 100 137 184 228 284 346 410
#     4  12  24  43  72 105 140 184 225 285 351 410
#
# _framework density 22.636168999999999
#
# number of rings (size 3 to 8) (size 9 to 14) (size 15 to 20)
#    0.000    0.571    5.714    2.571    6.000    0.000 
#    0.000    2.143    0.000    0.000    0.000    0.000 
#    0.000    0.000    0.000    0.000    0.000    0.000 
#
# Total GULP energy -78171.106514 kJ/mol
# GULP energy per Si atom -5583.650465 kJ/mol
# Density = 2.258465 g / cm^3
# Si number density = 22.636169 Si / 1000 Ang^3
#
#
#
# Elastic Constant Matrix: (Units=GPa)
#
#
# Indices 1 2 3 4 5 6 
#
# 1 127.1168 14.6696 47.1088 -3.3230 -34.1359 -19.4167
# 2 14.6696 32.3434 28.2086 1.2195 1.1399 -25.0582
# 3 47.1088 28.2086 153.4778 0.9621 -35.8846 -7.5746
# 4 -3.3230 1.2195 0.9621 30.6929 -12.1059 1.4206
# 5 -34.1359 1.1399 -35.8846 -12.1059 58.1451 -5.3022
# 6 -19.4167 -25.0582 -7.5746 1.4206 -5.3022 35.0271
#
#
#
# Elastic Compliance Matrix: (Units=1/GPa)
#
#
# Indices 1 2 3 4 5 6 
#
# 1 0.011690 0.003488 -0.002130 0.003549 0.007080 0.009443
# 2 0.003488 0.095811 -0.016717 -0.008271 -0.005822 0.066315
# 3 -0.002130 -0.016717 0.011024 0.002736 0.005536 -0.010029
# 4 0.003549 -0.008271 0.002736 0.037905 0.011539 -0.003148
# 5 0.007080 -0.005822 0.005536 0.011539 0.027715 0.004684
# 6 0.009443 0.066315 -0.010029 -0.003148 0.004684 0.079893
#
#
# Mechanical properties :
#
#
# Convention : Reuss Voigt Hill
#
# Bulk Modulus (GPa) = 11.38859 54.76799 33.07829
# Shear Modulus (GPa) = 15.43092 39.63641 27.53367
#
# Velocity S-wave (km/s) = 2.61376 4.18906 3.49141
# Velocity P-wave (km/s) = 3.76179 6.90254 5.55860
#
# Compressibility (1/GPa) = 0.08780719
#
# Stress axis : x y z
#
# Youngs Moduli (GPa) = 85.54274 10.43724 90.71019
#
# Poissons Ratio (x) = -0.03641 0.19322
# Poissons Ratio (y) = -0.29838 1.51639
# Poissons Ratio (z) = 0.18221 0.17448
#
# Static dielectric constant tensor:
#      x y z
#    x 1.781350 0.051690 0.006750 
#    y 0.051690 1.820500 -0.055700 
#    z 0.006750 -0.055700 1.840640 
# 
# From -- ./inp_files/240679.got.cif
#   From: 2010.05.17/outbox.cif.g08.bks.cpg/sg2_121_cif.got.tgz:240679.got - 2010.06.03 11:33:40.
