data_PCOD9056566
_publ_section_title
;
Structure prediction by ZEFSAII (Michael W. Deem and Ramdas Pophale) SiO2 
 PCOD9056566
Probable space group: P -1
;
_chemical_formula_sum "Si O2"
_cell_formula_units_Z 12
_cell_length_a 10.327202
_cell_length_b 7.533811
_cell_length_c 7.834246
_cell_angle_alpha 95.102032
_cell_angle_beta 58.613178
_cell_angle_gamma 63.246365
_cell_volume 420.754910
_symmetry_space_group_name_H-M "P -1"
_symmetry_group_IT_number 2
_symmetry_cell_setting 'triclinic'
loop_
_space_group_symop_operation_xyz
x,y,z
-x,-y,-z
loop_
_atom_site_type_symbol
_atom_site_label
_atom_site_fract_x
_atom_site_fract_y
_atom_site_fract_z
Si Si1 0.217197 0.100080 0.036282
Si Si2 0.748799 0.018610 0.619064
Si Si3 0.879024 0.574836 0.365692
Si Si4 0.726547 0.442008 0.748481
Si Si5 0.532887 0.218480 0.451448
Si Si6 0.691839 0.320413 0.089962
O O1 0.292569 0.049436 0.176191
O O2 0.053328 0.352346 0.146005
O O3 0.366523 0.986632 0.770730
O O4 0.148761 0.939391 0.064407
O O5 0.881225 0.785689 0.411735
O O6 0.795770 0.193587 0.638232
O O7 0.587075 0.154019 0.602906
O O8 0.841181 0.502635 0.566621
O O9 0.686442 0.659082 0.409011
O O10 0.509857 0.604062 0.849215
O O11 0.730963 0.456893 0.951534
O O12 0.639662 0.326917 0.321999
#
# Coordination Sequence:
#
# PCOD9056566 Si02
#       6
#     2   2   2   2   2   2
#     4   9  21  42  62  91 128 158 205 257 302 364
#     4  11  22  39  68  92 120 168 205 248 315 362
#     4  11  22  39  68  92 120 168 205 248 315 362
#     4   9  18  38  65  86 124 162 203 254 295 372
#     4   9  21  42  62  91 128 158 205 257 302 364
#     4   7  16  36  57  83 120 160 186 249 309 331
#
# _framework density 28.520167000000001
#
# number of rings (size 3 to 8) (size 9 to 14) (size 15 to 20)
#    1.000    1.667    0.000    1.000    0.000    6.667 
#    0.000    2.500    0.000    0.000    0.000    0.000 
#    0.000    0.000    0.000    0.000    0.000    0.000 
#
# Total GULP energy -66950.982668 kJ/mol
# GULP energy per Si atom -5579.248556 kJ/mol
# Density = 2.845525 g / cm^3
# Si number density = 28.520167 Si / 1000 Ang^3
#
#
#
# Elastic Constant Matrix: (Units=GPa)
#
#
# Indices 1 2 3 4 5 6 
#
# 1 91.9920 70.4745 68.6503 -2.6213 -6.2708 -12.7961
# 2 70.4745 143.7724 59.5153 31.1724 8.6632 -4.1832
# 3 68.6503 59.5153 152.4356 52.3850 12.7523 -6.6319
# 4 -2.6213 31.1724 52.3850 62.0059 -1.3415 7.0601
# 5 -6.2708 8.6632 12.7523 -1.3415 37.6041 -3.9938
# 6 -12.7961 -4.1832 -6.6319 7.0601 -3.9938 58.2891
#
#
#
# Elastic Compliance Matrix: (Units=1/GPa)
#
#
# Indices 1 2 3 4 5 6 
#
# 1 0.065407 -0.029028 -0.037629 0.049370 0.032568 0.004246
# 2 -0.029028 0.021431 0.014292 -0.024262 -0.015633 -0.001341
# 3 -0.037629 0.014292 0.032241 -0.036413 -0.021870 -0.000655
# 4 0.049370 -0.024262 -0.036413 0.061856 0.028314 -0.000598
# 5 0.032568 -0.015633 -0.021870 0.028314 0.044386 0.003151
# 6 0.004246 -0.001341 -0.000655 -0.000598 0.003151 0.018206
#
#
# Mechanical properties :
#
#
# Convention : Reuss Voigt Hill
#
# Bulk Modulus (GPa) = 69.68341 87.27557 78.47949
# Shear Modulus (GPa) = 14.16276 44.21715 29.18995
#
# Velocity S-wave (km/s) = 2.23084 3.94176 3.20267
# Velocity P-wave (km/s) = 5.57867 7.16829 6.42285
#
# Compressibility (1/GPa) = 0.01435062
#
# Stress axis : x y z
#
# Youngs Moduli (GPa) = 15.28890 46.66120 31.01641
#
# Poissons Ratio (x) = 1.35446 1.16712
# Poissons Ratio (y) = 0.44380 -0.44330
# Poissons Ratio (z) = 0.57531 -0.66690
#
# Static dielectric constant tensor:
#      x y z
#    x 2.345350 0.029920 0.049530 
#    y 0.029920 2.310260 0.079770 
#    z 0.049530 0.079770 2.264990 
# 
# From -- ./inp_files/172354.got.cif
#   From: 2010.05.17/outbox.cif.g08.bks.cpg/sg2_87_cif.got.tgz:172354.got - 2010.06.03 11:33:40.
