data_PCOD9056355
_publ_section_title
;
Structure prediction by ZEFSAII (Michael W. Deem and Ramdas Pophale) SiO2 
 PCOD9056355
Probable space group: P -1
;
_chemical_formula_sum "Si O2"
_cell_formula_units_Z 12
_cell_length_a 8.514162
_cell_length_b 9.981765
_cell_length_c 7.453438
_cell_angle_alpha 127.959865
_cell_angle_beta 92.396179
_cell_angle_gamma 86.461232
_cell_volume 498.472834
_symmetry_space_group_name_H-M "P -1"
_symmetry_group_IT_number 2
_symmetry_cell_setting 'triclinic'
loop_
_space_group_symop_operation_xyz
x,y,z
-x,-y,-z
loop_
_atom_site_type_symbol
_atom_site_label
_atom_site_fract_x
_atom_site_fract_y
_atom_site_fract_z
Si Si1 0.088631 0.714718 0.508715
Si Si2 0.781593 0.507822 0.353379
Si Si3 0.397412 0.294184 0.955626
Si Si4 0.250720 0.007277 0.873696
Si Si5 0.285096 0.670565 0.139881
Si Si6 0.437022 0.219501 0.298426
O O1 0.190695 0.577263 0.521007
O O2 0.102400 0.893849 0.757985
O O3 0.921918 0.632351 0.423404
O O4 0.164716 0.739854 0.338787
O O5 0.785969 0.359733 0.084783
O O6 0.627027 0.633067 0.453827
O O7 0.331974 0.476778 0.042351
O O8 0.260801 0.161045 0.858904
O O9 0.550714 0.238337 0.801434
O O10 0.460516 0.299754 0.168292
O O11 0.403718 0.883485 0.731141
O O12 0.300144 0.088881 0.133667
#
# Coordination Sequence:
#
# PCOD9056355 Si02
#       6
#     2   2   2   2   2   2
#     4  11  23  41  61  86 121 159 194 243 288 355
#     4  11  24  39  62  86 121 160 195 236 295 354
#     4   9  20  38  59  92 114 151 195 250 288 340
#     4   9  20  38  63  89 117 152 199 244 294 341
#     4  11  22  38  62  90 119 153 197 244 293 346
#     4   9  19  40  61  89 117 152 200 240 294 345
#
# _framework density 24.073526999999999
#
# number of rings (size 3 to 8) (size 9 to 14) (size 15 to 20)
#    1.000    1.000    1.667    1.500    4.667    2.667 
#    0.000    0.833    0.000    0.000    0.000    0.000 
#    0.000    0.000    0.000    0.000    0.000    0.000 
#
# Total GULP energy -67012.328922 kJ/mol
# GULP energy per Si atom -5584.360743 kJ/mol
# Density = 2.401873 g / cm^3
# Si number density = 24.073527 Si / 1000 Ang^3
#
#
#
# Elastic Constant Matrix: (Units=GPa)
#
#
# Indices 1 2 3 4 5 6 
#
# 1 22.1156 -0.3733 20.5548 -4.3413 2.1936 11.0087
# 2 -0.3733 32.0945 -10.3795 -9.2936 -4.9403 3.7908
# 3 20.5548 -10.3795 89.2570 -5.1893 5.8226 17.1829
# 4 -4.3413 -9.2936 -5.1893 37.9974 16.0112 1.1613
# 5 2.1936 -4.9403 5.8226 16.0112 41.6960 8.4630
# 6 11.0087 3.7908 17.1829 1.1613 8.4630 22.8994
#
#
#
# Elastic Compliance Matrix: (Units=1/GPa)
#
#
# Indices 1 2 3 4 5 6 
#
# 1 0.069548 0.003148 -0.010018 0.007942 0.000553 -0.027046
# 2 0.003148 0.038484 0.006978 0.010122 0.002486 -0.014553
# 3 -0.010018 0.006978 0.016168 0.003203 -0.000413 -0.008481
# 4 0.007942 0.010122 0.003203 0.035449 -0.012227 -0.005176
# 5 0.000553 0.002486 -0.000413 -0.012227 0.031298 -0.011315
# 6 -0.027046 -0.014553 -0.008481 -0.005176 -0.011315 0.069888
#
#
# Mechanical properties :
#
#
# Convention : Reuss Voigt Hill
#
# Bulk Modulus (GPa) = 8.03746 18.11902 13.07824
# Shear Modulus (GPa) = 16.55136 29.42956 22.99046
#
# Velocity S-wave (km/s) = 2.62493 3.50020 3.09368
# Velocity P-wave (km/s) = 3.54019 4.88652 4.26679
#
# Compressibility (1/GPa) = 0.12441748
#
# Stress axis : x y z
#
# Youngs Moduli (GPa) = 14.37856 25.98475 61.85121
#
# Poissons Ratio (x) = -0.08181 0.61961
# Poissons Ratio (y) = -0.04527 -0.43160
# Poissons Ratio (z) = 0.14404 -0.18132
#
# Static dielectric constant tensor:
#      x y z
#    x 1.913480 0.013790 0.053770 
#    y 0.013790 1.909090 -0.010880 
#    z 0.053770 -0.010880 1.965490 
# 
# From -- ./inp_files/151243.got.cif
#   From: 2010.05.17/outbox.cif.g08.bks.cpg/sg2_76_cif.got.tgz:151243.got - 2010.06.03 11:33:40.
