data_PCOD9056680
_publ_section_title
;
Structure prediction by ZEFSAII (Michael W. Deem and Ramdas Pophale) SiO2 
 PCOD9056680
Probable space group: P -1
;
_chemical_formula_sum "Si O2"
_cell_formula_units_Z 16
_cell_length_a 11.141422
_cell_length_b 11.910452
_cell_length_c 12.140795
_cell_angle_alpha 110.423609
_cell_angle_beta 40.719245
_cell_angle_gamma 80.323339
_cell_volume 695.990523
_symmetry_space_group_name_H-M "P -1"
_symmetry_group_IT_number 2
_symmetry_cell_setting 'triclinic'
loop_
_space_group_symop_operation_xyz
x,y,z
-x,-y,-z
loop_
_atom_site_type_symbol
_atom_site_label
_atom_site_fract_x
_atom_site_fract_y
_atom_site_fract_z
Si Si1 0.059537 0.819684 0.571202
Si Si2 0.993235 0.812298 0.356526
Si Si3 0.845545 0.663944 0.738486
Si Si4 0.388506 0.789916 0.960974
Si Si5 0.680598 0.717714 0.513215
Si Si6 0.622970 0.126761 0.567724
Si Si7 0.837327 0.959323 0.131367
Si Si8 0.950483 0.643499 0.911529
O O1 0.053246 0.818498 0.442949
O O2 0.321506 0.757875 0.414021
O O3 0.969575 0.733930 0.647116
O O4 0.845696 0.011246 0.829553
O O5 0.898319 0.718833 0.385830
O O6 0.248603 0.733334 0.081118
O O7 0.751564 0.001964 0.541650
O O8 0.553458 0.776896 0.938812
O O9 0.875498 0.636712 0.837739
O O10 0.000000 0.500000 0.500000
O O11 0.565871 0.708184 0.700648
O O12 0.439336 0.899356 0.689147
O O13 0.809706 0.553052 0.293991
O O14 0.774313 0.997441 0.316823
O O15 0.319486 0.247533 0.799458
O O16 0.990857 0.767521 0.929405
O O17 0.000000 0.000000 0.000000
#
# Coordination Sequence:
#
# PCOD9056680 Si02
#       8
#     2   2   2   2   2   2   2   2
#     4  11  22  40  72 101 136 192 228 287 360 409
#     4  11  22  43  71 106 142 180 234 292 352 418
#     4  12  22  39  64 101 149 178 227 287 347 422
#     4  11  22  40  66 102 143 181 233 284 345 424
#     4  12  26  46  72 106 140 184 233 289 354 417
#     4  11  24  45  70 102 138 184 241 287 346 419
#     4  12  27  51  73  99 139 187 240 293 344 419
#     4  12  25  45  71 104 142 183 234 294 348 415
#
# _framework density 22.988817999999998
#
# number of rings (size 3 to 8) (size 9 to 14) (size 15 to 20)
#    0.000    0.500    3.750    6.750    0.000    2.000 
#    2.250    2.500    0.000    0.000    0.000    0.000 
#    0.000    0.000    0.000    0.000    0.000    0.000 
#
# Total GULP energy -89487.905271 kJ/mol
# GULP energy per Si atom -5592.994079 kJ/mol
# Density = 2.293649 g / cm^3
# Si number density = 22.988818 Si / 1000 Ang^3
#
#
#
# Elastic Constant Matrix: (Units=GPa)
#
#
# Indices 1 2 3 4 5 6 
#
# 1 68.5876 25.4322 -3.2359 -7.2278 6.8056 24.8294
# 2 25.4322 79.2943 54.1355 -3.0921 -11.0937 31.0987
# 3 -3.2359 54.1355 46.8964 -8.8735 20.3062 36.7122
# 4 -7.2278 -3.0921 -8.8735 32.7259 12.7238 3.0000
# 5 6.8056 -11.0937 20.3062 12.7238 31.3344 -14.6462
# 6 24.8294 31.0987 36.7122 3.0000 -14.6462 48.8093
#
#
#
# Elastic Compliance Matrix: (Units=1/GPa)
#
#
# Indices 1 2 3 4 5 6 
#
# 1 0.010375 0.003607 -0.010348 -0.003845 0.008722 0.003061
# 2 0.003607 0.014322 0.004580 0.009357 -0.011030 -0.018290
# 3 -0.010348 0.004580 -0.006542 -0.012585 0.019747 0.013966
# 4 -0.003845 0.009357 -0.012585 0.024859 0.004707 0.005344
# 5 0.008722 -0.011030 0.019747 0.004707 0.006443 -0.010618
# 6 0.003061 -0.018290 0.013966 0.005344 -0.010618 0.016565
#
#
# Mechanical properties :
#
#
# Convention : Reuss Voigt Hill
#
# Bulk Modulus (GPa) = 72.28743 38.60466 55.44604
# Shear Modulus (GPa) = 66.70549 30.47035 48.58792
#
# Velocity S-wave (km/s) = 5.39254 3.64461 4.60232
# Velocity P-wave (km/s) = 8.38365 5.87709 7.23967
#
# Compressibility (1/GPa) = 0.01383366
#
# Stress axis : x y z
#
# Youngs Moduli (GPa) = 96.38137 69.82110 -152.84904
#
# Poissons Ratio (x) = -0.25185 -1.58174
# Poissons Ratio (y) = -0.34766 0.70010
# Poissons Ratio (z) = 0.99739 -0.31981
#
# Static dielectric constant tensor:
#      x y z
#    x 2.063680 0.001510 -0.166910 
#    y 0.001510 1.897080 -0.031230 
#    z -0.166910 -0.031230 1.969320 
# 
# From -- ./inp_files/428522.got.cif
#   From: 2010.05.17/outbox.cif.g08.bks.cpg/sg2_215_cif.got.tgz:428522.got - 2010.06.03 11:33:40.
