data_PCOD9056156
_publ_section_title
;
Structure prediction by ZEFSAII (Michael W. Deem and Ramdas Pophale) SiO2 
 PCOD9056156
Probable space group: P -1
;
_chemical_formula_sum "Si O2"
_cell_formula_units_Z 16
_cell_length_a 15.352231
_cell_length_b 6.322448
_cell_length_c 9.206009
_cell_angle_alpha 100.764373
_cell_angle_beta 121.442890
_cell_angle_gamma 67.647328
_cell_volume 704.998325
_symmetry_space_group_name_H-M "P -1"
_symmetry_group_IT_number 2
_symmetry_cell_setting 'triclinic'
loop_
_space_group_symop_operation_xyz
x,y,z
-x,-y,-z
loop_
_atom_site_type_symbol
_atom_site_label
_atom_site_fract_x
_atom_site_fract_y
_atom_site_fract_z
Si Si1 0.976387 0.691473 0.629404
Si Si2 0.367805 0.637903 0.071851
Si Si3 0.047005 0.602732 0.185879
Si Si4 0.364842 0.080734 0.527003
Si Si5 0.426903 0.351467 0.369425
Si Si6 0.830416 0.083406 0.707396
Si Si7 0.128701 0.933934 0.922543
Si Si8 0.556280 0.785292 0.128991
O O1 0.921237 0.585666 0.689698
O O2 0.080721 0.740083 0.796896
O O3 0.000000 0.500000 0.500000
O O4 0.890083 0.949483 0.595635
O O5 0.363346 0.498659 0.197520
O O6 0.466873 0.735737 0.151432
O O7 0.255107 0.843847 0.984829
O O8 0.391715 0.444643 0.946004
O O9 0.149925 0.677100 0.253567
O O10 0.947485 0.826675 0.179359
O O11 0.000000 0.500000 0.000000
O O12 0.364578 0.272188 0.433603
O O13 0.348196 0.182629 0.686421
O O14 0.484085 0.891193 0.625998
O O15 0.285188 0.946201 0.395481
O O16 0.500000 0.500000 0.500000
O O17 0.881305 0.015510 0.905370
O O18 0.500000 0.000000 0.000000
#
# Coordination Sequence:
#
# PCOD9056156 Si02
#       8
#     2   2   2   2   2   2   2   2
#     4  11  25  45  68 101 138 173 222 290 348 408
#     4  11  25  43  69 100 135 184 234 278 345 413
#     4  11  21  48  73  93 138 183 221 291 346 411
#     4  11  25  41  68 103 135 175 233 282 344 406
#     4  11  22  43  67  95 139 175 226 287 329 407
#     4  11  24  42  70 106 133 171 238 279 343 422
#     4  11  24  43  72 106 128 176 243 277 341 426
#     4  11  24  47  64  94 146 186 222 285 345 408
#
# _framework density 22.695091000000001
#
# number of rings (size 3 to 8) (size 9 to 14) (size 15 to 20)
#    0.000    1.000    5.000    1.500    3.500    6.000 
#    2.250    0.000    0.000    0.000    0.000    0.000 
#    0.000    0.000    0.000    0.000    0.000    0.000 
#
# Total GULP energy -89181.743944 kJ/mol
# GULP energy per Si atom -5573.858996 kJ/mol
# Density = 2.264344 g / cm^3
# Si number density = 22.695091 Si / 1000 Ang^3
#
#
#
# Elastic Constant Matrix: (Units=GPa)
#
#
# Indices 1 2 3 4 5 6 
#
# 1 81.5847 28.9430 31.0252 8.4489 10.4916 5.2009
# 2 28.9430 104.4766 32.6544 20.1438 5.0777 6.6725
# 3 31.0252 32.6544 103.3501 37.4936 8.4035 14.1139
# 4 8.4489 20.1438 37.4936 50.1984 -1.1468 -0.4973
# 5 10.4916 5.0777 8.4035 -1.1468 28.0857 3.3911
# 6 5.2009 6.6725 14.1139 -0.4973 3.3911 50.5403
#
#
#
# Elastic Compliance Matrix: (Units=1/GPa)
#
#
# Indices 1 2 3 4 5 6 
#
# 1 0.015147 -0.003110 -0.003796 0.001446 -0.003924 0.000189
# 2 -0.003110 0.011552 -0.001464 -0.003038 -0.000517 -0.000791
# 3 -0.003796 -0.001464 0.015963 -0.010804 -0.003079 -0.003774
# 4 0.001446 -0.003038 -0.010804 0.029091 0.004033 0.003285
# 5 -0.003924 -0.000517 -0.003079 0.004033 0.038396 -0.001205
# 6 0.000189 -0.000791 -0.003774 0.003285 -0.001205 0.021038
#
#
# Mechanical properties :
#
#
# Convention : Reuss Voigt Hill
#
# Bulk Modulus (GPa) = 38.57584 52.73963 45.65774
# Shear Modulus (GPa) = 31.93499 38.88414 35.40957
#
# Velocity S-wave (km/s) = 3.75525 4.14373 3.95426
# Velocity P-wave (km/s) = 5.98639 6.79579 6.40389
#
# Compressibility (1/GPa) = 0.02592296
#
# Stress axis : x y z
#
# Youngs Moduli (GPa) = 66.02097 86.56399 62.64376
#
# Poissons Ratio (x) = 0.26920 0.23778
# Poissons Ratio (y) = 0.20532 0.09171
# Poissons Ratio (z) = 0.25060 0.12673
#
# Static dielectric constant tensor:
#      x y z
#    x 1.899100 -0.046210 -0.029110 
#    y -0.046210 2.090850 0.083820 
#    z -0.029110 0.083820 1.909280 
# 
# From -- ./inp_files/289057.got.cif
#   From: 2010.05.17/outbox.cif.g08.bks.cpg/sg2_145_cif.got.tgz:289057.got - 2010.06.03 11:33:40.
