data_PCOD9056766
_publ_section_title
;
Structure prediction by ZEFSAII (Michael W. Deem and Ramdas Pophale) SiO2 
 PCOD9056766
Probable space group: P -1
;
_chemical_formula_sum "Si O2"
_cell_formula_units_Z 16
_cell_length_a 14.567653
_cell_length_b 9.207902
_cell_length_c 11.897197
_cell_angle_alpha 110.563746
_cell_angle_beta 128.868374
_cell_angle_gamma 108.123774
_cell_volume 796.217464
_symmetry_space_group_name_H-M "P -1"
_symmetry_group_IT_number 2
_symmetry_cell_setting 'triclinic'
loop_
_space_group_symop_operation_xyz
x,y,z
-x,-y,-z
loop_
_atom_site_type_symbol
_atom_site_label
_atom_site_fract_x
_atom_site_fract_y
_atom_site_fract_z
Si Si1 0.407401 0.606319 0.277933
Si Si2 0.913320 0.661058 0.507568
Si Si3 0.455048 0.617012 0.933659
Si Si4 0.142279 0.629895 0.049753
Si Si5 0.933703 0.376265 0.595080
Si Si6 0.425598 0.059900 0.696474
Si Si7 0.728839 0.858510 0.017383
Si Si8 0.591778 0.895942 0.702171
O O1 0.550975 0.798892 0.350417
O O2 0.481174 0.675883 0.479484
O O3 0.268417 0.609775 0.167605
O O4 0.318938 0.364766 0.104312
O O5 0.730574 0.567085 0.319014
O O6 0.889048 0.495752 0.531520
O O7 0.978948 0.647860 0.437987
O O8 0.071202 0.918771 0.741337
O O9 0.500000 0.500000 0.000000
O O10 0.455655 0.756347 0.063089
O O11 0.606697 0.793315 0.008764
O O12 0.061144 0.529253 0.837480
O O13 0.000000 0.500000 0.000000
O O14 0.255908 0.892951 0.201612
O O15 0.764052 0.136311 0.451990
O O16 0.484761 0.946603 0.670171
O O17 0.670911 0.896996 0.873650
#
# Coordination Sequence:
#
# PCOD9056766 Si02
#       8
#     2   2   2   2   2   2   2   2
#     4  11  24  43  66  98 133 180 226 278 338 400
#     4  11  25  42  66 102 136 176 224 275 340 404
#     4  12  26  44  67 104 140 179 219 276 351 406
#     4  11  22  41  68  99 130 171 230 282 329 393
#     4  11  22  40  69 101 134 170 227 286 328 394
#     4  11  22  42  72  97 132 178 228 279 334 399
#     4  12  25  46  68  98 144 179 219 283 343 403
#     4  11  23  43  68  95 133 181 234 271 334 403
#
# _framework density 20.095011
#
# number of rings (size 3 to 8) (size 9 to 14) (size 15 to 20)
#    0.000    0.750    3.750    5.625    1.750    2.500 
#    2.250    0.625    0.000    0.000    0.000    0.000 
#    0.000    0.000    0.000    0.000    0.000    0.000 
#
# Total GULP energy -89477.259344 kJ/mol
# GULP energy per Si atom -5592.328709 kJ/mol
# Density = 2.004927 g / cm^3
# Si number density = 20.095011 Si / 1000 Ang^3
#
#
#
# Elastic Constant Matrix: (Units=GPa)
#
#
# Indices 1 2 3 4 5 6 
#
# 1 51.7489 20.7845 19.7338 4.2044 -5.8141 12.7519
# 2 20.7845 161.8800 120.8479 29.1279 43.0223 99.2846
# 3 19.7338 120.8479 246.1564 21.0014 32.0465 105.4980
# 4 4.2044 29.1279 21.0014 40.7064 12.2700 25.3723
# 5 -5.8141 43.0223 32.0465 12.2700 59.4468 43.6142
# 6 12.7519 99.2846 105.4980 25.3723 43.6142 133.1079
#
#
#
# Elastic Compliance Matrix: (Units=1/GPa)
#
#
# Indices 1 2 3 4 5 6 
#
# 1 0.021705 -0.003187 -0.000368 -0.000774 0.005591 -0.001095
# 2 -0.003187 0.014384 -0.003584 -0.003409 -0.003948 -0.005639
# 3 -0.000368 -0.003584 0.007116 0.000741 0.001084 -0.003428
# 4 -0.000774 -0.003409 0.000741 0.029076 -0.001886 -0.002895
# 5 0.005591 -0.003948 0.001084 -0.001886 0.024526 -0.006126
# 6 -0.001095 -0.005639 -0.003428 -0.002895 -0.006126 0.017100
#
#
# Mechanical properties :
#
#
# Convention : Reuss Voigt Hill
#
# Bulk Modulus (GPa) = 34.57058 86.94639 60.75849
# Shear Modulus (GPa) = 36.27707 66.54683 51.41195
#
# Velocity S-wave (km/s) = 4.25347 5.76090 5.06359
# Velocity P-wave (km/s) = 6.43145 9.36014 8.03043
#
# Compressibility (1/GPa) = 0.02892633
#
# Stress axis : x y z
#
# Youngs Moduli (GPa) = 46.07158 69.52278 140.51902
#
# Poissons Ratio (x) = 0.22159 0.05170
# Poissons Ratio (y) = 0.14685 0.50367
# Poissons Ratio (z) = 0.01695 0.24920
#
# Static dielectric constant tensor:
#      x y z
#    x 1.678300 0.034960 -0.029310 
#    y 0.034960 1.672780 0.015520 
#    z -0.029310 0.015520 1.719250 
# 
# From -- ./inp_files/272647.got.cif
#   From: 2010.05.17/outbox.cif.g08.bks.cpg/sg2_137_cif.got.tgz:272647.got - 2010.06.03 11:33:40.
