data_PCOD9056021
_publ_section_title
;
Structure prediction by ZEFSAII (Michael W. Deem and Ramdas Pophale) SiO2 
 PCOD9056021
Probable space group: P -1
;
_chemical_formula_sum "Si O2"
_cell_formula_units_Z 16
_cell_length_a 9.733190
_cell_length_b 8.733480
_cell_length_c 12.299353
_cell_angle_alpha 96.337717
_cell_angle_beta 51.393857
_cell_angle_gamma 86.911957
_cell_volume 801.812665
_symmetry_space_group_name_H-M "P -1"
_symmetry_group_IT_number 2
_symmetry_cell_setting 'triclinic'
loop_
_space_group_symop_operation_xyz
x,y,z
-x,-y,-z
loop_
_atom_site_type_symbol
_atom_site_label
_atom_site_fract_x
_atom_site_fract_y
_atom_site_fract_z
Si Si1 0.921699 0.340675 0.039115
Si Si2 0.486741 0.673943 0.736692
Si Si3 0.170320 0.887683 0.358518
Si Si4 0.960628 0.847057 0.251485
Si Si5 0.369883 0.111588 0.151341
Si Si6 0.003425 0.796398 0.774232
Si Si7 0.437522 0.177444 0.509544
Si Si8 0.309257 0.650344 0.461308
O O1 0.708658 0.370514 0.159562
O O2 0.997549 0.250795 0.103589
O O3 0.972552 0.236951 0.899168
O O4 0.000000 0.500000 0.000000
O O5 0.537642 0.757357 0.826902
O O6 0.492719 0.791204 0.642056
O O7 0.628633 0.523446 0.624182
O O8 0.103370 0.814914 0.275776
O O9 0.247350 0.762365 0.399402
O O10 0.308776 0.999811 0.265269
O O11 0.000000 0.000000 0.500000
O O12 0.775710 0.796603 0.375825
O O13 0.935781 0.034138 0.258585
O O14 0.191460 0.185493 0.181480
O O15 0.500000 0.000000 0.000000
O O16 0.145556 0.673399 0.628845
O O17 0.526194 0.289879 0.554512
O O18 0.500000 0.000000 0.500000
#
# Coordination Sequence:
#
# PCOD9056021 Si02
#       8
#     2   2   2   2   2   2   2   2
#     4  12  27  46  65  95 141 182 220 274 347 407
#     4  12  26  43  67 103 138 177 224 284 337 391
#     4  11  21  45  69 100 132 177 229 271 336 407
#     4  11  23  42  72  98 132 175 227 276 334 405
#     4  11  25  45  70  99 136 178 230 277 331 410
#     4  11  24  45  68  99 134 180 225 278 338 398
#     4  12  22  41  70 104 130 175 230 277 329 401
#     4  12  24  41  69 102 142 168 228 284 336 393
#
# _framework density 19.954785000000001
#
# number of rings (size 3 to 8) (size 9 to 14) (size 15 to 20)
#    0.000    0.500    5.000    4.500    1.750    4.500 
#    0.000    1.875    0.000    0.000    0.000    0.000 
#    0.000    0.000    0.000    0.000    0.000    0.000 
#
# Total GULP energy -89551.680230 kJ/mol
# GULP energy per Si atom -5596.980014 kJ/mol
# Density = 1.990937 g / cm^3
# Si number density = 19.954785 Si / 1000 Ang^3
#
#
#
# Elastic Constant Matrix: (Units=GPa)
#
#
# Indices 1 2 3 4 5 6 
#
# 1 129.1143 46.7596 36.6509 -4.2472 10.6392 18.8200
# 2 46.7596 63.3844 41.0161 11.3741 -0.4078 22.0774
# 3 36.6509 41.0161 118.2590 3.3336 0.0129 20.5252
# 4 -4.2472 11.3741 3.3336 41.2896 5.0232 3.6069
# 5 10.6392 -0.4078 0.0129 5.0232 40.4599 1.5576
# 6 18.8200 22.0774 20.5252 3.6069 1.5576 13.5009
#
#
#
# Elastic Compliance Matrix: (Units=1/GPa)
#
#
# Indices 1 2 3 4 5 6 
#
# 1 0.011646 -0.007929 -0.000390 0.004137 -0.003526 -0.003374
# 2 -0.007929 0.044523 -0.003138 -0.008693 0.005744 -0.055323
# 3 -0.000390 -0.003138 0.011826 0.000917 0.000438 -0.012599
# 4 0.004137 -0.008693 0.000917 0.027504 -0.004600 0.000236
# 5 -0.003526 0.005744 0.000438 -0.004600 0.026540 -0.006977
# 6 -0.003374 -0.055323 -0.012599 0.000236 -0.006977 0.189135
#
#
# Mechanical properties :
#
#
# Convention : Reuss Voigt Hill
#
# Bulk Modulus (GPa) = 22.18238 62.17898 42.18068
# Shear Modulus (GPa) = 14.32191 31.47216 22.89704
#
# Velocity S-wave (km/s) = 2.68193 3.97567 3.39107
# Velocity P-wave (km/s) = 4.55311 7.23203 6.04289
#
# Compressibility (1/GPa) = 0.04508083
#
# Stress axis : x y z
#
# Youngs Moduli (GPa) = 85.86915 22.46024 84.55813
#
# Poissons Ratio (x) = 0.17808 0.03297
# Poissons Ratio (y) = 0.68083 0.26538
# Poissons Ratio (z) = 0.03348 0.07049
#
# Static dielectric constant tensor:
#      x y z
#    x 1.697880 0.005540 -0.003670 
#    y 0.005540 1.682070 -0.000520 
#    z -0.003670 -0.000520 1.677900 
# 
# From -- ./inp_files/206375.got.cif
#   From: 2010.05.17/outbox.cif.g08.bks.cpg/sg2_104_cif.got.tgz:206375.got - 2010.06.03 11:33:40.
