data_PCOD9056505
_publ_section_title
;
Structure prediction by ZEFSAII (Michael W. Deem and Ramdas Pophale) SiO2 
 PCOD9056505
Probable space group: P -1
;
_chemical_formula_sum "Si O2"
_cell_formula_units_Z 14
_cell_length_a 29.029041
_cell_length_b 15.491587
_cell_length_c 15.643789
_cell_angle_alpha 17.890891
_cell_angle_beta 162.026903
_cell_angle_gamma 160.992211
_cell_volume 603.722401
_symmetry_space_group_name_H-M "P -1"
_symmetry_group_IT_number 2
_symmetry_cell_setting 'triclinic'
loop_
_space_group_symop_operation_xyz
x,y,z
-x,-y,-z
loop_
_atom_site_type_symbol
_atom_site_label
_atom_site_fract_x
_atom_site_fract_y
_atom_site_fract_z
Si Si1 0.925166 0.672034 0.623152
Si Si2 0.372193 0.287575 0.731422
Si Si3 0.728755 0.256649 0.806524
Si Si4 0.189912 0.251917 0.102716
Si Si5 0.131968 0.266745 0.175094
Si Si6 0.918192 0.636655 0.451292
Si Si7 0.683362 0.202456 0.311510
O O1 0.769540 0.386550 0.659702
O O2 0.884241 0.714469 0.413702
O O3 0.000000 0.000000 0.500000
O O4 0.078590 0.575532 0.980724
O O5 0.402650 0.627286 0.497915
O O6 0.231711 0.239549 0.458827
O O7 0.505968 0.203299 0.001298
O O8 0.321431 0.078864 0.924645
O O9 0.228699 0.305321 0.221273
O O10 0.305006 0.115666 0.387806
O O11 0.214597 0.565390 0.803170
O O12 0.000000 0.000000 0.000000
O O13 0.971325 0.939730 0.201241
O O14 0.068695 0.534295 0.814827
O O15 0.769617 0.358287 0.405522
#
# Coordination Sequence:
#
# PCOD9056505 Si02
#       7
#     2   2   2   2   2   2   2
#     4  11  22  39  70 100 123 163 226 267 306 370
#     4  12  24  43  62  97 136 170 203 264 334 378
#     4  11  22  39  65  93 131 164 208 270 313 373
#     4  12  23  43  68  95 128 167 224 269 307 370
#     4  12  23  39  69  93 128 168 218 263 314 375
#     4  12  23  41  65 100 121 171 217 261 314 385
#     4  12  26  43  66  94 135 172 207 265 331 381
#
# _framework density 23.189464999999998
#
# number of rings (size 3 to 8) (size 9 to 14) (size 15 to 20)
#    0.000    0.286    7.143    2.143    2.000    1.143 
#    0.000    1.429    0.000    0.000    0.000    0.000 
#    0.000    0.000    0.000    0.000    0.000    0.000 
#
# Total GULP energy -78153.255190 kJ/mol
# GULP energy per Si atom -5582.375371 kJ/mol
# Density = 2.313668 g / cm^3
# Si number density = 23.189465 Si / 1000 Ang^3
#
#
#
# Elastic Constant Matrix: (Units=GPa)
#
#
# Indices 1 2 3 4 5 6 
#
# 1 106.6877 13.4717 16.4659 -17.3296 -10.5085 -12.5115
# 2 13.4717 18.9703 11.7400 -13.3830 -8.4980 1.7606
# 3 16.4659 11.7400 104.1480 -13.9818 10.3142 -1.0335
# 4 -17.3296 -13.3830 -13.9818 29.4837 13.6648 2.3998
# 5 -10.5085 -8.4980 10.3142 13.6648 42.4239 -1.8409
# 6 -12.5115 1.7606 -1.0335 2.3998 -1.8409 31.2457
#
#
#
# Elastic Compliance Matrix: (Units=1/GPa)
#
#
# Indices 1 2 3 4 5 6 
#
# 1 0.011316 -0.005364 -0.000876 0.002854 0.001224 0.004657
# 2 -0.005364 0.085379 -0.005438 0.030587 0.006849 -0.009084
# 3 -0.000876 -0.005438 0.011638 0.005283 -0.005855 -0.000410
# 4 0.002854 0.030587 0.005283 0.058765 -0.013627 -0.005722
# 5 0.001224 0.006849 -0.005855 -0.013627 0.031181 0.002794
# 6 0.004657 -0.009084 -0.000410 -0.005722 0.002794 0.034972
#
#
# Mechanical properties :
#
#
# Convention : Reuss Voigt Hill
#
# Bulk Modulus (GPa) = 11.76804 34.79571 23.28188
# Shear Modulus (GPa) = 17.54795 33.17254 25.36025
#
# Velocity S-wave (km/s) = 2.75384 3.78630 3.31057
# Velocity P-wave (km/s) = 3.89837 5.84400 4.96737
#
# Compressibility (1/GPa) = 0.08497594
#
# Stress axis : x y z
#
# Youngs Moduli (GPa) = 88.36936 11.71255 85.92320
#
# Poissons Ratio (x) = 0.06283 0.07529
# Poissons Ratio (y) = 0.47401 0.46728
# Poissons Ratio (z) = 0.07743 0.06370
#
# Static dielectric constant tensor:
#      x y z
#    x 1.979090 -0.009310 -0.033540 
#    y -0.009310 1.903420 0.003860 
#    z -0.033540 0.003860 1.864290 
# 
# From -- ./inp_files/83001.got.cif
#   From: 2010.05.17/outbox.cif.g08.bks.cpg/sg2_42_cif.got.tgz:83001.got - 2010.06.03 11:33:40.
