data_PCOD9056488
_publ_section_title
;
Structure prediction by ZEFSAII (Michael W. Deem and Ramdas Pophale) SiO2 
 PCOD9056488
Probable space group: P -1
;
_chemical_formula_sum "Si O2"
_cell_formula_units_Z 13
_cell_length_a 15.326520
_cell_length_b 9.233873
_cell_length_c 9.690591
_cell_angle_alpha 137.398600
_cell_angle_beta 65.413184
_cell_angle_gamma 141.570110
_cell_volume 533.339997
_symmetry_space_group_name_H-M "P -1"
_symmetry_group_IT_number 2
_symmetry_cell_setting 'triclinic'
loop_
_space_group_symop_operation_xyz
x,y,z
-x,-y,-z
loop_
_atom_site_type_symbol
_atom_site_label
_atom_site_fract_x
_atom_site_fract_y
_atom_site_fract_z
Si Si1 0.886022 0.608097 0.681888
Si Si2 0.017645 0.750548 0.964168
Si Si3 0.500000 0.500000 0.000000
Si Si4 0.310005 0.730730 0.673672
Si Si5 0.648492 0.679740 0.734209
Si Si6 0.356422 0.599076 0.105826
Si Si7 0.279055 0.783052 0.047935
O O1 0.827181 0.440101 0.453822
O O2 0.732575 0.426640 0.736517
O O3 0.986621 0.995008 0.860238
O O4 0.968378 0.605943 0.739483
O O5 0.884927 0.451328 0.944203
O O6 0.181267 0.983380 0.081201
O O7 0.537985 0.502155 0.810846
O O8 0.677405 0.707087 0.076265
O O9 0.350879 0.555249 0.493812
O O10 0.276473 0.699893 0.834036
O O11 0.458815 0.125435 0.804736
O O12 0.624342 0.832312 0.751232
O O13 0.344841 0.711988 0.053484
#
# Coordination Sequence:
#
# PCOD9056488 Si02
#       7
#     2   2   1   2   2   2   2
#     4   9  19  36  64  90 117 166 208 248 304 362
#     4   9  19  40  62  88 126 161 205 252 305 362
#     4  12  22  40  66  92 124 162 210 250 312 362
#     4  11  22  39  64  94 125 161 206 255 305 365
#     4  11  24  40  66  93 122 166 206 254 305 370
#     4  11  22  41  63  92 126 164 200 260 307 359
#     4  11  24  41  64  90 131 163 199 256 314 358
#
# _framework density 24.374694000000002
#
# number of rings (size 3 to 8) (size 9 to 14) (size 15 to 20)
#    0.000    1.538    4.615    1.385    0.000    3.077 
#    0.000    0.769    0.000    0.000    0.000    0.000 
#    0.000    0.000    0.000    0.000    0.000    0.000 
#
# Total GULP energy -72480.428707 kJ/mol
# GULP energy per Si atom -5575.417593 kJ/mol
# Density = 2.431922 g / cm^3
# Si number density = 24.374694 Si / 1000 Ang^3
#
#
#
# Elastic Constant Matrix: (Units=GPa)
#
#
# Indices 1 2 3 4 5 6 
#
# 1 135.7491 33.7788 35.3586 -12.7338 -13.6241 -17.0791
# 2 33.7788 120.6062 32.5037 -24.9519 10.0919 -47.2661
# 3 35.3586 32.5037 99.6619 -6.2384 -4.7532 -19.4893
# 4 -12.7338 -24.9519 -6.2384 22.0847 5.5006 4.4393
# 5 -13.6241 10.0919 -4.7532 5.5006 40.2507 2.4961
# 6 -17.0791 -47.2661 -19.4893 4.4393 2.4961 40.4493
#
#
#
# Elastic Compliance Matrix: (Units=1/GPa)
#
#
# Indices 1 2 3 4 5 6 
#
# 1 0.008868 -0.001491 -0.002304 0.001979 0.002802 0.000501
# 2 -0.001491 0.026182 -0.001688 0.025912 -0.012489 0.027078
# 3 -0.002304 -0.001688 0.011960 -0.000669 0.000972 0.002830
# 4 0.001979 0.025912 -0.000669 0.075152 -0.017642 0.023633
# 5 0.002802 -0.012489 0.000972 -0.017642 0.032256 -0.012997
# 6 0.000501 0.027078 0.002830 0.023633 -0.012997 0.056148
#
#
# Mechanical properties :
#
#
# Convention : Reuss Voigt Hill
#
# Bulk Modulus (GPa) = 27.74518 62.14436 44.94477
# Shear Modulus (GPa) = 21.40900 37.51536 29.46218
#
# Velocity S-wave (km/s) = 2.96688 3.92741 3.48044
# Velocity P-wave (km/s) = 4.81082 6.79094 5.88476
#
# Compressibility (1/GPa) = 0.03604230
#
# Stress axis : x y z
#
# Youngs Moduli (GPa) = 112.76931 38.19394 83.61191
#
# Poissons Ratio (x) = 0.05695 0.19266
# Poissons Ratio (y) = 0.16816 0.14117
# Poissons Ratio (z) = 0.25985 0.06449
#
# Static dielectric constant tensor:
#      x y z
#    x 2.265310 -0.125490 -0.117230 
#    y -0.125490 1.991940 0.131560 
#    z -0.117230 0.131560 2.066840 
# 
# From -- ./inp_files/169123.got.cif
#   From: 2010.05.17/outbox.cif.g08.bks.cpg/sg2_85_cif.got.tgz:169123.got - 2010.06.03 11:33:40.
