data_PCOD9056219
_publ_section_title
;
Structure prediction by ZEFSAII (Michael W. Deem and Ramdas Pophale) SiO2 
 PCOD9056219
Probable space group: P -1
;
_chemical_formula_sum "Si O2"
_cell_formula_units_Z 14
_cell_length_a 11.353373
_cell_length_b 16.838530
_cell_length_c 11.726209
_cell_angle_alpha 144.106513
_cell_angle_beta 57.167539
_cell_angle_gamma 147.687956
_cell_volume 625.723639
_symmetry_space_group_name_H-M "P -1"
_symmetry_group_IT_number 2
_symmetry_cell_setting 'triclinic'
loop_
_space_group_symop_operation_xyz
x,y,z
-x,-y,-z
loop_
_atom_site_type_symbol
_atom_site_label
_atom_site_fract_x
_atom_site_fract_y
_atom_site_fract_z
Si Si1 0.724107 0.608703 0.394481
Si Si2 0.243008 0.912413 0.402791
Si Si3 0.260486 0.670605 0.259835
Si Si4 0.209173 0.863959 0.106717
Si Si5 0.086885 0.692597 0.599391
Si Si6 0.203845 0.270212 0.250006
Si Si7 0.478061 0.146047 0.083343
O O1 0.486076 0.476177 0.297921
O O2 0.778787 0.734393 0.627676
O O3 0.618784 0.382841 0.232656
O O4 0.983288 0.782036 0.401516
O O5 0.226403 0.739903 0.247922
O O6 0.311347 0.978385 0.310966
O O7 0.455357 0.137420 0.637624
O O8 0.182931 0.706413 0.447328
O O9 0.082220 0.398924 0.036122
O O10 0.312993 0.042657 0.161731
O O11 0.316722 0.804020 0.940989
O O12 0.000000 0.500000 0.500000
O O13 0.883883 0.646796 0.631505
O O14 0.300429 0.940892 0.843431
O O15 0.000000 0.000000 0.000000
#
# Coordination Sequence:
#
# PCOD9056219 Si02
#       7
#     2   2   2   2   2   2   2
#     4  11  24  42  65  96 130 171 225 264 327 397
#     4  11  23  37  60  93 135 175 211 268 328 393
#     4  11  22  36  59  96 133 170 215 269 330 385
#     4  11  22  36  60  97 136 168 213 271 331 382
#     4  12  22  41  68 101 132 167 221 281 326 380
#     4  11  24  42  66  95 130 176 217 272 325 395
#     4  11  22  38  64 100 133 169 216 275 329 385
#
# _framework density 22.374095000000001
#
# number of rings (size 3 to 8) (size 9 to 14) (size 15 to 20)
#    0.000    0.857    7.143    0.429    2.000    1.143 
#    0.000    0.000    0.000    8.571    0.000    0.000 
#    0.000    0.000    0.000    0.000    0.000    0.000 
#
# Total GULP energy -78277.493935 kJ/mol
# GULP energy per Si atom -5591.249567 kJ/mol
# Density = 2.232317 g / cm^3
# Si number density = 22.374095 Si / 1000 Ang^3
#
#
#
# Elastic Constant Matrix: (Units=GPa)
#
#
# Indices 1 2 3 4 5 6 
#
# 1 95.2242 26.6906 11.3899 7.0053 2.5243 23.7172
# 2 26.6906 56.3631 -2.7574 2.6318 12.0262 26.0175
# 3 11.3899 -2.7574 89.0016 11.1217 24.4936 8.6200
# 4 7.0053 2.6318 11.1217 33.6609 3.2091 15.7392
# 5 2.5243 12.0262 24.4936 3.2091 32.7926 6.4869
# 6 23.7172 26.0175 8.6200 15.7392 6.4869 38.8494
#
#
#
# Elastic Compliance Matrix: (Units=1/GPa)
#
#
# Indices 1 2 3 4 5 6 
#
# 1 0.013283 -0.004795 -0.002365 0.000465 0.003474 -0.005141
# 2 -0.004795 0.032404 0.006228 0.007465 -0.012732 -0.021054
# 3 -0.002365 0.006228 0.015978 -0.002607 -0.013185 -0.003015
# 4 0.000465 0.007465 -0.002607 0.039601 -0.000617 -0.020645
# 5 0.003474 -0.012732 -0.013185 -0.000617 0.044375 0.002172
# 6 -0.005141 -0.021054 -0.003015 -0.020645 0.002172 0.051649
#
#
# Mechanical properties :
#
#
# Convention : Reuss Voigt Hill
#
# Bulk Modulus (GPa) = 16.72229 34.58166 25.65198
# Shear Modulus (GPa) = 22.82187 34.74496 28.78342
#
# Velocity S-wave (km/s) = 3.19723 3.94497 3.59062
# Velocity P-wave (km/s) = 4.59564 6.01997 5.35537
#
# Compressibility (1/GPa) = 0.05980042
#
# Stress axis : x y z
#
# Youngs Moduli (GPa) = 75.28594 30.85997 62.58790
#
# Poissons Ratio (x) = 0.14799 0.14799
# Poissons Ratio (y) = 0.36103 -0.38979
# Poissons Ratio (z) = 0.17802 -0.19219
#
# Static dielectric constant tensor:
#      x y z
#    x 1.888780 0.039810 0.024680 
#    y 0.039810 1.885710 0.019130 
#    z 0.024680 0.019130 1.850850 
# 
# From -- ./inp_files/260900.got.cif
#   From: 2010.05.17/outbox.cif.g08.bks.cpg/sg2_131_cif.got.tgz:260900.got - 2010.06.03 11:33:40.
