data_PCOD9056498
_publ_section_title
;
Structure prediction by ZEFSAII (Michael W. Deem and Ramdas Pophale) SiO2 
 PCOD9056498
Probable space group: P -1
;
_chemical_formula_sum "Si O2"
_cell_formula_units_Z 16
_cell_length_a 9.354238
_cell_length_b 14.473149
_cell_length_c 11.380967
_cell_angle_alpha 112.206503
_cell_angle_beta 129.852512
_cell_angle_gamma 38.143124
_cell_volume 704.296290
_symmetry_space_group_name_H-M "P -1"
_symmetry_group_IT_number 2
_symmetry_cell_setting 'triclinic'
loop_
_space_group_symop_operation_xyz
x,y,z
-x,-y,-z
loop_
_atom_site_type_symbol
_atom_site_label
_atom_site_fract_x
_atom_site_fract_y
_atom_site_fract_z
Si Si1 0.327385 0.540905 0.812713
Si Si2 0.918699 0.228349 0.401337
Si Si3 0.720585 0.756825 0.251593
Si Si4 0.635351 0.333286 0.526821
Si Si5 0.879652 0.978930 0.796916
Si Si6 0.134124 0.794151 0.070431
Si Si7 0.907600 0.562013 0.614235
Si Si8 0.182068 0.173506 0.894311
O O1 0.305049 0.626246 0.734839
O O2 0.537005 0.364131 0.799015
O O3 0.999007 0.639594 0.712011
O O4 0.500000 0.500000 0.000000
O O5 0.743973 0.242972 0.417167
O O6 0.088739 0.243225 0.571225
O O7 0.123914 0.077607 0.354648
O O8 0.741299 0.771452 0.131720
O O9 0.864857 0.590994 0.260457
O O10 0.413310 0.891479 0.219065
O O11 0.500000 0.500000 0.500000
O O12 0.398340 0.357934 0.471480
O O13 0.916054 0.230671 0.708893
O O14 0.969634 0.056728 0.860360
O O15 0.089166 0.833012 0.926646
O O16 0.953684 0.776563 0.022215
O O17 0.000000 0.500000 0.500000
O O18 0.500000 0.000000 0.000000
#
# Coordination Sequence:
#
# PCOD9056498 Si02
#       8
#     2   2   2   2   2   2   2   2
#     4  12  24  42  68 102 134 176 239 295 341 407
#     4  11  23  42  65  98 140 174 226 287 350 411
#     4  11  22  40  67  98 132 185 231 275 350 423
#     4  11  22  42  69 100 138 187 228 287 353 418
#     4  11  23  41  63  95 134 179 222 283 344 412
#     4  11  23  40  67  92 133 179 225 279 352 407
#     4  12  22  42  74 102 130 183 241 282 349 427
#     4  11  22  39  65 100 137 180 232 281 344 415
#
# _framework density 22.717713
#
# number of rings (size 3 to 8) (size 9 to 14) (size 15 to 20)
#    0.000    0.750    7.500    1.875    0.000    0.000 
#    0.000    5.625    0.000    0.000    0.000    0.000 
#    0.000    0.000    0.000    0.000    0.000    0.000 
#
# Total GULP energy -89158.695146 kJ/mol
# GULP energy per Si atom -5572.418447 kJ/mol
# Density = 2.266601 g / cm^3
# Si number density = 22.717713 Si / 1000 Ang^3
#
#
#
# Elastic Constant Matrix: (Units=GPa)
#
#
# Indices 1 2 3 4 5 6 
#
# 1 139.2129 13.3732 28.9196 -5.4965 -11.5455 -28.1744
# 2 13.3732 37.0125 8.4169 -7.1590 -5.3223 -9.4692
# 3 28.9196 8.4169 81.2689 -13.6733 -8.3430 -5.4958
# 4 -5.4965 -7.1590 -13.6733 44.7636 -3.8485 2.4448
# 5 -11.5455 -5.3223 -8.3430 -3.8485 46.4596 -13.2881
# 6 -28.1744 -9.4692 -5.4958 2.4448 -13.2881 28.1407
#
#
#
# Elastic Compliance Matrix: (Units=1/GPa)
#
#
# Indices 1 2 3 4 5 6 
#
# 1 0.010914 0.001175 -0.002301 0.000623 0.006451 0.013865
# 2 0.001175 0.033133 -0.001021 0.005026 0.008861 0.015874
# 3 -0.002301 -0.001021 0.014231 0.004062 0.002474 0.000948
# 4 0.000623 0.005026 0.004062 0.024671 0.004370 0.003028
# 5 0.006451 0.008861 0.002474 0.004370 0.032000 0.024654
# 6 0.013865 0.015874 0.000948 0.003028 0.024654 0.066322
#
#
# Mechanical properties :
#
#
# Convention : Reuss Voigt Hill
#
# Bulk Modulus (GPa) = 18.52391 39.87929 29.20160
# Shear Modulus (GPa) = 24.56289 37.65842 31.11066
#
# Velocity S-wave (km/s) = 3.29176 4.07586 3.70462
# Velocity P-wave (km/s) = 4.75597 6.30417 5.58399
#
# Compressibility (1/GPa) = 0.05398428
#
# Stress axis : x y z
#
# Youngs Moduli (GPa) = 91.62571 30.18152 70.26991
#
# Poissons Ratio (x) = -0.03547 0.16168
# Poissons Ratio (y) = -0.10767 0.07174
# Poissons Ratio (z) = 0.21082 0.03081
#
# Static dielectric constant tensor:
#      x y z
#    x 1.994760 -0.019270 0.041200 
#    y -0.019270 1.929990 0.040200 
#    z 0.041200 0.040200 1.881180 
# 
# From -- ./inp_files/397501.got.cif
#   From: 2010.05.17/outbox.cif.g08.bks.cpg/sg2_199_cif.got.tgz:397501.got - 2010.06.03 11:33:40.
