data_PCOD9056452
_publ_section_title
;
Structure prediction by ZEFSAII (Michael W. Deem and Ramdas Pophale) SiO2 
 PCOD9056452
Probable space group: P -1
;
_chemical_formula_sum "Si O2"
_cell_formula_units_Z 16
_cell_length_a 10.048997
_cell_length_b 15.429488
_cell_length_c 9.270439
_cell_angle_alpha 104.347177
_cell_angle_beta 139.957244
_cell_angle_gamma 62.844681
_cell_volume 809.757899
_symmetry_space_group_name_H-M "P -1"
_symmetry_group_IT_number 2
_symmetry_cell_setting 'triclinic'
loop_
_space_group_symop_operation_xyz
x,y,z
-x,-y,-z
loop_
_atom_site_type_symbol
_atom_site_label
_atom_site_fract_x
_atom_site_fract_y
_atom_site_fract_z
Si Si1 0.730818 0.556951 0.824257
Si Si2 0.666308 0.771190 0.952419
Si Si3 0.618223 0.848496 0.627053
Si Si4 0.377889 0.297861 0.674820
Si Si5 0.257817 0.823962 0.833984
Si Si6 0.415246 0.472416 0.621597
Si Si7 0.131108 0.028069 0.246467
Si Si8 0.968184 0.310585 0.540724
O O1 0.670101 0.663202 0.886091
O O2 0.641857 0.491168 0.819809
O O3 0.607905 0.568056 0.572199
O O4 0.000000 0.500000 0.000000
O O5 0.683417 0.814664 0.830690
O O6 0.430666 0.835705 0.867009
O O7 0.881006 0.751280 0.224957
O O8 0.629369 0.758716 0.500099
O O9 0.782336 0.892760 0.711337
O O10 0.359593 0.933656 0.442524
O O11 0.405469 0.396361 0.698944
O O12 0.148193 0.320157 0.582502
O O13 0.587116 0.225776 0.917603
O O14 0.044704 0.922498 0.749063
O O15 0.162709 0.748437 0.661832
O O16 0.208113 0.580601 0.511990
O O17 0.000000 0.000000 0.000000
#
# Coordination Sequence:
#
# PCOD9056452 Si02
#       8
#     2   2   2   2   2   2   2   2
#     4  11  22  39  60  93 133 176 217 267 312 378
#     4  11  24  42  66  96 134 172 216 266 325 386
#     4  11  24  43  71 100 124 165 222 271 327 392
#     4  11  23  40  67  97 129 173 223 265 320 387
#     4  11  24  44  66  95 134 169 216 272 330 388
#     4  11  23  38  63  95 134 175 221 261 314 380
#     4  11  24  46  71  96 127 165 215 277 333 392
#     4  11  23  42  62  96 138 175 211 269 322 383
#
# _framework density 19.758993
#
# number of rings (size 3 to 8) (size 9 to 14) (size 15 to 20)
#    0.000    1.000    6.250    0.375    0.000    4.000 
#    0.000    1.250    0.000    0.000    0.000    0.000 
#    0.000    0.000    0.000    0.000    0.000    0.000 
#
# Total GULP energy -89474.590657 kJ/mol
# GULP energy per Si atom -5592.161916 kJ/mol
# Density = 1.971402 g / cm^3
# Si number density = 19.758993 Si / 1000 Ang^3
#
#
#
# Elastic Constant Matrix: (Units=GPa)
#
#
# Indices 1 2 3 4 5 6 
#
# 1 101.0817 26.2446 38.9667 -18.5043 3.2797 -11.9073
# 2 26.2446 52.0255 11.4392 3.4418 7.0813 -10.9990
# 3 38.9667 11.4392 43.0103 -5.2301 13.1541 -1.3613
# 4 -18.5043 3.4418 -5.2301 15.6909 -2.3533 -3.9006
# 5 3.2797 7.0813 13.1541 -2.3533 36.0292 -3.8660
# 6 -11.9073 -10.9990 -1.3613 -3.9006 -3.8660 37.2553
#
#
#
# Elastic Compliance Matrix: (Units=1/GPa)
#
#
# Indices 1 2 3 4 5 6 
#
# 1 0.027112 -0.010640 -0.020781 0.031173 0.010222 0.009089
# 2 -0.010640 0.026518 0.002310 -0.018004 -0.006048 0.002000
# 3 -0.020781 0.002310 0.044526 -0.014543 -0.016582 -0.007576
# 4 0.031173 -0.018004 -0.014543 0.105965 0.014728 0.016739
# 5 0.010222 -0.006048 -0.016582 0.014728 0.035686 0.006121
# 6 0.009089 0.002000 -0.007576 0.016739 0.006121 0.032448
#
#
# Mechanical properties :
#
#
# Convention : Reuss Voigt Hill
#
# Bulk Modulus (GPa) = 25.04057 38.82426 31.93241
# Shear Modulus (GPa) = 14.54381 25.75954 20.15168
#
# Velocity S-wave (km/s) = 2.71599 3.61458 3.19701
# Velocity P-wave (km/s) = 4.74720 6.09194 5.46112
#
# Compressibility (1/GPa) = 0.03993520
#
# Stress axis : x y z
#
# Youngs Moduli (GPa) = 36.88371 37.71062 22.45854
#
# Poissons Ratio (x) = 0.40122 0.46672
# Poissons Ratio (y) = 0.39243 -0.05189
# Poissons Ratio (z) = 0.76650 -0.08712
#
# Static dielectric constant tensor:
#      x y z
#    x 1.690500 -0.010670 0.002300 
#    y -0.010670 1.665320 0.005570 
#    z 0.002300 0.005570 1.675150 
# 
# From -- ./inp_files/37337.got.cif
#   From: 2010.05.17/outbox.cif.g08.bks.cpg/sg2_19_cif.got.tgz:37337.got - 2010.06.03 11:33:40.
