data_PCOD9056889
_publ_section_title
;
Structure prediction by ZEFSAII (Michael W. Deem and Ramdas Pophale) SiO2 
 PCOD9056889
Probable space group: P -1
;
_chemical_formula_sum "Si O2"
_cell_formula_units_Z 16
_cell_length_a 29.440372
_cell_length_b 16.338847
_cell_length_c 11.042684
_cell_angle_alpha 23.318534
_cell_angle_beta 148.467655
_cell_angle_gamma 160.350997
_cell_volume 703.898220
_symmetry_space_group_name_H-M "P -1"
_symmetry_group_IT_number 2
_symmetry_cell_setting 'triclinic'
loop_
_space_group_symop_operation_xyz
x,y,z
-x,-y,-z
loop_
_atom_site_type_symbol
_atom_site_label
_atom_site_fract_x
_atom_site_fract_y
_atom_site_fract_z
Si Si1 0.430703 0.744099 0.362237
Si Si2 0.688655 0.057103 0.152269
Si Si3 0.134154 0.333250 0.636849
Si Si4 0.272795 0.551396 0.921775
Si Si5 0.613579 0.360014 0.322341
Si Si6 0.041465 0.354835 0.749612
Si Si7 0.472886 0.458278 0.301462
Si Si8 0.093336 0.849507 0.536538
O O1 0.418479 0.640935 0.611633
O O2 0.449728 0.588742 0.525597
O O3 0.568423 0.130889 0.140248
O O4 0.316361 0.711830 0.135705
O O5 0.582530 0.806853 0.143483
O O6 0.630185 0.815869 0.459226
O O7 0.834288 0.236840 0.197259
O O8 0.223181 0.476903 0.769685
O O9 0.244395 0.501790 0.555019
O O10 0.029666 0.335458 0.397958
O O11 0.031261 0.952535 0.920224
O O12 0.199596 0.604300 0.753717
O O13 0.214930 0.241196 0.277482
O O14 0.500000 0.000000 0.500000
O O15 0.608993 0.555219 0.963469
O O16 0.981093 0.223493 0.657148
O O17 0.000000 0.500000 0.500000
#
# Coordination Sequence:
#
# PCOD9056889 Si02
#       8
#     2   2   2   2   2   2   2   2
#     4  12  24  39  63  97 125 164 212 254 307 377
#     4  11  22  41  63  88 129 167 200 258 321 364
#     4   9  18  36  56  83 118 159 203 246 308 363
#     4   9  17  32  55  83 118 152 200 256 302 352
#     4  12  22  41  66  88 128 169 206 255 310 366
#     4   9  18  31  54  88 117 150 199 262 307 350
#     4  11  24  40  62  94 126 163 210 259 307 369
#     4   9  19  35  56  83 119 161 200 248 310 367
#
# _framework density 22.730559
#
# number of rings (size 3 to 8) (size 9 to 14) (size 15 to 20)
#    0.000    1.750    2.500    5.250    3.500    0.000 
#    2.250    0.625    0.000    0.750    0.000    0.000 
#    0.000    0.000    0.000    0.000    0.000    0.000 
#
# Total GULP energy -89407.190638 kJ/mol
# GULP energy per Si atom -5587.949415 kJ/mol
# Density = 2.267882 g / cm^3
# Si number density = 22.730559 Si / 1000 Ang^3
#
#
#
# Elastic Constant Matrix: (Units=GPa)
#
#
# Indices 1 2 3 4 5 6 
#
# 1 124.2045 42.6092 28.5843 7.4194 22.2484 31.6480
# 2 42.6092 72.3882 12.9749 13.5562 3.4932 29.0708
# 3 28.5843 12.9749 63.7108 22.8838 12.4820 10.8559
# 4 7.4194 13.5562 22.8838 27.1066 7.0402 8.5865
# 5 22.2484 3.4932 12.4820 7.0402 43.3866 15.0606
# 6 31.6480 29.0708 10.8559 8.5865 15.0606 46.4873
#
#
#
# Elastic Compliance Matrix: (Units=1/GPa)
#
#
# Indices 1 2 3 4 5 6 
#
# 1 0.012586 -0.006108 -0.005215 0.006172 -0.004329 -0.003269
# 2 -0.006108 0.022897 0.002279 -0.009831 0.005982 -0.010815
# 3 -0.005215 0.002279 0.025259 -0.020806 -0.001604 0.000589
# 4 0.006172 -0.009831 -0.020806 0.059848 -0.005210 -0.002561
# 5 -0.004329 0.005982 -0.001604 -0.005210 0.029188 -0.008913
# 6 -0.003269 -0.010815 0.000589 -0.002561 -0.008913 0.033723
#
#
# Mechanical properties :
#
#
# Convention : Reuss Voigt Hill
#
# Bulk Modulus (GPa) = 23.44408 47.62672 35.53540
# Shear Modulus (GPa) = 23.16901 35.13843 29.15372
#
# Velocity S-wave (km/s) = 3.19609 3.93602 3.58520
# Velocity P-wave (km/s) = 4.89452 6.45403 5.72760
#
# Compressibility (1/GPa) = 0.04265469
#
# Stress axis : x y z
#
# Youngs Moduli (GPa) = 79.45038 43.67431 39.59058
#
# Poissons Ratio (x) = 0.26677 0.20646
# Poissons Ratio (y) = 0.48530 -0.09024
# Poissons Ratio (z) = 0.41432 -0.09955
#
# Static dielectric constant tensor:
#      x y z
#    x 1.791350 0.050970 -0.005860 
#    y 0.050970 1.845580 0.052510 
#    z -0.005860 0.052510 1.837450 
# 
# From -- ./inp_files/306957.got.cif
#   From: 2010.05.17/outbox.cif.g08.bks.cpg/sg2_154_cif.got.tgz:306957.got - 2010.06.03 11:33:40.
