data_PCOD9056152
_publ_section_title
;
Structure prediction by ZEFSAII (Michael W. Deem and Ramdas Pophale) SiO2 
 PCOD9056152
Probable space group: P -1
;
_chemical_formula_sum "Si O2"
_cell_formula_units_Z 16
_cell_length_a 8.625082
_cell_length_b 10.698719
_cell_length_c 20.050977
_cell_angle_alpha 149.948096
_cell_angle_beta 49.339444
_cell_angle_gamma 135.742299
_cell_volume 643.988936
_symmetry_space_group_name_H-M "P -1"
_symmetry_group_IT_number 2
_symmetry_cell_setting 'triclinic'
loop_
_space_group_symop_operation_xyz
x,y,z
-x,-y,-z
loop_
_atom_site_type_symbol
_atom_site_label
_atom_site_fract_x
_atom_site_fract_y
_atom_site_fract_z
Si Si1 0.015474 0.698922 0.800710
Si Si2 0.606003 0.777765 0.881353
Si Si3 0.255535 0.453726 0.387536
Si Si4 0.436601 0.179086 0.873987
Si Si5 0.779013 0.098408 0.332265
Si Si6 0.158910 0.406451 0.868577
Si Si7 0.766665 0.665768 0.507787
Si Si8 0.104618 0.729392 0.247514
O O1 0.355672 0.040774 0.759737
O O2 0.115764 0.507657 0.643404
O O3 0.841623 0.802554 0.859543
O O4 0.234238 0.978119 0.883152
O O5 0.605755 0.642207 0.746744
O O6 0.417226 0.577314 0.889660
O O7 0.500000 0.000000 0.000000
O O8 0.351438 0.777985 0.525234
O O9 0.218550 0.324894 0.411695
O O10 0.013827 0.355045 0.374990
O O11 0.676297 0.176780 0.817576
O O12 0.500000 0.500000 0.000000
O O13 0.096685 0.501965 0.198432
O O14 0.867875 0.891180 0.243264
O O15 0.100653 0.412182 0.810134
O O16 0.000000 0.500000 0.000000
O O17 0.500000 0.500000 0.500000
O O18 0.870101 0.977092 0.596521
#
# Coordination Sequence:
#
# PCOD9056152 Si02
#       8
#     2   2   2   2   2   2   2   2
#     4  12  27  53  80 123 168 210 283 340 414 514
#     4  12  29  50  82 118 156 216 287 344 410 502
#     4  11  22  45  85 110 154 210 271 341 414 478
#     4  12  26  49  81 112 168 220 271 345 418 490
#     4  11  21  47  78 112 150 213 270 333 420 487
#     4  12  28  49  76 111 162 211 278 343 409 498
#     4  12  24  49  85 123 171 214 262 349 431 504
#     4  12  28  48  79 122 160 220 267 340 428 500
#
# _framework density 24.845147000000001
#
# number of rings (size 3 to 8) (size 9 to 14) (size 15 to 20)
#    0.000    0.250    5.000    3.375    3.500    1.000 
#    4.500    0.000    0.000    0.000    0.000    0.000 
#    0.000    0.000    0.000    0.000    0.000    0.000 
#
# Total GULP energy -89298.785065 kJ/mol
# GULP energy per Si atom -5581.174067 kJ/mol
# Density = 2.478860 g / cm^3
# Si number density = 24.845147 Si / 1000 Ang^3
#
#
#
# Elastic Constant Matrix: (Units=GPa)
#
#
# Indices 1 2 3 4 5 6 
#
# 1 78.8939 29.4207 26.3908 3.2749 -10.1979 3.1004
# 2 29.4207 120.0241 48.7042 2.5560 -2.3663 13.2230
# 3 26.3908 48.7042 208.0718 8.6328 -8.0818 -8.7094
# 4 3.2749 2.5560 8.6328 51.7093 -1.8982 -6.0951
# 5 -10.1979 -2.3663 -8.0818 -1.8982 41.6965 2.8142
# 6 3.1004 13.2230 -8.7094 -6.0951 2.8142 46.4131
#
#
#
# Elastic Compliance Matrix: (Units=1/GPa)
#
#
# Indices 1 2 3 4 5 6 
#
# 1 0.014607 -0.003028 -0.001020 -0.000555 0.003216 -0.000572
# 2 -0.003028 0.010298 -0.002159 -0.000343 -0.000377 -0.003159
# 3 -0.001020 -0.002159 0.005553 -0.000544 0.000570 0.001619
# 4 -0.000555 -0.000343 -0.000544 0.019806 0.000465 0.002605
# 5 0.003216 -0.000377 0.000570 0.000465 0.024978 -0.001454
# 6 -0.000572 -0.003159 0.001619 0.002605 -0.001454 0.023218
#
#
# Mechanical properties :
#
#
# Convention : Reuss Voigt Hill
#
# Bulk Modulus (GPa) = 55.42104 68.44679 61.93392
# Shear Modulus (GPa) = 42.77556 48.12871 45.45214
#
# Velocity S-wave (km/s) = 4.15382 4.40608 4.28181
# Velocity P-wave (km/s) = 6.73503 7.31395 7.03045
#
# Compressibility (1/GPa) = 0.01804369
#
# Stress axis : x y z
#
# Youngs Moduli (GPa) = 68.46039 97.10645 180.07454
#
# Poissons Ratio (x) = 0.29408 0.18364
# Poissons Ratio (y) = 0.20733 0.38878
# Poissons Ratio (z) = 0.06982 0.20965
#
# Static dielectric constant tensor:
#      x y z
#    x 2.067940 0.075950 0.115590 
#    y 0.075950 2.136570 0.106240 
#    z 0.115590 0.106240 2.185920 
# 
# From -- ./inp_files/623131.got.cif
#   From: 2010.05.17/outbox.cif.g08.bks.cpg/sg2_312_cif.got.tgz:623131.got - 2010.06.03 11:33:40.
