data_PCOD9056828
_publ_section_title
;
Structure prediction by ZEFSAII (Michael W. Deem and Ramdas Pophale) SiO2 
 PCOD9056828
Probable space group: P -1
;
_chemical_formula_sum "Si O2"
_cell_formula_units_Z 14
_cell_length_a 16.840196
_cell_length_b 11.107304
_cell_length_c 9.112925
_cell_angle_alpha 84.831402
_cell_angle_beta 71.028073
_cell_angle_gamma 146.353115
_cell_volume 647.793030
_symmetry_space_group_name_H-M "P -1"
_symmetry_group_IT_number 2
_symmetry_cell_setting 'triclinic'
loop_
_space_group_symop_operation_xyz
x,y,z
-x,-y,-z
loop_
_atom_site_type_symbol
_atom_site_label
_atom_site_fract_x
_atom_site_fract_y
_atom_site_fract_z
Si Si1 0.830986 0.704436 0.040048
Si Si2 0.688427 0.352779 0.693818
Si Si3 0.953209 0.426728 0.210222
Si Si4 0.713864 0.348126 0.366948
Si Si5 0.351589 0.145545 0.375149
Si Si6 0.040087 0.932556 0.576337
Si Si7 0.671167 0.068262 0.847148
O O1 0.789867 0.523586 0.165036
O O2 0.602083 0.464737 0.199957
O O3 0.932747 0.813609 0.809853
O O4 0.000000 0.000000 0.000000
O O5 0.683680 0.388065 0.525565
O O6 0.626886 0.130757 0.770939
O O7 0.912706 0.663405 0.594116
O O8 0.532458 0.223124 0.901783
O O9 0.874639 0.455757 0.298926
O O10 0.151002 0.666152 0.170140
O O11 0.773887 0.093092 0.395239
O O12 0.000000 0.500000 0.000000
O O13 0.500000 0.000000 0.500000
O O14 0.267617 0.172310 0.424780
O O15 0.291247 0.991360 0.280369
O O16 0.000000 0.000000 0.500000
#
# Coordination Sequence:
#
# PCOD9056828 Si02
#       7
#     2   2   2   2   2   2   2
#     4  12  28  51  71 104 151 198 246 307 368 440
#     4  11  22  41  69 102 144 182 237 298 362 427
#     4  12  23  38  67 109 146 183 232 299 373 435
#     4  12  23  41  70 103 146 185 237 303 369 424
#     4  12  24  48  76 103 146 194 246 300 372 437
#     4  12  27  49  73 102 142 195 254 303 359 442
#     4  11  22  40  71 106 141 185 230 302 367 430
#
# _framework density 21.611840999999998
#
# number of rings (size 3 to 8) (size 9 to 14) (size 15 to 20)
#    0.000    0.286    5.714    3.857    2.000    1.143 
#    2.571    0.000    0.000    0.000    0.000    0.000 
#    0.000    0.000    0.000    0.000    0.000    0.000 
#
# Total GULP energy -78262.084961 kJ/mol
# GULP energy per Si atom -5590.148926 kJ/mol
# Density = 2.156265 g / cm^3
# Si number density = 21.611841 Si / 1000 Ang^3
#
#
#
# Elastic Constant Matrix: (Units=GPa)
#
#
# Indices 1 2 3 4 5 6 
#
# 1 123.6521 4.7301 48.1883 1.4814 -1.9982 3.3616
# 2 4.7301 104.8570 40.8585 5.1133 -1.2856 14.5510
# 3 48.1883 40.8585 129.4973 34.4952 0.0771 3.5934
# 4 1.4814 5.1133 34.4952 41.3210 9.2097 -1.6270
# 5 -1.9982 -1.2856 0.0771 9.2097 38.7020 -4.0191
# 6 3.3616 14.5510 3.5934 -1.6270 -4.0191 27.8305
#
#
#
# Elastic Compliance Matrix: (Units=1/GPa)
#
#
# Indices 1 2 3 4 5 6 
#
# 1 0.010042 0.001553 -0.005223 0.003864 -0.000463 -0.001192
# 2 0.001553 0.012042 -0.004867 0.002443 -0.000695 -0.005813
# 3 -0.005223 -0.004867 0.014267 -0.011618 0.002409 0.001002
# 4 0.003864 0.002443 -0.011618 0.035273 -0.008021 0.000660
# 5 -0.000463 -0.000695 0.002409 -0.008021 0.028079 0.003694
# 6 -0.001192 -0.005813 0.001002 0.000660 0.003694 0.039558
#
#
# Mechanical properties :
#
#
# Convention : Reuss Voigt Hill
#
# Bulk Modulus (GPa) = 51.87078 60.61780 56.24429
# Shear Modulus (GPa) = 30.72045 39.18599 34.95322
#
# Velocity S-wave (km/s) = 3.77432 4.26276 4.02595
# Velocity P-wave (km/s) = 6.56104 7.23446 6.90596
#
# Compressibility (1/GPa) = 0.01927867
#
# Stress axis : x y z
#
# Youngs Moduli (GPa) = 99.58394 83.04248 70.09336
#
# Poissons Ratio (x) = -0.12900 0.36608
# Poissons Ratio (y) = -0.15469 0.34111
# Poissons Ratio (z) = 0.52011 0.40413
#
# Static dielectric constant tensor:
#      x y z
#    x 1.967750 -0.028710 -0.098480 
#    y -0.028710 1.790910 0.016730 
#    z -0.098480 0.016730 1.854410 
# 
# From -- ./inp_files/199914.got.cif
#   From: 2010.05.17/outbox.cif.g08.bks.cpg/sg2_100_cif.got.tgz:199914.got - 2010.06.03 11:33:40.
