data_PCOD9056140
_publ_section_title
;
Structure prediction by ZEFSAII (Michael W. Deem and Ramdas Pophale) SiO2 
 PCOD9056140
Probable space group: P -1
;
_chemical_formula_sum "Si O2"
_cell_formula_units_Z 16
_cell_length_a 12.614843
_cell_length_b 9.853856
_cell_length_c 24.734383
_cell_angle_alpha 132.663592
_cell_angle_beta 21.356934
_cell_angle_gamma 133.252425
_cell_volume 806.415544
_symmetry_space_group_name_H-M "P -1"
_symmetry_group_IT_number 2
_symmetry_cell_setting 'triclinic'
loop_
_space_group_symop_operation_xyz
x,y,z
-x,-y,-z
loop_
_atom_site_type_symbol
_atom_site_label
_atom_site_fract_x
_atom_site_fract_y
_atom_site_fract_z
Si Si1 0.876726 0.780089 0.250626
Si Si2 0.187812 0.506448 0.966331
Si Si3 0.318965 0.953376 0.677189
Si Si4 0.210789 0.114793 0.886818
Si Si5 0.839801 0.629284 0.648090
Si Si6 0.982586 0.023448 0.651094
Si Si7 0.759915 0.399699 0.451991
Si Si8 0.117495 0.821295 0.371594
O O1 0.578348 0.638318 0.375505
O O2 0.773118 0.916973 0.291993
O O3 0.020968 0.889274 0.264363
O O4 0.110303 0.672016 0.083818
O O5 0.103292 0.309177 0.982792
O O6 0.526606 0.528361 0.792935
O O7 0.000000 0.500000 0.000000
O O8 0.765923 0.264166 0.360725
O O9 0.194513 0.007193 0.807919
O O10 0.675750 0.995133 0.525047
O O11 0.551796 0.162822 0.758240
O O12 0.000000 0.000000 0.000000
O O13 0.797939 0.811268 0.683655
O O14 0.000000 0.500000 0.500000
O O15 0.054774 0.680525 0.611023
O O16 0.886028 0.146607 0.682623
O O17 0.909878 0.618407 0.429978
O O18 0.000000 0.000000 0.500000
#
# Coordination Sequence:
#
# PCOD9056140 Si02
#       8
#     2   2   2   2   2   2   2   2
#     4  11  23  42  72 106 136 171 229 284 345 393
#     4  12  26  42  67 101 136 179 231 278 339 404
#     4  11  21  47  71 101 140 173 229 286 336 400
#     4  12  28  47  65  99 143 181 219 286 348 395
#     4  12  22  41  69  98 130 180 232 280 326 396
#     4  11  23  41  71 102 133 178 227 281 335 402
#     4  11  23  43  74  99 134 183 223 281 340 397
#     4  12  26  45  67 101 138 179 235 272 330 415
#
# _framework density 19.840886000000001
#
# number of rings (size 3 to 8) (size 9 to 14) (size 15 to 20)
#    0.000    0.500    6.250    3.000    3.500    3.500 
#    2.250    1.250    0.000    0.000    0.000    0.000 
#    0.000    0.000    0.000    0.000    0.000    0.000 
#
# Total GULP energy -89451.951255 kJ/mol
# GULP energy per Si atom -5590.746953 kJ/mol
# Density = 1.979573 g / cm^3
# Si number density = 19.840886 Si / 1000 Ang^3
#
#
#
# Elastic Constant Matrix: (Units=GPa)
#
#
# Indices 1 2 3 4 5 6 
#
# 1 121.3848 36.6992 34.0053 3.3533 15.3449 -8.5540
# 2 36.6992 148.4540 39.9622 -9.6008 12.0043 -11.9859
# 3 34.0053 39.9622 77.8620 6.9387 18.2146 5.2491
# 4 3.3533 -9.6008 6.9387 27.6614 -1.1474 -3.6298
# 5 15.3449 12.0043 18.2146 -1.1474 34.2708 6.1492
# 6 -8.5540 -11.9859 5.2491 -3.6298 6.1492 29.3725
#
#
#
# Elastic Compliance Matrix: (Units=1/GPa)
#
#
# Indices 1 2 3 4 5 6 
#
# 1 0.010174 -0.001081 -0.003389 -0.000398 -0.003056 0.003718
# 2 -0.001081 0.009107 -0.004790 0.005123 -0.000900 0.005079
# 3 -0.003389 -0.004790 0.019273 -0.007127 -0.006217 -0.005965
# 4 -0.000398 0.005123 -0.007127 0.040885 0.002131 0.007855
# 5 -0.003056 -0.000900 -0.006217 0.002131 0.035553 -0.007326
# 6 0.003718 0.005079 -0.005965 0.007855 -0.007326 0.040771
#
#
# Mechanical properties :
#
#
# Convention : Reuss Voigt Hill
#
# Bulk Modulus (GPa) = 49.91604 63.22604 56.57104
# Shear Modulus (GPa) = 27.63030 34.06321 30.84676
#
# Velocity S-wave (km/s) = 3.73580 4.14795 3.94725
# Velocity P-wave (km/s) = 6.61974 7.40786 7.02486
#
# Compressibility (1/GPa) = 0.02003364
#
# Stress axis : x y z
#
# Youngs Moduli (GPa) = 98.29185 109.80572 51.88510
#
# Poissons Ratio (x) = 0.11873 0.17582
# Poissons Ratio (y) = 0.10628 0.24855
# Poissons Ratio (z) = 0.33307 0.52600
#
# Static dielectric constant tensor:
#      x y z
#    x 1.711210 0.013180 0.008300 
#    y 0.013180 1.701220 0.000940 
#    z 0.008300 0.000940 1.716760 
# 
# From -- ./inp_files/610016.got.cif
#   From: 2010.05.17/outbox.cif.g08.bks.cpg/sg2_306_cif.got.tgz:610016.got - 2010.06.03 11:33:40.
