data_PCOD9056793
_publ_section_title
;
Structure prediction by ZEFSAII (Michael W. Deem and Ramdas Pophale) SiO2 
 PCOD9056793
Probable space group: P -1
;
_chemical_formula_sum "Si O2"
_cell_formula_units_Z 8
_cell_length_a 8.911666
_cell_length_b 18.770931
_cell_length_c 4.749476
_cell_angle_alpha 66.629910
_cell_angle_beta 109.864387
_cell_angle_gamma 152.270463
_cell_volume 339.229874
_symmetry_space_group_name_H-M "P -1"
_symmetry_group_IT_number 2
_symmetry_cell_setting 'triclinic'
loop_
_space_group_symop_operation_xyz
x,y,z
-x,-y,-z
loop_
_atom_site_type_symbol
_atom_site_label
_atom_site_fract_x
_atom_site_fract_y
_atom_site_fract_z
Si Si1 0.038762 0.576500 0.149598
Si Si2 0.431485 0.391560 0.784167
Si Si3 0.147382 0.188701 0.377901
Si Si4 0.685527 0.883882 0.795956
O O1 0.000000 0.500000 0.500000
O O2 0.379707 0.760019 0.000857
O O3 0.000000 0.500000 0.000000
O O4 0.741630 0.507738 0.002190
O O5 0.500000 0.500000 0.500000
O O6 0.339579 0.294359 0.618628
O O7 0.150246 0.259159 0.041537
O O8 0.319820 0.189195 0.320296
O O9 0.792205 0.007424 0.512188
O O10 0.000000 0.000000 0.000000
#
# Coordination Sequence:
#
# PCOD9056793 Si02
#       4
#     2   2   2   2
#     4  12  25  40  69 100 130 172 230 276 321 391
#     4  12  25  45  66  98 141 177 217 270 338 403
#     4  11  23  41  68  96 132 179 218 272 336 388
#     4  11  22  40  69  99 134 166 227 283 327 380
#
# _framework density 23.582827000000002
#
# number of rings (size 3 to 8) (size 9 to 14) (size 15 to 20)
#    0.000    0.500    5.000    3.750    3.500    0.000 
#    0.000    2.500    0.000    0.000    0.000    0.000 
#    0.000    0.000    0.000    0.000    0.000    0.000 
#
# Total GULP energy -44594.489010 kJ/mol
# GULP energy per Si atom -5574.311126 kJ/mol
# Density = 2.352915 g / cm^3
# Si number density = 23.582827 Si / 1000 Ang^3
#
#
#
# Elastic Constant Matrix: (Units=GPa)
#
#
# Indices 1 2 3 4 5 6 
#
# 1 19.7971 37.5877 36.2379 -7.8768 -6.3959 -9.5423
# 2 37.5877 167.4499 90.3155 -34.7437 -4.8503 2.3219
# 3 36.2379 90.3155 248.9348 -42.7285 -8.6179 4.1329
# 4 -7.8768 -34.7437 -42.7285 70.9534 -11.9609 -11.9575
# 5 -6.3959 -4.8503 -8.6179 -11.9609 42.2022 -0.7925
# 6 -9.5423 2.3219 4.1329 -11.9575 -0.7925 35.3007
#
#
#
# Elastic Compliance Matrix: (Units=1/GPa)
#
#
# Indices 1 2 3 4 5 6 
#
# 1 0.158767 -0.027507 -0.011601 0.009274 0.022093 0.049722
# 2 -0.027507 0.012595 -0.000328 0.001145 -0.002612 -0.007896
# 3 -0.011601 -0.000328 0.006166 0.001695 -0.000118 -0.003265
# 4 0.009274 0.001145 0.001695 0.019500 0.007579 0.009009
# 5 0.022093 -0.002612 -0.000118 0.007579 0.029044 0.009377
# 6 0.049722 -0.007896 -0.003265 0.009009 0.009377 0.045932
#
#
# Mechanical properties :
#
#
# Convention : Reuss Voigt Hill
#
# Bulk Modulus (GPa) = 10.13627 84.94044 47.53836
# Shear Modulus (GPa) = 13.02894 47.82730 30.42812
#
# Velocity S-wave (km/s) = 2.35303 4.50828 3.59592
# Velocity P-wave (km/s) = 3.41904 7.94956 6.11904
#
# Compressibility (1/GPa) = 0.09865563
#
# Stress axis : x y z
#
# Youngs Moduli (GPa) = 6.29854 79.39792 162.18162
#
# Poissons Ratio (x) = 2.18398 1.88149
# Poissons Ratio (y) = 0.17325 0.05321
# Poissons Ratio (z) = 0.07307 0.02605
#
# Static dielectric constant tensor:
#      x y z
#    x 2.098060 0.183030 -0.037760 
#    y 0.183030 2.160290 -0.102460 
#    z -0.037760 -0.102460 1.966470 
# 
# From -- ./inp_files/40700.got.cif
#   From: 2010.05.17/outbox.cif.g08.bks.cpg/sg2_21_cif.got.tgz:40700.got - 2010.06.03 11:33:40.
