data_PCOD9056267
_publ_section_title
;
Structure prediction by ZEFSAII (Michael W. Deem and Ramdas Pophale) SiO2 
 PCOD9056267
Probable space group: P -1
;
_chemical_formula_sum "Si O2"
_cell_formula_units_Z 16
_cell_length_a 9.801698
_cell_length_b 9.700370
_cell_length_c 15.453833
_cell_angle_alpha 60.568590
_cell_angle_beta 48.956505
_cell_angle_gamma 40.094193
_cell_volume 713.552283
_symmetry_space_group_name_H-M "P -1"
_symmetry_group_IT_number 2
_symmetry_cell_setting 'triclinic'
loop_
_space_group_symop_operation_xyz
x,y,z
-x,-y,-z
loop_
_atom_site_type_symbol
_atom_site_label
_atom_site_fract_x
_atom_site_fract_y
_atom_site_fract_z
Si Si1 0.313646 0.029337 0.135894
Si Si2 0.592689 0.902926 0.235718
Si Si3 0.925091 0.100415 0.828609
Si Si4 0.895558 0.527911 0.904879
Si Si5 0.191591 0.589358 0.349756
Si Si6 0.323976 0.137667 0.447178
Si Si7 0.578673 0.263077 0.078026
Si Si8 0.675863 0.400970 0.156109
O O1 0.098611 0.285664 0.145613
O O2 0.425678 0.952598 0.208045
O O3 0.248794 0.901923 0.160509
O O4 0.500000 0.000000 0.000000
O O5 0.852789 0.670078 0.182608
O O6 0.454116 0.975213 0.362146
O O7 0.644983 0.058380 0.156414
O O8 0.936895 0.264692 0.729399
O O9 0.800819 0.176323 0.949868
O O10 0.154585 0.847702 0.813456
O O11 0.668175 0.626844 0.905387
O O12 0.826142 0.466807 0.039465
O O13 0.279562 0.353881 0.383966
O O14 0.552223 0.411354 0.115122
O O15 0.446499 0.533862 0.276091
O O16 0.959977 0.749580 0.459845
O O17 0.500000 0.000000 0.500000
#
# Coordination Sequence:
#
# PCOD9056267 Si02
#       8
#     2   2   2   2   2   2   2   2
#     4  11  22  43  61  98 138 176 219 262 318 401
#     4  11  24  42  66  98 132 176 218 268 328 394
#     4  12  24  40  63  97 140 171 214 268 327 400
#     4  11  23  36  66  94 139 177 208 263 337 385
#     4  11  25  42  68  94 129 171 218 272 334 381
#     4  11  26  46  68  94 130 172 225 276 324 390
#     4  11  22  37  59 102 138 164 206 271 337 404
#     4  12  22  35  62 101 134 170 212 265 333 397
#
# _framework density 22.423024000000002
#
# number of rings (size 3 to 8) (size 9 to 14) (size 15 to 20)
#    0.000    0.750    6.250    1.500    1.750    4.000 
#    0.000    0.625    0.000    2.250    0.000    0.000 
#    0.000    0.000    0.000    0.000    0.000    0.000 
#
# Total GULP energy -89334.248761 kJ/mol
# GULP energy per Si atom -5583.390548 kJ/mol
# Density = 2.237199 g / cm^3
# Si number density = 22.423024 Si / 1000 Ang^3
#
#
#
# Elastic Constant Matrix: (Units=GPa)
#
#
# Indices 1 2 3 4 5 6 
#
# 1 63.3792 -0.1047 16.5852 2.3998 15.9026 -3.8706
# 2 -0.1047 145.4245 54.1281 14.7749 -10.9152 -10.4645
# 3 16.5852 54.1281 135.7282 30.5549 3.3131 -13.8276
# 4 2.3998 14.7749 30.5549 45.8168 -4.2754 -6.6023
# 5 15.9026 -10.9152 3.3131 -4.2754 27.1950 -1.6819
# 6 -3.8706 -10.4645 -13.8276 -6.6023 -1.6819 35.5439
#
#
#
# Elastic Compliance Matrix: (Units=1/GPa)
#
#
# Indices 1 2 3 4 5 6 
#
# 1 0.019089 -0.000009 -0.001830 -0.000701 -0.011010 0.000713
# 2 -0.000009 0.008517 -0.003364 0.000065 0.003930 0.001396
# 3 -0.001830 -0.003364 0.010463 -0.005772 -0.002357 0.001697
# 4 -0.000701 0.000065 -0.005772 0.026623 0.005505 0.002903
# 5 -0.011010 0.003930 -0.002357 0.005505 0.046078 0.002244
# 6 0.000713 0.001396 0.001697 0.002903 0.002244 0.029928
#
#
# Mechanical properties :
#
#
# Convention : Reuss Voigt Hill
#
# Bulk Modulus (GPa) = 36.14819 53.97214 45.06017
# Shear Modulus (GPa) = 31.18641 39.97269 35.57955
#
# Velocity S-wave (km/s) = 3.73342 4.22674 3.98771
# Velocity P-wave (km/s) = 5.89411 6.92406 6.42974
#
# Compressibility (1/GPa) = 0.02766390
#
# Stress axis : x y z
#
# Youngs Moduli (GPa) = 52.38515 117.40751 95.57798
#
# Poissons Ratio (x) = 0.00106 0.17488
# Poissons Ratio (y) = 0.00047 0.32152
# Poissons Ratio (z) = 0.09585 0.39496
#
# Static dielectric constant tensor:
#      x y z
#    x 1.890490 -0.032550 -0.025780 
#    y -0.032550 2.170030 -0.053120 
#    z -0.025780 -0.053120 1.900620 
# 
# From -- ./inp_files/113413.got.cif
#   From: 2010.05.17/outbox.cif.g08.bks.cpg/sg2_57_cif.got.tgz:113413.got - 2010.06.03 11:33:40.
