data_PCOD9056690
_publ_section_title
;
Structure prediction by ZEFSAII (Michael W. Deem and Ramdas Pophale) SiO2 
 PCOD9056690
Probable space group: P -1
;
_chemical_formula_sum "Si O2"
_cell_formula_units_Z 16
_cell_length_a 18.021466
_cell_length_b 9.040882
_cell_length_c 8.811175
_cell_angle_alpha 132.184801
_cell_angle_beta 132.901610
_cell_angle_gamma 60.767995
_cell_volume 777.938589
_symmetry_space_group_name_H-M "P -1"
_symmetry_group_IT_number 2
_symmetry_cell_setting 'triclinic'
loop_
_space_group_symop_operation_xyz
x,y,z
-x,-y,-z
loop_
_atom_site_type_symbol
_atom_site_label
_atom_site_fract_x
_atom_site_fract_y
_atom_site_fract_z
Si Si1 0.295044 0.262076 0.859261
Si Si2 0.109696 0.535859 0.110939
Si Si3 0.890804 0.468333 0.257231
Si Si4 0.253505 0.821783 0.987709
Si Si5 0.715673 0.729742 0.657765
Si Si6 0.392395 0.463642 0.895686
Si Si7 0.392267 0.476615 0.409657
Si Si8 0.261881 0.825453 0.635560
O O1 0.190341 0.345946 0.695305
O O2 0.387265 0.285839 0.887176
O O3 0.283632 0.043978 0.757452
O O4 0.317916 0.419437 0.131608
O O5 0.188511 0.367421 0.181149
O O6 0.157351 0.741544 0.371017
O O7 0.102084 0.539364 0.920796
O O8 0.000000 0.500000 0.000000
O O9 0.841750 0.277597 0.135736
O O10 0.000000 0.500000 0.500000
O O11 0.348501 0.668197 0.052335
O O12 0.253339 0.830648 0.809547
O O13 0.266680 0.046901 0.212402
O O14 0.687702 0.595199 0.384269
O O15 0.618109 0.709052 0.617522
O O16 0.500000 0.500000 0.000000
O O17 0.500000 0.500000 0.500000
O O18 0.348024 0.668965 0.575533
#
# Coordination Sequence:
#
# PCOD9056690 Si02
#       8
#     2   2   2   2   2   2   2   2
#     4  11  24  41  66  96 132 167 216 267 318 380
#     4  11  23  43  69  95 128 169 214 262 320 387
#     4  11  24  43  66  98 130 165 211 269 323 379
#     4  11  23  42  69  92 134 169 211 267 320 378
#     4  11  23  44  65  95 130 170 217 263 318 381
#     4  11  25  42  64  96 133 170 212 266 324 375
#     4  11  22  40  66  95 127 167 218 264 309 378
#     4  11  22  43  67  95 128 173 214 262 321 380
#
# _framework density 20.567174999999999
#
# number of rings (size 3 to 8) (size 9 to 14) (size 15 to 20)
#    0.000    1.000    6.250    1.500    3.500    3.000 
#    0.000    3.750    0.000    0.000    0.000    0.000 
#    0.000    0.000    0.000    0.000    0.000    0.000 
#
# Total GULP energy -89279.744070 kJ/mol
# GULP energy per Si atom -5579.984004 kJ/mol
# Density = 2.052036 g / cm^3
# Si number density = 20.567175 Si / 1000 Ang^3
#
#
#
# Elastic Constant Matrix: (Units=GPa)
#
#
# Indices 1 2 3 4 5 6 
#
# 1 148.3023 49.9529 38.2489 13.2301 31.2866 28.0669
# 2 49.9529 114.1561 54.7674 30.5332 17.4529 28.7149
# 3 38.2489 54.7674 81.7325 11.9042 15.2668 -3.4056
# 4 13.2301 30.5332 11.9042 33.8440 9.4562 5.5708
# 5 31.2866 17.4529 15.2668 9.4562 36.3677 0.6300
# 6 28.0669 28.7149 -3.4056 5.5708 0.6300 37.3656
#
#
#
# Elastic Compliance Matrix: (Units=1/GPa)
#
#
# Indices 1 2 3 4 5 6 
#
# 1 0.011069 0.000938 -0.004764 0.000245 -0.007874 -0.009373
# 2 0.000938 0.024091 -0.015011 -0.013108 -0.002336 -0.018593
# 3 -0.004764 -0.015011 0.024707 0.004072 -0.000419 0.016766
# 4 0.000245 -0.013108 0.004072 0.040914 -0.006342 0.004267
# 5 -0.007874 -0.002336 -0.000419 -0.006342 0.037078 0.007992
# 6 -0.009373 -0.018593 0.016766 0.004267 0.007992 0.048848
#
#
# Mechanical properties :
#
#
# Convention : Reuss Voigt Hill
#
# Bulk Modulus (GPa) = 45.06005 70.01436 57.53720
# Shear Modulus (GPa) = 21.57215 34.93026 28.25121
#
# Velocity S-wave (km/s) = 3.24213 4.12558 3.71024
# Velocity P-wave (km/s) = 5.99762 7.53721 6.81106
#
# Compressibility (1/GPa) = 0.02219261
#
# Stress axis : x y z
#
# Youngs Moduli (GPa) = 90.34310 41.50886 40.47454
#
# Poissons Ratio (x) = -0.03893 0.19282
# Poissons Ratio (y) = -0.08473 0.60757
# Poissons Ratio (z) = 0.43039 0.62310
#
# Static dielectric constant tensor:
#      x y z
#    x 1.777700 0.023830 -0.030050 
#    y 0.023830 1.793930 -0.046470 
#    z -0.030050 -0.046470 1.752270 
# 
# From -- ./inp_files/206158.got.cif
#   From: 2010.05.17/outbox.cif.g08.bks.cpg/sg2_104_cif.got.tgz:206158.got - 2010.06.03 11:33:40.
