data_PCOD9056809
_publ_section_title
;
Structure prediction by ZEFSAII (Michael W. Deem and Ramdas Pophale) SiO2 
 PCOD9056809
Probable space group: P -1
;
_chemical_formula_sum "Si O2"
_cell_formula_units_Z 14
_cell_length_a 6.041874
_cell_length_b 22.862567
_cell_length_c 12.306334
_cell_angle_alpha 29.559825
_cell_angle_beta 117.993544
_cell_angle_gamma 129.488243
_cell_volume 631.345579
_symmetry_space_group_name_H-M "P -1"
_symmetry_group_IT_number 2
_symmetry_cell_setting 'triclinic'
loop_
_space_group_symop_operation_xyz
x,y,z
-x,-y,-z
loop_
_atom_site_type_symbol
_atom_site_label
_atom_site_fract_x
_atom_site_fract_y
_atom_site_fract_z
Si Si1 0.221329 0.580677 0.087998
Si Si2 0.394236 0.104384 0.339440
Si Si3 0.580810 0.857130 0.039627
Si Si4 0.273858 0.018051 0.682549
Si Si5 0.791062 0.868182 0.311283
Si Si6 0.734616 0.581611 0.827354
Si Si7 0.742898 0.452691 0.612995
O O1 0.342286 0.502465 0.168743
O O2 0.097487 0.511747 0.288694
O O3 0.445323 0.739379 0.915894
O O4 0.011274 0.592912 0.933852
O O5 0.061901 0.034637 0.335817
O O6 0.500000 0.000000 0.500000
O O7 0.433240 0.115340 0.460285
O O8 0.634484 0.844762 0.198385
O O9 0.473080 0.710507 0.198000
O O10 0.331846 0.893474 0.902024
O O11 0.884310 0.992568 0.849281
O O12 0.374036 0.098985 0.687001
O O13 0.794581 0.733465 0.568519
O O14 0.500000 0.500000 0.000000
O O15 0.500000 0.500000 0.500000
O O16 0.000000 0.500000 0.500000
#
# Coordination Sequence:
#
# PCOD9056809 Si02
#       7
#     2   2   2   2   2   2   2
#     4  11  25  44  69 101 145 191 251 308 383 446
#     4  11  23  41  68 102 140 183 243 308 375 447
#     4  11  26  45  72 104 146 193 246 308 374 449
#     4  11  22  40  70 103 138 184 240 305 372 445
#     4  11  24  45  69 102 145 187 252 304 377 447
#     4  11  25  44  72 104 144 196 250 316 379 451
#     4  12  30  51  78 110 156 202 255 314 381 459
#
# _framework density 22.174859000000001
#
# number of rings (size 3 to 8) (size 9 to 14) (size 15 to 20)
#    0.000    0.857    0.000    6.429    8.000    3.429 
#    0.000    0.000    0.000    0.000    0.000    0.000 
#    0.000    0.000    0.000    0.000    0.000    0.000 
#
# Total GULP energy -78112.095242 kJ/mol
# GULP energy per Si atom -5579.435374 kJ/mol
# Density = 2.212439 g / cm^3
# Si number density = 22.174859 Si / 1000 Ang^3
#
#
#
# Elastic Constant Matrix: (Units=GPa)
#
#
# Indices 1 2 3 4 5 6 
#
# 1 97.8616 43.7139 59.8234 -0.6832 4.0047 -21.1745
# 2 43.7139 120.2328 57.1847 11.7244 -14.0046 -38.4725
# 3 59.8234 57.1847 137.1830 1.1171 4.8038 -21.4743
# 4 -0.6832 11.7244 1.1171 52.0627 -8.5748 -4.9490
# 5 4.0047 -14.0046 4.8038 -8.5748 43.8566 9.0498
# 6 -21.1745 -38.4725 -21.4743 -4.9490 9.0498 46.0416
#
#
#
# Elastic Compliance Matrix: (Units=1/GPa)
#
#
# Indices 1 2 3 4 5 6 
#
# 1 0.015148 -0.002453 -0.005037 0.000806 -0.002090 0.003065
# 2 -0.002453 0.014071 -0.003614 -0.001843 0.003073 0.008142
# 3 -0.005037 -0.003614 0.011095 0.000217 -0.001916 0.000239
# 4 0.000806 -0.001843 0.000217 0.020195 0.003163 0.000481
# 5 -0.002090 0.003073 -0.001916 0.003163 0.025624 -0.003984
# 6 0.003065 0.008142 0.000239 0.000481 -0.003984 0.030878
#
#
# Mechanical properties :
#
#
# Convention : Reuss Voigt Hill
#
# Bulk Modulus (GPa) = 55.22943 75.19130 65.21036
# Shear Modulus (GPa) = 34.42260 41.36253 37.89257
#
# Velocity S-wave (km/s) = 3.94423 4.32359 4.13826
# Velocity P-wave (km/s) = 6.76040 7.67506 7.23220
#
# Compressibility (1/GPa) = 0.01810629
#
# Stress axis : x y z
#
# Youngs Moduli (GPa) = 66.01745 71.06961 90.13049
#
# Poissons Ratio (x) = 0.17434 0.45396
# Poissons Ratio (y) = 0.16195 0.32570
# Poissons Ratio (z) = 0.33251 0.25682
#
# Static dielectric constant tensor:
#      x y z
#    x 1.922830 -0.049420 -0.009550 
#    y -0.049420 1.743310 0.078710 
#    z -0.009550 0.078710 1.771730 
# 
# From -- ./inp_files/68907.got.cif
#   From: 2010.05.17/outbox.cif.g08.bks.cpg/sg2_35_cif.got.tgz:68907.got - 2010.06.03 11:33:40.
