data_PCOD9056369
_publ_section_title
;
Structure prediction by ZEFSAII (Michael W. Deem and Ramdas Pophale) SiO2 
 PCOD9056369
Probable space group: P -1
;
_chemical_formula_sum "Si O2"
_cell_formula_units_Z 12
_cell_length_a 11.312606
_cell_length_b 12.040185
_cell_length_c 6.925093
_cell_angle_alpha 111.966721
_cell_angle_beta 79.096286
_cell_angle_gamma 52.103938
_cell_volume 566.012419
_symmetry_space_group_name_H-M "P -1"
_symmetry_group_IT_number 2
_symmetry_cell_setting 'triclinic'
loop_
_space_group_symop_operation_xyz
x,y,z
-x,-y,-z
loop_
_atom_site_type_symbol
_atom_site_label
_atom_site_fract_x
_atom_site_fract_y
_atom_site_fract_z
Si Si1 0.787660 0.070785 0.137546
Si Si2 0.223117 0.309923 0.810945
Si Si3 0.528028 0.044512 0.226740
Si Si4 0.354030 0.470474 0.998058
Si Si5 0.076855 0.880105 0.206934
Si Si6 0.615364 0.402327 0.594309
O O1 0.825167 0.086631 0.921001
O O2 0.948003 0.900793 0.112091
O O3 0.614782 0.113014 0.224508
O O4 0.784686 0.202173 0.335073
O O5 0.334418 0.196607 0.502736
O O6 0.315655 0.144827 0.822814
O O7 0.298746 0.380386 0.904436
O O8 0.000000 0.500000 0.000000
O O9 0.500000 0.000000 0.000000
O O10 0.213719 0.675504 0.102455
O O11 0.367651 0.485202 0.231127
O O12 0.532509 0.374661 0.761670
O O13 0.000000 0.000000 0.500000
O O14 0.500000 0.500000 0.500000
#
# Coordination Sequence:
#
# PCOD9056369 Si02
#       6
#     2   2   2   2   2   2
#     4  11  23  42  65  95 134 167 221 271 338 409
#     4  11  26  48  69 102 140 185 236 286 334 407
#     4  11  27  47  71  98 139 192 233 282 338 408
#     4  11  23  39  68  95 131 171 217 272 339 403
#     4  11  23  40  66 102 132 167 210 284 347 399
#     4  11  22  38  63  98 126 167 210 272 335 400
#
# _framework density 21.200949000000001
#
# number of rings (size 3 to 8) (size 9 to 14) (size 15 to 20)
#    0.000    1.000    5.000    1.000    2.333    4.667 
#    0.000    0.000    0.000    0.000    0.000    0.000 
#    0.000    0.000    0.000    0.000    0.000    0.000 
#
# Total GULP energy -66811.638306 kJ/mol
# GULP energy per Si atom -5567.636526 kJ/mol
# Density = 2.115269 g / cm^3
# Si number density = 21.200949 Si / 1000 Ang^3
#
#
#
# Elastic Constant Matrix: (Units=GPa)
#
#
# Indices 1 2 3 4 5 6 
#
# 1 83.1004 19.2055 47.8750 -2.3397 14.8632 3.9312
# 2 19.2055 92.3307 46.0141 -4.7334 -0.5329 -7.7635
# 3 47.8750 46.0141 168.8557 -12.7204 10.9239 -4.3369
# 4 -2.3397 -4.7334 -12.7204 36.7983 -9.1341 1.7829
# 5 14.8632 -0.5329 10.9239 -9.1341 35.1744 -1.2721
# 6 3.9312 -7.7635 -4.3369 1.7829 -1.2721 27.1477
#
#
#
# Elastic Compliance Matrix: (Units=1/GPa)
#
#
# Indices 1 2 3 4 5 6 
#
# 1 0.015892 -0.001826 -0.003845 -0.001912 -0.006176 -0.003602
# 2 -0.001826 0.013083 -0.003035 0.000910 0.002278 0.003568
# 3 -0.003845 -0.003035 0.008036 0.002013 -0.000364 0.000824
# 4 -0.001912 0.000910 0.002013 0.029869 0.007927 -0.000731
# 5 -0.006176 0.002278 -0.000364 0.007927 0.033337 0.002529
# 6 -0.003602 0.003568 0.000824 -0.000731 0.002529 0.038675
#
#
# Mechanical properties :
#
#
# Convention : Reuss Voigt Hill
#
# Bulk Modulus (GPa) = 51.02303 63.38621 57.20462
# Shear Modulus (GPa) = 30.70571 35.23688 32.97130
#
# Velocity S-wave (km/s) = 3.80981 4.08124 3.94786
# Velocity P-wave (km/s) = 6.59329 7.22298 6.91530
#
# Compressibility (1/GPa) = 0.01959899
#
# Stress axis : x y z
#
# Youngs Moduli (GPa) = 62.92473 76.43789 124.44441
#
# Poissons Ratio (x) = 0.13956 0.47852
# Poissons Ratio (y) = 0.11489 0.37763
# Poissons Ratio (z) = 0.24196 0.23195
#
# Static dielectric constant tensor:
#      x y z
#    x 1.796450 -0.132720 -0.018920 
#    y -0.132720 2.141570 0.083210 
#    z -0.018920 0.083210 1.835570 
# 
# From -- ./inp_files/71749.got.cif
#   From: 2010.05.17/outbox.cif.g08.bks.cpg/sg2_36_cif.got.tgz:71749.got - 2010.06.03 11:33:40.
