data_PCOD9056761
_publ_section_title
;
Structure prediction by ZEFSAII (Michael W. Deem and Ramdas Pophale) SiO2 
 PCOD9056761
Probable space group: P -1
;
_chemical_formula_sum "Si O2"
_cell_formula_units_Z 16
_cell_length_a 9.806876
_cell_length_b 16.997553
_cell_length_c 11.646762
_cell_angle_alpha 147.890247
_cell_angle_beta 129.492986
_cell_angle_gamma 46.916966
_cell_volume 745.415454
_symmetry_space_group_name_H-M "P -1"
_symmetry_group_IT_number 2
_symmetry_cell_setting 'triclinic'
loop_
_space_group_symop_operation_xyz
x,y,z
-x,-y,-z
loop_
_atom_site_type_symbol
_atom_site_label
_atom_site_fract_x
_atom_site_fract_y
_atom_site_fract_z
Si Si1 0.066268 0.586364 0.480648
Si Si2 0.421099 0.872540 0.851594
Si Si3 0.016757 0.928374 0.796191
Si Si4 0.064580 0.168049 0.717705
Si Si5 0.698033 0.634848 0.866980
Si Si6 0.855788 0.129143 0.756309
Si Si7 0.740082 0.459863 0.221718
Si Si8 0.636125 0.363459 0.649700
O O1 0.876766 0.547813 0.354287
O O2 0.025065 0.750829 0.595823
O O3 0.197915 0.455882 0.303456
O O4 0.171046 0.590037 0.663005
O O5 0.203932 0.938845 0.851852
O O6 0.526666 0.782837 0.910471
O O7 0.438740 0.742515 0.603821
O O8 0.500000 0.000000 0.000000
O O9 0.860192 0.033850 0.757257
O O10 0.000000 0.000000 0.000000
O O11 0.043363 0.142283 0.810561
O O12 0.847534 0.255286 0.667585
O O13 0.172838 0.997410 0.507351
O O14 0.167582 0.291101 0.903592
O O15 0.644741 0.512519 0.766023
O O16 0.751672 0.309605 0.963610
O O17 0.522804 0.570682 0.257182
#
# Coordination Sequence:
#
# PCOD9056761 Si02
#       8
#     2   2   2   2   2   2   2   2
#     4  11  22  40  69 100 136 175 225 287 348 401
#     4  12  26  40  69 108 139 179 236 288 339 412
#     4  12  24  41  69 103 139 178 227 290 347 398
#     4  11  25  45  74  95 140 194 230 273 342 430
#     4  12  23  45  71 102 133 182 234 286 341 407
#     4  11  23  44  69  93 138 184 228 272 345 413
#     4  11  24  41  69 101 135 179 225 292 341 402
#     4  12  25  44  71 102 137 179 237 284 343 405
#
# _framework density 21.46454
#
# number of rings (size 3 to 8) (size 9 to 14) (size 15 to 20)
#    0.000    0.500    6.250    2.250    3.500    0.500 
#    0.000    0.625    0.000    0.000    0.000    0.000 
#    0.000    0.000    0.000    0.000    0.000    0.000 
#
# Total GULP energy -89332.330236 kJ/mol
# GULP energy per Si atom -5583.270640 kJ/mol
# Density = 2.141569 g / cm^3
# Si number density = 21.464540 Si / 1000 Ang^3
#
#
#
# Elastic Constant Matrix: (Units=GPa)
#
#
# Indices 1 2 3 4 5 6 
#
# 1 87.8369 15.6305 41.7396 6.3400 4.0861 8.8398
# 2 15.6305 84.9127 29.8685 -4.8145 24.4054 12.3511
# 3 41.7396 29.8685 127.2618 19.4088 8.0444 -11.1118
# 4 6.3400 -4.8145 19.4088 18.0034 10.8690 4.4296
# 5 4.0861 24.4054 8.0444 10.8690 49.4894 13.7132
# 6 8.8398 12.3511 -11.1118 4.4296 13.7132 36.3635
#
#
#
# Elastic Compliance Matrix: (Units=1/GPa)
#
#
# Indices 1 2 3 4 5 6 
#
# 1 0.014442 -0.000038 -0.005557 0.001743 0.000944 -0.005764
# 2 -0.000038 0.020627 -0.008390 0.023657 -0.011784 -0.007998
# 3 -0.005557 -0.008390 0.015649 -0.022129 0.004106 0.010130
# 4 0.001743 0.023657 -0.022129 0.105487 -0.026356 -0.018131
# 5 0.000944 -0.011784 0.004106 -0.026356 0.032136 -0.003881
# 6 -0.005764 -0.007998 0.010130 -0.018131 -0.003881 0.038386
#
#
# Mechanical properties :
#
#
# Convention : Reuss Voigt Hill
#
# Bulk Modulus (GPa) = 43.95785 52.72096 48.33940
# Shear Modulus (GPa) = 19.06364 34.95611 27.00988
#
# Velocity S-wave (km/s) = 2.98341 4.03991 3.55117
# Velocity P-wave (km/s) = 5.69134 6.81002 6.27566
#
# Compressibility (1/GPa) = 0.02274907
#
# Stress axis : x y z
#
# Youngs Moduli (GPa) = 69.24047 48.48067 63.90074
#
# Poissons Ratio (x) = 0.00184 0.35508
# Poissons Ratio (y) = 0.00263 0.53613
# Poissons Ratio (z) = 0.38475 0.40675
#
# Static dielectric constant tensor:
#      x y z
#    x 1.809290 -0.142480 -0.079920 
#    y -0.142480 1.330600 0.108340 
#    z -0.079920 0.108340 1.853470 
# 
# From -- ./inp_files/403621.got.cif
#   From: 2010.05.17/outbox.cif.g08.bks.cpg/sg2_202_cif.got.tgz:403621.got - 2010.06.03 11:33:40.
