data_PCOD9056813
_publ_section_title
;
Structure prediction by ZEFSAII (Michael W. Deem and Ramdas Pophale) SiO2 
 PCOD9056813
Probable space group: P -1
;
_chemical_formula_sum "Si O2"
_cell_formula_units_Z 14
_cell_length_a 19.912394
_cell_length_b 9.535968
_cell_length_c 13.266663
_cell_angle_alpha 137.022862
_cell_angle_beta 152.703544
_cell_angle_gamma 36.219014
_cell_volume 681.606143
_symmetry_space_group_name_H-M "P -1"
_symmetry_group_IT_number 2
_symmetry_cell_setting 'triclinic'
loop_
_space_group_symop_operation_xyz
x,y,z
-x,-y,-z
loop_
_atom_site_type_symbol
_atom_site_label
_atom_site_fract_x
_atom_site_fract_y
_atom_site_fract_z
Si Si1 0.068508 0.041153 0.719080
Si Si2 0.818347 0.227788 0.854315
Si Si3 0.311088 0.257904 0.131303
Si Si4 0.389953 0.598884 0.005704
Si Si5 0.506274 0.645730 0.388896
Si Si6 0.228301 0.865308 0.484443
Si Si7 0.597641 0.876258 0.165939
O O1 0.910432 0.146849 0.638929
O O2 0.209131 0.802689 0.834751
O O3 0.166101 0.187948 0.913043
O O4 0.000000 0.000000 0.500000
O O5 0.773360 0.502319 0.924171
O O6 0.679556 0.234727 0.748459
O O7 0.785394 0.178234 0.672104
O O8 0.000000 0.000000 0.000000
O O9 0.379274 0.294117 0.350835
O O10 0.475400 0.047160 0.182704
O O11 0.371900 0.384170 0.914337
O O12 0.500000 0.500000 0.000000
O O13 0.476385 0.690312 0.252140
O O14 0.595883 0.360736 0.366622
O O15 0.233686 0.107512 0.617566
O O16 0.500000 0.000000 0.000000
#
# Coordination Sequence:
#
# PCOD9056813 Si02
#       7
#     2   2   2   2   2   2   2
#     4  12  27  45  64 103 151 181 230 293 353 412
#     4  11  22  40  70 105 136 174 237 291 338 418
#     4  11  23  45  70  99 140 192 227 284 360 406
#     4  12  25  43  71 106 139 184 235 289 348 420
#     4  11  22  44  70 100 136 182 236 286 343 420
#     4  11  22  41  68  96 138 181 229 286 340 410
#     4  12  21  42  75  99 132 188 234 277 349 410
#
# _framework density 20.539719999999999
#
# number of rings (size 3 to 8) (size 9 to 14) (size 15 to 20)
#    0.000    0.571    5.714    3.429    0.000    4.571 
#    0.000    0.000    0.000    0.000    0.000    0.000 
#    0.000    0.000    0.000    0.000    0.000    0.000 
#
# Total GULP energy -78049.068115 kJ/mol
# GULP energy per Si atom -5574.933437 kJ/mol
# Density = 2.049297 g / cm^3
# Si number density = 20.539720 Si / 1000 Ang^3
#
#
#
# Elastic Constant Matrix: (Units=GPa)
#
#
# Indices 1 2 3 4 5 6 
#
# 1 106.8127 0.3092 50.9096 5.4905 -4.6746 -10.8635
# 2 0.3092 83.0374 43.1671 -12.2578 -0.2546 12.0907
# 3 50.9096 43.1671 116.5211 3.8049 -2.7575 2.7234
# 4 5.4905 -12.2578 3.8049 45.5662 5.3633 6.6637
# 5 -4.6746 -0.2546 -2.7575 5.3633 49.8374 0.3370
# 6 -10.8635 12.0907 2.7234 6.6637 0.3370 36.0514
#
#
#
# Elastic Compliance Matrix: (Units=1/GPa)
#
#
# Indices 1 2 3 4 5 6 
#
# 1 0.013041 0.002811 -0.006773 -0.000894 0.000934 0.003655
# 2 0.002811 0.017867 -0.007929 0.006039 -0.000695 -0.005656
# 3 -0.006773 -0.007929 0.014573 -0.002580 0.000408 -0.000010
# 4 -0.000894 0.006039 -0.002580 0.025216 -0.002864 -0.006734
# 5 0.000934 -0.000695 0.000408 -0.002864 0.020475 0.000822
# 6 0.003655 -0.005656 -0.000010 -0.006734 0.000822 0.031974
#
#
# Mechanical properties :
#
#
# Convention : Reuss Voigt Hill
#
# Bulk Modulus (GPa) = 46.08495 55.01590 50.55042
# Shear Modulus (GPa) = 32.43384 40.42333 36.42858
#
# Velocity S-wave (km/s) = 3.97807 4.44109 4.21594
# Velocity P-wave (km/s) = 6.60195 7.28979 6.95438
#
# Compressibility (1/GPa) = 0.02169906
#
# Stress axis : x y z
#
# Youngs Moduli (GPa) = 76.68129 55.96946 68.61994
#
# Poissons Ratio (x) = -0.15735 0.46479
# Poissons Ratio (y) = -0.21557 0.54408
# Poissons Ratio (z) = 0.51939 0.44377
#
# Static dielectric constant tensor:
#      x y z
#    x 1.697240 0.056620 -0.076270 
#    y 0.056620 1.798220 0.082100 
#    z -0.076270 0.082100 1.660300 
# 
# From -- ./inp_files/183394.got.cif
#   From: 2010.05.17/outbox.cif.g08.bks.cpg/sg2_92_cif.got.tgz:183394.got - 2010.06.03 11:33:40.
