data_PCOD9056672
_publ_section_title
;
Structure prediction by ZEFSAII (Michael W. Deem and Ramdas Pophale) SiO2 
 PCOD9056672
Probable space group: P -1
;
_chemical_formula_sum "Si O2"
_cell_formula_units_Z 16
_cell_length_a 24.077889
_cell_length_b 17.802181
_cell_length_c 14.349927
_cell_angle_alpha 149.407608
_cell_angle_beta 160.939315
_cell_angle_gamma 21.581565
_cell_volume 730.415792
_symmetry_space_group_name_H-M "P -1"
_symmetry_group_IT_number 2
_symmetry_cell_setting 'triclinic'
loop_
_space_group_symop_operation_xyz
x,y,z
-x,-y,-z
loop_
_atom_site_type_symbol
_atom_site_label
_atom_site_fract_x
_atom_site_fract_y
_atom_site_fract_z
Si Si1 0.823789 0.140907 0.955172
Si Si2 0.986187 0.661006 0.271230
Si Si3 0.643224 0.520425 0.179309
Si Si4 0.890471 0.211620 0.825557
Si Si5 0.328381 0.001251 0.170129
Si Si6 0.649952 0.622801 0.623025
Si Si7 0.513442 0.566800 0.723722
Si Si8 0.210003 0.979373 0.771345
O O1 0.589153 0.188771 0.610435
O O2 0.735112 0.361536 0.070757
O O3 0.000000 0.000000 0.000000
O O4 0.962159 0.004124 0.119582
O O5 0.131999 0.559261 0.489146
O O6 0.168921 0.530990 0.335819
O O7 0.879347 0.886449 0.320179
O O8 0.778075 0.667957 0.936339
O O9 0.458831 0.762565 0.122610
O O10 0.500000 0.500000 0.000000
O O11 0.779996 0.386086 0.915540
O O12 0.660154 0.301801 0.499488
O O13 0.076154 0.162481 0.994031
O O14 0.500000 0.000000 0.500000
O O15 0.271166 0.062800 0.036627
O O16 0.570299 0.533890 0.466513
O O17 0.442964 0.742594 0.866600
O O18 0.000000 0.000000 0.500000
#
# Coordination Sequence:
#
# PCOD9056672 Si02
#       8
#     2   2   2   2   2   2   2   2
#     4  12  24  42  69  96 131 171 219 268 325 390
#     4  11  24  38  68  98 134 162 218 278 324 374
#     4  12  23  42  68  98 125 172 224 262 316 396
#     4  11  23  41  68  94 133 167 220 266 330 379
#     4  12  27  42  66 100 136 167 213 276 331 378
#     4  11  22  40  65  99 129 170 211 272 334 379
#     4  11  23  41  69  96 127 176 222 265 321 396
#     4  12  22  41  67  97 127 171 226 262 314 392
#
# _framework density 21.905332999999999
#
# number of rings (size 3 to 8) (size 9 to 14) (size 15 to 20)
#    0.000    0.500    6.250    2.250    7.000    0.000 
#    0.000    2.500    0.000    0.000    0.000    0.000 
#    0.000    0.000    0.000    0.000    0.000    0.000 
#
# Total GULP energy -89429.990454 kJ/mol
# GULP energy per Si atom -5589.374403 kJ/mol
# Density = 2.185548 g / cm^3
# Si number density = 21.905333 Si / 1000 Ang^3
#
#
#
# Elastic Constant Matrix: (Units=GPa)
#
#
# Indices 1 2 3 4 5 6 
#
# 1 67.2145 27.1617 18.8867 -5.2033 -11.8592 -17.6437
# 2 27.1617 113.4178 33.1556 -23.7561 12.8676 -29.2473
# 3 18.8867 33.1556 98.9763 -11.7405 -22.7642 -11.5693
# 4 -5.2033 -23.7561 -11.7405 27.4558 1.1621 -9.7630
# 5 -11.8592 12.8676 -22.7642 1.1621 26.9532 -8.6962
# 6 -17.6437 -29.2473 -11.5693 -9.7630 -8.6962 49.9931
#
#
#
# Elastic Compliance Matrix: (Units=1/GPa)
#
#
# Indices 1 2 3 4 5 6 
#
# 1 0.021768 -0.004864 0.002962 0.003744 0.017225 0.009250
# 2 -0.004864 0.019066 -0.005529 0.017026 -0.013711 0.009098
# 3 0.002962 -0.005529 0.017367 0.004571 0.020440 0.006278
# 4 0.003744 0.017026 0.004571 0.062608 0.002761 0.025047
# 5 0.017225 -0.013711 0.020440 0.002761 0.073572 0.016125
# 6 0.009250 0.009098 0.006278 0.025047 0.016125 0.037739
#
#
# Mechanical properties :
#
#
# Convention : Reuss Voigt Hill
#
# Bulk Modulus (GPa) = 23.07307 48.66850 35.87078
# Shear Modulus (GPa) = 19.12570 34.24074 26.68322
#
# Velocity S-wave (km/s) = 2.95804 3.95792 3.49394
# Velocity P-wave (km/s) = 4.71409 6.56908 5.71732
#
# Compressibility (1/GPa) = 0.04334057
#
# Stress axis : x y z
#
# Youngs Moduli (GPa) = 45.93953 52.44926 57.57890
#
# Poissons Ratio (x) = 0.25510 -0.17058
# Poissons Ratio (y) = 0.22344 0.31835
# Poissons Ratio (z) = -0.13610 0.28999
#
# Static dielectric constant tensor:
#      x y z
#    x 1.837120 0.005410 -0.036310 
#    y 0.005410 1.872590 0.010750 
#    z -0.036310 0.010750 1.805200 
# 
# From -- ./inp_files/543183.got.cif
#   From: 2010.05.17/outbox.cif.g08.bks.cpg/sg2_272_cif.got.tgz:543183.got - 2010.06.03 11:33:40.
