data_PCOD9056801
_publ_section_title
;
Structure prediction by ZEFSAII (Michael W. Deem and Ramdas Pophale) SiO2 
 PCOD9056801
Probable space group: P -1
;
_chemical_formula_sum "Si O2"
_cell_formula_units_Z 16
_cell_length_a 14.405863
_cell_length_b 8.890585
_cell_length_c 15.791215
_cell_angle_alpha 151.072434
_cell_angle_beta 135.362967
_cell_angle_gamma 45.316251
_cell_volume 667.842099
_symmetry_space_group_name_H-M "P -1"
_symmetry_group_IT_number 2
_symmetry_cell_setting 'triclinic'
loop_
_space_group_symop_operation_xyz
x,y,z
-x,-y,-z
loop_
_atom_site_type_symbol
_atom_site_label
_atom_site_fract_x
_atom_site_fract_y
_atom_site_fract_z
Si Si1 0.044801 0.830538 0.694793
Si Si2 0.689806 0.627949 0.765982
Si Si3 0.308465 0.664235 0.891818
Si Si4 0.776514 0.563453 0.100022
Si Si5 0.386341 0.258156 0.600960
Si Si6 0.428343 0.812918 0.789157
Si Si7 0.207509 0.783140 0.218143
Si Si8 0.961973 0.236122 0.670624
O O1 0.194382 0.754941 0.790245
O O2 0.000000 0.500000 0.500000
O O3 0.950221 0.057678 0.812479
O O4 0.013072 0.022390 0.681490
O O5 0.538107 0.619267 0.696344
O O6 0.768431 0.521730 0.854162
O O7 0.801989 0.413207 0.668982
O O8 0.660588 0.997019 0.901593
O O9 0.249786 0.525441 0.866082
O O10 0.418441 0.394142 0.780325
O O11 0.934090 0.539555 0.168693
O O12 0.686266 0.916420 0.195802
O O13 0.730173 0.329856 0.887186
O O14 0.364578 0.556107 0.669253
O O15 0.500000 0.000000 0.500000
O O16 0.270944 0.057262 0.436376
O O17 0.500000 0.000000 0.000000
O O18 0.000000 0.000000 0.500000
#
# Coordination Sequence:
#
# PCOD9056801 Si02
#       8
#     2   2   2   2   2   2   2   2
#     4  11  22  40  70 101 138 185 233 292 358 421
#     4  11  24  47  74 101 144 186 241 292 369 419
#     4  12  26  45  70 105 145 190 239 296 356 432
#     4  12  27  46  72 108 147 189 243 298 360 429
#     4  12  23  43  74 102 140 188 241 289 365 432
#     4  12  23  48  75 103 141 190 241 299 360 428
#     4  11  23  43  73 104 136 189 238 293 358 432
#     4  11  26  46  74 109 146 187 245 303 360 430
#
# _framework density 23.957758999999999
#
# number of rings (size 3 to 8) (size 9 to 14) (size 15 to 20)
#    0.000    0.500    5.000    3.000    1.750    5.500 
#    0.000    1.250    0.000    0.000    0.000    0.000 
#    0.000    0.000    0.000    0.000    0.000    0.000 
#
# Total GULP energy -89346.809423 kJ/mol
# GULP energy per Si atom -5584.175589 kJ/mol
# Density = 2.390323 g / cm^3
# Si number density = 23.957759 Si / 1000 Ang^3
#
#
#
# Elastic Constant Matrix: (Units=GPa)
#
#
# Indices 1 2 3 4 5 6 
#
# 1 177.5669 56.0009 41.5658 21.2982 -37.9852 8.1800
# 2 56.0009 75.3654 25.1245 26.6081 -14.3149 10.2838
# 3 41.5658 25.1245 83.2376 21.5160 -27.5426 16.1369
# 4 21.2982 26.6081 21.5160 20.3339 -2.9900 7.7207
# 5 -37.9852 -14.3149 -27.5426 -2.9900 48.8635 14.2129
# 6 8.1800 10.2838 16.1369 7.7207 14.2129 48.8016
#
#
#
# Elastic Compliance Matrix: (Units=1/GPa)
#
#
# Indices 1 2 3 4 5 6 
#
# 1 0.008560 -0.004555 -0.000472 -0.001030 0.005503 -0.001759
# 2 -0.004555 0.030330 0.006600 -0.039291 0.007784 -0.003861
# 3 -0.000472 0.006600 0.025172 -0.028464 0.016941 -0.010066
# 4 -0.001030 -0.039291 -0.028464 0.127028 -0.021778 0.004110
# 5 0.005503 0.007784 0.016941 -0.021778 0.040001 -0.016369
# 6 -0.001759 -0.003861 -0.010066 0.004110 -0.016369 0.029045
#
#
# Mechanical properties :
#
#
# Convention : Reuss Voigt Hill
#
# Bulk Modulus (GPa) = 14.87894 64.61692 39.74793
# Shear Modulus (GPa) = 17.89595 37.83172 27.86383
#
# Velocity S-wave (km/s) = 2.73606 3.97810 3.41404
# Velocity P-wave (km/s) = 4.02558 6.93759 5.67166
#
# Compressibility (1/GPa) = 0.06720907
#
# Stress axis : x y z
#
# Youngs Moduli (GPa) = 116.81828 32.97066 39.72613
#
# Poissons Ratio (x) = 0.15017 0.01875
# Poissons Ratio (y) = 0.53208 -0.26219
# Poissons Ratio (z) = 0.05513 -0.21760
#
# Static dielectric constant tensor:
#      x y z
#    x 1.821710 0.028850 -0.266820 
#    y 0.028850 1.810870 0.250450 
#    z -0.266820 0.250450 1.472410 
# 
# From -- ./inp_files/530308.got.cif
#   From: 2010.05.17/outbox.cif.g08.bks.cpg/sg2_266_cif.got.tgz:530308.got - 2010.06.03 11:33:40.
