data_PCOD9056532
_publ_section_title
;
Structure prediction by ZEFSAII (Michael W. Deem and Ramdas Pophale) SiO2 
 PCOD9056532
Probable space group: P -1
;
_chemical_formula_sum "Si O2"
_cell_formula_units_Z 16
_cell_length_a 9.334959
_cell_length_b 9.121966
_cell_length_c 15.726353
_cell_angle_alpha 130.636567
_cell_angle_beta 69.062028
_cell_angle_gamma 81.420552
_cell_volume 799.534756
_symmetry_space_group_name_H-M "P -1"
_symmetry_group_IT_number 2
_symmetry_cell_setting 'triclinic'
loop_
_space_group_symop_operation_xyz
x,y,z
-x,-y,-z
loop_
_atom_site_type_symbol
_atom_site_label
_atom_site_fract_x
_atom_site_fract_y
_atom_site_fract_z
Si Si1 0.284774 0.816628 0.885915
Si Si2 0.934609 0.735487 0.195272
Si Si3 0.923583 0.603930 0.648233
Si Si4 0.692077 0.671427 0.108098
Si Si5 0.949765 0.240035 0.639236
Si Si6 0.488851 0.983507 0.124250
Si Si7 0.473634 0.459094 0.134204
Si Si8 0.952208 0.070191 0.181174
O O1 0.455115 0.585480 0.800624
O O2 0.216248 0.812966 0.805036
O O3 0.351983 0.992510 0.939267
O O4 0.121980 0.900249 0.019447
O O5 0.931877 0.797316 0.316573
O O6 0.769405 0.710795 0.192587
O O7 0.124468 0.491434 0.046853
O O8 0.934796 0.918454 0.199954
O O9 0.962721 0.404570 0.630675
O O10 0.000000 0.500000 0.500000
O O11 0.008711 0.747753 0.717857
O O12 0.705975 0.784876 0.755933
O O13 0.553830 0.904866 0.176979
O O14 0.587415 0.543297 0.093599
O O15 0.739921 0.367570 0.760889
O O16 0.000000 0.000000 0.500000
O O17 0.483066 0.779518 0.004129
#
# Coordination Sequence:
#
# PCOD9056532 Si02
#       8
#     2   2   2   2   2   2   2   2
#     4  11  22  39  67 101 131 165 217 271 324 374
#     4  11  23  42  62  99 139 169 212 263 332 381
#     4  12  27  45  69  94 129 173 217 269 325 386
#     4  11  24  37  67 101 135 171 209 270 325 381
#     4  12  28  45  67  94 133 173 214 267 327 391
#     4  12  22  43  67 101 128 167 226 269 316 381
#     4  12  23  40  68 100 130 171 220 269 315 382
#     4  11  23  40  66  97 136 171 211 268 325 382
#
# _framework density 20.011638000000001
#
# number of rings (size 3 to 8) (size 9 to 14) (size 15 to 20)
#    0.000    0.500    6.250    2.250    5.250    0.000 
#    0.000    2.500    0.000    0.000    0.000    0.000 
#    0.000    0.000    0.000    0.000    0.000    0.000 
#
# Total GULP energy -89466.025605 kJ/mol
# GULP energy per Si atom -5591.626600 kJ/mol
# Density = 1.996609 g / cm^3
# Si number density = 20.011638 Si / 1000 Ang^3
#
#
#
# Elastic Constant Matrix: (Units=GPa)
#
#
# Indices 1 2 3 4 5 6 
#
# 1 107.8326 29.2069 20.2659 -9.2590 18.1629 -16.5682
# 2 29.2069 81.5744 14.6854 -3.4691 8.6200 -18.8199
# 3 20.2659 14.6854 68.2683 -1.9952 20.7925 -16.6055
# 4 -9.2590 -3.4691 -1.9952 26.0043 -2.0043 3.2485
# 5 18.1629 8.6200 20.7925 -2.0043 27.6897 -7.9882
# 6 -16.5682 -18.8199 -16.6055 3.2485 -7.9882 41.7546
#
#
#
# Elastic Compliance Matrix: (Units=1/GPa)
#
#
# Indices 1 2 3 4 5 6 
#
# 1 0.011651 -0.002940 -0.000626 0.003063 -0.005530 0.001753
# 2 -0.002940 0.014686 -0.000916 0.000181 -0.000506 0.004977
# 3 -0.000626 -0.000916 0.020196 -0.000416 -0.013086 0.004899
# 4 0.003063 0.000181 -0.000416 0.039815 0.000595 -0.001852
# 5 -0.005530 -0.000506 -0.013086 0.000595 0.050333 0.001956
# 6 0.001753 0.004977 0.004899 -0.001852 0.001956 0.029355
#
#
# Mechanical properties :
#
#
# Convention : Reuss Voigt Hill
#
# Bulk Modulus (GPa) = 26.61783 42.88796 34.75289
# Shear Modulus (GPa) = 26.66311 31.99088 29.32699
#
# Velocity S-wave (km/s) = 3.65414 4.00260 3.83233
# Velocity P-wave (km/s) = 5.57976 6.54516 6.08165
#
# Compressibility (1/GPa) = 0.03756881
#
# Stress axis : x y z
#
# Youngs Moduli (GPa) = 85.82683 68.09285 49.51402
#
# Poissons Ratio (x) = 0.20019 0.03101
# Poissons Ratio (y) = 0.25232 0.04536
# Poissons Ratio (z) = 0.05375 0.06238
#
# Static dielectric constant tensor:
#      x y z
#    x 1.719920 -0.020400 0.003500 
#    y -0.020400 1.750180 -0.016060 
#    z 0.003500 -0.016060 1.678210 
# 
# From -- ./inp_files/186696.got.cif
#   From: 2010.05.17/outbox.cif.g08.bks.cpg/sg2_94_cif.got.tgz:186696.got - 2010.06.03 11:33:40.
