data_PCOD9056373
_publ_section_title
;
Structure prediction by ZEFSAII (Michael W. Deem and Ramdas Pophale) SiO2 
 PCOD9056373
Probable space group: P -1
;
_chemical_formula_sum "Si O2"
_cell_formula_units_Z 14
_cell_length_a 12.795190
_cell_length_b 14.516743
_cell_length_c 7.465827
_cell_angle_alpha 115.117712
_cell_angle_beta 128.899217
_cell_angle_gamma 30.696408
_cell_volume 527.144468
_symmetry_space_group_name_H-M "P -1"
_symmetry_group_IT_number 2
_symmetry_cell_setting 'triclinic'
loop_
_space_group_symop_operation_xyz
x,y,z
-x,-y,-z
loop_
_atom_site_type_symbol
_atom_site_label
_atom_site_fract_x
_atom_site_fract_y
_atom_site_fract_z
Si Si1 0.311964 0.023773 0.335600
Si Si2 0.717500 0.650962 0.288196
Si Si3 0.637725 0.729563 0.884594
Si Si4 0.061104 0.286962 0.958102
Si Si5 0.215106 0.900639 0.326412
Si Si6 0.590193 0.333994 0.014114
Si Si7 0.229492 0.714541 0.454643
O O1 0.540473 0.797770 0.377813
O O2 0.144508 0.063572 0.326795
O O3 0.500000 0.000000 0.500000
O O4 0.122581 0.181825 0.110991
O O5 0.591463 0.781739 0.086516
O O6 0.000000 0.500000 0.500000
O O7 0.661249 0.569276 0.143149
O O8 0.705962 0.795110 0.928304
O O9 0.434133 0.796274 0.614679
O O10 0.867421 0.503159 0.956593
O O11 0.940232 0.277981 0.694259
O O12 0.121164 0.863825 0.316503
O O13 0.263179 0.812791 0.113194
O O14 0.732571 0.253667 0.288730
O O15 0.500000 0.500000 0.000000
O O16 0.500000 0.500000 0.500000
#
# Coordination Sequence:
#
# PCOD9056373 Si02
#       7
#     2   2   2   2   2   2   2
#     4  11  24  45  65 100 143 171 221 290 344 388
#     4  11  25  40  69 102 132 177 235 276 332 410
#     4  11  22  43  72  99 131 178 237 275 331 410
#     4  11  24  40  72  98 134 182 220 283 344 391
#     4  11  23  43  68  96 135 181 224 279 333 405
#     4  11  22  38  64 100 136 171 223 283 328 395
#     4  12  22  41  67  99 133 178 229 273 335 409
#
# _framework density 26.558184000000001
#
# number of rings (size 3 to 8) (size 9 to 14) (size 15 to 20)
#    0.000    0.857    5.714    0.857    8.000    1.143 
#    0.000    2.857    0.000    0.000    0.000    0.000 
#    0.000    0.000    0.000    0.000    0.000    0.000 
#
# Total GULP energy -78036.684542 kJ/mol
# GULP energy per Si atom -5574.048896 kJ/mol
# Density = 2.649774 g / cm^3
# Si number density = 26.558184 Si / 1000 Ang^3
#
#
#
# Elastic Constant Matrix: (Units=GPa)
#
#
# Indices 1 2 3 4 5 6 
#
# 1 148.0303 43.5545 48.5508 22.0315 12.5757 53.4476
# 2 43.5545 109.5408 18.3973 0.3666 8.0022 26.8055
# 3 48.5508 18.3973 133.8114 24.4523 10.7553 11.9484
# 4 22.0315 0.3666 24.4523 33.0695 16.6763 -0.6953
# 5 12.5757 8.0022 10.7553 16.6763 64.7698 5.3994
# 6 53.4476 26.8055 11.9484 -0.6953 5.3994 55.7308
#
#
#
# Elastic Compliance Matrix: (Units=1/GPa)
#
#
# Indices 1 2 3 4 5 6 
#
# 1 0.013370 -0.002191 -0.002129 -0.008091 0.001072 -0.011516
# 2 -0.002191 0.010906 -0.000809 0.002478 -0.001190 -0.002824
# 3 -0.002129 -0.000809 0.009332 -0.005666 0.000396 0.000321
# 4 -0.008091 0.002478 -0.005666 0.045127 -0.010191 0.009333
# 5 0.001072 -0.001190 0.000396 -0.010191 0.018139 -0.002425
# 6 -0.011516 -0.002824 0.000321 0.009333 -0.002425 0.030629
#
#
# Mechanical properties :
#
#
# Convention : Reuss Voigt Hill
#
# Bulk Modulus (GPa) = 42.83022 68.04307 55.43665
# Shear Modulus (GPa) = 34.35397 49.43934 41.89665
#
# Velocity S-wave (km/s) = 3.60048 4.31925 3.97614
# Velocity P-wave (km/s) = 5.78330 7.10989 6.48063
#
# Compressibility (1/GPa) = 0.02334800
#
# Stress axis : x y z
#
# Youngs Moduli (GPa) = 74.79688 91.69227 107.16136
#
# Poissons Ratio (x) = 0.20094 0.22813
# Poissons Ratio (y) = 0.16391 0.08673
# Poissons Ratio (z) = 0.15923 0.07421
#
# Static dielectric constant tensor:
#      x y z
#    x 2.734490 -0.246870 0.078000 
#    y -0.246870 2.215470 0.027910 
#    z 0.078000 0.027910 2.253290 
# 
# From -- ./inp_files/310247.got.cif
#   From: 2010.05.17/outbox.cif.g08.bks.cpg/sg2_156_cif.got.tgz:310247.got - 2010.06.03 11:33:40.
