data_PCOD9056080
_publ_section_title
;
Structure prediction by ZEFSAII (Michael W. Deem and Ramdas Pophale) SiO2 
 PCOD9056080
Probable space group: P -1
;
_chemical_formula_sum "Si O2"
_cell_formula_units_Z 16
_cell_length_a 11.809823
_cell_length_b 11.371843
_cell_length_c 10.160776
_cell_angle_alpha 103.967772
_cell_angle_beta 100.940862
_cell_angle_gamma 142.115053
_cell_volume 626.065391
_symmetry_space_group_name_H-M "P -1"
_symmetry_group_IT_number 2
_symmetry_cell_setting 'triclinic'
loop_
_space_group_symop_operation_xyz
x,y,z
-x,-y,-z
loop_
_atom_site_type_symbol
_atom_site_label
_atom_site_fract_x
_atom_site_fract_y
_atom_site_fract_z
Si Si1 0.132186 0.711290 0.915167
Si Si2 0.225442 0.208273 0.854280
Si Si3 0.182728 0.006213 0.311037
Si Si4 0.243315 0.820572 0.430953
Si Si5 0.386280 0.895742 0.766157
Si Si6 0.647481 0.408431 0.374791
Si Si7 0.622807 0.644401 0.343554
Si Si8 0.121093 0.292565 0.216263
O O1 0.304951 0.892971 0.876048
O O2 0.954193 0.443675 0.754082
O O3 0.974676 0.686204 0.889291
O O4 0.322568 0.842135 0.101744
O O5 0.229641 0.162546 0.692229
O O6 0.500000 0.500000 0.000000
O O7 0.081409 0.200397 0.838412
O O8 0.096847 0.995418 0.865411
O O9 0.364688 0.147377 0.273542
O O10 0.275719 0.214043 0.458180
O O11 0.212715 0.926087 0.397889
O O12 0.256890 0.831533 0.594198
O O13 0.500000 0.000000 0.500000
O O14 0.300996 0.676544 0.692395
O O15 0.674870 0.549127 0.325730
O O16 0.776008 0.551436 0.582761
O O17 0.342811 0.424359 0.233772
#
# Coordination Sequence:
#
# PCOD9056080 Si02
#       8
#     2   2   2   2   2   2   2   2
#     4  11  27  45  70 102 143 191 237 296 353 425
#     4  12  28  41  64 109 142 183 235 289 355 431
#     4  11  23  45  69 103 141 179 238 293 354 428
#     4  12  24  46  71 103 139 188 240 289 358 421
#     4  11  26  45  70 104 135 190 244 287 354 424
#     4  11  21  45  75  97 134 191 236 290 361 424
#     4  11  24  44  73 100 137 187 237 288 362 422
#     4  11  23  47  70 100 144 182 238 293 358 428
#
# _framework density 25.556433999999999
#
# number of rings (size 3 to 8) (size 9 to 14) (size 15 to 20)
#    0.000    0.750    5.000    2.250    5.250    3.000 
#    0.000    0.000    0.000    0.000    0.000    0.000 
#    0.000    0.000    0.000    0.000    0.000    0.000 
#
# Total GULP energy -89611.871362 kJ/mol
# GULP energy per Si atom -5600.741960 kJ/mol
# Density = 2.549827 g / cm^3
# Si number density = 25.556434 Si / 1000 Ang^3
#
#
#
# Elastic Constant Matrix: (Units=GPa)
#
#
# Indices 1 2 3 4 5 6 
#
# 1 90.0293 23.5477 14.9716 1.6578 21.7847 -2.1833
# 2 23.5477 86.4319 16.4821 7.4971 15.0591 -0.3622
# 3 14.9716 16.4821 132.5991 27.8170 15.4322 -4.7364
# 4 1.6578 7.4971 27.8170 35.1055 13.8696 8.8879
# 5 21.7847 15.0591 15.4322 13.8696 38.5213 -2.7649
# 6 -2.1833 -0.3622 -4.7364 8.8879 -2.7649 46.1952
#
#
#
# Elastic Compliance Matrix: (Units=1/GPa)
#
#
# Indices 1 2 3 4 5 6 
#
# 1 0.013778 -0.002512 -0.001228 0.004163 -0.007872 -0.000766
# 2 -0.002512 0.013012 -0.000822 -0.000760 -0.003073 -0.000139
# 3 -0.001228 -0.000822 0.009528 -0.008053 0.000276 0.002478
# 4 0.004163 -0.000760 -0.008053 0.043311 -0.015134 -0.009874
# 5 -0.007872 -0.003073 0.000276 -0.015134 0.037294 0.004776
# 6 -0.000766 -0.000139 0.002478 -0.009874 0.004776 0.024050
#
#
# Mechanical properties :
#
#
# Convention : Reuss Voigt Hill
#
# Bulk Modulus (GPa) = 36.77258 46.56258 41.66758
# Shear Modulus (GPa) = 31.41467 40.90167 36.15817
#
# Velocity S-wave (km/s) = 3.50984 4.00490 3.76551
# Velocity P-wave (km/s) = 5.55385 6.29640 5.93675
#
# Compressibility (1/GPa) = 0.02719418
#
# Stress axis : x y z
#
# Youngs Moduli (GPa) = 72.57768 76.85376 104.95313
#
# Poissons Ratio (x) = 0.19309 0.12888
# Poissons Ratio (y) = 0.18235 0.08623
# Poissons Ratio (z) = 0.08912 0.06314
#
# Static dielectric constant tensor:
#      x y z
#    x 1.994770 0.044710 -0.022050 
#    y 0.044710 2.024730 -0.026820 
#    z -0.022050 -0.026820 2.184610 
# 
# From -- ./inp_files/428083.got.cif
#   From: 2010.05.17/outbox.cif.g08.bks.cpg/sg2_215_cif.got.tgz:428083.got - 2010.06.03 11:33:40.
