data_PCOD9056480
_publ_section_title
;
Structure prediction by ZEFSAII (Michael W. Deem and Ramdas Pophale) SiO2 
 PCOD9056480
Probable space group: P -1
;
_chemical_formula_sum "Si O2"
_cell_formula_units_Z 14
_cell_length_a 7.852925
_cell_length_b 10.817096
_cell_length_c 8.960244
_cell_angle_alpha 91.207705
_cell_angle_beta 90.007497
_cell_angle_gamma 42.540122
_cell_volume 514.360686
_symmetry_space_group_name_H-M "P -1"
_symmetry_group_IT_number 2
_symmetry_cell_setting 'triclinic'
loop_
_space_group_symop_operation_xyz
x,y,z
-x,-y,-z
loop_
_atom_site_type_symbol
_atom_site_label
_atom_site_fract_x
_atom_site_fract_y
_atom_site_fract_z
Si Si1 0.991621 0.890776 0.888835
Si Si2 0.143427 0.043853 0.428654
Si Si3 0.495485 0.474279 0.171801
Si Si4 0.962587 0.472794 0.828943
Si Si5 0.603579 0.775057 0.628992
Si Si6 0.703159 0.909955 0.124462
Si Si7 0.288948 0.523847 0.571526
O O1 0.811075 0.996278 0.749856
O O2 0.257711 0.739038 0.802696
O O3 0.936142 0.817458 0.010984
O O4 0.000000 0.000000 0.000000
O O5 0.966580 0.260300 0.449042
O O6 0.405132 0.928760 0.506306
O O7 0.000000 0.000000 0.500000
O O8 0.261412 0.508991 0.197120
O O9 0.581365 0.550029 0.265353
O O10 0.500000 0.500000 0.000000
O O11 0.867253 0.636319 0.727249
O O12 0.208980 0.258489 0.791237
O O13 0.000000 0.500000 0.000000
O O14 0.695043 0.609138 0.523881
O O15 0.411034 0.921272 0.768051
O O16 0.500000 0.000000 0.000000
O O17 0.500000 0.500000 0.500000
#
# Coordination Sequence:
#
# PCOD9056480 Si02
#       7
#     2   2   2   2   2   2   2
#     4  11  25  42  71 110 142 181 245 298 357 427
#     4  11  22  40  67 102 146 183 231 301 363 420
#     4  11  23  41  68 105 138 176 234 301 350 409
#     4  12  24  45  73 100 141 192 244 287 357 434
#     4  12  24  42  69 104 137 191 236 290 359 430
#     4  12  26  47  73 103 148 193 239 296 362 438
#     4  11  22  39  64 101 143 177 232 290 363 417
#
# _framework density 27.218254000000002
#
# number of rings (size 3 to 8) (size 9 to 14) (size 15 to 20)
#    0.000    0.571    5.714    3.429    2.000    0.000 
#    0.000    0.714    0.000    8.571    0.000    0.000 
#    0.000    0.000    0.000    0.000    0.000    0.000 
#
# Total GULP energy -77938.380758 kJ/mol
# GULP energy per Si atom -5567.027197 kJ/mol
# Density = 2.715630 g / cm^3
# Si number density = 27.218254 Si / 1000 Ang^3
#
#
#
# Elastic Constant Matrix: (Units=GPa)
#
#
# Indices 1 2 3 4 5 6 
#
# 1 75.2558 59.5572 32.5708 -10.1475 7.7315 6.9233
# 2 59.5572 211.6940 62.6277 -7.5329 11.0174 -9.9132
# 3 32.5708 62.6277 228.5868 -7.5063 39.8752 4.4356
# 4 -10.1475 -7.5329 -7.5063 61.2152 1.3541 15.6276
# 5 7.7315 11.0174 39.8752 1.3541 47.3019 -8.1695
# 6 6.9233 -9.9132 4.4356 15.6276 -8.1695 35.3511
#
#
#
# Elastic Compliance Matrix: (Units=1/GPa)
#
#
# Indices 1 2 3 4 5 6 
#
# 1 0.019411 -0.005379 -0.000454 0.004609 -0.003050 -0.007995
# 2 -0.005379 0.006731 -0.001409 -0.001275 0.001221 0.003963
# 3 -0.000454 -0.001409 0.005791 0.001274 -0.004991 -0.002750
# 4 0.004609 -0.001275 0.001274 0.020053 -0.004042 -0.011219
# 5 -0.003050 0.001221 -0.004991 -0.004042 0.027349 0.009673
# 6 -0.007995 0.003963 -0.002750 -0.011219 0.009673 0.038505
#
#
# Mechanical properties :
#
#
# Convention : Reuss Voigt Hill
#
# Bulk Modulus (GPa) = 57.30619 91.67199 74.48909
# Shear Modulus (GPa) = 36.19544 52.82569 44.51056
#
# Velocity S-wave (km/s) = 3.65063 4.41025 4.04830
# Velocity P-wave (km/s) = 6.23454 7.72575 7.01985
#
# Compressibility (1/GPa) = 0.01745012
#
# Stress axis : x y z
#
# Youngs Moduli (GPa) = 51.51633 148.57454 172.67306
#
# Poissons Ratio (x) = 0.79912 0.07834
# Poissons Ratio (y) = 0.27708 0.24336
# Poissons Ratio (z) = 0.02337 0.20939
#
# Static dielectric constant tensor:
#      x y z
#    x 0.617700 0.260270 -1.437920 
#    y 0.260270 2.366410 0.084930 
#    z -1.437920 0.084930 1.140830 
# 
# From -- ./inp_files/188608.got.cif
#   From: 2010.05.17/outbox.cif.g08.bks.cpg/sg2_95_cif.got.tgz:188608.got - 2010.06.03 11:33:40.
