data_PCOD9056864
_publ_section_title
;
Structure prediction by ZEFSAII (Michael W. Deem and Ramdas Pophale) SiO2 
 PCOD9056864
Probable space group: P -1
;
_chemical_formula_sum "Si O2"
_cell_formula_units_Z 11
_cell_length_a 8.412667
_cell_length_b 9.505399
_cell_length_c 9.817018
_cell_angle_alpha 135.173787
_cell_angle_beta 94.830987
_cell_angle_gamma 109.651021
_cell_volume 455.456466
_symmetry_space_group_name_H-M "P -1"
_symmetry_group_IT_number 2
_symmetry_cell_setting 'triclinic'
loop_
_space_group_symop_operation_xyz
x,y,z
-x,-y,-z
loop_
_atom_site_type_symbol
_atom_site_label
_atom_site_fract_x
_atom_site_fract_y
_atom_site_fract_z
Si Si1 0.722924 0.229892 0.026891
Si Si2 0.486482 0.766684 0.546385
Si Si3 0.000000 0.500000 0.000000
Si Si4 0.857777 0.015177 0.103733
Si Si5 0.657619 0.532812 0.929099
Si Si6 0.234986 0.401595 0.514112
O O1 0.735170 0.081650 0.050990
O O2 0.703462 0.426813 0.233982
O O3 0.920462 0.355487 0.042031
O O4 0.554577 0.033039 0.779720
O O5 0.325119 0.568760 0.501519
O O6 0.670739 0.750099 0.569602
O O7 0.420507 0.690648 0.335060
O O8 0.164398 0.441416 0.962501
O O9 0.004952 0.229790 0.363835
O O10 0.729995 0.766515 0.002577
O O11 0.000000 0.000000 0.000000
O O12 0.500000 0.500000 0.000000
#
# Coordination Sequence:
#
# PCOD9056864 Si02
#       6
#     2   2   1   2   2   2
#     4  12  25  42  73 107 144 197 248 297 373 440
#     4  11  22  43  68 104 152 185 242 316 357 435
#     4  12  26  48  68 108 154 186 250 308 358 448
#     4  12  21  48  73 101 149 198 237 303 366 430
#     4  12  27  47  77 109 148 198 245 307 380 433
#     4  11  22  40  74 107 141 195 249 298 364 442
#
# _framework density 24.151592999999998
#
# number of rings (size 3 to 8) (size 9 to 14) (size 15 to 20)
#    0.000    0.364    5.455    3.273    0.000    3.636 
#    0.000    3.636    0.000    0.000    0.000    0.000 
#    0.000    0.000    0.000    0.000    0.000    0.000 
#
# Total GULP energy -61441.372724 kJ/mol
# GULP energy per Si atom -5585.579339 kJ/mol
# Density = 2.409662 g / cm^3
# Si number density = 24.151593 Si / 1000 Ang^3
#
#
#
# Elastic Constant Matrix: (Units=GPa)
#
#
# Indices 1 2 3 4 5 6 
#
# 1 103.4157 48.6771 15.4370 0.1226 -9.8930 12.3764
# 2 48.6771 125.3524 38.1248 -16.0576 -6.0697 16.3829
# 3 15.4370 38.1248 152.2303 9.9513 -19.9452 8.6145
# 4 0.1226 -16.0576 9.9513 21.0872 3.8967 -2.8348
# 5 -9.8930 -6.0697 -19.9452 3.8967 32.2135 -8.0312
# 6 12.3764 16.3829 8.6145 -2.8348 -8.0312 40.6005
#
#
#
# Elastic Compliance Matrix: (Units=1/GPa)
#
#
# Indices 1 2 3 4 5 6 
#
# 1 0.012707 -0.005626 0.001086 -0.005779 0.003845 -0.001477
# 2 -0.005626 0.013041 -0.003832 0.012113 -0.003765 -0.002633
# 3 0.001086 -0.003832 0.008740 -0.008161 0.006005 -0.000021
# 4 -0.005779 0.012113 -0.008161 0.062830 -0.011991 0.000620
# 5 0.003845 -0.003765 0.006005 -0.011991 0.038123 0.005777
# 6 -0.001477 -0.002633 -0.000021 0.000620 0.005777 0.027333
#
#
# Mechanical properties :
#
#
# Convention : Reuss Voigt Hill
#
# Bulk Modulus (GPa) = 56.35562 65.05290 60.70426
# Shear Modulus (GPa) = 26.96394 37.36421 32.16408
#
# Velocity S-wave (km/s) = 3.34495 3.93755 3.65328
# Velocity P-wave (km/s) = 6.18894 6.90406 6.55626
#
# Compressibility (1/GPa) = 0.01774446
#
# Stress axis : x y z
#
# Youngs Moduli (GPa) = 78.69611 76.68132 114.41759
#
# Poissons Ratio (x) = 0.43139 -0.12420
# Poissons Ratio (y) = 0.44272 0.43840
# Poissons Ratio (z) = -0.08543 0.29381
#
# Static dielectric constant tensor:
#      x y z
#    x 1.892190 0.001510 0.040500 
#    y 0.001510 1.920550 0.006590 
#    z 0.040500 0.006590 1.996510 
# 
# From -- ./inp_files/155121.got.cif
#   From: 2010.05.17/outbox.cif.g08.bks.cpg/sg2_78_cif.got.tgz:155121.got - 2010.06.03 11:33:40.
