data_PCOD9056396
_publ_section_title
;
Structure prediction by ZEFSAII (Michael W. Deem and Ramdas Pophale) SiO2 
 PCOD9056396
Probable space group: P -1
;
_chemical_formula_sum "Si O2"
_cell_formula_units_Z 14
_cell_length_a 10.973434
_cell_length_b 14.474958
_cell_length_c 8.658214
_cell_angle_alpha 72.029302
_cell_angle_beta 111.010359
_cell_angle_gamma 50.334759
_cell_volume 656.128220
_symmetry_space_group_name_H-M "P -1"
_symmetry_group_IT_number 2
_symmetry_cell_setting 'triclinic'
loop_
_space_group_symop_operation_xyz
x,y,z
-x,-y,-z
loop_
_atom_site_type_symbol
_atom_site_label
_atom_site_fract_x
_atom_site_fract_y
_atom_site_fract_z
Si Si1 0.833097 0.152380 0.215316
Si Si2 0.509850 0.581778 0.659769
Si Si3 0.137822 0.798890 0.121155
Si Si4 0.779001 0.699597 0.219110
Si Si5 0.663612 0.608602 0.003604
Si Si6 0.119336 0.710767 0.620845
Si Si7 0.746808 0.949585 0.073720
O O1 0.569514 0.274938 0.060347
O O2 0.844397 0.256945 0.219503
O O3 0.904608 0.106515 0.094521
O O4 0.000000 0.000000 0.500000
O O5 0.330830 0.724560 0.366048
O O6 0.724161 0.385113 0.781589
O O7 0.597397 0.612528 0.799117
O O8 0.338912 0.614297 0.664340
O O9 0.892441 0.918568 0.029188
O O10 0.807596 0.796988 0.154862
O O11 0.000000 0.500000 0.500000
O O12 0.725271 0.679115 0.041867
O O13 0.536601 0.849319 0.139623
O O14 0.868479 0.409319 0.270117
O O15 0.876247 0.889829 0.327864
#
# Coordination Sequence:
#
# PCOD9056396 Si02
#       7
#     2   2   2   2   2   2   2
#     4  11  21  35  62  97 130 166 202 254 324 389
#     4   9  18  33  63  93 128 166 199 252 324 377
#     4  10  19  37  62  95 133 167 198 267 320 379
#     4  11  23  41  66  90 123 175 225 267 304 382
#     4  11  19  37  62  91 123 170 220 247 312 384
#     4  10  17  36  61  92 125 166 209 251 310 389
#     4  10  23  41  64  94 126 167 219 264 322 364
#
# _framework density 21.337291
#
# number of rings (size 3 to 8) (size 9 to 14) (size 15 to 20)
#    0.000    1.714    4.286    1.714    0.000    0.000 
#    0.000   15.000    0.000   12.000    0.000    0.000 
#    0.000    0.000    0.000    0.000    0.000    0.000 
#
# Total GULP energy -78141.574100 kJ/mol
# GULP energy per Si atom -5581.541007 kJ/mol
# Density = 2.128873 g / cm^3
# Si number density = 21.337291 Si / 1000 Ang^3
#
#
#
# Elastic Constant Matrix: (Units=GPa)
#
#
# Indices 1 2 3 4 5 6 
#
# 1 49.3929 45.6125 39.9942 6.1864 2.6502 1.0100
# 2 45.6125 120.5929 45.3623 5.6401 -0.4858 17.7166
# 3 39.9942 45.3623 125.7778 3.0153 -8.3246 -17.1701
# 4 6.1864 5.6401 3.0153 49.8417 -4.4634 5.6550
# 5 2.6502 -0.4858 -8.3246 -4.4634 25.1122 5.4367
# 6 1.0100 17.7166 -17.1701 5.6550 5.4367 44.9818
#
#
#
# Elastic Compliance Matrix: (Units=1/GPa)
#
#
# Indices 1 2 3 4 5 6 
#
# 1 0.038536 -0.011634 -0.008222 -0.003934 -0.008163 0.002060
# 2 -0.011634 0.014526 -0.002327 0.000918 0.002362 -0.006749
# 3 -0.008222 -0.002327 0.012378 0.000272 0.003821 0.005330
# 4 -0.003934 0.000918 0.000272 0.021276 0.005053 -0.003455
# 5 -0.008163 0.002362 0.003821 0.005053 0.044029 -0.005245
# 6 0.002060 -0.006749 0.005330 -0.003455 -0.005245 0.027946
#
#
# Mechanical properties :
#
#
# Convention : Reuss Voigt Hill
#
# Bulk Modulus (GPa) = 47.45211 61.96686 54.70949
# Shear Modulus (GPa) = 23.80036 34.97344 29.38690
#
# Velocity S-wave (km/s) = 3.34344 4.05294 3.71517
# Velocity P-wave (km/s) = 6.09853 7.14188 6.64073
#
# Compressibility (1/GPa) = 0.02107388
#
# Stress axis : x y z
#
# Youngs Moduli (GPa) = 25.94988 68.84179 80.78859
#
# Poissons Ratio (x) = 0.80092 0.66427
# Poissons Ratio (y) = 0.30191 0.18796
# Poissons Ratio (z) = 0.21337 0.16016
#
# Static dielectric constant tensor:
#      x y z
#    x 1.749600 0.063060 -0.033100 
#    y 0.063060 1.876240 -0.073410 
#    z -0.033100 -0.073410 1.851000 
# 
# From -- ./inp_files/272585.got.cif
#   From: 2010.05.17/outbox.cif.g08.bks.cpg/sg2_137_cif.got.tgz:272585.got - 2010.06.03 11:33:40.
