data_PCOD9056514
_publ_section_title
;
Structure prediction by ZEFSAII (Michael W. Deem and Ramdas Pophale) SiO2 
 PCOD9056514
Probable space group: P -1
;
_chemical_formula_sum "Si O2"
_cell_formula_units_Z 16
_cell_length_a 9.283035
_cell_length_b 16.839027
_cell_length_c 12.535379
_cell_angle_alpha 137.117629
_cell_angle_beta 37.714283
_cell_angle_gamma 138.049596
_cell_volume 749.665897
_symmetry_space_group_name_H-M "P -1"
_symmetry_group_IT_number 2
_symmetry_cell_setting 'triclinic'
loop_
_space_group_symop_operation_xyz
x,y,z
-x,-y,-z
loop_
_atom_site_type_symbol
_atom_site_label
_atom_site_fract_x
_atom_site_fract_y
_atom_site_fract_z
Si Si1 0.741941 0.506253 0.708824
Si Si2 0.374968 0.144118 0.703069
Si Si3 0.349401 0.301742 0.210999
Si Si4 0.878856 0.459947 0.147568
Si Si5 0.693967 0.947711 0.123286
Si Si6 0.782337 0.021472 0.577620
Si Si7 0.075112 0.734318 0.412537
Si Si8 0.210816 0.348515 0.957494
O O1 0.690457 0.605594 0.760732
O O2 0.464053 0.389137 0.772454
O O3 0.000000 0.500000 0.500000
O O4 0.778354 0.558871 0.859602
O O5 0.353306 0.049612 0.719621
O O6 0.664765 0.242727 0.652242
O O7 0.190286 0.219479 0.898189
O O8 0.289629 0.075204 0.574115
O O9 0.579276 0.386899 0.235520
O O10 0.108028 0.242233 0.370607
O O11 0.397453 0.193405 0.010626
O O12 0.960642 0.589795 0.294922
O O13 0.000000 0.500000 0.000000
O O14 0.986688 0.359248 0.030034
O O15 0.503059 0.002969 0.232878
O O16 0.000000 0.000000 0.000000
O O17 0.882218 0.164068 0.608325
O O18 0.000000 0.000000 0.500000
#
# Coordination Sequence:
#
# PCOD9056514 Si02
#       8
#     2   2   2   2   2   2   2   2
#     4  11  22  39  65  99 133 176 227 278 333 408
#     4  11  22  44  69  94 134 174 226 279 340 410
#     4  12  23  42  66  97 133 175 224 277 345 406
#     4  12  24  41  65  95 139 180 214 273 350 403
#     4  11  23  45  71  97 130 180 230 276 343 413
#     4  11  26  44  71  99 133 177 228 289 345 400
#     4  11  24  45  66  97 133 180 226 275 340 420
#     4  11  23  40  64  99 136 172 228 277 339 406
#
# _framework density 21.342841
#
# number of rings (size 3 to 8) (size 9 to 14) (size 15 to 20)
#    0.000    0.750    2.500    7.875    3.500    0.000 
#    2.250    1.250    0.000    0.000    0.000    0.000 
#    0.000    0.000    0.000    0.000    0.000    0.000 
#
# Total GULP energy -89200.840870 kJ/mol
# GULP energy per Si atom -5575.052554 kJ/mol
# Density = 2.129426 g / cm^3
# Si number density = 21.342841 Si / 1000 Ang^3
#
#
#
# Elastic Constant Matrix: (Units=GPa)
#
#
# Indices 1 2 3 4 5 6 
#
# 1 160.2965 31.9351 51.2306 8.2633 -24.3894 13.5565
# 2 31.9351 50.9502 19.6198 5.5844 -4.6027 19.8839
# 3 51.2306 19.6198 101.7566 -1.1455 -11.5476 15.1644
# 4 8.2633 5.5844 -1.1455 43.0813 -0.0412 4.7324
# 5 -24.3894 -4.6027 -11.5476 -0.0412 34.5339 6.1082
# 6 13.5565 19.8839 15.1644 4.7324 6.1082 34.5711
#
#
#
# Elastic Compliance Matrix: (Units=1/GPa)
#
#
# Indices 1 2 3 4 5 6 
#
# 1 0.008782 -0.003423 -0.003106 -0.001231 0.004847 -0.000800
# 2 -0.003423 0.028570 -0.001143 -0.001421 0.003667 -0.015042
# 3 -0.003106 -0.001143 0.012569 0.001555 0.002622 -0.004314
# 4 -0.001231 -0.001421 0.001555 0.023965 -0.000041 -0.002655
# 5 0.004847 0.003667 0.002622 -0.000041 0.035776 -0.011475
# 6 -0.000800 -0.015042 -0.004314 -0.002655 -0.011475 0.042174
#
#
# Mechanical properties :
#
#
# Convention : Reuss Voigt Hill
#
# Bulk Modulus (GPa) = 28.92131 57.61937 43.27034
# Shear Modulus (GPa) = 27.97878 36.45177 32.21527
#
# Velocity S-wave (km/s) = 3.62459 4.13718 3.88934
# Velocity P-wave (km/s) = 5.57648 7.06239 6.36296
#
# Compressibility (1/GPa) = 0.03457658
#
# Stress axis : x y z
#
# Youngs Moduli (GPa) = 113.87360 35.00151 79.55814
#
# Poissons Ratio (x) = 0.11982 0.24708
# Poissons Ratio (y) = 0.38981 0.09097
# Poissons Ratio (z) = 0.35366 0.04002
#
# Static dielectric constant tensor:
#      x y z
#    x 1.724740 -0.052920 0.010330 
#    y -0.052920 1.844790 0.028250 
#    z 0.010330 0.028250 1.771090 
# 
# From -- ./inp_files/403325.got.cif
#   From: 2010.05.17/outbox.cif.g08.bks.cpg/sg2_202_cif.got.tgz:403325.got - 2010.06.03 11:33:40.
