data_PCOD9056884
_publ_section_title
;
Structure prediction by ZEFSAII (Michael W. Deem and Ramdas Pophale) SiO2 
 PCOD9056884
Probable space group: P -1
;
_chemical_formula_sum "Si O2"
_cell_formula_units_Z 16
_cell_length_a 9.497580
_cell_length_b 5.976079
_cell_length_c 21.404646
_cell_angle_alpha 83.980632
_cell_angle_beta 47.495010
_cell_angle_gamma 56.513004
_cell_volume 672.323532
_symmetry_space_group_name_H-M "P -1"
_symmetry_group_IT_number 2
_symmetry_cell_setting 'triclinic'
loop_
_space_group_symop_operation_xyz
x,y,z
-x,-y,-z
loop_
_atom_site_type_symbol
_atom_site_label
_atom_site_fract_x
_atom_site_fract_y
_atom_site_fract_z
Si Si1 0.681343 0.807030 0.213835
Si Si2 0.000469 0.164993 0.198691
Si Si3 0.628916 0.139731 0.016159
Si Si4 0.829737 0.856011 0.718488
Si Si5 0.754508 0.708920 0.461057
Si Si6 0.076156 0.842605 0.415500
Si Si7 0.769989 0.517554 0.978058
Si Si8 0.526375 0.266884 0.347574
O O1 0.817269 0.484690 0.210957
O O2 0.925710 0.741087 0.111630
O O3 0.450850 0.965780 0.229572
O O4 0.557800 0.017142 0.305732
O O5 0.807902 0.126244 0.281722
O O6 0.154916 0.128316 0.213023
O O7 0.185826 0.950519 0.094851
O O8 0.662351 0.352756 0.038669
O O9 0.706806 0.816882 0.020005
O O10 0.356645 0.346306 0.056953
O O11 0.035078 0.511548 0.646584
O O12 0.940404 0.982548 0.643655
O O13 0.643973 0.606080 0.543367
O O14 0.896048 0.771850 0.461471
O O15 0.500000 0.000000 0.500000
O O16 0.368299 0.546529 0.340503
O O17 0.000000 0.000000 0.500000
#
# Coordination Sequence:
#
# PCOD9056884 Si02
#       8
#     2   2   2   2   2   2   2   2
#     4  11  22  41  62  90 120 165 204 263 313 381
#     4  11  24  39  63  91 123 161 209 261 318 378
#     4   9  18  37  61  99 126 169 210 262 316 393
#     4  12  25  41  60  89 122 160 213 260 315 376
#     4  12  26  39  57  84 119 160 206 259 317 376
#     4  12  24  41  61  83 115 166 209 262 313 379
#     4   9  18  35  67  92 130 167 214 254 325 387
#     4  12  22  39  61  84 118 160 210 258 317 373
#
# _framework density 23.798065000000001
#
# number of rings (size 3 to 8) (size 9 to 14) (size 15 to 20)
#    0.000    1.000    5.000    2.625    1.750    1.000 
#    0.000    0.625    0.000    0.000    0.000    9.625 
#    0.000    0.000    0.000    0.000    0.000    0.000 
#
# Total GULP energy -89248.929217 kJ/mol
# GULP energy per Si atom -5578.058076 kJ/mol
# Density = 2.374390 g / cm^3
# Si number density = 23.798065 Si / 1000 Ang^3
#
#
#
# Elastic Constant Matrix: (Units=GPa)
#
#
# Indices 1 2 3 4 5 6 
#
# 1 88.5501 25.9142 38.6125 1.8105 -21.8330 -16.5219
# 2 25.9142 82.6340 23.2039 19.5918 2.9182 -2.3979
# 3 38.6125 23.2039 90.4362 12.3132 -22.3137 -4.8915
# 4 1.8105 19.5918 12.3132 35.5593 2.9427 -11.8596
# 5 -21.8330 2.9182 -22.3137 2.9427 35.9764 9.0097
# 6 -16.5219 -2.3979 -4.8915 -11.8596 9.0097 34.8220
#
#
#
# Elastic Compliance Matrix: (Units=1/GPa)
#
#
# Indices 1 2 3 4 5 6 
#
# 1 0.017988 -0.005597 -0.005285 0.006238 0.005555 0.008094
# 2 -0.005597 0.016582 -0.001864 -0.009124 -0.004201 -0.003796
# 3 -0.005285 -0.001864 0.016716 -0.006917 0.009132 -0.005006
# 4 0.006238 -0.009124 -0.006917 0.041694 -0.007562 0.017516
# 5 0.005555 -0.004201 0.009132 -0.007562 0.040127 -0.009328
# 6 0.008094 -0.003796 -0.005006 0.017516 -0.009328 0.039972
#
#
# Mechanical properties :
#
#
# Convention : Reuss Voigt Hill
#
# Bulk Modulus (GPa) = 38.76990 48.56462 43.66726
# Shear Modulus (GPa) = 24.13478 32.86419 28.49949
#
# Velocity S-wave (km/s) = 3.18803 3.72016 3.46432
# Velocity P-wave (km/s) = 5.46607 6.23731 5.86438
#
# Compressibility (1/GPa) = 0.02579321
#
# Stress axis : x y z
#
# Youngs Moduli (GPa) = 55.59297 60.30717 59.82152
#
# Poissons Ratio (x) = 0.33756 0.31614
# Poissons Ratio (y) = 0.31117 0.11153
# Poissons Ratio (z) = 0.29379 0.11244
#
# Static dielectric constant tensor:
#      x y z
#    x 1.947960 0.017200 -0.074630 
#    y 0.017200 2.085000 0.090300 
#    z -0.074630 0.090300 1.940040 
# 
# From -- ./inp_files/44727.got.cif
#   From: 2010.05.17/outbox.cif.g08.bks.cpg/sg2_23_cif.got.tgz:44727.got - 2010.06.03 11:33:40.
