data_PCOD9056788
_publ_section_title
;
Structure prediction by ZEFSAII (Michael W. Deem and Ramdas Pophale) SiO2 
 PCOD9056788
Probable space group: P -1
;
_chemical_formula_sum "Si O2"
_cell_formula_units_Z 16
_cell_length_a 9.546389
_cell_length_b 7.928591
_cell_length_c 11.897848
_cell_angle_alpha 76.177872
_cell_angle_beta 59.158310
_cell_angle_gamma 108.168892
_cell_volume 640.891631
_symmetry_space_group_name_H-M "P -1"
_symmetry_group_IT_number 2
_symmetry_cell_setting 'triclinic'
loop_
_space_group_symop_operation_xyz
x,y,z
-x,-y,-z
loop_
_atom_site_type_symbol
_atom_site_label
_atom_site_fract_x
_atom_site_fract_y
_atom_site_fract_z
Si Si1 0.885864 0.715066 0.488700
Si Si2 0.365403 0.880241 0.474201
Si Si3 0.208146 0.805022 0.036654
Si Si4 0.983248 0.542554 0.676743
Si Si5 0.163270 0.100328 0.178985
Si Si6 0.487363 0.392949 0.640251
Si Si7 0.828811 0.646098 0.069452
Si Si8 0.517502 0.792109 0.796444
O O1 0.956409 0.590832 0.402154
O O2 0.657580 0.581383 0.607441
O O3 0.943709 0.684153 0.592589
O O4 0.986818 0.935155 0.354885
O O5 0.173230 0.700947 0.637397
O O6 0.451049 0.768519 0.385164
O O7 0.500000 0.000000 0.500000
O O8 0.350371 0.040873 0.376857
O O9 0.181984 0.616684 0.151962
O O10 0.027295 0.709189 0.040347
O O11 0.201884 0.963527 0.097768
O O12 0.412037 0.895884 0.883013
O O13 0.345971 0.224470 0.166053
O O14 0.127723 0.237840 0.085943
O O15 0.500000 0.500000 0.500000
O O16 0.287087 0.296995 0.802158
O O17 0.664658 0.411903 0.147197
#
# Coordination Sequence:
#
# PCOD9056788 Si02
#       8
#     2   2   2   2   2   2   2   2
#     4   9  19  37  65  91 124 166 212 266 321 387
#     4  11  22  40  69  97 129 171 221 273 319 399
#     4  11  24  42  71  95 128 179 229 270 326 397
#     4   9  18  37  62  94 124 157 216 270 313 378
#     4  11  23  43  68  99 134 170 221 278 337 392
#     4  11  23  41  67  97 132 175 215 269 341 390
#     4  12  26  45  64  97 140 177 217 276 336 396
#     4  12  25  43  66 100 132 177 226 273 330 391
#
# _framework density 24.965221
#
# number of rings (size 3 to 8) (size 9 to 14) (size 15 to 20)
#    0.000    1.250    1.250    6.000    3.500    1.000 
#    0.000    1.875    0.000    0.000    0.000    0.000 
#    0.000    0.000    0.000    0.000    0.000    0.000 
#
# Total GULP energy -89523.996557 kJ/mol
# GULP energy per Si atom -5595.249785 kJ/mol
# Density = 2.490840 g / cm^3
# Si number density = 24.965221 Si / 1000 Ang^3
#
#
#
# Elastic Constant Matrix: (Units=GPa)
#
#
# Indices 1 2 3 4 5 6 
#
# 1 59.3667 7.7679 28.7395 3.3503 3.6193 25.8183
# 2 7.7679 95.2260 4.8446 -1.4914 6.0926 0.7047
# 3 28.7395 4.8446 109.0532 -21.4805 8.8761 -12.8195
# 4 3.3503 -1.4914 -21.4805 31.1299 -11.1756 -1.2579
# 5 3.6193 6.0926 8.8761 -11.1756 46.1928 2.8490
# 6 25.8183 0.7047 -12.8195 -1.2579 2.8490 38.6819
#
#
#
# Elastic Compliance Matrix: (Units=1/GPa)
#
#
# Indices 1 2 3 4 5 6 
#
# 1 0.043452 -0.002479 -0.019407 -0.020379 -0.002065 -0.035899
# 2 -0.002479 0.010750 0.000658 0.000858 -0.001253 0.001797
# 3 -0.019407 0.000658 0.019887 0.016812 0.000443 0.020046
# 4 -0.020379 0.000858 0.016812 0.050045 0.009120 0.020113
# 5 -0.002065 -0.001253 0.000443 0.009120 0.024092 0.000070
# 6 -0.035899 0.001797 0.020046 0.020113 0.000070 0.057073
#
#
# Mechanical properties :
#
#
# Convention : Reuss Voigt Hill
#
# Bulk Modulus (GPa) = 31.61169 38.48333 35.04751
# Shear Modulus (GPa) = 19.35734 38.02053 28.68894
#
# Velocity S-wave (km/s) = 2.78757 3.90672 3.39360
# Velocity P-wave (km/s) = 4.80110 5.98316 5.42442
#
# Compressibility (1/GPa) = 0.03163387
#
# Stress axis : x y z
#
# Youngs Moduli (GPa) = 23.01386 93.01993 50.28422
#
# Poissons Ratio (x) = 0.23056 0.97587
# Poissons Ratio (y) = 0.05704 -0.03308
# Poissons Ratio (z) = 0.44663 -0.06120
#
# Static dielectric constant tensor:
#      x y z
#    x 2.027340 -0.024210 0.004640 
#    y -0.024210 2.001940 0.006290 
#    z 0.004640 0.006290 1.918620 
# 
# From -- ./inp_files/223392.got.cif
#   From: 2010.05.17/outbox.cif.g08.bks.cpg/sg2_112_cif.got.tgz:223392.got - 2010.06.03 11:33:40.
