data_PCOD9056736
_publ_section_title
;
Structure prediction by ZEFSAII (Michael W. Deem and Ramdas Pophale) SiO2 
 PCOD9056736
Probable space group: P -1
;
_chemical_formula_sum "Si O2"
_cell_formula_units_Z 14
_cell_length_a 7.856398
_cell_length_b 21.528935
_cell_length_c 16.276268
_cell_angle_alpha 156.599735
_cell_angle_beta 44.637185
_cell_angle_gamma 145.451604
_cell_volume 607.907771
_symmetry_space_group_name_H-M "P -1"
_symmetry_group_IT_number 2
_symmetry_cell_setting 'triclinic'
loop_
_space_group_symop_operation_xyz
x,y,z
-x,-y,-z
loop_
_atom_site_type_symbol
_atom_site_label
_atom_site_fract_x
_atom_site_fract_y
_atom_site_fract_z
Si Si1 0.776461 0.521023 0.046873
Si Si2 0.180844 0.945043 0.012510
Si Si3 0.618187 0.163340 0.591262
Si Si4 0.815964 0.684766 0.510463
Si Si5 0.813027 0.072636 0.688919
Si Si6 0.242458 0.786910 0.641431
Si Si7 0.643315 0.513429 0.708618
O O1 0.587413 0.550931 0.212627
O O2 0.974101 0.695259 0.123321
O O3 0.554230 0.315289 0.823772
O O4 0.000000 0.500000 0.000000
O O5 0.158103 0.891324 0.859357
O O6 0.906041 0.746049 0.909980
O O7 0.500000 0.000000 0.000000
O O8 0.169834 0.124243 0.249913
O O9 0.972644 0.288152 0.604273
O O10 0.500000 0.000000 0.500000
O O11 0.469908 0.034087 0.405121
O O12 0.491683 0.519541 0.378030
O O13 0.984270 0.679225 0.526450
O O14 0.607973 0.961390 0.705005
O O15 0.000000 0.000000 0.500000
O O16 0.239942 0.617468 0.480419
#
# Coordination Sequence:
#
# PCOD9056736 Si02
#       7
#     2   2   2   2   2   2   2
#     4  12  23  42  74 105 137 192 228 280 359 421
#     4  12  27  49  75 102 137 191 241 291 358 417
#     4  11  22  40  68 100 139 183 232 278 344 422
#     4  11  25  46  69 103 139 186 235 289 353 414
#     4  11  24  44  66 103 148 174 231 294 349 417
#     4  11  26  48  70 105 145 185 234 300 347 420
#     4  12  25  48  74 102 145 186 237 292 354 421
#
# _framework density 23.029810000000001
#
# number of rings (size 3 to 8) (size 9 to 14) (size 15 to 20)
#    0.000    0.571    5.714    1.714    2.000    2.286 
#    7.714    0.000    0.000    0.000    0.000    0.000 
#    0.000    0.000    0.000    0.000    0.000    0.000 
#
# Total GULP energy -78089.100934 kJ/mol
# GULP energy per Si atom -5577.792924 kJ/mol
# Density = 2.297739 g / cm^3
# Si number density = 23.029810 Si / 1000 Ang^3
#
#
#
# Elastic Constant Matrix: (Units=GPa)
#
#
# Indices 1 2 3 4 5 6 
#
# 1 -86.9045 101.4796 -69.9040 -31.9192 -4.1304 82.2440
# 2 101.4796 32.0462 52.0981 24.6702 1.6113 -43.3377
# 3 -69.9040 52.0981 61.1182 -17.1404 1.4551 27.8507
# 4 -31.9192 24.6702 -17.1404 36.5087 -0.0061 18.3159
# 5 -4.1304 1.6113 1.4551 -0.0061 37.4392 0.5943
# 6 82.2440 -43.3377 27.8507 18.3159 0.5943 -10.3951
#
#
#
# Elastic Compliance Matrix: (Units=1/GPa)
#
#
# Indices 1 2 3 4 5 6 
#
# 1 0.004932 0.003807 -0.002744 -0.003972 0.000346 0.008816
# 2 0.003807 0.009165 -0.000055 0.000657 0.000140 -0.007070
# 3 -0.002744 -0.000055 0.010493 -0.000393 -0.000802 0.005894
# 4 -0.003972 0.000657 -0.000393 0.021748 -0.000496 0.003074
# 5 0.000346 0.000140 -0.000802 -0.000496 0.026763 0.000663
# 6 0.008816 -0.007070 0.005894 0.003074 0.000663 0.024276
#
#
# Mechanical properties :
#
#
# Convention : Reuss Voigt Hill
#
# Bulk Modulus (GPa) = 37.58687 19.28970 28.43829
# Shear Modulus (GPa) = 47.97140 7.54963 27.76051
#
# Velocity S-wave (km/s) = 4.56896 1.81254 3.47568
# Velocity P-wave (km/s) = 6.64757 3.57415 5.33689
#
# Compressibility (1/GPa) = 0.02660503
#
# Stress axis : x y z
#
# Youngs Moduli (GPa) = 202.77030 109.11390 95.30076
#
# Poissons Ratio (x) = -0.41540 0.26152
# Poissons Ratio (y) = -0.77195 0.00526
# Poissons Ratio (z) = 0.55642 0.00602
#
# Static dielectric constant tensor:
#      x y z
#    x 1.843390 0.056030 0.035190 
#    y 0.056030 2.064910 0.094450 
#    z 0.035190 0.094450 1.829610 
# 
# From -- ./inp_files/278507.got.cif
#   From: 2010.05.17/outbox.cif.g08.bks.cpg/sg2_140_cif.got.tgz:278507.got - 2010.06.03 11:33:40.
