data_PCOD9056404
_publ_section_title
;
Structure prediction by ZEFSAII (Michael W. Deem and Ramdas Pophale) SiO2 
 PCOD9056404
Probable space group: P -1
;
_chemical_formula_sum "Si O2"
_cell_formula_units_Z 16
_cell_length_a 5.979661
_cell_length_b 11.186382
_cell_length_c 12.748673
_cell_angle_alpha 53.541170
_cell_angle_beta 92.678104
_cell_angle_gamma 111.094156
_cell_volume 623.831819
_symmetry_space_group_name_H-M "P -1"
_symmetry_group_IT_number 2
_symmetry_cell_setting 'triclinic'
loop_
_space_group_symop_operation_xyz
x,y,z
-x,-y,-z
loop_
_atom_site_type_symbol
_atom_site_label
_atom_site_fract_x
_atom_site_fract_y
_atom_site_fract_z
Si Si1 0.813854 0.817888 0.550995
Si Si2 0.976989 0.388667 0.228929
Si Si3 0.866915 0.172319 0.645425
Si Si4 0.745725 0.723110 0.173810
Si Si5 0.396876 0.869763 0.787246
Si Si6 0.434078 0.597490 0.038090
Si Si7 0.897264 0.020000 0.115713
Si Si8 0.726019 0.410553 0.418748
O O1 0.853839 0.708717 0.699665
O O2 0.526100 0.731266 0.559506
O O3 0.934336 0.797109 0.456154
O O4 0.000000 0.000000 0.500000
O O5 0.733556 0.261775 0.235850
O O6 0.920069 0.442420 0.311331
O O7 0.143710 0.536444 0.083121
O O8 0.802960 0.330580 0.561845
O O9 0.951254 0.087412 0.786821
O O10 0.614601 0.031767 0.669289
O O11 0.668796 0.864723 0.141593
O O12 0.731606 0.591604 0.332803
O O13 0.562642 0.601963 0.148119
O O14 0.972449 0.837531 0.040928
O O15 0.523147 0.783618 0.909324
O O16 0.196921 0.911564 0.823964
O O17 0.500000 0.500000 0.000000
#
# Coordination Sequence:
#
# PCOD9056404 Si02
#       8
#     2   2   2   2   2   2   2   2
#     4  11  22  38  66  95 141 179 223 278 339 410
#     4  11  23  38  66 102 136 174 219 281 348 408
#     4  11  24  42  66 102 133 185 229 276 339 401
#     4  11  24  47  72  97 139 180 230 284 340 408
#     4  12  24  42  69 100 142 178 229 279 343 412
#     4  12  24  42  72 105 138 177 222 287 352 408
#     4  11  25  47  70  99 135 184 231 284 336 402
#     4  11  23  44  68 101 140 180 226 283 349 398
#
# _framework density 25.647939000000001
#
# number of rings (size 3 to 8) (size 9 to 14) (size 15 to 20)
#    0.000    0.750    2.500    5.625    1.750    3.000 
#    2.250    2.500    0.000    0.000    0.000    0.000 
#    0.000    0.000    0.000    0.000    0.000    0.000 
#
# Total GULP energy -89277.623391 kJ/mol
# GULP energy per Si atom -5579.851462 kJ/mol
# Density = 2.558956 g / cm^3
# Si number density = 25.647939 Si / 1000 Ang^3
#
#
#
# Elastic Constant Matrix: (Units=GPa)
#
#
# Indices 1 2 3 4 5 6 
#
# 1 48.3629 -4.3519 41.3756 -11.7438 4.6335 5.2345
# 2 -4.3519 73.1692 20.9083 -24.2430 -4.8750 0.1437
# 3 41.3756 20.9083 119.2839 -23.9852 7.6752 4.7274
# 4 -11.7438 -24.2430 -23.9852 53.9421 4.1267 2.6144
# 5 4.6335 -4.8750 7.6752 4.1267 51.8998 -4.5044
# 6 5.2345 0.1437 4.7274 2.6144 -4.5044 18.8648
#
#
#
# Elastic Compliance Matrix: (Units=1/GPa)
#
#
# Indices 1 2 3 4 5 6 
#
# 1 0.033334 0.007049 -0.011173 0.005972 -0.001810 -0.007763
# 2 0.007049 0.017878 -0.003980 0.007831 0.000844 -0.001978
# 3 -0.011173 -0.003980 0.013486 0.001942 -0.001603 -0.000901
# 4 0.005972 0.007831 0.001942 0.024723 -0.002593 -0.006249
# 5 -0.001810 0.000844 -0.001603 -0.002593 0.020486 0.006148
# 6 -0.007763 -0.001978 -0.000901 -0.006249 0.006148 0.057737
#
#
# Mechanical properties :
#
#
# Convention : Reuss Voigt Hill
#
# Bulk Modulus (GPa) = 20.62317 39.63109 30.12713
# Shear Modulus (GPa) = 24.99813 37.13363 31.06588
#
# Velocity S-wave (km/s) = 3.12535 3.80915 3.48407
# Velocity P-wave (km/s) = 4.59152 5.90184 5.28743
#
# Compressibility (1/GPa) = 0.04848915
#
# Stress axis : x y z
#
# Youngs Moduli (GPa) = 29.99968 55.93384 74.15245
#
# Poissons Ratio (x) = -0.39425 0.82850
# Poissons Ratio (y) = -0.21145 0.29512
# Poissons Ratio (z) = 0.33518 0.22261
#
# Static dielectric constant tensor:
#      x y z
#    x 2.119200 0.076020 0.073400 
#    y 0.076020 2.059530 0.004260 
#    z 0.073400 0.004260 2.086920 
# 
# From -- ./inp_files/482647.got.cif
#   From: 2010.05.17/outbox.cif.g08.bks.cpg/sg2_242_cif.got.tgz:482647.got - 2010.06.03 11:33:40.
