data_PCOD9056629
_publ_section_title
;
Structure prediction by ZEFSAII (Michael W. Deem and Ramdas Pophale) SiO2 
 PCOD9056629
Probable space group: P -1
;
_chemical_formula_sum "Si O2"
_cell_formula_units_Z 16
_cell_length_a 16.579406
_cell_length_b 8.926650
_cell_length_c 13.065245
_cell_angle_alpha 102.878259
_cell_angle_beta 155.697277
_cell_angle_gamma 87.551552
_cell_volume 711.080925
_symmetry_space_group_name_H-M "P -1"
_symmetry_group_IT_number 2
_symmetry_cell_setting 'triclinic'
loop_
_space_group_symop_operation_xyz
x,y,z
-x,-y,-z
loop_
_atom_site_type_symbol
_atom_site_label
_atom_site_fract_x
_atom_site_fract_y
_atom_site_fract_z
Si Si1 0.946767 0.850221 0.738724
Si Si2 0.907222 0.570432 0.309463
Si Si3 0.322729 0.745468 0.682498
Si Si4 0.652741 0.692978 0.178164
Si Si5 0.643523 0.236371 0.832075
Si Si6 0.734786 0.363248 0.744720
Si Si7 0.732299 0.070543 0.548100
Si Si8 0.213395 0.458097 0.359217
O O1 0.800910 0.775895 0.458737
O O2 0.834600 0.725791 0.684211
O O3 0.943267 0.030759 0.781027
O O4 0.171329 0.835327 0.979133
O O5 0.799096 0.683337 0.252379
O O6 0.000000 0.500000 0.500000
O O7 0.099135 0.673819 0.472273
O O8 0.741072 0.409094 0.033995
O O9 0.325354 0.877926 0.620944
O O10 0.335777 0.591110 0.608083
O O11 0.508567 0.788780 0.987568
O O12 0.500000 0.500000 0.000000
O O13 0.593131 0.282068 0.666907
O O14 0.453287 0.098393 0.651620
O O15 0.747368 0.214753 0.666712
O O16 0.683563 0.481437 0.622980
O O17 0.976973 0.463439 0.080881
#
# Coordination Sequence:
#
# PCOD9056629 Si02
#       8
#     2   2   2   2   2   2   2   2
#     4  11  22  40  63  93 125 166 205 248 315 375
#     4  12  21  39  68  92 118 167 208 255 305 361
#     4  11  23  42  62  97 124 161 209 258 302 372
#     4  12  21  37  67  93 123 160 211 255 301 365
#     4  11  22  41  65  94 126 161 210 253 310 372
#     4   9  19  39  64  90 125 162 204 261 305 358
#     4  11  26  40  64  91 132 164 200 256 322 359
#     4   9  17  37  66  89 121 159 208 259 297 359
#
# _framework density 22.500954
#
# number of rings (size 3 to 8) (size 9 to 14) (size 15 to 20)
#    0.000    1.250    6.250    1.125    0.000    3.500 
#    0.000    1.875    2.750    0.000    0.000    0.000 
#    0.000    0.000    0.000    0.000    0.000    0.000 
#
# Total GULP energy -89504.751919 kJ/mol
# GULP energy per Si atom -5594.046995 kJ/mol
# Density = 2.244974 g / cm^3
# Si number density = 22.500954 Si / 1000 Ang^3
#
#
#
# Elastic Constant Matrix: (Units=GPa)
#
#
# Indices 1 2 3 4 5 6 
#
# 1 121.1918 44.6566 35.1261 -0.8816 -9.5915 32.9507
# 2 44.6566 81.5097 11.4373 -19.9299 0.5652 10.9695
# 3 35.1261 11.4373 53.9972 -5.8125 -4.4269 4.2700
# 4 -0.8816 -19.9299 -5.8125 23.4655 5.0382 -4.3753
# 5 -9.5915 0.5652 -4.4269 5.0382 31.1834 2.9420
# 6 32.9507 10.9695 4.2700 -4.3753 2.9420 43.2362
#
#
#
# Elastic Compliance Matrix: (Units=1/GPa)
#
#
# Indices 1 2 3 4 5 6 
#
# 1 0.019612 -0.011458 -0.010288 -0.015850 0.008587 -0.013211
# 2 -0.011458 0.022835 0.004007 0.022566 -0.007519 0.005338
# 3 -0.010288 0.004007 0.024909 0.010644 -0.001947 0.005574
# 4 -0.015850 0.022566 0.010644 0.069843 -0.016329 0.013482
# 5 0.008587 -0.007519 -0.001947 -0.016329 0.038027 -0.008684
# 6 -0.013211 0.005338 0.005574 0.013482 -0.008684 0.033248
#
#
# Mechanical properties :
#
#
# Convention : Reuss Voigt Hill
#
# Bulk Modulus (GPa) = 31.36975 48.79319 40.08147
# Shear Modulus (GPa) = 19.64045 30.60893 25.12469
#
# Velocity S-wave (km/s) = 2.95765 3.69228 3.34519
# Velocity P-wave (km/s) = 5.06314 6.31738 5.72471
#
# Compressibility (1/GPa) = 0.03187785
#
# Stress axis : x y z
#
# Youngs Moduli (GPa) = 50.99016 43.79232 40.14653
#
# Poissons Ratio (x) = 0.50177 0.41304
# Poissons Ratio (y) = 0.58425 -0.16089
# Poissons Ratio (z) = 0.52460 -0.17550
#
# Static dielectric constant tensor:
#      x y z
#    x 1.842870 -0.018220 0.007290 
#    y -0.018220 1.841960 -0.011630 
#    z 0.007290 -0.011630 1.835370 
# 
# From -- ./inp_files/447713.got.cif
#   From: 2010.05.17/outbox.cif.g08.bks.cpg/sg2_224_cif.got.tgz:447713.got - 2010.06.03 11:33:40.
