data_PCOD9056525
_publ_section_title
;
Structure prediction by ZEFSAII (Michael W. Deem and Ramdas Pophale) SiO2 
 PCOD9056525
Probable space group: P -1
;
_chemical_formula_sum "Si O2"
_cell_formula_units_Z 16
_cell_length_a 11.128238
_cell_length_b 11.957749
_cell_length_c 8.166172
_cell_angle_alpha 51.432942
_cell_angle_beta 95.491812
_cell_angle_gamma 68.365932
_cell_volume 706.128493
_symmetry_space_group_name_H-M "P -1"
_symmetry_group_IT_number 2
_symmetry_cell_setting 'triclinic'
loop_
_space_group_symop_operation_xyz
x,y,z
-x,-y,-z
loop_
_atom_site_type_symbol
_atom_site_label
_atom_site_fract_x
_atom_site_fract_y
_atom_site_fract_z
Si Si1 0.334427 0.966493 0.154185
Si Si2 0.408238 0.611706 0.622112
Si Si3 0.046461 0.559826 0.611138
Si Si4 0.438896 0.930721 0.836252
Si Si5 0.330425 0.407100 0.976357
Si Si6 0.004028 0.165211 0.880414
Si Si7 0.236502 0.308337 0.378348
Si Si8 0.704145 0.460276 0.660279
O O1 0.368676 0.802875 0.413961
O O2 0.433342 0.035526 0.152747
O O3 0.377421 0.913426 0.017043
O O4 0.162963 0.105559 0.016180
O O5 0.581264 0.488959 0.742090
O O6 0.346573 0.567353 0.495626
O O7 0.344385 0.568312 0.806608
O O8 0.023331 0.736012 0.384454
O O9 0.933024 0.599247 0.701916
O O10 0.000000 0.500000 0.500000
O O11 0.207945 0.434996 0.806996
O O12 0.514135 0.758844 0.898786
O O13 0.313845 0.105184 0.575400
O O14 0.279564 0.374474 0.169301
O O15 0.868285 0.300389 0.851606
O O16 0.000000 0.000000 0.000000
O O17 0.292629 0.369086 0.483322
#
# Coordination Sequence:
#
# PCOD9056525 Si02
#       8
#     2   2   2   2   2   2   2   2
#     4  11  22  39  67  97 126 159 225 275 310 362
#     4  11  22  41  66  97 125 167 217 266 314 373
#     4  12  23  43  68  95 125 165 221 263 311 377
#     4  11  24  40  64  96 124 169 218 271 313 369
#     4  12  26  42  65  94 136 170 208 262 325 389
#     4  12  22  36  65  99 123 157 207 278 314 357
#     4  12  25  43  64  96 133 172 209 257 331 387
#     4  11  22  39  66  94 127 161 224 259 309 378
#
# _framework density 22.658766
#
# number of rings (size 3 to 8) (size 9 to 14) (size 15 to 20)
#    0.000    0.500    6.250    3.000    3.500    0.500 
#    0.000    0.000    0.000    1.500    0.000    0.000 
#    0.000    0.000    0.000    0.000    0.000    0.000 
#
# Total GULP energy -89492.477887 kJ/mol
# GULP energy per Si atom -5593.279868 kJ/mol
# Density = 2.260719 g / cm^3
# Si number density = 22.658766 Si / 1000 Ang^3
#
#
#
# Elastic Constant Matrix: (Units=GPa)
#
#
# Indices 1 2 3 4 5 6 
#
# 1 89.9228 29.7008 32.5626 -9.2314 -1.0574 -31.0956
# 2 29.7008 49.5212 53.2753 -12.4939 -0.3836 -31.1884
# 3 32.5626 53.2753 122.9188 -5.8659 -28.5431 -16.8759
# 4 -9.2314 -12.4939 -5.8659 36.1043 -5.2108 0.1261
# 5 -1.0574 -0.3836 -28.5431 -5.2108 44.2309 -2.5469
# 6 -31.0956 -31.1884 -16.8759 0.1261 -2.5469 50.6235
#
#
#
# Elastic Compliance Matrix: (Units=1/GPa)
#
#
# Indices 1 2 3 4 5 6 
#
# 1 0.015444 0.000244 -0.003011 0.003417 -0.000675 0.008590
# 2 0.000244 0.096677 -0.038876 0.024337 -0.018742 0.045748
# 3 -0.003011 -0.038876 0.026679 -0.007671 0.014974 -0.016134
# 4 0.003417 0.024337 -0.007671 0.035752 0.000387 0.014465
# 5 -0.000675 -0.018742 0.014974 0.000387 0.031830 -0.005369
# 6 0.008590 0.045748 -0.016134 0.014465 -0.005369 0.047530
#
#
# Mechanical properties :
#
#
# Convention : Reuss Voigt Hill
#
# Bulk Modulus (GPa) = 18.01388 54.82669 36.42028
# Shear Modulus (GPa) = 14.05670 35.98001 25.01836
#
# Velocity S-wave (km/s) = 2.49341 3.98918 3.32646
# Velocity P-wave (km/s) = 4.03197 6.74294 5.55536
#
# Compressibility (1/GPa) = 0.05551276
#
# Stress axis : x y z
#
# Youngs Moduli (GPa) = 64.75038 10.34374 37.48307
#
# Poissons Ratio (x) = -0.00252 0.11287
# Poissons Ratio (y) = -0.01578 1.45719
# Poissons Ratio (z) = 0.19497 0.40212
#
# Static dielectric constant tensor:
#      x y z
#    x 1.881090 0.024770 0.009570 
#    y 0.024770 1.862700 0.004200 
#    z 0.009570 0.004200 1.852370 
# 
# From -- ./inp_files/271504.got.cif
#   From: 2010.05.17/outbox.cif.g08.bks.cpg/sg2_136_cif.got.tgz:271504.got - 2010.06.03 11:33:40.
