data_PCOD9056664
_publ_section_title
;
Structure prediction by ZEFSAII (Michael W. Deem and Ramdas Pophale) SiO2 
 PCOD9056664
Probable space group: P -1
;
_chemical_formula_sum "Si O2"
_cell_formula_units_Z 16
_cell_length_a 20.280369
_cell_length_b 8.909108
_cell_length_c 8.175836
_cell_angle_alpha 125.744028
_cell_angle_beta 120.911638
_cell_angle_gamma 37.526370
_cell_volume 726.505983
_symmetry_space_group_name_H-M "P -1"
_symmetry_group_IT_number 2
_symmetry_cell_setting 'triclinic'
loop_
_space_group_symop_operation_xyz
x,y,z
-x,-y,-z
loop_
_atom_site_type_symbol
_atom_site_label
_atom_site_fract_x
_atom_site_fract_y
_atom_site_fract_z
Si Si1 0.145979 0.870691 0.449226
Si Si2 0.116713 0.892189 0.068263
Si Si3 0.275849 0.475364 0.785373
Si Si4 0.907515 0.351598 0.573068
Si Si5 0.110930 0.252719 0.069988
Si Si6 0.340517 0.785455 0.006146
Si Si7 0.376227 0.653477 0.622577
Si Si8 0.602408 0.113370 0.509643
O O1 0.136376 0.952167 0.304419
O O2 0.128998 0.677683 0.320535
O O3 0.264215 0.735587 0.565789
O O4 0.036834 0.120228 0.563503
O O5 0.107815 0.060507 0.025486
O O6 0.218390 0.586229 0.960588
O O7 0.000000 0.000000 0.000000
O O8 0.166781 0.637064 0.638414
O O9 0.333844 0.575185 0.898642
O O10 0.350246 0.172628 0.643527
O O11 0.874197 0.619042 0.689816
O O12 0.000000 0.500000 0.000000
O O13 0.219589 0.065935 0.983800
O O14 0.407158 0.694442 0.863871
O O15 0.365177 0.850290 0.249539
O O16 0.471167 0.349743 0.499717
O O17 0.364523 0.815692 0.559558
#
# Coordination Sequence:
#
# PCOD9056664 Si02
#       8
#     2   2   2   2   2   2   2   2
#     4  11  23  41  66  99 137 174 223 278 340 410
#     4  11  23  40  63  96 140 178 222 278 337 404
#     4  11  23  44  65  98 134 175 225 277 336 402
#     4  11  22  40  65  95 137 174 213 277 341 403
#     4  11  23  37  62  97 134 177 223 275 336 409
#     4  11  23  46  68  97 136 180 225 281 339 401
#     4  11  24  45  71 100 132 181 228 283 338 400
#     4  11  26  48  69  99 139 175 234 286 332 401
#
# _framework density 22.023218
#
# number of rings (size 3 to 8) (size 9 to 14) (size 15 to 20)
#    0.000    1.000    3.750    3.375    3.500    4.000 
#    0.000    5.625    0.000    0.000    0.000    0.000 
#    0.000    0.000    0.000    0.000    0.000    0.000 
#
# Total GULP energy -89206.787966 kJ/mol
# GULP energy per Si atom -5575.424248 kJ/mol
# Density = 2.197309 g / cm^3
# Si number density = 22.023218 Si / 1000 Ang^3
#
#
#
# Elastic Constant Matrix: (Units=GPa)
#
#
# Indices 1 2 3 4 5 6 
#
# 1 73.0369 31.5213 42.1139 11.0000 -16.9768 -18.8299
# 2 31.5213 109.0738 43.4379 27.7627 -2.4741 -9.1182
# 3 42.1139 43.4379 102.4318 19.5241 -1.4263 6.3234
# 4 11.0000 27.7627 19.5241 41.8788 3.3451 -3.3344
# 5 -16.9768 -2.4741 -1.4263 3.3451 38.1152 -3.0291
# 6 -18.8299 -9.1182 6.3234 -3.3344 -3.0291 26.2848
#
#
#
# Elastic Compliance Matrix: (Units=1/GPa)
#
#
# Indices 1 2 3 4 5 6 
#
# 1 0.035040 -0.000885 -0.015616 -0.000298 0.017417 0.030521
# 2 -0.000885 0.013080 -0.004246 -0.006213 0.001181 0.004273
# 3 -0.015616 -0.004246 0.019619 -0.003100 -0.007708 -0.018661
# 4 -0.000298 -0.006213 -0.003100 0.029916 -0.003134 0.001811
# 5 0.017417 0.001181 -0.007708 -0.003134 0.035522 0.018437
# 6 0.030521 0.004273 -0.018661 0.001811 0.018437 0.068236
#
#
# Mechanical properties :
#
#
# Convention : Reuss Voigt Hill
#
# Bulk Modulus (GPa) = 38.10177 57.63207 47.86692
# Shear Modulus (GPa) = 19.86837 32.42039 26.14438
#
# Velocity S-wave (km/s) = 3.00685 3.84096 3.44921
# Velocity P-wave (km/s) = 5.42154 6.77467 6.13553
#
# Compressibility (1/GPa) = 0.02624550
#
# Stress axis : x y z
#
# Youngs Moduli (GPa) = 28.53872 76.45059 50.97041
#
# Poissons Ratio (x) = 0.06765 0.79596
# Poissons Ratio (y) = 0.02525 0.21643
# Poissons Ratio (z) = 0.44566 0.32462
#
# Static dielectric constant tensor:
#      x y z
#    x 1.474870 0.090730 -0.259480 
#    y 0.090730 1.830250 0.030770 
#    z -0.259480 0.030770 1.740370 
# 
# From -- ./inp_files/343042.got.cif
#   From: 2010.05.17/outbox.cif.g08.bks.cpg/sg2_172_cif.got.tgz:343042.got - 2010.06.03 11:33:40.
