data_PCOD9056711
_publ_section_title
;
Structure prediction by ZEFSAII (Michael W. Deem and Ramdas Pophale) SiO2 
 PCOD9056711
Probable space group: P -1
;
_chemical_formula_sum "Si O2"
_cell_formula_units_Z 12
_cell_length_a 9.685145
_cell_length_b 6.675078
_cell_length_c 9.414637
_cell_angle_alpha 84.244424
_cell_angle_beta 107.140802
_cell_angle_gamma 46.546579
_cell_volume 379.811391
_symmetry_space_group_name_H-M "P -1"
_symmetry_group_IT_number 2
_symmetry_cell_setting 'triclinic'
loop_
_space_group_symop_operation_xyz
x,y,z
-x,-y,-z
loop_
_atom_site_type_symbol
_atom_site_label
_atom_site_fract_x
_atom_site_fract_y
_atom_site_fract_z
Si Si1 0.239564 0.047544 0.635880
Si Si2 0.332301 0.497850 0.018007
Si Si3 0.585287 0.704334 0.264637
Si Si4 0.000000 0.000000 0.000000
Si Si5 0.000000 0.500000 0.000000
Si Si6 0.798075 0.335633 0.610624
Si Si7 0.229094 0.213389 0.323011
O O1 0.254424 0.274013 0.653654
O O2 0.226163 0.059937 0.458558
O O3 0.031260 0.150048 0.624992
O O4 0.458017 0.752368 0.804842
O O5 0.373460 0.390796 0.878638
O O6 0.113681 0.621128 0.018650
O O7 0.227298 0.823503 0.990897
O O8 0.645607 0.467206 0.413635
O O9 0.340413 0.045167 0.213817
O O10 0.150942 0.843714 0.221393
O O11 0.009208 0.485054 0.833121
O O12 0.680645 0.668558 0.605895
#
# Coordination Sequence:
#
# PCOD9056711 Si02
#       7
#     2   2   2   1   1   2   2
#     4  11  22  42  69 103 133 171 225 276 337 382
#     4  12  26  41  69 100 133 178 217 284 325 403
#     4  11  22  40  67 103 132 167 230 275 328 385
#     4  12  26  46  64  92 140 184 218 264 346 400
#     4  12  22  40  66 100 128 170 228 270 326 372
#     4  11  23  42  67  96 140 180 213 272 335 398
#     4  11  22  40  69 103 136 169 219 284 330 381
#
# _framework density 31.594633000000002
#
# number of rings (size 3 to 8) (size 9 to 14) (size 15 to 20)
#    0.000    0.667    3.333    7.500    2.333    1.333 
#    0.000    0.000    0.000    5.000    0.000    0.000 
#    0.000    0.000    0.000    0.000    0.000    0.000 
#
# Total GULP energy -66925.832477 kJ/mol
# GULP energy per Si atom -5577.152706 kJ/mol
# Density = 3.152272 g / cm^3
# Si number density = 31.594633 Si / 1000 Ang^3
#
#
#
# Elastic Constant Matrix: (Units=GPa)
#
#
# Indices 1 2 3 4 5 6 
#
# 1 144.7735 22.1108 28.2360 11.9897 -14.5818 -2.4860
# 2 22.1108 188.4840 116.8474 19.2228 -15.0708 -14.5904
# 3 28.2360 116.8474 313.4231 35.8935 -27.4564 8.0918
# 4 11.9897 19.2228 35.8935 88.7251 11.7852 -9.2654
# 5 -14.5818 -15.0708 -27.4564 11.7852 49.2982 7.1813
# 6 -2.4860 -14.5904 8.0918 -9.2654 7.1813 37.9676
#
#
#
# Elastic Compliance Matrix: (Units=1/GPa)
#
#
# Indices 1 2 3 4 5 6 
#
# 1 0.007330 -0.000512 -0.000124 -0.001175 0.002283 -0.000409
# 2 -0.000512 0.007354 -0.002767 -0.000066 0.000083 0.003350
# 3 -0.000124 -0.002767 0.004779 -0.001999 0.002707 -0.003090
# 4 -0.001175 -0.000066 -0.001999 0.013449 -0.005369 0.004621
# 5 0.002283 0.000083 0.002707 -0.005369 0.024706 -0.006379
# 6 -0.000409 0.003350 -0.003090 0.004621 -0.006379 0.030592
#
#
# Mechanical properties :
#
#
# Convention : Reuss Voigt Hill
#
# Bulk Modulus (GPa) = 79.01358 109.00768 94.01063
# Shear Modulus (GPa) = 50.38549 67.16392 58.77471
#
# Velocity S-wave (km/s) = 3.99776 4.61564 4.31777
# Velocity P-wave (km/s) = 6.80972 7.93615 7.39441
#
# Compressibility (1/GPa) = 0.01265605
#
# Stress axis : x y z
#
# Youngs Moduli (GPa) = 136.42500 135.98663 209.23654
#
# Poissons Ratio (x) = 0.06963 0.02601
# Poissons Ratio (y) = 0.06986 0.57897
# Poissons Ratio (z) = 0.01696 0.37628
#
# Static dielectric constant tensor:
#      x y z
#    x 2.631990 0.473540 -0.027200 
#    y 0.473540 2.138790 0.512510 
#    z -0.027200 0.512510 1.911000 
# 
# From -- ./inp_files/243015.got.cif
#   From: 2010.05.17/outbox.cif.g08.bks.cpg/sg2_122_cif.got.tgz:243015.got - 2010.06.03 11:33:40.
