data_PCOD9056735
_publ_section_title
;
Structure prediction by ZEFSAII (Michael W. Deem and Ramdas Pophale) SiO2 
 PCOD9056735
Probable space group: P -1
;
_chemical_formula_sum "Si O2"
_cell_formula_units_Z 16
_cell_length_a 11.157376
_cell_length_b 9.847194
_cell_length_c 11.307233
_cell_angle_alpha 57.457447
_cell_angle_beta 122.198841
_cell_angle_gamma 78.698492
_cell_volume 652.593354
_symmetry_space_group_name_H-M "P -1"
_symmetry_group_IT_number 2
_symmetry_cell_setting 'triclinic'
loop_
_space_group_symop_operation_xyz
x,y,z
-x,-y,-z
loop_
_atom_site_type_symbol
_atom_site_label
_atom_site_fract_x
_atom_site_fract_y
_atom_site_fract_z
Si Si1 0.921128 0.610298 0.777485
Si Si2 0.063974 0.843145 0.718820
Si Si3 0.793257 0.443922 0.426973
Si Si4 0.440780 0.730505 0.956438
Si Si5 0.754329 0.138076 0.628198
Si Si6 0.538167 0.110674 0.347041
Si Si7 0.805554 0.823286 0.974475
Si Si8 0.231090 0.171002 0.770331
O O1 0.037386 0.675389 0.760238
O O2 0.704566 0.844712 0.556474
O O3 0.000000 0.500000 0.000000
O O4 0.982257 0.414161 0.820409
O O5 0.283481 0.720831 0.914952
O O6 0.000000 0.000000 0.500000
O O7 0.926916 0.978759 0.697363
O O8 0.742054 0.339242 0.537894
O O9 0.757551 0.654701 0.349320
O O10 0.015672 0.271574 0.587746
O O11 0.652860 0.522038 0.205854
O O12 0.426582 0.788876 0.785857
O O13 0.378386 0.941018 0.892637
O O14 0.572952 0.187974 0.447356
O O15 0.797271 0.007996 0.830577
O O16 0.340550 0.173982 0.181305
O O17 0.747851 0.853104 0.065915
#
# Coordination Sequence:
#
# PCOD9056735 Si02
#       8
#     2   2   2   2   2   2   2   2
#     4  11  24  42  66 101 138 181 211 269 350 399
#     4  11  22  40  68 100 139 168 218 284 329 400
#     4  11  26  43  70  97 131 184 227 283 327 390
#     4  12  24  44  71 101 134 177 231 281 330 393
#     4  11  24  46  65 104 139 167 225 281 341 400
#     4  11  25  41  72 103 136 173 224 281 332 413
#     4  12  26  45  71  98 141 183 217 277 339 406
#     4  11  27  45  69  96 138 179 236 273 325 407
#
# _framework density 24.517565999999999
#
# number of rings (size 3 to 8) (size 9 to 14) (size 15 to 20)
#    0.000    0.750    7.500    0.750    7.000    1.000 
#    0.000    0.625    0.000    0.000    0.000    0.000 
#    0.000    0.000    0.000    0.000    0.000    0.000 
#
# Total GULP energy -89648.577346 kJ/mol
# GULP energy per Si atom -5603.036084 kJ/mol
# Density = 2.446176 g / cm^3
# Si number density = 24.517566 Si / 1000 Ang^3
#
#
#
# Elastic Constant Matrix: (Units=GPa)
#
#
# Indices 1 2 3 4 5 6 
#
# 1 123.8710 30.6857 59.7168 -1.0949 -13.8394 28.2458
# 2 30.6857 91.1424 29.5986 -11.5881 -21.8857 12.4456
# 3 59.7168 29.5986 141.6162 -5.5564 0.7742 18.1448
# 4 -1.0949 -11.5881 -5.5564 30.1402 10.4289 -5.5924
# 5 -13.8394 -21.8857 0.7742 10.4289 57.9381 -7.7916
# 6 28.2458 12.4456 18.1448 -5.5924 -7.7916 36.1044
#
#
#
# Elastic Compliance Matrix: (Units=1/GPa)
#
#
# Indices 1 2 3 4 5 6 
#
# 1 0.012226 -0.001778 -0.004015 -0.002929 0.001891 -0.006980
# 2 -0.001778 0.013708 -0.001880 0.003269 0.004055 -0.001008
# 3 -0.004015 -0.001880 0.009365 0.001402 -0.002205 -0.001176
# 4 -0.002929 0.003269 0.001402 0.037445 -0.005543 0.005063
# 5 0.001891 0.004055 -0.002205 -0.005543 0.020512 0.001799
# 6 -0.006980 -0.001008 -0.001176 0.005063 0.001799 0.035269
#
#
# Mechanical properties :
#
#
# Convention : Reuss Voigt Hill
#
# Bulk Modulus (GPa) = 50.11628 66.29242 58.20435
# Shear Modulus (GPa) = 33.21802 40.61177 36.91490
#
# Velocity S-wave (km/s) = 3.68484 4.07435 3.88448
# Velocity P-wave (km/s) = 6.21204 7.01649 6.62649
#
# Compressibility (1/GPa) = 0.01995359
#
# Stress axis : x y z
#
# Youngs Moduli (GPa) = 81.79510 72.95103 106.78023
#
# Poissons Ratio (x) = 0.12967 0.42870
# Poissons Ratio (y) = 0.14539 0.20077
# Poissons Ratio (z) = 0.32839 0.13716
#
# Static dielectric constant tensor:
#      x y z
#    x 1.924550 0.016050 0.027660 
#    y 0.016050 1.964670 0.007160 
#    z 0.027660 0.007160 1.970860 
# 
# From -- ./inp_files/345887.got.cif
#   From: 2010.05.17/outbox.cif.g08.bks.cpg/sg2_173_cif.got.tgz:345887.got - 2010.06.03 11:33:40.
