data_PCOD9056022
_publ_section_title
;
Structure prediction by ZEFSAII (Michael W. Deem and Ramdas Pophale) SiO2 
 PCOD9056022
Probable space group: P -1
;
_chemical_formula_sum "Si O2"
_cell_formula_units_Z 14
_cell_length_a 9.221327
_cell_length_b 12.609991
_cell_length_c 9.189399
_cell_angle_alpha 80.061625
_cell_angle_beta 60.534671
_cell_angle_gamma 45.537482
_cell_volume 638.060425
_symmetry_space_group_name_H-M "P -1"
_symmetry_group_IT_number 2
_symmetry_cell_setting 'triclinic'
loop_
_space_group_symop_operation_xyz
x,y,z
-x,-y,-z
loop_
_atom_site_type_symbol
_atom_site_label
_atom_site_fract_x
_atom_site_fract_y
_atom_site_fract_z
Si Si1 0.736438 0.614758 0.169700
Si Si2 0.909971 0.060477 0.866651
Si Si3 0.628492 0.029960 0.830282
Si Si4 0.093505 0.161840 0.550135
Si Si5 0.464026 0.399388 0.106323
Si Si6 0.933639 0.597300 0.366049
Si Si7 0.451213 0.533594 0.346965
O O1 0.566492 0.788642 0.155546
O O2 0.766591 0.616134 0.328782
O O3 0.616860 0.555820 0.211172
O O4 0.000000 0.500000 0.000000
O O5 0.847282 0.983723 0.822417
O O6 0.068943 0.070624 0.691631
O O7 0.654122 0.233939 0.981579
O O8 0.000000 0.000000 0.000000
O O9 0.734717 0.936698 0.648213
O O10 0.500000 0.000000 0.000000
O O11 0.160027 0.240591 0.583715
O O12 0.824449 0.308638 0.587901
O O13 0.504050 0.401923 0.258329
O O14 0.194174 0.490606 0.191275
O O15 0.500000 0.500000 0.000000
O O16 0.000000 0.500000 0.500000
O O17 0.500000 0.500000 0.500000
#
# Coordination Sequence:
#
# PCOD9056022 Si02
#       7
#     2   2   2   2   2   2   2
#     4  12  26  44  73 104 146 184 235 295 358 417
#     4  12  27  46  75 104 142 192 237 293 358 433
#     4  12  30  49  71 106 149 190 237 300 364 426
#     4  11  26  50  69 104 150 186 243 294 355 431
#     4  11  21  45  69 100 138 179 239 288 348 414
#     4  11  25  43  72 106 142 184 237 296 353 422
#     4  11  24  42  75 103 135 187 237 294 346 426
#
# _framework density 21.941495
#
# number of rings (size 3 to 8) (size 9 to 14) (size 15 to 20)
#    0.000    0.571    4.286    3.857   10.000    1.714 
#    0.000    0.000    0.000    0.000    0.000    0.000 
#    0.000    0.000    0.000    0.000    0.000    0.000 
#
# Total GULP energy -78346.016625 kJ/mol
# GULP energy per Si atom -5596.144045 kJ/mol
# Density = 2.189156 g / cm^3
# Si number density = 21.941495 Si / 1000 Ang^3
#
#
#
# Elastic Constant Matrix: (Units=GPa)
#
#
# Indices 1 2 3 4 5 6 
#
# 1 115.6643 14.6668 27.8169 -3.8991 24.5485 11.6722
# 2 14.6668 38.2267 31.9135 -2.9874 1.0957 3.7170
# 3 27.8169 31.9135 144.1761 -2.5140 8.5826 9.1666
# 4 -3.8991 -2.9874 -2.5140 51.3867 -5.4369 6.0704
# 5 24.5485 1.0957 8.5826 -5.4369 45.1149 -6.6915
# 6 11.6722 3.7170 9.1666 6.0704 -6.6915 32.3189
#
#
#
# Elastic Compliance Matrix: (Units=1/GPa)
#
#
# Indices 1 2 3 4 5 6 
#
# 1 0.011088 -0.002889 -0.000795 0.000527 -0.006473 -0.004886
# 2 -0.002889 0.033103 -0.006825 0.001683 0.002166 -0.000696
# 3 -0.000795 -0.006825 0.008787 0.000034 -0.001322 -0.001700
# 4 0.000527 0.001683 0.000034 0.020219 0.001528 -0.003875
# 5 -0.006473 0.002166 -0.001322 0.001528 0.027230 0.007814
# 6 -0.004886 -0.000696 -0.001700 -0.003875 0.007814 0.035614
#
#
# Mechanical properties :
#
#
# Convention : Reuss Voigt Hill
#
# Bulk Modulus (GPa) = 31.28849 49.65129 40.46989
# Shear Modulus (GPa) = 29.81270 40.67542 35.24406
#
# Velocity S-wave (km/s) = 3.69010 4.31026 4.01218
# Velocity P-wave (km/s) = 5.69620 6.88834 6.32044
#
# Compressibility (1/GPa) = 0.03196063
#
# Stress axis : x y z
#
# Youngs Moduli (GPa) = 90.18898 30.20831 113.79838
#
# Poissons Ratio (x) = 0.08727 0.09042
# Poissons Ratio (y) = 0.26056 0.77673
# Poissons Ratio (z) = 0.07166 0.20619
#
# Static dielectric constant tensor:
#      x y z
#    x 1.793580 -0.001230 0.027050 
#    y -0.001230 1.800280 -0.056790 
#    z 0.027050 -0.056790 1.860160 
# 
# From -- ./inp_files/156615.got.cif
#   From: 2010.05.17/outbox.cif.g08.bks.cpg/sg2_79_cif.got.tgz:156615.got - 2010.06.03 11:33:40.
