data_PCOD9056860
_publ_section_title
;
Structure prediction by ZEFSAII (Michael W. Deem and Ramdas Pophale) SiO2 
 PCOD9056860
Probable space group: P -1
;
_chemical_formula_sum "Si O2"
_cell_formula_units_Z 14
_cell_length_a 6.799520
_cell_length_b 10.813639
_cell_length_c 12.395997
_cell_angle_alpha 80.096216
_cell_angle_beta 42.194512
_cell_angle_gamma 80.053809
_cell_volume 601.635672
_symmetry_space_group_name_H-M "P -1"
_symmetry_group_IT_number 2
_symmetry_cell_setting 'triclinic'
loop_
_space_group_symop_operation_xyz
x,y,z
-x,-y,-z
loop_
_atom_site_type_symbol
_atom_site_label
_atom_site_fract_x
_atom_site_fract_y
_atom_site_fract_z
Si Si1 0.356900 0.337329 0.114424
Si Si2 0.522750 0.651152 0.490015
Si Si3 0.889916 0.159439 0.246165
Si Si4 0.823831 0.427748 0.741108
Si Si5 0.901341 0.211508 0.996537
Si Si6 0.219445 0.922611 0.161354
Si Si7 0.451293 0.719600 0.277687
O O1 0.133283 0.436659 0.248256
O O2 0.176188 0.229087 0.156264
O O3 0.550284 0.388308 0.931278
O O4 0.604170 0.299704 0.106593
O O5 0.500000 0.500000 0.500000
O O6 0.367249 0.734786 0.635867
O O7 0.401836 0.730037 0.422944
O O8 0.873909 0.654561 0.358199
O O9 0.896106 0.132160 0.119568
O O10 0.950504 0.020619 0.292713
O O11 0.695579 0.407858 0.678506
O O12 0.875431 0.143673 0.901689
O O13 0.195730 0.285158 0.874204
O O14 0.319830 0.828283 0.233082
O O15 0.500000 0.000000 0.000000
#
# Coordination Sequence:
#
# PCOD9056860 Si02
#       7
#     2   2   2   2   2   2   2
#     4  11  22  40  73 107 135 184 243 285 353 416
#     4  12  28  48  68 105 151 188 231 291 368 419
#     4  12  26  44  72 110 142 185 237 290 359 421
#     4  11  23  44  68 104 143 182 239 293 346 426
#     4  12  22  43  74 108 135 184 239 297 346 413
#     4  12  23  45  75 107 141 180 247 297 344 416
#     4  12  25  45  73 100 149 188 230 297 348 418
#
# _framework density 23.269897
#
# number of rings (size 3 to 8) (size 9 to 14) (size 15 to 20)
#    0.000    0.286    8.571    0.429    2.000    2.857 
#    0.000    2.857    0.000    0.000    0.000    0.000 
#    0.000    0.000    0.000    0.000    0.000    0.000 
#
# Total GULP energy -78047.008823 kJ/mol
# GULP energy per Si atom -5574.786345 kJ/mol
# Density = 2.321693 g / cm^3
# Si number density = 23.269897 Si / 1000 Ang^3
#
#
#
# Elastic Constant Matrix: (Units=GPa)
#
#
# Indices 1 2 3 4 5 6 
#
# 1 145.1716 33.9866 37.0419 10.0769 6.8840 5.2852
# 2 33.9866 84.2460 36.4340 31.9799 -4.4247 -3.4019
# 3 37.0419 36.4340 75.3355 23.7529 -7.6314 -2.8549
# 4 10.0769 31.9799 23.7529 36.5461 -10.2477 -0.4452
# 5 6.8840 -4.4247 -7.6314 -10.2477 36.6037 1.0377
# 6 5.2852 -3.4019 -2.8549 -0.4452 1.0377 31.6824
#
#
#
# Elastic Compliance Matrix: (Units=1/GPa)
#
#
# Indices 1 2 3 4 5 6 
#
# 1 0.008524 -0.002701 -0.003752 0.001827 -0.002145 -0.001954
# 2 -0.002701 0.020350 -0.003884 -0.015110 -0.002133 0.002143
# 3 -0.003752 -0.003884 0.019732 -0.007774 0.002122 0.001808
# 4 0.001827 -0.015110 -0.007774 0.047815 0.009660 -0.002272
# 5 -0.002145 -0.002133 0.002122 0.009660 0.030628 -0.000547
# 6 -0.001954 0.002143 0.001808 -0.002272 -0.000547 0.032268
#
#
# Mechanical properties :
#
#
# Convention : Reuss Voigt Hill
#
# Bulk Modulus (GPa) = 35.80288 57.74200 46.77244
# Shear Modulus (GPa) = 26.41278 34.11916 30.26597
#
# Velocity S-wave (km/s) = 3.37272 3.83330 3.61036
# Velocity P-wave (km/s) = 5.53049 6.66784 6.12562
#
# Compressibility (1/GPa) = 0.02793071
#
# Stress axis : x y z
#
# Youngs Moduli (GPa) = 117.31210 49.14077 50.67881
#
# Poissons Ratio (x) = 0.13273 0.19016
# Poissons Ratio (y) = 0.31687 0.19685
# Poissons Ratio (z) = 0.44019 0.19088
#
# Static dielectric constant tensor:
#      x y z
#    x 1.909240 -0.019610 0.032020 
#    y -0.019610 1.985870 -0.017330 
#    z 0.032020 -0.017330 1.915020 
# 
# From -- ./inp_files/27478.got.cif
#   From: 2010.05.17/outbox.cif.g08.bks.cpg/sg2_14_cif.got.tgz:27478.got - 2010.06.03 11:33:40.
