data_PCOD9056873
_publ_section_title
;
Structure prediction by ZEFSAII (Michael W. Deem and Ramdas Pophale) SiO2 
 PCOD9056873
Probable space group: P -1
;
_chemical_formula_sum "Si O2"
_cell_formula_units_Z 14
_cell_length_a 8.820121
_cell_length_b 13.283735
_cell_length_c 9.002278
_cell_angle_alpha 122.152156
_cell_angle_beta 100.313189
_cell_angle_gamma 46.440181
_cell_volume 616.080764
_symmetry_space_group_name_H-M "P -1"
_symmetry_group_IT_number 2
_symmetry_cell_setting 'triclinic'
loop_
_space_group_symop_operation_xyz
x,y,z
-x,-y,-z
loop_
_atom_site_type_symbol
_atom_site_label
_atom_site_fract_x
_atom_site_fract_y
_atom_site_fract_z
Si Si1 0.695392 0.173112 0.417536
Si Si2 0.854159 0.035018 0.813194
Si Si3 0.237613 0.337506 0.479347
Si Si4 0.263761 0.100139 0.108952
Si Si5 0.130027 0.196562 0.853251
Si Si6 0.715079 0.321441 0.835794
Si Si7 0.566856 0.836117 0.320736
O O1 0.443378 0.299398 0.416444
O O2 0.695733 0.248470 0.629832
O O3 0.763423 0.994834 0.307370
O O4 0.892316 0.122489 0.314981
O O5 0.811871 0.195919 0.896344
O O6 0.662690 0.090906 0.715655
O O7 0.795362 0.000838 0.929167
O O8 0.253445 0.190841 0.319115
O O9 0.295838 0.308599 0.642254
O O10 0.000000 0.500000 0.500000
O O11 0.104935 0.226439 0.048070
O O12 0.500000 0.000000 0.000000
O O13 0.279871 0.218385 0.834211
O O14 0.897527 0.319388 0.828699
O O15 0.500000 0.500000 0.000000
O O16 0.500000 0.000000 0.500000
#
# Coordination Sequence:
#
# PCOD9056873 Si02
#       7
#     2   2   2   2   2   2   2
#     4  11  22  43  70  97 134 184 233 274 341 415
#     4  11  22  40  76  98 130 188 240 274 339 413
#     4  12  27  43  68 103 147 174 225 292 354 398
#     4  12  23  44  68 105 137 172 232 287 331 410
#     4  11  23  42  72  99 133 179 237 278 332 419
#     4  11  25  42  65 103 139 174 231 293 341 399
#     4  12  18  41  75  98 123 188 235 269 333 423
#
# _framework density 22.724294
#
# number of rings (size 3 to 8) (size 9 to 14) (size 15 to 20)
#    0.000    0.571    7.143    2.571    2.000    2.286 
#    2.571    2.143    0.000    0.000    0.000    0.000 
#    0.000    0.000    0.000    0.000    0.000    0.000 
#
# Total GULP energy -78029.680520 kJ/mol
# GULP energy per Si atom -5573.548609 kJ/mol
# Density = 2.267257 g / cm^3
# Si number density = 22.724294 Si / 1000 Ang^3
#
#
#
# Elastic Constant Matrix: (Units=GPa)
#
#
# Indices 1 2 3 4 5 6 
#
# 1 146.6411 45.5143 24.7088 -4.6379 -30.4028 -34.6705
# 2 45.5143 119.8107 32.2369 -4.1434 -22.5695 -30.7100
# 3 24.7088 32.2369 64.0882 -10.8145 -9.8324 -4.5614
# 4 -4.6379 -4.1434 -10.8145 35.8517 -9.6495 -4.5279
# 5 -30.4028 -22.5695 -9.8324 -9.6495 34.3694 -7.0372
# 6 -34.6705 -30.7100 -4.5614 -4.5279 -7.0372 48.8372
#
#
#
# Elastic Compliance Matrix: (Units=1/GPa)
#
#
# Indices 1 2 3 4 5 6 
#
# 1 0.014203 0.003011 -0.001285 0.009128 0.019925 0.015574
# 2 0.003011 0.015403 -0.004110 0.007230 0.016602 0.014502
# 3 -0.001285 -0.004110 0.019679 0.006132 0.003393 -0.000601
# 4 0.009128 0.007230 0.006132 0.042513 0.030597 0.019949
# 5 0.019925 0.016602 0.003393 0.030597 0.075079 0.038557
# 6 0.015574 0.014502 -0.000601 0.019949 0.038557 0.048001
#
#
# Mechanical properties :
#
#
# Convention : Reuss Voigt Hill
#
# Bulk Modulus (GPa) = 22.46271 59.49554 40.97913
# Shear Modulus (GPa) = 21.32333 39.01700 30.17016
#
# Velocity S-wave (km/s) = 3.06657 4.14813 3.64766
# Velocity P-wave (km/s) = 4.73760 7.01291 5.98439
#
# Compressibility (1/GPa) = 0.04451822
#
# Stress axis : x y z
#
# Youngs Moduli (GPa) = 70.40669 64.92214 50.81675
#
# Poissons Ratio (x) = -0.19550 0.06530
# Poissons Ratio (y) = -0.21201 0.20883
# Poissons Ratio (z) = 0.09047 0.26680
#
# Static dielectric constant tensor:
#      x y z
#    x 2.170900 -0.042140 -0.009290 
#    y -0.042140 1.900380 -0.010660 
#    z -0.009290 -0.010660 1.910690 
# 
# From -- ./inp_files/208761.got.cif
#   From: 2010.05.17/outbox.cif.g08.bks.cpg/sg2_105_cif.got.tgz:208761.got - 2010.06.03 11:33:40.
