data_PCOD9056411
_publ_section_title
;
Structure prediction by ZEFSAII (Michael W. Deem and Ramdas Pophale) SiO2 
 PCOD9056411
Probable space group: P -1
;
_chemical_formula_sum "Si O2"
_cell_formula_units_Z 16
_cell_length_a 11.185558
_cell_length_b 8.015815
_cell_length_c 8.775291
_cell_angle_alpha 74.207925
_cell_angle_beta 105.027748
_cell_angle_gamma 77.826335
_cell_volume 696.878478
_symmetry_space_group_name_H-M "P -1"
_symmetry_group_IT_number 2
_symmetry_cell_setting 'triclinic'
loop_
_space_group_symop_operation_xyz
x,y,z
-x,-y,-z
loop_
_atom_site_type_symbol
_atom_site_label
_atom_site_fract_x
_atom_site_fract_y
_atom_site_fract_z
Si Si1 0.211540 0.230035 0.557682
Si Si2 0.948037 0.881621 0.894218
Si Si3 0.344693 0.432861 0.880190
Si Si4 0.204521 0.891232 0.491182
Si Si5 0.070890 0.684088 0.706181
Si Si6 0.730405 0.888859 0.044831
Si Si7 0.653057 0.463939 0.552167
Si Si8 0.621839 0.325342 0.889235
O O1 0.222871 0.164798 0.753062
O O2 0.289050 0.372147 0.508240
O O3 0.062085 0.310353 0.427216
O O4 0.269213 0.040612 0.531964
O O5 0.043667 0.719355 0.868460
O O6 0.882485 0.016267 0.702678
O O7 0.843682 0.824666 0.973780
O O8 0.000000 0.000000 0.000000
O O9 0.193666 0.508039 0.761994
O O10 0.365675 0.228512 0.998025
O O11 0.464165 0.400123 0.811529
O O12 0.352524 0.581701 0.969641
O O13 0.120634 0.844066 0.611110
O O14 0.293878 0.702261 0.505010
O O15 0.669913 0.106531 0.961711
O O16 0.500000 0.500000 0.500000
O O17 0.691461 0.391756 0.755654
#
# Coordination Sequence:
#
# PCOD9056411 Si02
#       8
#     2   2   2   2   2   2   2   2
#     4  11  26  45  74 107 144 189 239 297 359 429
#     4  11  22  38  68 102 142 185 227 288 352 427
#     4  11  26  45  74 102 144 189 236 301 354 423
#     4  11  23  44  68 102 147 183 232 296 353 419
#     4  11  24  45  71 108 148 189 239 294 368 422
#     4  12  24  45  72 107 138 189 240 289 361 421
#     4  12  27  46  73 105 141 192 244 292 356 432
#     4  11  25  48  72 102 146 185 241 296 357 420
#
# _framework density 22.959526
#
# number of rings (size 3 to 8) (size 9 to 14) (size 15 to 20)
#    0.000    0.750    1.250    7.125    3.500    5.000 
#    0.000    0.000    0.000    0.000    0.000    0.000 
#    0.000    0.000    0.000    0.000    0.000    0.000 
#
# Total GULP energy -89393.722148 kJ/mol
# GULP energy per Si atom -5587.107634 kJ/mol
# Density = 2.290727 g / cm^3
# Si number density = 22.959526 Si / 1000 Ang^3
#
#
#
# Elastic Constant Matrix: (Units=GPa)
#
#
# Indices 1 2 3 4 5 6 
#
# 1 127.1682 64.1601 48.5426 2.4852 -25.7758 -1.7833
# 2 64.1601 166.4410 60.5083 7.6337 -19.0864 7.0763
# 3 48.5426 60.5083 111.2489 -5.3271 -34.2339 -12.1462
# 4 2.4852 7.6337 -5.3271 26.1668 -7.8801 -17.2258
# 5 -25.7758 -19.0864 -34.2339 -7.8801 44.5000 1.3214
# 6 -1.7833 7.0763 -12.1462 -17.2258 1.3214 37.4420
#
#
#
# Elastic Compliance Matrix: (Units=1/GPa)
#
#
# Indices 1 2 3 4 5 6 
#
# 1 0.010914 -0.003341 -0.001486 0.001707 0.004009 0.001313
# 2 -0.003341 0.010435 -0.007498 -0.012457 -0.005134 -0.010113
# 3 -0.001486 -0.007498 0.022134 0.024522 0.016722 0.019218
# 4 0.001707 -0.012457 0.024522 0.088192 0.028645 0.049954
# 5 0.004009 -0.005134 0.016722 0.028645 0.039984 0.018353
# 6 0.001313 -0.010113 0.019218 0.049954 0.018353 0.057250
#
#
# Mechanical properties :
#
#
# Convention : Reuss Voigt Hill
#
# Bulk Modulus (GPa) = 53.10165 83.47559 68.28862
# Shear Modulus (GPa) = 19.24284 37.06489 28.15387
#
# Velocity S-wave (km/s) = 2.89817 4.02227 3.50557
# Velocity P-wave (km/s) = 5.86326 7.61631 6.79654
#
# Compressibility (1/GPa) = 0.01883181
#
# Stress axis : x y z
#
# Youngs Moduli (GPa) = 91.62233 95.83574 45.18002
#
# Poissons Ratio (x) = 0.32023 0.06715
# Poissons Ratio (y) = 0.30615 0.33875
# Poissons Ratio (z) = 0.13618 0.71855
#
# Static dielectric constant tensor:
#      x y z
#    x 1.926690 -0.010660 0.026530 
#    y -0.010660 1.876420 -0.026380 
#    z 0.026530 -0.026380 1.934420 
# 
# From -- ./inp_files/243020.got.cif
#   From: 2010.05.17/outbox.cif.g08.bks.cpg/sg2_122_cif.got.tgz:243020.got - 2010.06.03 11:33:40.
