data_PCOD9056350
_publ_section_title
;
Structure prediction by ZEFSAII (Michael W. Deem and Ramdas Pophale) SiO2 
 PCOD9056350
Probable space group: P -1
;
_chemical_formula_sum "Si O2"
_cell_formula_units_Z 16
_cell_length_a 9.917511
_cell_length_b 14.986542
_cell_length_c 14.692768
_cell_angle_alpha 30.834032
_cell_angle_beta 85.215442
_cell_angle_gamma 64.525323
_cell_volume 794.504124
_symmetry_space_group_name_H-M "P -1"
_symmetry_group_IT_number 2
_symmetry_cell_setting 'triclinic'
loop_
_space_group_symop_operation_xyz
x,y,z
-x,-y,-z
loop_
_atom_site_type_symbol
_atom_site_label
_atom_site_fract_x
_atom_site_fract_y
_atom_site_fract_z
Si Si1 0.714566 0.997164 0.721129
Si Si2 0.475353 0.614026 0.998592
Si Si3 0.034406 0.558202 0.207235
Si Si4 0.078272 0.688293 0.501966
Si Si5 0.577085 0.942103 0.443772
Si Si6 0.805877 0.210758 0.979083
Si Si7 0.532585 0.485733 0.404246
Si Si8 0.121234 0.847886 0.538076
O O1 0.563912 0.036657 0.632397
O O2 0.608523 0.231525 0.585893
O O3 0.846341 0.999579 0.648849
O O4 0.849087 0.750240 0.987135
O O5 0.318160 0.672293 0.022800
O O6 0.675586 0.411185 0.216214
O O7 0.500000 0.500000 0.000000
O O8 0.424850 0.858794 0.766470
O O9 0.214643 0.327727 0.341566
O O10 0.092623 0.695095 0.121730
O O11 0.985603 0.453087 0.374952
O O12 0.300439 0.526477 0.615222
O O13 0.036975 0.793360 0.515594
O O14 0.959902 0.920775 0.238888
O O15 0.500000 0.000000 0.500000
O O16 0.658095 0.304041 0.825525
O O17 0.500000 0.500000 0.500000
O O18 0.000000 0.000000 0.500000
#
# Coordination Sequence:
#
# PCOD9056350 Si02
#       8
#     2   2   2   2   2   2   2   2
#     4  11  24  43  66  97 140 176 229 292 342 403
#     4  12  23  40  63  95 140 187 232 274 338 410
#     4  12  24  42  71  97 141 177 228 287 342 403
#     4  11  24  44  68 102 130 180 227 279 351 406
#     4  12  26  40  63 103 140 189 235 277 339 411
#     4  12  22  46  70  96 140 178 224 291 337 413
#     4  11  25  49  76 100 136 182 229 290 358 412
#     4  11  22  38  61  93 137 180 225 277 334 408
#
# _framework density 20.138345999999999
#
# number of rings (size 3 to 8) (size 9 to 14) (size 15 to 20)
#    0.000    0.500    7.500    3.000    3.500    1.000 
#    0.000    1.250    0.000    0.000    0.000    0.000 
#    0.000    0.000    0.000    0.000    0.000    0.000 
#
# Total GULP energy -89515.865523 kJ/mol
# GULP energy per Si atom -5594.741595 kJ/mol
# Density = 2.009251 g / cm^3
# Si number density = 20.138346 Si / 1000 Ang^3
#
#
#
# Elastic Constant Matrix: (Units=GPa)
#
#
# Indices 1 2 3 4 5 6 
#
# 1 136.7066 40.8893 50.8915 9.0391 -12.2998 1.2275
# 2 40.8893 69.0038 0.0374 21.5724 -5.4620 -1.3066
# 3 50.8915 0.0374 123.6418 6.4112 -1.1986 5.3119
# 4 9.0391 21.5724 6.4112 19.2804 2.0703 0.2833
# 5 -12.2998 -5.4620 -1.1986 2.0703 46.4437 1.7343
# 6 1.2275 -1.3066 5.3119 0.2833 1.7343 10.7697
#
#
#
# Elastic Compliance Matrix: (Units=1/GPa)
#
#
# Indices 1 2 3 4 5 6 
#
# 1 0.011462 -0.008370 -0.004970 0.005467 0.001690 -0.000286
# 2 -0.008370 0.029366 0.004959 -0.030903 0.002651 0.002457
# 3 -0.004970 0.004959 0.010647 -0.006700 -0.000014 -0.003905
# 4 0.005467 -0.030903 -0.006700 0.086802 -0.006141 -0.002363
# 5 0.001690 0.002651 -0.000014 -0.006141 0.022689 -0.003356
# 6 -0.000286 0.002457 -0.003905 -0.002363 -0.003356 0.095712
#
#
# Mechanical properties :
#
#
# Convention : Reuss Voigt Hill
#
# Bulk Modulus (GPa) = 28.80757 56.99874 42.90315
# Shear Modulus (GPa) = 17.54317 31.13438 24.33877
#
# Velocity S-wave (km/s) = 2.95470 3.93622 3.48023
# Velocity P-wave (km/s) = 5.09669 7.00167 6.12371
#
# Compressibility (1/GPa) = 0.03471310
#
# Stress axis : x y z
#
# Youngs Moduli (GPa) = 87.24755 34.05257 93.92284
#
# Poissons Ratio (x) = 0.28501 0.46679
# Poissons Ratio (y) = 0.73024 -0.46573
# Poissons Ratio (z) = 0.43361 -0.16886
#
# Static dielectric constant tensor:
#      x y z
#    x 1.727700 0.008650 0.005880 
#    y 0.008650 1.709190 -0.003700 
#    z 0.005880 -0.003700 1.711050 
# 
# From -- ./inp_files/315445.got.cif
#   From: 2010.05.17/outbox.cif.g08.bks.cpg/sg2_158_cif.got.tgz:315445.got - 2010.06.03 11:33:40.
