data_PCOD9056620
_publ_section_title
;
Structure prediction by ZEFSAII (Michael W. Deem and Ramdas Pophale) SiO2 
 PCOD9056620
Probable space group: P -1
;
_chemical_formula_sum "Si O2"
_cell_formula_units_Z 16
_cell_length_a 7.487377
_cell_length_b 11.392148
_cell_length_c 13.152939
_cell_angle_alpha 146.146912
_cell_angle_beta 96.136023
_cell_angle_gamma 72.224879
_cell_volume 571.952106
_symmetry_space_group_name_H-M "P -1"
_symmetry_group_IT_number 2
_symmetry_cell_setting 'triclinic'
loop_
_space_group_symop_operation_xyz
x,y,z
-x,-y,-z
loop_
_atom_site_type_symbol
_atom_site_label
_atom_site_fract_x
_atom_site_fract_y
_atom_site_fract_z
Si Si1 0.602940 0.912010 0.702213
Si Si2 0.088775 0.638045 0.001203
Si Si3 0.043834 0.723484 0.644511
Si Si4 0.276649 0.444645 0.280073
Si Si5 0.754157 0.977576 0.100340
Si Si6 0.367639 0.819480 0.269926
Si Si7 0.944367 0.785250 0.362718
Si Si8 0.394455 0.467310 0.729286
O O1 0.824103 0.892577 0.722188
O O2 0.615312 0.693365 0.479019
O O3 0.464942 0.919123 0.793714
O O4 0.515309 0.139465 0.789310
O O5 0.221635 0.708678 0.137818
O O6 0.885171 0.845889 0.112423
O O7 0.093907 0.383584 0.840249
O O8 0.191954 0.602043 0.869326
O O9 0.217065 0.614061 0.493079
O O10 0.000000 0.500000 0.500000
O O11 0.145939 0.854747 0.812373
O O12 0.488110 0.390358 0.207602
O O13 0.120196 0.605003 0.305668
O O14 0.236722 0.215333 0.118700
O O15 0.478639 0.678503 0.272164
O O16 0.250207 0.078866 0.488196
O O17 0.000000 0.000000 0.500000
#
# Coordination Sequence:
#
# PCOD9056620 Si02
#       8
#     2   2   2   2   2   2   2   2
#     4  12  24  47  76 102 148 184 235 292 350 421
#     4  11  24  42  65  98 149 194 238 287 337 410
#     4  12  27  52  80 105 135 179 234 301 370 428
#     4  11  23  46  70 104 141 185 232 292 348 416
#     4  11  25  48  75 103 142 189 231 295 360 413
#     4  12  23  41  66 103 145 194 241 282 335 412
#     4  11  22  40  61  96 143 192 238 281 339 404
#     4  12  24  43  69 105 147 194 239 280 343 415
#
# _framework density 27.974368999999999
#
# number of rings (size 3 to 8) (size 9 to 14) (size 15 to 20)
#    0.000    0.500    6.250    2.250    0.000    1.500 
#    2.250    0.625    0.000    0.000    0.000    0.000 
#    0.000    0.000    0.000    0.000    0.000    0.000 
#
# Total GULP energy -89606.297570 kJ/mol
# GULP energy per Si atom -5600.393598 kJ/mol
# Density = 2.791070 g / cm^3
# Si number density = 27.974369 Si / 1000 Ang^3
#
#
#
# Elastic Constant Matrix: (Units=GPa)
#
#
# Indices 1 2 3 4 5 6 
#
# 1 146.7954 42.0328 52.5429 9.6876 16.2611 7.4591
# 2 42.0328 60.1444 19.7772 11.7592 10.0469 -2.6890
# 3 52.5429 19.7772 183.0582 5.3088 29.4429 5.9045
# 4 9.6876 11.7592 5.3088 39.1720 16.5317 5.8441
# 5 16.2611 10.0469 29.4429 16.5317 56.4530 4.8981
# 6 7.4591 -2.6890 5.9045 5.8441 4.8981 51.7533
#
#
#
# Elastic Compliance Matrix: (Units=1/GPa)
#
#
# Indices 1 2 3 4 5 6 
#
# 1 0.009297 -0.005872 -0.001903 0.000170 -0.000569 -0.001393
# 2 -0.005872 0.022167 -0.000537 -0.005251 -0.000672 0.002716
# 3 -0.001903 -0.000537 0.006537 0.001084 -0.003055 -0.000333
# 4 0.000170 -0.005251 0.001084 0.030957 -0.008475 -0.003115
# 5 -0.000569 -0.000672 -0.003055 -0.008475 0.022137 -0.000742
# 6 -0.001393 0.002716 -0.000333 -0.003115 -0.000742 0.020124
#
#
# Mechanical properties :
#
#
# Convention : Reuss Voigt Hill
#
# Bulk Modulus (GPa) = 46.77468 68.74486 57.75977
# Shear Modulus (GPa) = 37.04524 47.85201 42.44862
#
# Velocity S-wave (km/s) = 3.64298 4.14039 3.89962
# Velocity P-wave (km/s) = 5.86958 6.89091 6.40065
#
# Compressibility (1/GPa) = 0.02137909
#
# Stress axis : x y z
#
# Youngs Moduli (GPa) = 107.55787 45.11129 152.96561
#
# Poissons Ratio (x) = 0.26491 0.29103
# Poissons Ratio (y) = 0.63161 0.08210
# Poissons Ratio (z) = 0.20463 0.02421
#
# Static dielectric constant tensor:
#      x y z
#    x 2.210200 0.090700 -0.045090 
#    y 0.090700 2.378030 0.038350 
#    z -0.045090 0.038350 2.140390 
# 
# From -- ./inp_files/501145.got.cif
#   From: 2010.05.17/outbox.cif.g08.bks.cpg/sg2_251_cif.got.tgz:501145.got - 2010.06.03 11:33:40.
