data_PCOD9056065
_publ_section_title
;
Structure prediction by ZEFSAII (Michael W. Deem and Ramdas Pophale) SiO2 
 PCOD9056065
Probable space group: P -1
;
_chemical_formula_sum "Si O2"
_cell_formula_units_Z 14
_cell_length_a 19.790261
_cell_length_b 15.257630
_cell_length_c 9.613188
_cell_angle_alpha 150.778654
_cell_angle_beta 149.939421
_cell_angle_gamma 25.557381
_cell_volume 567.697460
_symmetry_space_group_name_H-M "P -1"
_symmetry_group_IT_number 2
_symmetry_cell_setting 'triclinic'
loop_
_space_group_symop_operation_xyz
x,y,z
-x,-y,-z
loop_
_atom_site_type_symbol
_atom_site_label
_atom_site_fract_x
_atom_site_fract_y
_atom_site_fract_z
Si Si1 0.158646 0.182437 0.648613
Si Si2 0.891075 0.290952 0.889977
Si Si3 0.342311 0.749697 0.203531
Si Si4 0.679365 0.107980 0.229772
Si Si5 0.617115 0.680536 0.794597
Si Si6 0.801030 0.519208 0.344091
Si Si7 0.284541 0.001009 0.164965
O O1 0.975350 0.395460 0.572078
O O2 0.193151 0.970145 0.330808
O O3 0.199254 0.138450 0.824733
O O4 0.326118 0.159279 0.871714
O O5 0.786277 0.194825 0.580266
O O6 0.802140 0.450013 0.819489
O O7 0.858816 0.426727 0.161526
O O8 0.086286 0.112906 0.968539
O O9 0.516687 0.667351 0.473827
O O10 0.349647 0.839050 0.189744
O O11 0.299660 0.571792 0.896991
O O12 0.502398 0.258581 0.202161
O O13 0.646831 0.119206 0.026091
O O14 0.708745 0.785934 0.534911
#
# Coordination Sequence:
#
# PCOD9056065 Si02
#       7
#     2   2   2   2   2   2   2
#     4  11  21  45  74 102 138 190 244 287 339 436
#     4  12  22  46  75 103 138 192 247 284 341 442
#     4  11  23  44  74 105 139 190 239 290 348 429
#     4  11  25  43  72 105 147 182 232 302 362 406
#     4  11  24  46  76 102 140 191 245 284 349 432
#     4  12  23  43  78 106 138 187 249 286 343 429
#     4  12  26  45  73 109 146 181 236 301 360 410
#
# _framework density 24.661024000000001
#
# number of rings (size 3 to 8) (size 9 to 14) (size 15 to 20)
#    0.000    0.571    5.714    5.143    0.000    0.571 
#    2.571    7.143    0.000    0.000    0.000    0.000 
#    0.000    0.000    0.000    0.000    0.000    0.000 
#
# Total GULP energy -78258.808506 kJ/mol
# GULP energy per Si atom -5589.914893 kJ/mol
# Density = 2.460489 g / cm^3
# Si number density = 24.661024 Si / 1000 Ang^3
#
#
#
# Elastic Constant Matrix: (Units=GPa)
#
#
# Indices 1 2 3 4 5 6 
#
# 1 116.4216 56.6323 87.8704 -9.1558 3.2772 22.2012
# 2 56.6323 103.0626 52.6144 -48.0504 2.9415 9.3390
# 3 87.8704 52.6144 129.0239 -25.3261 41.9051 -0.2482
# 4 -9.1558 -48.0504 -25.3261 44.6788 20.6794 -8.0831
# 5 3.2772 2.9415 41.9051 20.6794 87.6755 -45.8906
# 6 22.2012 9.3390 -0.2482 -8.0831 -45.8906 74.2111
#
#
#
# Elastic Compliance Matrix: (Units=1/GPa)
#
#
# Indices 1 2 3 4 5 6 
#
# 1 0.304810 -0.281123 -0.297028 -0.536062 0.304805 0.073294
# 2 -0.281123 0.284792 0.273475 0.525720 -0.292819 -0.074635
# 3 -0.297028 0.273475 0.304555 0.535659 -0.311105 -0.078574
# 4 -0.536062 0.525720 0.535659 1.019137 -0.570206 -0.145597
# 5 0.304805 -0.292819 -0.311105 -0.570206 0.342331 0.094206
# 6 0.073294 -0.074635 -0.078574 -0.145597 0.094206 0.043075
#
#
# Mechanical properties :
#
#
# Convention : Reuss Voigt Hill
#
# Bulk Modulus (GPa) = 3.51119 82.52692 43.01905
# Shear Modulus (GPa) = 1.66501 51.40580 26.53540
#
# Velocity S-wave (km/s) = 0.82257 4.57058 3.28381
# Velocity P-wave (km/s) = 1.52612 7.83523 5.64446
#
# Compressibility (1/GPa) = 0.28480380
#
# Stress axis : x y z
#
# Youngs Moduli (GPa) = 3.28074 3.51134 3.28348
#
# Poissons Ratio (x) = 0.98712 0.97529
# Poissons Ratio (y) = 0.92229 -0.89795
# Poissons Ratio (z) = 0.97447 -0.96026
#
# Static dielectric constant tensor:
#      x y z
#    x 2.006320 0.178430 0.084420 
#    y 0.178430 2.196100 0.163380 
#    z 0.084420 0.163380 1.988670 
# 
# From -- ./inp_files/347735.got.cif
#   From: 2010.05.17/outbox.cif.g08.bks.cpg/sg2_174_cif.got.tgz:347735.got - 2010.06.03 11:33:40.
