data_PCOD9056660
_publ_section_title
;
Structure prediction by ZEFSAII (Michael W. Deem and Ramdas Pophale) SiO2 
 PCOD9056660
Probable space group: P -1
;
_chemical_formula_sum "Si O2"
_cell_formula_units_Z 16
_cell_length_a 14.844610
_cell_length_b 14.229107
_cell_length_c 9.454656
_cell_angle_alpha 93.581175
_cell_angle_beta 56.786581
_cell_angle_gamma 140.784822
_cell_volume 770.349523
_symmetry_space_group_name_H-M "P -1"
_symmetry_group_IT_number 2
_symmetry_cell_setting 'triclinic'
loop_
_space_group_symop_operation_xyz
x,y,z
-x,-y,-z
loop_
_atom_site_type_symbol
_atom_site_label
_atom_site_fract_x
_atom_site_fract_y
_atom_site_fract_z
Si Si1 0.923079 0.176121 0.809377
Si Si2 0.615057 0.341399 0.134099
Si Si3 0.877752 0.489745 0.187600
Si Si4 0.545624 0.467198 0.587882
Si Si5 0.134585 0.882768 0.478767
Si Si6 0.128060 0.507954 0.335506
Si Si7 0.336295 0.415918 0.014420
Si Si8 0.521245 0.241579 0.684399
O O1 0.844653 0.099798 0.707881
O O2 0.970295 0.321608 0.827874
O O3 0.173106 0.317458 0.614220
O O4 0.722214 0.983840 0.068135
O O5 0.771813 0.471036 0.150203
O O6 0.370686 0.105413 0.360353
O O7 0.735438 0.368857 0.915433
O O8 0.591191 0.423441 0.085212
O O9 0.671541 0.294857 0.451296
O O10 0.000000 0.500000 0.000000
O O11 0.500000 0.500000 0.500000
O O12 0.485807 0.310288 0.633757
O O13 0.383449 0.385235 0.840430
O O14 0.061690 0.719156 0.556874
O O15 0.919964 0.775401 0.716939
O O16 0.309486 0.612015 0.309852
O O17 0.000000 0.500000 0.500000
O O18 0.500000 0.500000 0.000000
#
# Coordination Sequence:
#
# PCOD9056660 Si02
#       8
#     2   2   2   2   2   2   2   2
#     4  11  23  43  69  92 133 172 213 266 324 384
#     4  11  25  40  64  99 129 163 218 271 315 378
#     4  11  25  45  66  94 135 170 209 269 329 382
#     4  11  23  42  66  96 132 174 214 264 323 383
#     4  11  23  42  67  97 132 168 217 270 317 379
#     4  11  22  40  67  95 125 166 214 264 320 383
#     4  11  22  40  65  94 133 170 216 264 322 379
#     4  11  23  43  68  94 131 171 218 261 323 389
#
# _framework density 20.769791999999999
#
# number of rings (size 3 to 8) (size 9 to 14) (size 15 to 20)
#    0.000    1.000    5.000    3.000    0.000    7.000 
#    0.000    0.000    0.000    0.000    0.000    0.000 
#    0.000    0.000    0.000    0.000    0.000    0.000 
#
# Total GULP energy -89307.448970 kJ/mol
# GULP energy per Si atom -5581.715561 kJ/mol
# Density = 2.072252 g / cm^3
# Si number density = 20.769792 Si / 1000 Ang^3
#
#
#
# Elastic Constant Matrix: (Units=GPa)
#
#
# Indices 1 2 3 4 5 6 
#
# 1 57.7830 9.1133 14.1438 0.9539 4.1101 -8.4021
# 2 9.1133 39.2974 30.4833 6.8125 -9.4304 -7.6463
# 3 14.1438 30.4833 173.1177 9.1829 -4.4810 -22.4563
# 4 0.9539 6.8125 9.1829 51.7239 -4.7175 2.2433
# 5 4.1101 -9.4304 -4.4810 -4.7175 30.4052 16.3464
# 6 -8.4021 -7.6463 -22.4563 2.2433 16.3464 19.6522
#
#
#
# Elastic Compliance Matrix: (Units=1/GPa)
#
#
# Indices 1 2 3 4 5 6 
#
# 1 0.022991 -0.006085 0.002290 -0.002948 -0.019382 0.026537
# 2 -0.006085 0.033719 -0.006079 -0.001540 0.014708 -0.008487
# 3 0.002290 -0.006079 0.008893 -0.002635 -0.011166 0.018364
# 4 -0.002948 -0.001540 -0.002635 0.021969 0.012496 -0.017772
# 5 -0.019382 0.014708 -0.011166 0.012496 0.089304 -0.091031
# 6 0.026537 -0.008487 0.018364 -0.017772 -0.091031 0.157659
#
#
# Mechanical properties :
#
#
# Convention : Reuss Voigt Hill
#
# Bulk Modulus (GPa) = 21.80773 41.96433 31.88603
# Shear Modulus (GPa) = 13.52938 34.78678 24.15808
#
# Velocity S-wave (km/s) = 2.55502 4.09696 3.41418
# Velocity P-wave (km/s) = 4.38482 6.52905 5.56126
#
# Compressibility (1/GPa) = 0.04585529
#
# Stress axis : x y z
#
# Youngs Moduli (GPa) = 43.49489 29.65716 112.45386
#
# Poissons Ratio (x) = 0.18046 -0.25752
# Poissons Ratio (y) = 0.26466 0.68357
# Poissons Ratio (z) = -0.09960 0.18028
#
# Static dielectric constant tensor:
#      x y z
#    x 1.787470 -0.022580 -0.059250 
#    y -0.022580 1.781920 0.055000 
#    z -0.059250 0.055000 1.785590 
# 
# From -- ./inp_files/307601.got.cif
#   From: 2010.05.17/outbox.cif.g08.bks.cpg/sg2_154_cif.got.tgz:307601.got - 2010.06.03 11:33:40.
