data_PCOD9056250
_publ_section_title
;
Structure prediction by ZEFSAII (Michael W. Deem and Ramdas Pophale) SiO2 
 PCOD9056250
Probable space group: P -1
;
_chemical_formula_sum "Si O2"
_cell_formula_units_Z 12
_cell_length_a 5.141668
_cell_length_b 16.408446
_cell_length_c 15.457927
_cell_angle_alpha 155.874259
_cell_angle_beta 115.082132
_cell_angle_gamma 71.818887
_cell_volume 472.810992
_symmetry_space_group_name_H-M "P -1"
_symmetry_group_IT_number 2
_symmetry_cell_setting 'triclinic'
loop_
_space_group_symop_operation_xyz
x,y,z
-x,-y,-z
loop_
_atom_site_type_symbol
_atom_site_label
_atom_site_fract_x
_atom_site_fract_y
_atom_site_fract_z
Si Si1 0.823814 0.772150 0.797129
Si Si2 0.145401 0.242008 0.019390
Si Si3 0.330054 0.498243 0.746157
Si Si4 0.575674 0.338039 0.788023
Si Si5 0.084727 0.937310 0.356737
Si Si6 0.821326 0.290205 0.367261
O O1 0.853941 0.854866 0.979637
O O2 0.819441 0.529081 0.577066
O O3 0.512024 0.792442 0.733724
O O4 0.083417 0.820250 0.810998
O O5 0.458353 0.394699 0.196777
O O6 0.862836 0.352089 0.091199
O O7 0.117290 0.101717 0.794117
O O8 0.547198 0.424178 0.772587
O O9 0.081974 0.315453 0.497886
O O10 0.854714 0.281001 0.817880
O O11 0.349714 0.119945 0.544341
O O12 0.500000 0.500000 0.000000
O O13 0.000000 0.000000 0.500000
#
# Coordination Sequence:
#
# PCOD9056250 Si02
#       6
#     2   2   2   2   2   2
#     4   9  16  30  53  86 128 159 204 262 304 376
#     4  11  22  37  63  95 127 170 213 260 325 376
#     4  11  22  36  65  94 127 169 214 264 317 381
#     4  11  24  45  66  93 129 170 215 270 324 385
#     4  11  26  43  66  94 130 172 215 267 328 388
#     4   9  16  30  52  90 123 160 209 255 310 370
#
# _framework density 25.380119000000001
#
# number of rings (size 3 to 8) (size 9 to 14) (size 15 to 20)
#    0.000    1.667    1.667    6.000    4.667    1.333 
#    0.000    0.000    0.000    2.000    0.000    0.000 
#    0.000    0.000    0.000    0.000    0.000    0.000 
#
# Total GULP energy -67041.294834 kJ/mol
# GULP energy per Si atom -5586.774570 kJ/mol
# Density = 2.532235 g / cm^3
# Si number density = 25.380119 Si / 1000 Ang^3
#
#
#
# Elastic Constant Matrix: (Units=GPa)
#
#
# Indices 1 2 3 4 5 6 
#
# 1 119.5134 40.3921 25.4727 -7.9289 0.2320 5.7619
# 2 40.3921 126.7734 36.6756 -26.8064 4.9287 13.8753
# 3 25.4727 36.6756 105.7701 -30.4336 -7.7860 -5.0984
# 4 -7.9289 -26.8064 -30.4336 49.9135 -3.0173 -3.2588
# 5 0.2320 4.9287 -7.7860 -3.0173 49.8650 -6.1740
# 6 5.7619 13.8753 -5.0984 -3.2588 -6.1740 34.0861
#
#
#
# Elastic Compliance Matrix: (Units=1/GPa)
#
#
# Indices 1 2 3 4 5 6 
#
# 1 0.009619 -0.002666 -0.001758 -0.001052 -0.000237 -0.000947
# 2 -0.002666 0.010699 -0.002400 0.003477 -0.001735 -0.004245
# 3 -0.001758 -0.002400 0.013169 0.006954 0.003280 0.004503
# 4 -0.001052 0.003477 0.006954 0.026321 0.002687 0.002806
# 5 -0.000237 -0.001735 0.003280 0.002687 0.021570 0.005401
# 6 -0.000947 -0.004245 0.004503 0.002806 0.005401 0.033146
#
#
# Mechanical properties :
#
#
# Convention : Reuss Voigt Hill
#
# Bulk Modulus (GPa) = 50.40120 61.90419 56.15270
# Shear Modulus (GPa) = 37.09620 43.40735 40.25178
#
# Velocity S-wave (km/s) = 3.82727 4.14005 3.98673
# Velocity P-wave (km/s) = 6.27951 6.87729 6.58519
#
# Compressibility (1/GPa) = 0.01984080
#
# Stress axis : x y z
#
# Youngs Moduli (GPa) = 103.95813 93.46594 75.93422
#
# Poissons Ratio (x) = 0.24916 0.13349
# Poissons Ratio (y) = 0.27713 0.18222
# Poissons Ratio (z) = 0.18275 0.22429
#
# Static dielectric constant tensor:
#      x y z
#    x 1.976250 0.012000 0.040530 
#    y 0.012000 2.069640 0.063780 
#    z 0.040530 0.063780 2.076130 
# 
# From -- ./inp_files/546101.got.cif
#   From: 2010.05.17/outbox.cif.g08.bks.cpg/sg2_274_cif.got.tgz:546101.got - 2010.06.03 11:33:40.
