data_PCOD9056196
_publ_section_title
;
Structure prediction by ZEFSAII (Michael W. Deem and Ramdas Pophale) SiO2 
 PCOD9056196
Probable space group: P -1
;
_chemical_formula_sum "Si O2"
_cell_formula_units_Z 14
_cell_length_a 16.403918
_cell_length_b 12.866698
_cell_length_c 12.929710
_cell_angle_alpha 149.403981
_cell_angle_beta 147.121693
_cell_angle_gamma 35.852827
_cell_volume 715.114493
_symmetry_space_group_name_H-M "P -1"
_symmetry_group_IT_number 2
_symmetry_cell_setting 'triclinic'
loop_
_space_group_symop_operation_xyz
x,y,z
-x,-y,-z
loop_
_atom_site_type_symbol
_atom_site_label
_atom_site_fract_x
_atom_site_fract_y
_atom_site_fract_z
Si Si1 0.309557 0.075627 0.641823
Si Si2 0.581745 0.137558 0.634976
Si Si3 0.435409 0.248944 0.243265
Si Si4 0.115968 0.761212 0.888457
Si Si5 0.001232 0.581870 0.407525
Si Si6 0.293281 0.464101 0.480887
Si Si7 0.559404 0.207863 0.129274
O O1 0.137474 0.217214 0.613380
O O2 0.315577 0.015412 0.476851
O O3 0.393906 0.860679 0.613123
O O4 0.430050 0.210463 0.907057
O O5 0.440662 0.315341 0.577420
O O6 0.500000 0.000000 0.500000
O O7 0.704674 0.232210 0.905359
O O8 0.319580 0.384137 0.322231
O O9 0.468400 0.336663 0.243297
O O10 0.377804 0.040783 0.982056
O O11 0.080575 0.679270 0.668138
O O12 0.078160 0.588238 0.776411
O O13 0.000000 0.000000 0.000000
O O14 0.132904 0.467506 0.366683
O O15 0.310312 0.700078 0.696735
#
# Coordination Sequence:
#
# PCOD9056196 Si02
#       7
#     2   2   2   2   2   2   2
#     4   9  19  39  57  83 114 153 187 231 295 339
#     4  11  23  38  61  85 116 156 200 239 279 340
#     4   8  19  38  63  83 115 145 198 242 285 342
#     4  11  23  40  57  77 122 162 189 236 285 335
#     4  11  24  37  56  87 118 156 193 231 293 347
#     4  11  22  35  60  90 112 150 197 238 285 344
#     4   9  18  38  66  81 112 153 195 241 285 341
#
# _framework density 19.577283999999999
#
# number of rings (size 3 to 8) (size 9 to 14) (size 15 to 20)
#    0.857    1.143    1.429    2.143    4.000    1.714 
#    0.000    1.429    0.000    0.000    0.000    0.000 
#    0.000    0.000    0.000    0.000    0.000    0.000 
#
# Total GULP energy -77998.072880 kJ/mol
# GULP energy per Si atom -5571.290920 kJ/mol
# Density = 1.953273 g / cm^3
# Si number density = 19.577284 Si / 1000 Ang^3
#
#
#
# Elastic Constant Matrix: (Units=GPa)
#
#
# Indices 1 2 3 4 5 6 
#
# 1 41.3164 4.3354 26.6171 8.7250 8.4422 -3.0486
# 2 4.3354 46.2189 3.9271 4.1438 4.9542 -16.9010
# 3 26.6171 3.9271 92.0512 1.0905 8.5465 0.9571
# 4 8.7250 4.1438 1.0905 18.1082 -1.0987 5.6866
# 5 8.4422 4.9542 8.5465 -1.0987 29.4280 1.4824
# 6 -3.0486 -16.9010 0.9571 5.6866 1.4824 25.6869
#
#
#
# Elastic Compliance Matrix: (Units=1/GPa)
#
#
# Indices 1 2 3 4 5 6 
#
# 1 0.038834 0.006210 -0.010347 -0.024953 -0.010880 0.015232
# 2 0.006210 0.034478 -0.002482 -0.020237 -0.009057 0.028518
# 3 -0.010347 -0.002482 0.013955 0.006189 -0.000197 -0.004740
# 4 -0.024953 -0.020237 0.006189 0.083578 0.013691 -0.035800
# 5 -0.010880 -0.009057 -0.000197 0.013691 0.039829 -0.012573
# 6 0.015232 0.028518 -0.004740 -0.035800 -0.012573 0.068329
#
#
# Mechanical properties :
#
#
# Convention : Reuss Voigt Hill
#
# Bulk Modulus (GPa) = 13.50824 27.70507 20.60665
# Shear Modulus (GPa) = 15.77697 24.29174 20.03436
#
# Velocity S-wave (km/s) = 2.84189 3.52634 3.20245
# Velocity P-wave (km/s) = 4.20516 5.54639 4.92168
#
# Compressibility (1/GPa) = 0.07402891
#
# Stress axis : x y z
#
# Youngs Moduli (GPa) = 25.75078 29.00406 71.65664
#
# Poissons Ratio (x) = -0.18011 0.74140
# Poissons Ratio (y) = -0.15991 0.17788
# Poissons Ratio (z) = 0.26643 0.07200
#
# Static dielectric constant tensor:
#      x y z
#    x 1.680890 0.006190 -0.035910 
#    y 0.006190 1.720160 0.034600 
#    z -0.035910 0.034600 1.714480 
# 
# From -- ./inp_files/349422.got.cif
#   From: 2010.05.17/outbox.cif.g08.bks.cpg/sg2_175_cif.got.tgz:349422.got - 2010.06.03 11:33:40.
