data_PCOD9056095
_publ_section_title
;
Structure prediction by ZEFSAII (Michael W. Deem and Ramdas Pophale) SiO2 
 PCOD9056095
Probable space group: P -1
;
_chemical_formula_sum "Si O2"
_cell_formula_units_Z 10
_cell_length_a 7.814551
_cell_length_b 4.813752
_cell_length_c 13.251753
_cell_angle_alpha 96.074536
_cell_angle_beta 114.832212
_cell_angle_gamma 62.153384
_cell_volume 397.473889
_symmetry_space_group_name_H-M "P -1"
_symmetry_group_IT_number 2
_symmetry_cell_setting 'triclinic'
loop_
_space_group_symop_operation_xyz
x,y,z
-x,-y,-z
loop_
_atom_site_type_symbol
_atom_site_label
_atom_site_fract_x
_atom_site_fract_y
_atom_site_fract_z
Si Si1 0.565631 0.178602 0.809006
Si Si2 0.063766 0.861257 0.399944
Si Si3 0.964461 0.303181 0.896038
Si Si4 0.314358 0.898931 0.822626
Si Si5 0.246804 0.240195 0.331083
O O1 0.791733 0.183025 0.873218
O O2 0.393987 0.536772 0.802260
O O3 0.558756 0.046773 0.689743
O O4 0.486733 0.031385 0.134129
O O5 0.249097 0.499958 0.418330
O O6 0.127484 0.079481 0.354923
O O7 0.000000 0.000000 0.500000
O O8 0.848430 0.892163 0.297345
O O9 0.869758 0.543890 0.786974
O O10 0.820207 0.986566 0.104373
O O11 0.000000 0.500000 0.000000
#
# Coordination Sequence:
#
# PCOD9056095 Si02
#       5
#     2   2   2   2   2
#     4  12  23  45  68 100 140 175 229 275 339 402
#     4  11  23  44  74 100 132 182 227 275 345 402
#     4  11  26  46  71 100 140 182 225 282 334 400
#     4  11  24  43  70  95 139 180 219 285 339 391
#     4  11  21  46  66  95 145 170 219 289 326 397
#
# _framework density 25.158888000000001
#
# number of rings (size 3 to 8) (size 9 to 14) (size 15 to 20)
#    0.000    0.800    6.000    3.000    0.000    2.400 
#    0.000    6.000    0.000    0.000    0.000    0.000 
#    0.000    0.000    0.000    0.000    0.000    0.000 
#
# Total GULP energy -55957.330835 kJ/mol
# GULP energy per Si atom -5595.733084 kJ/mol
# Density = 2.510162 g / cm^3
# Si number density = 25.158888 Si / 1000 Ang^3
#
#
#
# Elastic Constant Matrix: (Units=GPa)
#
#
# Indices 1 2 3 4 5 6 
#
# 1 148.7604 55.8607 34.5099 15.5203 -32.5910 5.8041
# 2 55.8607 189.3597 34.3593 57.3906 -24.1714 -7.0806
# 3 34.5099 34.3593 99.6091 37.8142 -21.2323 -20.4623
# 4 15.5203 57.3906 37.8142 49.6808 -9.9992 -19.9772
# 5 -32.5910 -24.1714 -21.2323 -9.9992 36.2908 9.9045
# 6 5.8041 -7.0806 -20.4623 -19.9772 9.9045 53.3780
#
#
#
# Elastic Compliance Matrix: (Units=1/GPa)
#
#
# Indices 1 2 3 4 5 6 
#
# 1 0.009519 -0.001979 -0.002167 0.001184 0.007109 -0.003004
# 2 -0.001979 0.009643 0.002311 -0.012838 0.003288 -0.003035
# 3 -0.002167 0.002311 0.016200 -0.012880 0.005262 0.000956
# 4 0.001184 -0.012838 -0.012880 0.048298 -0.005057 0.012245
# 5 0.007109 0.003288 0.005262 -0.005057 0.039893 -0.007615
# 6 -0.003004 -0.003035 0.000956 0.012245 -0.007615 0.025021
#
#
# Mechanical properties :
#
#
# Convention : Reuss Voigt Hill
#
# Bulk Modulus (GPa) = 31.55327 76.35432 53.95380
# Shear Modulus (GPa) = 30.71110 48.73652 39.72381
#
# Velocity S-wave (km/s) = 3.49762 4.40608 3.97787
# Velocity P-wave (km/s) = 5.37401 7.50330 6.52608
#
# Compressibility (1/GPa) = 0.03169244
#
# Stress axis : x y z
#
# Youngs Moduli (GPa) = 105.05262 103.70655 61.72764
#
# Poissons Ratio (x) = 0.20520 0.13374
# Poissons Ratio (y) = 0.20786 -0.14262
# Poissons Ratio (z) = 0.22760 -0.23961
#
# Static dielectric constant tensor:
#      x y z
#    x 1.994330 -0.056560 0.041550 
#    y -0.056560 2.057070 0.008870 
#    z 0.041550 0.008870 2.010310 
# 
# From -- ./inp_files/360951.got.cif
#   From: 2010.05.17/outbox.cif.g08.bks.cpg/sg2_181_cif.got.tgz:360951.got - 2010.06.03 11:33:40.
