data_PCOD9056143
_publ_section_title
;
Structure prediction by ZEFSAII (Michael W. Deem and Ramdas Pophale) SiO2 
 PCOD9056143
Probable space group: P -1
;
_chemical_formula_sum "Si O2"
_cell_formula_units_Z 16
_cell_length_a 6.528407
_cell_length_b 21.819669
_cell_length_c 19.124258
_cell_angle_alpha 23.790091
_cell_angle_beta 131.119086
_cell_angle_gamma 119.024529
_cell_volume 764.535400
_symmetry_space_group_name_H-M "P -1"
_symmetry_group_IT_number 2
_symmetry_cell_setting 'triclinic'
loop_
_space_group_symop_operation_xyz
x,y,z
-x,-y,-z
loop_
_atom_site_type_symbol
_atom_site_label
_atom_site_fract_x
_atom_site_fract_y
_atom_site_fract_z
Si Si1 0.752361 0.014656 0.132615
Si Si2 0.074939 0.528510 0.066634
Si Si3 0.619294 0.594661 0.084003
Si Si4 0.034373 0.724051 0.600094
Si Si5 0.758860 0.420990 0.538995
Si Si6 0.075736 0.123376 0.838009
Si Si7 0.498992 0.818010 0.693838
Si Si8 0.865719 0.321640 0.825842
O O1 0.890502 0.929064 0.179894
O O2 0.810795 0.871952 0.350753
O O3 0.402114 0.115347 0.939645
O O4 0.902458 0.143339 0.048424
O O5 0.359920 0.571486 0.091874
O O6 0.111324 0.363890 0.288206
O O7 0.000000 0.500000 0.000000
O O8 0.801967 0.682630 0.873969
O O9 0.768609 0.426828 0.247899
O O10 0.866214 0.625603 0.152012
O O11 0.483099 0.749907 0.838995
O O12 0.241932 0.795624 0.614085
O O13 0.819250 0.327139 0.725701
O O14 0.427920 0.550121 0.337629
O O15 0.000000 0.500000 0.500000
O O16 0.823099 0.297101 0.618206
O O17 0.000000 0.000000 0.000000
O O18 0.500000 0.000000 0.500000
#
# Coordination Sequence:
#
# PCOD9056143 Si02
#       8
#     2   2   2   2   2   2   2   2
#     4  11  25  44  66 100 139 171 229 287 330 406
#     4  11  21  47  71  94 132 185 224 268 342 405
#     4  11  24  43  69  98 135 179 224 273 332 409
#     4  11  24  42  69 100 134 175 223 279 334 399
#     4  11  24  44  70  95 134 181 221 278 342 402
#     4  11  24  45  68  95 133 183 221 275 347 398
#     4  11  23  44  69  99 136 170 216 282 335 390
#     4  11  25  44  66 102 137 174 229 283 333 401
#
# _framework density 20.927743
#
# number of rings (size 3 to 8) (size 9 to 14) (size 15 to 20)
#    0.000    1.000    5.000    1.500    3.500    3.500 
#    2.250    0.000    0.000    0.000    0.000    0.000 
#    0.000    0.000    0.000    0.000    0.000    0.000 
#
# Total GULP energy -89495.711818 kJ/mol
# GULP energy per Si atom -5593.481989 kJ/mol
# Density = 2.088011 g / cm^3
# Si number density = 20.927743 Si / 1000 Ang^3
#
#
#
# Elastic Constant Matrix: (Units=GPa)
#
#
# Indices 1 2 3 4 5 6 
#
# 1 129.7563 42.8183 45.7232 -6.0156 -7.0132 15.8563
# 2 42.8183 107.9384 44.4027 -9.9677 0.9330 23.1309
# 3 45.7232 44.4027 116.0787 -14.5414 -23.0035 -1.0986
# 4 -6.0156 -9.9677 -14.5414 31.6076 5.3854 -5.4196
# 5 -7.0132 0.9330 -23.0035 5.3854 32.9152 -4.6359
# 6 15.8563 23.1309 -1.0986 -5.4196 -4.6359 36.0787
#
#
#
# Elastic Compliance Matrix: (Units=1/GPa)
#
#
# Indices 1 2 3 4 5 6 
#
# 1 0.009877 -0.001823 -0.003444 -0.000770 -0.000614 -0.003472
# 2 -0.001823 0.014729 -0.006205 0.000938 -0.006640 -0.009543
# 3 -0.003444 -0.006205 0.014957 0.003849 0.010372 0.007858
# 4 -0.000770 0.000938 0.003849 0.034804 -0.002525 0.004758
# 5 -0.000614 -0.006640 0.010372 -0.002525 0.039443 0.009532
# 6 -0.003472 -0.009543 0.007858 0.004758 0.009532 0.037540
#
#
# Mechanical properties :
#
#
# Convention : Reuss Voigt Hill
#
# Bulk Modulus (GPa) = 60.17123 68.85130 64.51126
# Shear Modulus (GPa) = 27.80324 34.84225 31.32274
#
# Velocity S-wave (km/s) = 3.64886 4.08472 3.87293
# Velocity P-wave (km/s) = 6.82397 7.43085 7.13387
#
# Compressibility (1/GPa) = 0.01661924
#
# Stress axis : x y z
#
# Youngs Moduli (GPa) = 101.24084 67.89116 66.85851
#
# Poissons Ratio (x) = 0.12379 0.23027
# Poissons Ratio (y) = 0.18460 0.41484
# Poissons Ratio (z) = 0.34869 0.42125
#
# Static dielectric constant tensor:
#      x y z
#    x 4.176340 -1.416370 0.609250 
#    y -1.416370 2.574680 -0.358310 
#    z 0.609250 -0.358310 1.912270 
# 
# From -- ./inp_files/53735.got.cif
#   From: 2010.05.17/outbox.cif.g08.bks.cpg/sg2_27_cif.got.tgz:53735.got - 2010.06.03 11:33:40.
