data_PCOD9056039
_publ_section_title
;
Structure prediction by ZEFSAII (Michael W. Deem and Ramdas Pophale) SiO2 
 PCOD9056039
Probable space group: P -1
;
_chemical_formula_sum "Si O2"
_cell_formula_units_Z 16
_cell_length_a 15.638631
_cell_length_b 14.439770
_cell_length_c 9.299438
_cell_angle_alpha 70.689592
_cell_angle_beta 98.005620
_cell_angle_gamma 36.512290
_cell_volume 816.671798
_symmetry_space_group_name_H-M "P -1"
_symmetry_group_IT_number 2
_symmetry_cell_setting 'triclinic'
loop_
_space_group_symop_operation_xyz
x,y,z
-x,-y,-z
loop_
_atom_site_type_symbol
_atom_site_label
_atom_site_fract_x
_atom_site_fract_y
_atom_site_fract_z
Si Si1 0.069088 0.442935 0.879675
Si Si2 0.606592 0.733735 0.001018
Si Si3 0.624792 0.866309 0.446768
Si Si4 0.470314 0.380339 0.141399
Si Si5 0.146067 0.882014 0.726906
Si Si6 0.431338 0.911753 0.189889
Si Si7 0.845688 0.178890 0.739677
Si Si8 0.571972 0.279002 0.543773
O O1 0.862933 0.640458 0.641887
O O2 0.169753 0.445231 0.872354
O O3 0.000000 0.500000 0.000000
O O4 0.236922 0.187111 0.006904
O O5 0.585141 0.653843 0.954122
O O6 0.462664 0.960575 0.768192
O O7 0.533154 0.800826 0.113736
O O8 0.588283 0.799963 0.396877
O O9 0.500000 0.000000 0.500000
O O10 0.676673 0.223766 0.217621
O O11 0.525558 0.294363 0.361876
O O12 0.277108 0.655717 0.941636
O O13 0.000000 0.000000 0.500000
O O14 0.985983 0.087081 0.701559
O O15 0.373633 0.866265 0.263895
O O16 0.751676 0.175533 0.651716
O O17 0.643663 0.448945 0.596151
O O18 0.000000 0.000000 0.000000
#
# Coordination Sequence:
#
# PCOD9056039 Si02
#       8
#     2   2   2   2   2   2   2   2
#     4  11  23  43  70  93 126 175 215 260 327 385
#     4  11  26  42  64 100 133 166 217 270 320 382
#     4  11  21  45  70  93 130 169 211 270 323 385
#     4  11  25  43  67  96 133 171 219 266 320 395
#     4  11  24  44  67  96 131 174 217 269 326 380
#     4  11  26  42  64 100 133 166 217 270 320 382
#     4  11  24  44  67  96 131 174 217 269 326 380
#     4  11  25  43  67  96 133 171 219 266 320 395
#
# _framework density 19.591712999999999
#
# number of rings (size 3 to 8) (size 9 to 14) (size 15 to 20)
#    0.000    1.000    5.000    2.250    3.500    5.000 
#    0.000    0.000    0.000    0.000    0.000    0.000 
#    0.000    0.000    0.000    0.000    0.000    0.000 
#
# Total GULP energy -89381.808125 kJ/mol
# GULP energy per Si atom -5586.363008 kJ/mol
# Density = 1.954712 g / cm^3
# Si number density = 19.591713 Si / 1000 Ang^3
#
#
#
# Elastic Constant Matrix: (Units=GPa)
#
#
# Indices 1 2 3 4 5 6 
#
# 1 100.8360 44.7362 23.0739 -0.9616 10.0186 -2.1403
# 2 44.7362 118.9657 21.6289 22.1682 12.3410 -12.6773
# 3 23.0739 21.6289 86.5943 -0.2017 26.9216 -11.7830
# 4 -0.9616 22.1682 -0.2017 38.4771 -11.6235 3.9766
# 5 10.0186 12.3410 26.9216 -11.6235 36.9459 3.5700
# 6 -2.1403 -12.6773 -11.7830 3.9766 3.5700 29.4959
#
#
#
# Elastic Compliance Matrix: (Units=1/GPa)
#
#
# Indices 1 2 3 4 5 6 
#
# 1 0.013006 -0.005933 -0.003423 0.005020 0.002915 -0.004003
# 2 -0.005933 0.014589 0.002248 -0.012482 -0.009757 0.009601
# 3 -0.003423 0.002248 0.018655 -0.007540 -0.016873 0.011229
# 4 0.005020 -0.012482 -0.007540 0.041943 0.023089 -0.016462
# 5 0.002915 -0.009757 -0.016873 0.023089 0.051028 -0.020011
# 6 -0.004003 0.009601 0.011229 -0.016462 -0.020011 0.046866
#
#
# Mechanical properties :
#
#
# Convention : Reuss Voigt Hill
#
# Bulk Modulus (GPa) = 31.21729 53.91933 42.56831
# Shear Modulus (GPa) = 23.69888 35.44759 29.57324
#
# Velocity S-wave (km/s) = 3.48176 4.25822 3.88941
# Velocity P-wave (km/s) = 5.66851 7.19429 6.47649
#
# Compressibility (1/GPa) = 0.03203353
#
# Stress axis : x y z
#
# Youngs Moduli (GPa) = 76.88952 68.54367 53.60524
#
# Poissons Ratio (x) = 0.40665 0.18349
# Poissons Ratio (y) = 0.45616 -0.12048
# Poissons Ratio (z) = 0.26319 -0.15406
#
# Static dielectric constant tensor:
#      x y z
#    x 1.685400 0.011100 0.000380 
#    y 0.011100 1.672110 0.031880 
#    z 0.000380 0.031880 1.686290 
# 
# From -- ./inp_files/314915.got.cif
#   From: 2010.05.17/outbox.cif.g08.bks.cpg/sg2_158_cif.got.tgz:314915.got - 2010.06.03 11:33:40.
