data_PCOD9056798
_publ_section_title
;
Structure prediction by ZEFSAII (Michael W. Deem and Ramdas Pophale) SiO2 
 PCOD9056798
Probable space group: P -1
;
_chemical_formula_sum "Si O2"
_cell_formula_units_Z 14
_cell_length_a 11.347281
_cell_length_b 9.071980
_cell_length_c 11.707632
_cell_angle_alpha 128.148587
_cell_angle_beta 138.796799
_cell_angle_gamma 65.078955
_cell_volume 622.147496
_symmetry_space_group_name_H-M "P -1"
_symmetry_group_IT_number 2
_symmetry_cell_setting 'triclinic'
loop_
_space_group_symop_operation_xyz
x,y,z
-x,-y,-z
loop_
_atom_site_type_symbol
_atom_site_label
_atom_site_fract_x
_atom_site_fract_y
_atom_site_fract_z
Si Si1 0.680713 0.176077 0.648229
Si Si2 0.350986 0.924697 0.181455
Si Si3 0.051473 0.070870 0.886267
Si Si4 0.749463 0.560467 0.749042
Si Si5 0.608096 0.341375 0.343754
Si Si6 0.480453 0.332026 0.995578
Si Si7 0.810957 0.969389 0.285506
O O1 0.662808 0.217437 0.789307
O O2 0.740179 0.361506 0.710170
O O3 0.837882 0.031586 0.693597
O O4 0.495541 0.085444 0.414717
O O5 0.429969 0.832369 0.084562
O O6 0.159326 0.985445 0.028306
O O7 0.149032 0.027357 0.818506
O O8 0.082503 0.295053 0.036443
O O9 0.728545 0.504745 0.574847
O O10 0.579000 0.660220 0.723507
O O11 0.692378 0.141456 0.312584
O O12 0.576363 0.386466 0.210662
O O13 0.288114 0.230287 0.844173
O O14 0.500000 0.500000 0.000000
O O15 0.000000 0.000000 0.500000
#
# Coordination Sequence:
#
# PCOD9056798 Si02
#       7
#     2   2   2   2   2   2   2
#     4  11  25  43  69 103 136 179 230 282 342 412
#     4  11  24  44  67  97 141 183 223 279 348 412
#     4  12  23  43  72 100 136 178 233 281 342 409
#     4  11  22  40  70 101 131 173 229 286 326 403
#     4  11  22  43  69  99 136 181 231 274 348 417
#     4  12  24  43  69  99 139 183 227 286 350 412
#     4  12  25  44  71 103 138 181 231 289 344 419
#
# _framework density 22.502704999999999
#
# number of rings (size 3 to 8) (size 9 to 14) (size 15 to 20)
#    0.000    0.571    2.857    7.286    0.000    1.143 
#    0.000    2.143    0.000    0.000    0.000    0.000 
#    0.000    0.000    0.000    0.000    0.000    0.000 
#
# Total GULP energy -78273.798351 kJ/mol
# GULP energy per Si atom -5590.985596 kJ/mol
# Density = 2.245149 g / cm^3
# Si number density = 22.502705 Si / 1000 Ang^3
#
#
#
# Elastic Constant Matrix: (Units=GPa)
#
#
# Indices 1 2 3 4 5 6 
#
# 1 92.1973 21.3324 51.9788 -17.8961 -29.8315 0.8142
# 2 21.3324 95.9636 57.3602 -32.2353 -8.1833 8.1760
# 3 51.9788 57.3602 127.7385 -27.1161 -30.1239 -0.1965
# 4 -17.8961 -32.2353 -27.1161 34.0896 -2.4880 -6.4722
# 5 -29.8315 -8.1833 -30.1239 -2.4880 44.4906 -9.9612
# 6 0.8142 8.1760 -0.1965 -6.4722 -9.9612 32.1194
#
#
#
# Elastic Compliance Matrix: (Units=1/GPa)
#
#
# Indices 1 2 3 4 5 6 
#
# 1 0.018106 0.002104 -0.003163 0.010793 0.012088 0.004910
# 2 0.002104 0.018242 -0.005948 0.013382 0.001108 -0.001693
# 3 -0.003163 -0.005948 0.015261 0.006583 0.008770 0.005734
# 4 0.010793 0.013382 0.006583 0.057092 0.020535 0.014233
# 5 0.012088 0.001108 0.008770 0.020535 0.041565 0.016494
# 6 0.004910 -0.001693 0.005734 0.014233 0.016494 0.039459
#
#
# Mechanical properties :
#
#
# Convention : Reuss Voigt Hill
#
# Bulk Modulus (GPa) = 26.59985 64.13802 45.36893
# Shear Modulus (GPa) = 23.11918 34.48846 28.80382
#
# Velocity S-wave (km/s) = 3.20878 3.91914 3.58161
# Velocity P-wave (km/s) = 5.05715 7.00312 6.10813
#
# Compressibility (1/GPa) = 0.03759420
#
# Stress axis : x y z
#
# Youngs Moduli (GPa) = 55.23169 54.81717 65.52715
#
# Poissons Ratio (x) = -0.11531 0.20724
# Poissons Ratio (y) = -0.11618 0.38977
# Poissons Ratio (z) = 0.17468 0.32607
#
# Static dielectric constant tensor:
#      x y z
#    x 1.873760 -0.011940 0.041530 
#    y -0.011940 1.852720 -0.014990 
#    z 0.041530 -0.014990 1.858580 
# 
# From -- ./inp_files/174052.got.cif
#   From: 2010.05.17/outbox.cif.g08.bks.cpg/sg2_88_cif.got.tgz:174052.got - 2010.06.03 11:33:40.
