data_PCOD9056340
_publ_section_title
;
Structure prediction by ZEFSAII (Michael W. Deem and Ramdas Pophale) SiO2 
 PCOD9056340
Probable space group: P -1
;
_chemical_formula_sum "Si O2"
_cell_formula_units_Z 14
_cell_length_a 7.948322
_cell_length_b 11.891488
_cell_length_c 7.587718
_cell_angle_alpha 125.924955
_cell_angle_beta 68.133356
_cell_angle_gamma 101.600766
_cell_volume 538.826817
_symmetry_space_group_name_H-M "P -1"
_symmetry_group_IT_number 2
_symmetry_cell_setting 'triclinic'
loop_
_space_group_symop_operation_xyz
x,y,z
-x,-y,-z
loop_
_atom_site_type_symbol
_atom_site_label
_atom_site_fract_x
_atom_site_fract_y
_atom_site_fract_z
Si Si1 0.784449 0.506235 0.404349
Si Si2 0.653074 0.188794 0.568369
Si Si3 0.323841 0.792309 0.827707
Si Si4 0.011011 0.987780 0.247343
Si Si5 0.194308 0.524436 0.204942
Si Si6 0.739089 0.784472 0.148645
Si Si7 0.302087 0.190695 0.220373
O O1 0.712769 0.361563 0.228641
O O2 0.792626 0.482389 0.591765
O O3 0.684526 0.654033 0.564445
O O4 0.980067 0.528012 0.264469
O O5 0.611942 0.213140 0.402297
O O6 0.712809 0.335620 0.761867
O O7 0.460262 0.149590 0.686557
O O8 0.829902 0.087202 0.405112
O O9 0.489473 0.857064 0.927565
O O10 0.141762 0.887222 0.982585
O O11 0.901910 0.857975 0.255900
O O12 0.169435 0.100837 0.307916
O O13 0.270679 0.379900 0.965302
O O14 0.781513 0.802543 0.938418
#
# Coordination Sequence:
#
# PCOD9056340 Si02
#       7
#     2   2   2   2   2   2   2
#     4   9  17  34  61  84 107 146 193 231 270 330
#     4  11  22  38  60  86 113 147 190 234 279 331
#     4  11  22  38  60  86 113 147 190 234 279 331
#     4  12  23  38  61  84 113 154 195 226 269 344
#     4   9  17  34  61  84 107 146 193 231 270 330
#     4  11  22  38  60  86 113 147 190 234 279 331
#     4  11  22  38  60  86 113 147 190 234 279 331
#
# _framework density 25.982375999999999
#
# number of rings (size 3 to 8) (size 9 to 14) (size 15 to 20)
#    0.000    1.429    2.857    4.286    0.000    0.000 
#    0.000    2.857    0.000    1.714    0.000    0.000 
#    0.000    0.000    0.000    0.000    0.000    0.000 
#
# Total GULP energy -78008.172118 kJ/mol
# GULP energy per Si atom -5572.012294 kJ/mol
# Density = 2.592324 g / cm^3
# Si number density = 25.982376 Si / 1000 Ang^3
#
#
#
# Elastic Constant Matrix: (Units=GPa)
#
#
# Indices 1 2 3 4 5 6 
#
# 1 91.9801 77.4294 39.5853 -32.1651 -47.1542 46.0383
# 2 77.4294 42.8988 107.8350 38.0550 43.9427 77.2236
# 3 39.5853 107.8350 112.4020 -9.7413 -52.7982 2.1037
# 4 -32.1651 38.0550 -9.7413 43.9849 -17.2172 -19.4657
# 5 -47.1542 43.9427 -52.7982 -17.2172 15.7553 -34.8210
# 6 46.0383 77.2236 2.1037 -19.4657 -34.8210 51.2074
#
#
#
# Elastic Compliance Matrix: (Units=1/GPa)
#
#
# Indices 1 2 3 4 5 6 
#
# 1 0.030794 0.002745 -0.010135 0.008584 0.004537 -0.025061
# 2 0.002745 0.002753 0.000836 0.003582 0.008828 0.000711
# 3 -0.010135 0.000836 0.009214 -0.006602 -0.003905 0.002306
# 4 0.008584 0.003582 -0.006602 0.019096 -0.004163 -0.008419
# 5 0.004537 0.008828 -0.003905 -0.004163 0.013503 -0.009632
# 6 -0.025061 0.000711 0.002306 -0.008419 -0.009632 0.031142
#
#
# Mechanical properties :
#
#
# Convention : Reuss Voigt Hill
#
# Bulk Modulus (GPa) = 33.72190 77.44226 55.58208
# Shear Modulus (GPa) = 38.61277 23.68494 31.14885
#
# Velocity S-wave (km/s) = 3.85920 3.02251 3.46619
# Velocity P-wave (km/s) = 5.73278 6.48469 6.12029
#
# Compressibility (1/GPa) = 0.02965432
#
# Stress axis : x y z
#
# Youngs Moduli (GPa) = 32.47420 363.30060 108.53424
#
# Poissons Ratio (x) = -0.99738 1.09994
# Poissons Ratio (y) = -0.08915 -0.09078
# Poissons Ratio (z) = 0.32911 -0.30386
#
# Static dielectric constant tensor:
#      x y z
#    x 2.082910 -0.040960 0.049490 
#    y -0.040960 1.999180 0.051300 
#    z 0.049490 0.051300 2.042210 
# 
# From -- ./inp_files/396512.got.cif
#   From: 2010.05.17/outbox.cif.g08.bks.cpg/sg2_199_cif.got.tgz:396512.got - 2010.06.03 11:33:40.
