data_PCOD9056471
_publ_section_title
;
Structure prediction by ZEFSAII (Michael W. Deem and Ramdas Pophale) SiO2 
 PCOD9056471
Probable space group: P -1
;
_chemical_formula_sum "Si O2"
_cell_formula_units_Z 14
_cell_length_a 11.343800
_cell_length_b 27.729565
_cell_length_c 26.846028
_cell_angle_alpha 10.056345
_cell_angle_beta 158.225218
_cell_angle_gamma 157.978662
_cell_volume 536.454229
_symmetry_space_group_name_H-M "P -1"
_symmetry_group_IT_number 2
_symmetry_cell_setting 'triclinic'
loop_
_space_group_symop_operation_xyz
x,y,z
-x,-y,-z
loop_
_atom_site_type_symbol
_atom_site_label
_atom_site_fract_x
_atom_site_fract_y
_atom_site_fract_z
Si Si1 0.509054 0.029441 0.084087
Si Si2 0.620879 0.221404 0.366316
Si Si3 0.027109 0.245615 0.998845
Si Si4 0.456500 0.068404 0.628874
Si Si5 0.007244 0.051806 0.561556
Si Si6 0.418041 0.573312 0.040120
Si Si7 0.894544 0.552114 0.462162
O O1 0.655361 0.173677 0.943247
O O2 0.797750 0.921732 0.336896
O O3 0.234534 0.750909 0.255447
O O4 0.383822 0.263087 0.830387
O O5 0.500000 0.000000 0.500000
O O6 0.875250 0.058303 0.657974
O O7 0.799926 0.542224 0.104663
O O8 0.302639 0.196877 0.299951
O O9 0.229973 0.405902 0.869530
O O10 0.265895 0.009817 0.664898
O O11 0.803834 0.255108 0.588567
O O12 0.474473 0.795509 0.881930
O O13 0.292543 0.275191 0.320000
O O14 0.835934 0.306437 0.217470
O O15 0.000000 0.500000 0.500000
#
# Coordination Sequence:
#
# PCOD9056471 Si02
#       7
#     2   2   2   2   2   2   2
#     4  12  26  44  76 107 134 183 240 292 357 398
#     4  11  22  39  63 106 143 178 216 280 359 414
#     4  11  24  44  67 101 145 180 231 284 348 417
#     4  12  26  47  69  98 145 187 243 279 343 422
#     4  11  25  41  75 106 143 178 229 290 359 419
#     4  11  26  46  69 103 144 194 221 282 355 431
#     4  12  27  48  71 104 138 185 238 299 344 401
#
# _framework density 26.097289
#
# number of rings (size 3 to 8) (size 9 to 14) (size 15 to 20)
#    0.000    0.571    2.857    5.143    2.000    4.571 
#    0.000    4.286    0.000    0.000    0.000    0.000 
#    0.000    0.000    0.000    0.000    0.000    0.000 
#
# Total GULP energy -78360.278633 kJ/mol
# GULP energy per Si atom -5597.162759 kJ/mol
# Density = 2.603789 g / cm^3
# Si number density = 26.097289 Si / 1000 Ang^3
#
#
#
# Elastic Constant Matrix: (Units=GPa)
#
#
# Indices 1 2 3 4 5 6 
#
# 1 121.3073 15.9493 22.3886 -6.4957 12.8752 37.8937
# 2 15.9493 81.1728 17.7222 -12.0575 4.5855 26.9361
# 3 22.3886 17.7222 118.2822 -21.9367 17.2545 12.6866
# 4 -6.4957 -12.0575 -21.9367 42.5837 1.1585 -8.8567
# 5 12.8752 4.5855 17.2545 1.1585 40.6468 1.3186
# 6 37.8937 26.9361 12.6866 -8.8567 1.3186 48.7263
#
#
#
# Elastic Compliance Matrix: (Units=1/GPa)
#
#
# Indices 1 2 3 4 5 6 
#
# 1 0.011478 0.001169 -0.000954 -0.000258 -0.003054 -0.009288
# 2 0.001169 0.015669 -0.000970 0.002314 -0.001505 -0.008858
# 3 -0.000954 -0.000970 0.010337 0.004932 -0.004104 -0.000406
# 4 -0.000258 0.002314 0.004932 0.027283 -0.003138 0.002681
# 5 -0.003054 -0.001505 -0.004104 -0.003138 0.027475 0.002962
# 6 -0.009288 -0.008858 -0.000406 0.002681 0.002962 0.033156
#
#
# Mechanical properties :
#
#
# Convention : Reuss Voigt Hill
#
# Bulk Modulus (GPa) = 27.79729 48.09807 37.94768
# Shear Modulus (GPa) = 35.99745 44.03817 40.01781
#
# Velocity S-wave (km/s) = 3.71800 4.11233 3.92012
# Velocity P-wave (km/s) = 5.39499 6.40458 5.92134
#
# Compressibility (1/GPa) = 0.03597472
#
# Stress axis : x y z
#
# Youngs Moduli (GPa) = 87.12605 63.81827 96.73811
#
# Poissons Ratio (x) = -0.07463 0.09227
# Poissons Ratio (y) = -0.10189 0.09387
# Poissons Ratio (z) = 0.08311 0.06193
#
# Static dielectric constant tensor:
#      x y z
#    x 2.129590 -0.078010 0.012020 
#    y -0.078010 2.100240 0.065230 
#    z 0.012020 0.065230 2.006140 
# 
# From -- ./inp_files/623250.got.cif
#   From: 2010.05.17/outbox.cif.g08.bks.cpg/sg2_312_cif.got.tgz:623250.got - 2010.06.03 11:33:40.
