data_PCOD9056559
_publ_section_title
;
Structure prediction by ZEFSAII (Michael W. Deem and Ramdas Pophale) SiO2 
 PCOD9056559
Probable space group: P -1
;
_chemical_formula_sum "Si O2"
_cell_formula_units_Z 16
_cell_length_a 9.316375
_cell_length_b 19.251006
_cell_length_c 7.326355
_cell_angle_alpha 136.957592
_cell_angle_beta 65.612446
_cell_angle_gamma 124.321296
_cell_volume 740.691278
_symmetry_space_group_name_H-M "P -1"
_symmetry_group_IT_number 2
_symmetry_cell_setting 'triclinic'
loop_
_space_group_symop_operation_xyz
x,y,z
-x,-y,-z
loop_
_atom_site_type_symbol
_atom_site_label
_atom_site_fract_x
_atom_site_fract_y
_atom_site_fract_z
Si Si1 0.063932 0.205089 0.130970
Si Si2 0.532542 0.238581 0.731719
Si Si3 0.400695 0.368054 0.761658
Si Si4 0.551217 0.629778 0.684947
Si Si5 0.219139 0.037405 0.656737
Si Si6 0.344147 0.077283 0.084740
Si Si7 0.286539 0.833079 0.778680
Si Si8 0.071138 0.179565 0.509725
O O1 0.253847 0.304971 0.214582
O O2 0.026273 0.183259 0.326562
O O3 0.910162 0.227667 0.167064
O O4 0.091495 0.100112 0.833267
O O5 0.471210 0.307057 0.752650
O O6 0.383377 0.110784 0.586669
O O7 0.692620 0.225395 0.530898
O O8 0.554555 0.309680 0.041078
O O9 0.442506 0.351067 0.497516
O O10 0.189502 0.304483 0.760123
O O11 0.500000 0.500000 0.000000
O O12 0.500000 0.500000 0.500000
O O13 0.299972 0.060901 0.862893
O O14 0.099899 0.904951 0.456735
O O15 0.548290 0.152265 0.157572
O O16 0.210762 0.124144 0.325108
O O17 0.306259 0.957820 0.963411
#
# Coordination Sequence:
#
# PCOD9056559 Si02
#       8
#     2   2   2   2   2   2   2   2
#     4   9  18  34  63  89 122 167 201 252 305 374
#     4  11  24  36  63  99 122 163 207 260 311 374
#     4  11  22  40  64  91 120 158 218 263 308 357
#     4  10  21  41  70  89 116 165 216 262 303 363
#     4  10  19  37  60  90 127 164 218 242 305 376
#     4  10  19  34  60  87 133 173 194 249 312 379
#     4  11  20  35  57  94 136 164 200 244 334 366
#     4  10  17  36  62  88 118 171 207 251 303 371
#
# _framework density 21.601443
#
# number of rings (size 3 to 8) (size 9 to 14) (size 15 to 20)
#    0.000    1.750    5.000    1.500    0.000    1.000 
#    0.000    0.625    5.500    0.750    0.000    0.000 
#    0.000    0.000    0.000    0.000    0.000    0.000 
#
# Total GULP energy -89335.668241 kJ/mol
# GULP energy per Si atom -5583.479265 kJ/mol
# Density = 2.155228 g / cm^3
# Si number density = 21.601443 Si / 1000 Ang^3
#
#
#
# Elastic Constant Matrix: (Units=GPa)
#
#
# Indices 1 2 3 4 5 6 
#
# 1 77.7296 -2.4494 15.9951 -8.3621 0.7735 12.4634
# 2 -2.4494 78.6696 24.7275 18.9366 3.6642 -1.7346
# 3 15.9951 24.7275 98.4750 3.2908 14.3465 12.5043
# 4 -8.3621 18.9366 3.2908 37.8304 2.2245 6.8322
# 5 0.7735 3.6642 14.3465 2.2245 21.9664 -1.2838
# 6 12.4634 -1.7346 12.5043 6.8322 -1.2838 28.5982
#
#
#
# Elastic Compliance Matrix: (Units=1/GPa)
#
#
# Indices 1 2 3 4 5 6 
#
# 1 0.014819 -0.000366 -0.001538 0.004876 -0.000358 -0.006989
# 2 -0.000366 0.016361 -0.004661 -0.008930 0.001547 0.005393
# 3 -0.001538 -0.004661 0.013586 0.002502 -0.008677 -0.006540
# 4 0.004876 -0.008930 0.002502 0.034220 -0.004491 -0.012138
# 5 -0.000358 0.001547 -0.008677 -0.004491 0.051836 0.007444
# 6 -0.006989 0.005393 -0.006540 -0.012138 0.007444 0.044434
#
#
# Mechanical properties :
#
#
# Convention : Reuss Voigt Hill
#
# Bulk Modulus (GPa) = 31.60969 36.82451 34.21710
# Shear Modulus (GPa) = 25.13427 32.11906 28.62667
#
# Velocity S-wave (km/s) = 3.41478 3.86021 3.64431
# Velocity P-wave (km/s) = 5.49659 6.07886 5.79504
#
# Compressibility (1/GPa) = 0.03163587
#
# Stress axis : x y z
#
# Youngs Moduli (GPa) = 67.48162 61.11939 73.60501
#
# Poissons Ratio (x) = 0.02238 0.11323
# Poissons Ratio (y) = 0.02471 0.34305
# Poissons Ratio (z) = 0.10381 0.28486
#
# Static dielectric constant tensor:
#      x y z
#    x 1.789330 0.016760 0.037430 
#    y 0.016760 1.836100 -0.013080 
#    z 0.037430 -0.013080 1.851330 
# 
# From -- ./inp_files/222594.got.cif
#   From: 2010.05.17/outbox.cif.g08.bks.cpg/sg2_112_cif.got.tgz:222594.got - 2010.06.03 11:33:40.
