data_PCOD9056394
_publ_section_title
;
Structure prediction by ZEFSAII (Michael W. Deem and Ramdas Pophale) SiO2 
 PCOD9056394
Probable space group: P -1
;
_chemical_formula_sum "Si O2"
_cell_formula_units_Z 16
_cell_length_a 19.593550
_cell_length_b 14.004277
_cell_length_c 12.522726
_cell_angle_alpha 130.420411
_cell_angle_beta 152.531821
_cell_angle_gamma 30.727505
_cell_volume 708.205631
_symmetry_space_group_name_H-M "P -1"
_symmetry_group_IT_number 2
_symmetry_cell_setting 'triclinic'
loop_
_space_group_symop_operation_xyz
x,y,z
-x,-y,-z
loop_
_atom_site_type_symbol
_atom_site_label
_atom_site_fract_x
_atom_site_fract_y
_atom_site_fract_z
Si Si1 0.185979 0.152416 0.891717
Si Si2 0.168770 0.816622 0.950693
Si Si3 0.328855 0.703431 0.330878
Si Si4 0.764667 0.786140 0.764517
Si Si5 0.698184 0.641037 0.866999
Si Si6 0.693779 0.564857 0.439483
Si Si7 0.377453 0.259666 0.930177
Si Si8 0.061785 0.621650 0.581691
O O1 0.896319 0.324443 0.586683
O O2 0.217995 0.142336 0.054558
O O3 0.254344 0.246824 0.014933
O O4 0.372242 0.934495 0.929990
O O5 0.261529 0.709343 0.120649
O O6 0.410714 0.713509 0.157748
O O7 0.078004 0.758904 0.716221
O O8 0.939431 0.071420 0.829279
O O9 0.500000 0.500000 0.500000
O O10 0.499515 0.711782 0.565152
O O11 0.738338 0.653424 0.642997
O O12 0.500000 0.000000 0.500000
O O13 0.029708 0.614888 0.945845
O O14 0.588610 0.708836 0.882826
O O15 0.789416 0.528176 0.425517
O O16 0.194597 0.471581 0.760242
O O17 0.221622 0.236530 0.712165
#
# Coordination Sequence:
#
# PCOD9056394 Si02
#       8
#     2   2   2   2   2   2   2   2
#     4  11  22  38  65  97 128 171 218 271 338 385
#     4  11  25  45  67  95 138 176 218 275 331 402
#     4  11  25  44  68  97 128 179 226 269 331 398
#     4  11  23  38  64  96 129 170 217 275 330 386
#     4  11  22  42  65  93 132 166 221 273 330 393
#     4  11  23  43  63  93 134 174 215 268 340 397
#     4  11  23  40  68  98 130 167 226 281 323 393
#     4  11  23  42  65  96 130 173 220 269 336 390
#
# _framework density 22.592307999999999
#
# number of rings (size 3 to 8) (size 9 to 14) (size 15 to 20)
#    0.000    1.000    2.500    6.000    5.250    1.000 
#    2.250    0.625    0.000    0.000    0.000    0.000 
#    0.000    0.000    0.000    0.000    0.000    0.000 
#
# Total GULP energy -89458.230777 kJ/mol
# GULP energy per Si atom -5591.139424 kJ/mol
# Density = 2.254089 g / cm^3
# Si number density = 22.592308 Si / 1000 Ang^3
#
#
#
# Elastic Constant Matrix: (Units=GPa)
#
#
# Indices 1 2 3 4 5 6 
#
# 1 49.8273 22.5897 12.8190 3.1295 -6.1254 -24.4795
# 2 22.5897 72.7234 26.0156 -12.0224 6.4455 -31.9968
# 3 12.8190 26.0156 94.0855 -7.1858 4.9860 -15.4790
# 4 3.1295 -12.0224 -7.1858 37.5418 -3.7893 -1.4434
# 5 -6.1254 6.4455 4.9860 -3.7893 42.5466 -2.3898
# 6 -24.4795 -31.9968 -15.4790 -1.4434 -2.3898 35.3352
#
#
#
# Elastic Compliance Matrix: (Units=1/GPa)
#
#
# Indices 1 2 3 4 5 6 
#
# 1 0.032027 -0.001164 -0.001041 -0.001836 0.005925 0.021004
# 2 -0.001164 0.026455 -0.002745 0.008711 -0.001832 0.022179
# 3 -0.001041 -0.002745 0.012031 0.001500 -0.000894 0.002064
# 4 -0.001836 0.008711 0.001500 0.030342 0.001426 0.008609
# 5 0.005925 -0.001832 -0.000894 0.001426 0.025080 0.003809
# 6 0.021004 0.022179 0.002064 0.008609 0.003809 0.064449
#
#
# Mechanical properties :
#
#
# Convention : Reuss Voigt Hill
#
# Bulk Modulus (GPa) = 16.49769 37.72053 27.10911
# Shear Modulus (GPa) = 22.67707 33.43219 28.05463
#
# Velocity S-wave (km/s) = 3.17164 3.85100 3.52771
# Velocity P-wave (km/s) = 4.55309 6.04202 5.34961
#
# Compressibility (1/GPa) = 0.06061456
#
# Stress axis : x y z
#
# Youngs Moduli (GPa) = 31.22336 37.80017 83.11827
#
# Poissons Ratio (x) = 0.04398 0.08649
# Poissons Ratio (y) = 0.03633 0.22818
# Poissons Ratio (z) = 0.03249 0.10377
#
# Static dielectric constant tensor:
#      x y z
#    x 1.866680 0.035260 -0.019670 
#    y 0.035260 1.892610 -0.019250 
#    z -0.019670 -0.019250 1.825220 
# 
# From -- ./inp_files/471940.got.cif
#   From: 2010.05.17/outbox.cif.g08.bks.cpg/sg2_236_cif.got.tgz:471940.got - 2010.06.03 11:33:40.
