data_PCOD9056765
_publ_section_title
;
Structure prediction by ZEFSAII (Michael W. Deem and Ramdas Pophale) SiO2 
 PCOD9056765
Probable space group: P -1
;
_chemical_formula_sum "Si O2"
_cell_formula_units_Z 16
_cell_length_a 15.424946
_cell_length_b 12.288340
_cell_length_c 10.527272
_cell_angle_alpha 81.107948
_cell_angle_beta 63.327361
_cell_angle_gamma 27.976414
_cell_volume 683.182564
_symmetry_space_group_name_H-M "P -1"
_symmetry_group_IT_number 2
_symmetry_cell_setting 'triclinic'
loop_
_space_group_symop_operation_xyz
x,y,z
-x,-y,-z
loop_
_atom_site_type_symbol
_atom_site_label
_atom_site_fract_x
_atom_site_fract_y
_atom_site_fract_z
Si Si1 0.940034 0.641508 0.360829
Si Si2 0.661877 0.951101 0.727243
Si Si3 0.031408 0.126365 0.070083
Si Si4 0.290382 0.664959 0.366642
Si Si5 0.248316 0.808041 0.718075
Si Si6 0.846920 0.357351 0.735840
Si Si7 0.100931 0.499743 0.008268
Si Si8 0.598692 0.234992 0.869246
O O1 0.100867 0.362384 0.315543
O O2 0.106881 0.563502 0.327062
O O3 0.694659 0.900488 0.562761
O O4 0.930262 0.685064 0.213101
O O5 0.395879 0.179594 0.903868
O O6 0.675523 0.062184 0.747865
O O7 0.847888 0.216775 0.205346
O O8 0.913777 0.369434 0.080115
O O9 0.214002 0.949608 0.102241
O O10 0.163931 0.952530 0.882355
O O11 0.452446 0.491051 0.418283
O O12 0.285332 0.556842 0.313566
O O13 0.415948 0.630457 0.208092
O O14 0.000000 0.000000 0.500000
O O15 0.103121 0.026677 0.664552
O O16 0.666246 0.523779 0.943369
O O17 0.000000 0.500000 0.000000
#
# Coordination Sequence:
#
# PCOD9056765 Si02
#       8
#     2   2   2   2   2   2   2   2
#     4  11  25  46  70  98 135 182 231 288 353 411
#     4  11  25  46  70  98 137 180 230 294 350 416
#     4  11  22  40  69 101 131 179 232 284 343 412
#     4  12  26  42  64 103 142 184 230 283 350 416
#     4  11  22  41  67  96 137 180 229 281 342 411
#     4  12  23  43  72  98 134 184 236 287 340 417
#     4  12  25  42  70 104 134 180 233 283 352 418
#     4  12  22  44  70  98 134 182 237 284 349 416
#
# _framework density 23.419802000000001
#
# number of rings (size 3 to 8) (size 9 to 14) (size 15 to 20)
#    0.000    0.500    5.000    4.500    1.750    1.000 
#    2.250    0.000    0.000    0.000    0.000    0.000 
#    0.000    0.000    0.000    0.000    0.000    0.000 
#
# Total GULP energy -89566.914274 kJ/mol
# GULP energy per Si atom -5597.932142 kJ/mol
# Density = 2.336650 g / cm^3
# Si number density = 23.419802 Si / 1000 Ang^3
#
#
#
# Elastic Constant Matrix: (Units=GPa)
#
#
# Indices 1 2 3 4 5 6 
#
# 1 142.5025 35.1602 1.0317 4.2031 6.5769 0.4632
# 2 35.1602 92.3420 -0.9126 6.2330 -1.5809 -13.6708
# 3 1.0317 -0.9126 73.0665 6.4281 5.8395 -6.9089
# 4 4.2031 6.2330 6.4281 32.0219 -1.7888 -1.5420
# 5 6.5769 -1.5809 5.8395 -1.7888 29.6165 -3.4476
# 6 0.4632 -13.6708 -6.9089 -1.5420 -3.4476 46.6990
#
#
#
# Elastic Compliance Matrix: (Units=1/GPa)
#
#
# Indices 1 2 3 4 5 6 
#
# 1 0.007923 -0.003190 -0.000046 -0.000584 -0.002095 -0.001193
# 2 -0.003190 0.012788 0.000615 -0.001915 0.001611 0.003922
# 3 -0.000046 0.000615 0.014372 -0.003055 -0.002742 0.002003
# 4 -0.000584 -0.001915 -0.003055 0.032450 0.002620 0.000258
# 5 -0.002095 0.001611 -0.002742 0.002620 0.035339 0.002782
# 6 -0.001193 0.003922 0.002003 0.000258 0.002782 0.023084
#
#
# Mechanical properties :
#
#
# Convention : Reuss Voigt Hill
#
# Bulk Modulus (GPa) = 33.51093 42.05217 37.78155
# Shear Modulus (GPa) = 35.42502 39.84294 37.63398
#
# Velocity S-wave (km/s) = 3.89345 4.12910 4.01300
# Velocity P-wave (km/s) = 5.87808 6.38180 6.13511
#
# Compressibility (1/GPa) = 0.02984101
#
# Stress axis : x y z
#
# Youngs Moduli (GPa) = 126.22010 78.20124 69.58026
#
# Poissons Ratio (x) = 0.24948 0.00318
# Poissons Ratio (y) = 0.40266 -0.04282
# Poissons Ratio (z) = 0.00577 -0.04812
#
# Static dielectric constant tensor:
#      x y z
#    x 1.917600 -0.052640 0.031520 
#    y -0.052640 1.907840 0.048600 
#    z 0.031520 0.048600 1.954150 
# 
# From -- ./inp_files/452269.got.cif
#   From: 2010.05.17/outbox.cif.g08.bks.cpg/sg2_227_cif.got.tgz:452269.got - 2010.06.03 11:33:40.
