data_PCOD9056522
_publ_section_title
;
Structure prediction by ZEFSAII (Michael W. Deem and Ramdas Pophale) SiO2 
 PCOD9056522
Probable space group: P -1
;
_chemical_formula_sum "Si O2"
_cell_formula_units_Z 16
_cell_length_a 11.859474
_cell_length_b 11.758088
_cell_length_c 5.793072
_cell_angle_alpha 100.868585
_cell_angle_beta 86.413263
_cell_angle_gamma 59.548599
_cell_volume 671.857137
_symmetry_space_group_name_H-M "P -1"
_symmetry_group_IT_number 2
_symmetry_cell_setting 'triclinic'
loop_
_space_group_symop_operation_xyz
x,y,z
-x,-y,-z
loop_
_atom_site_type_symbol
_atom_site_label
_atom_site_fract_x
_atom_site_fract_y
_atom_site_fract_z
Si Si1 0.130602 0.333869 0.296558
Si Si2 0.389648 0.809917 0.663507
Si Si3 0.525669 0.545073 0.764936
Si Si4 0.794730 0.483472 0.879792
Si Si5 0.034253 0.778897 0.937443
Si Si6 0.888480 0.052902 0.337702
Si Si7 0.634727 0.925509 0.093397
Si Si8 0.669695 0.718078 0.361532
O O1 0.196075 0.327772 0.530871
O O2 0.019360 0.297113 0.249244
O O3 0.110087 0.470683 0.231754
O O4 0.255375 0.205639 0.105753
O O5 0.417879 0.705871 0.824852
O O6 0.265831 0.850789 0.525863
O O7 0.536133 0.747279 0.514794
O O8 0.339811 0.955217 0.832255
O O9 0.500000 0.500000 0.500000
O O10 0.500000 0.500000 0.000000
O O11 0.680325 0.500685 0.728927
O O12 0.872124 0.337710 0.936222
O O13 0.710951 0.599490 0.126193
O O14 0.096364 0.845946 0.797798
O O15 0.926670 0.911505 0.149177
O O16 0.000000 0.000000 0.500000
O O17 0.625734 0.862440 0.308895
O O18 0.500000 0.000000 0.000000
#
# Coordination Sequence:
#
# PCOD9056522 Si02
#       8
#     2   2   2   2   2   2   2   2
#     4  11  23  43  73 104 140 186 242 305 375 440
#     4  12  23  46  72 105 142 187 243 307 373 440
#     4  12  27  47  74 109 151 199 251 315 376 453
#     4  11  25  47  70 110 145 185 249 299 382 443
#     4  11  26  49  70 100 146 193 242 302 364 455
#     4  11  28  46  70 101 140 196 244 292 366 451
#     4  11  22  39  66 108 142 178 233 302 380 446
#     4  11  24  42  71 110 143 184 239 314 379 443
#
# _framework density 23.814588000000001
#
# number of rings (size 3 to 8) (size 9 to 14) (size 15 to 20)
#    0.000    0.750    3.750    3.000    3.500    1.500 
#    4.500    0.000    0.000    0.000    0.000    0.000 
#    0.000    0.000    0.000    0.000    0.000    0.000 
#
# Total GULP energy -89370.675026 kJ/mol
# GULP energy per Si atom -5585.667189 kJ/mol
# Density = 2.376039 g / cm^3
# Si number density = 23.814588 Si / 1000 Ang^3
#
#
#
# Elastic Constant Matrix: (Units=GPa)
#
#
# Indices 1 2 3 4 5 6 
#
# 1 0.0562 74.2703 16.3694 40.5060 94.9031 -53.8850
# 2 74.2703 210.9613 55.3833 -39.0159 3.8910 11.9443
# 3 16.3694 55.3833 86.8074 -0.9666 41.4993 -3.1492
# 4 40.5060 -39.0159 -0.9666 21.2003 -28.9530 22.5955
# 5 94.9031 3.8910 41.4993 -28.9530 0.0102 17.4088
# 6 -53.8850 11.9443 -3.1492 22.5955 17.4088 24.2738
#
#
#
# Elastic Compliance Matrix: (Units=1/GPa)
#
#
# Indices 1 2 3 4 5 6 
#
# 1 0.004101 0.000801 -0.004724 0.005490 0.007159 -0.002148
# 2 0.000801 0.005176 -0.001411 0.001625 -0.004192 0.000543
# 3 -0.004724 -0.001411 0.016559 0.004205 -0.007182 -0.006407
# 4 0.005490 0.001625 0.004205 0.023639 -0.012655 -0.000995
# 5 0.007159 -0.004192 -0.007182 -0.012655 0.018669 0.015414
# 6 -0.002148 0.000543 -0.006407 -0.000995 0.015414 0.025200
#
#
# Mechanical properties :
#
#
# Convention : Reuss Voigt Hill
#
# Bulk Modulus (GPa) = 65.92871 65.54122 65.73496
# Shear Modulus (GPa) = 45.84341 19.21699 32.53020
#
# Velocity S-wave (km/s) = 4.39226 2.84375 3.69992
# Velocity P-wave (km/s) = 7.31210 6.19385 6.77608
#
# Compressibility (1/GPa) = 0.01516790
#
# Stress axis : x y z
#
# Youngs Moduli (GPa) = 243.83363 193.21391 60.39188
#
# Poissons Ratio (x) = -0.15483 0.28529
# Poissons Ratio (y) = -0.19539 0.08522
# Poissons Ratio (z) = 1.15185 0.27264
#
# Static dielectric constant tensor:
#      x y z
#    x 1.980720 0.039900 -0.003300 
#    y 0.039900 1.893810 0.038590 
#    z -0.003300 0.038590 1.949210 
# 
# From -- ./inp_files/71358.got.cif
#   From: 2010.05.17/outbox.cif.g08.bks.cpg/sg2_36_cif.got.tgz:71358.got - 2010.06.03 11:33:40.
