data_PCOD9056877
_publ_section_title
;
Structure prediction by ZEFSAII (Michael W. Deem and Ramdas Pophale) SiO2 
 PCOD9056877
Probable space group: P -1
;
_chemical_formula_sum "Si O2"
_cell_formula_units_Z 16
_cell_length_a 8.814498
_cell_length_b 8.119300
_cell_length_c 17.599126
_cell_angle_alpha 44.879827
_cell_angle_beta 129.133367
_cell_angle_gamma 129.296745
_cell_volume 648.299706
_symmetry_space_group_name_H-M "P -1"
_symmetry_group_IT_number 2
_symmetry_cell_setting 'triclinic'
loop_
_space_group_symop_operation_xyz
x,y,z
-x,-y,-z
loop_
_atom_site_type_symbol
_atom_site_label
_atom_site_fract_x
_atom_site_fract_y
_atom_site_fract_z
Si Si1 0.506366 0.617607 0.864712
Si Si2 0.138639 0.285387 0.955762
Si Si3 0.004179 0.018343 0.258853
Si Si4 0.215744 0.481510 0.252054
Si Si5 0.680948 0.234540 0.514232
Si Si6 0.197851 0.376784 0.453388
Si Si7 0.801704 0.523143 0.312155
Si Si8 0.623024 0.920881 0.275825
O O1 0.341152 0.385773 0.932891
O O2 0.415665 0.581283 0.764355
O O3 0.467328 0.867301 0.797370
O O4 0.743514 0.648218 0.947433
O O5 0.979363 0.423714 0.839313
O O6 0.000000 0.000000 0.000000
O O7 0.909733 0.815732 0.229292
O O8 0.804447 0.028754 0.236931
O O9 0.125210 0.860101 0.391361
O O10 0.168086 0.292842 0.228018
O O11 0.221378 0.355419 0.377510
O O12 0.430226 0.707476 0.246663
O O13 0.667898 0.353900 0.553833
O O14 0.741096 0.463106 0.400421
O O15 0.500000 0.000000 0.500000
O O16 0.269671 0.181283 0.587862
O O17 0.963219 0.380950 0.389776
#
# Coordination Sequence:
#
# PCOD9056877 Si02
#       8
#     2   2   2   2   2   2   2   2
#     4  11  25  41  73  94 124 176 218 272 329 374
#     4  11  23  46  67  97 124 166 226 278 321 379
#     4  11  23  41  60  93 138 168 210 262 319 392
#     4  12  25  40  68  99 129 172 221 273 322 382
#     4  11  23  38  62  93 140 182 212 251 323 400
#     4  11  22  41  60 100 135 173 211 258 325 395
#     4  11  22  43  62  92 138 178 210 258 325 395
#     4  12  22  40  65 102 134 165 213 269 327 387
#
# _framework density 24.679940999999999
#
# number of rings (size 3 to 8) (size 9 to 14) (size 15 to 20)
#    0.000    0.750    6.250    1.875    3.500    1.000 
#    0.000    0.625    0.000    1.500    0.000    0.000 
#    0.000    0.000    0.000    0.000    0.000    0.000 
#
# Total GULP energy -89391.634174 kJ/mol
# GULP energy per Si atom -5586.977136 kJ/mol
# Density = 2.462377 g / cm^3
# Si number density = 24.679941 Si / 1000 Ang^3
#
#
#
# Elastic Constant Matrix: (Units=GPa)
#
#
# Indices 1 2 3 4 5 6 
#
# 1 49.0662 18.9758 6.2006 11.8268 7.1001 18.8543
# 2 18.9758 167.5750 26.9393 10.3393 7.0604 26.3531
# 3 6.2006 26.9393 89.9065 24.4926 23.5207 9.6295
# 4 11.8268 10.3393 24.4926 46.5136 12.2860 8.9462
# 5 7.1001 7.0604 23.5207 12.2860 19.7552 9.2067
# 6 18.8543 26.3531 9.6295 8.9462 9.2067 36.3020
#
#
#
# Elastic Compliance Matrix: (Units=1/GPa)
#
#
# Indices 1 2 3 4 5 6 
#
# 1 0.026534 -0.001057 0.001729 -0.004374 -0.003085 -0.011612
# 2 -0.001057 0.007070 -0.002269 0.000083 0.002686 -0.004683
# 3 0.001729 -0.002269 0.017678 -0.004634 -0.018907 0.001997
# 4 -0.004374 0.000083 -0.004634 0.027799 -0.009797 -0.000926
# 5 -0.003085 0.002686 -0.018907 -0.009797 0.086268 -0.014796
# 6 -0.011612 -0.004683 0.001997 -0.000926 -0.014796 0.040429
#
#
# Mechanical properties :
#
#
# Convention : Reuss Voigt Hill
#
# Bulk Modulus (GPa) = 20.79502 45.64213 33.21857
# Shear Modulus (GPa) = 22.22215 37.47628 29.84922
#
# Velocity S-wave (km/s) = 3.00394 3.90101 3.48149
# Velocity P-wave (km/s) = 4.52501 6.23091 5.44518
#
# Compressibility (1/GPa) = 0.04808843
#
# Stress axis : x y z
#
# Youngs Moduli (GPa) = 37.68806 141.43955 56.56673
#
# Poissons Ratio (x) = 0.14944 -0.09781
# Poissons Ratio (y) = 0.03982 0.12837
# Poissons Ratio (z) = -0.06517 0.32097
#
# Static dielectric constant tensor:
#      x y z
#    x 1.969570 -0.013130 -0.048910 
#    y -0.013130 2.107320 0.026710 
#    z -0.048910 0.026710 1.967310 
# 
# From -- ./inp_files/474092.got.cif
#   From: 2010.05.17/outbox.cif.g08.bks.cpg/sg2_238_cif.got.tgz:474092.got - 2010.06.03 11:33:40.
