data_PCOD9056240
_publ_section_title
;
Structure prediction by ZEFSAII (Michael W. Deem and Ramdas Pophale) SiO2 
 PCOD9056240
Probable space group: P -1
;
_chemical_formula_sum "Si O2"
_cell_formula_units_Z 14
_cell_length_a 10.995268
_cell_length_b 13.320110
_cell_length_c 5.118744
_cell_angle_alpha 91.864139
_cell_angle_beta 114.988361
_cell_angle_gamma 84.754077
_cell_volume 676.645334
_symmetry_space_group_name_H-M "P -1"
_symmetry_group_IT_number 2
_symmetry_cell_setting 'triclinic'
loop_
_space_group_symop_operation_xyz
x,y,z
-x,-y,-z
loop_
_atom_site_type_symbol
_atom_site_label
_atom_site_fract_x
_atom_site_fract_y
_atom_site_fract_z
Si Si1 0.070878 0.864813 0.306950
Si Si2 0.428559 0.116527 0.163411
Si Si3 0.774508 0.276331 0.901287
Si Si4 0.955274 0.796257 0.695240
Si Si5 0.481964 0.570988 0.239380
Si Si6 0.654942 0.758749 0.401528
Si Si7 0.305614 0.932351 0.270045
O O1 0.174727 0.761908 0.347477
O O2 0.003918 0.870209 0.524463
O O3 0.165370 0.948509 0.302172
O O4 0.958977 0.847927 0.986026
O O5 0.372180 0.200014 0.328048
O O6 0.577771 0.085420 0.407694
O O7 0.344237 0.020501 0.125356
O O8 0.413686 0.162083 0.865515
O O9 0.662719 0.365576 0.850711
O O10 0.712762 0.170940 0.914741
O O11 0.916248 0.286918 0.171977
O O12 0.814489 0.755601 0.498803
O O13 0.500000 0.500000 0.500000
O O14 0.590003 0.653715 0.317892
O O15 0.500000 0.500000 0.000000
#
# Coordination Sequence:
#
# PCOD9056240 Si02
#       7
#     2   2   2   2   2   2   2
#     4   8  18  34  62  80 124 162 205 225 296 357
#     4  11  22  36  64  94 130 160 205 251 305 351
#     4   8  21  41  65  85 126 162 204 243 303 362
#     4   9  20  37  63  85 122 170 195 243 310 358
#     4  12  27  43  66  93 118 156 208 261 315 363
#     4  12  24  42  61  94 129 156 201 265 305 349
#     4   8  20  38  61  97 122 170 205 243 297 370
#
# _framework density 20.690308999999999
#
# number of rings (size 3 to 8) (size 9 to 14) (size 15 to 20)
#    1.714    0.286    1.429    1.714    4.000    4.571 
#    0.000   11.429    0.000    0.000    0.000    0.000 
#    0.000    0.000    0.000    0.000    0.000    0.000 
#
# Total GULP energy -78020.264473 kJ/mol
# GULP energy per Si atom -5572.876034 kJ/mol
# Density = 2.064322 g / cm^3
# Si number density = 20.690309 Si / 1000 Ang^3
#
#
#
# Elastic Constant Matrix: (Units=GPa)
#
#
# Indices 1 2 3 4 5 6 
#
# 1 89.4901 38.5034 36.1446 -2.8212 21.9239 4.4439
# 2 38.5034 88.0694 18.7761 -3.1809 16.8293 -5.0838
# 3 36.1446 18.7761 65.7584 -6.1615 7.9052 3.3151
# 4 -2.8212 -3.1809 -6.1615 21.7435 -2.2396 -7.5263
# 5 21.9239 16.8293 7.9052 -2.2396 38.7607 6.1570
# 6 4.4439 -5.0838 3.3151 -7.5263 6.1570 38.2098
#
#
#
# Elastic Compliance Matrix: (Units=1/GPa)
#
#
# Indices 1 2 3 4 5 6 
#
# 1 0.018123 -0.005209 -0.007814 -0.001777 -0.006266 -0.001463
# 2 -0.005209 0.014835 -0.000906 0.002125 -0.003773 0.003685
# 3 -0.007814 -0.000906 0.020078 0.004573 0.001017 -0.000217
# 4 -0.001777 0.002125 0.004573 0.050892 0.000496 0.010037
# 5 -0.006266 -0.003773 0.001017 0.000496 0.031573 -0.004851
# 6 -0.001463 0.003685 -0.000217 0.010037 -0.004851 0.029609
#
#
# Mechanical properties :
#
#
# Convention : Reuss Voigt Hill
#
# Bulk Modulus (GPa) = 39.71493 47.79626 43.75560
# Shear Modulus (GPa) = 24.83092 29.73572 27.28332
#
# Velocity S-wave (km/s) = 3.46804 3.79513 3.63526
# Velocity P-wave (km/s) = 5.93911 6.50807 6.23009
#
# Compressibility (1/GPa) = 0.02517945
#
# Stress axis : x y z
#
# Youngs Moduli (GPa) = 55.17808 67.40599 49.80589
#
# Poissons Ratio (x) = 0.35110 0.38917
# Poissons Ratio (y) = 0.28741 0.04513
# Poissons Ratio (z) = 0.43115 0.06108
#
# Static dielectric constant tensor:
#      x y z
#    x 1.771390 -0.029760 0.016740 
#    y -0.029760 1.735450 -0.014010 
#    z 0.016740 -0.014010 1.758580 
# 
# From -- ./inp_files/70851.got.cif
#   From: 2010.05.17/outbox.cif.g08.bks.cpg/sg2_36_cif.got.tgz:70851.got - 2010.06.03 11:33:40.
