data_PCOD9056556
_publ_section_title
;
Structure prediction by ZEFSAII (Michael W. Deem and Ramdas Pophale) SiO2 
 PCOD9056556
Probable space group: P -1
;
_chemical_formula_sum "Si O2"
_cell_formula_units_Z 13
_cell_length_a 10.173181
_cell_length_b 11.403091
_cell_length_c 10.587622
_cell_angle_alpha 130.353357
_cell_angle_beta 139.147721
_cell_angle_gamma 77.801874
_cell_volume 507.792608
_symmetry_space_group_name_H-M "P -1"
_symmetry_group_IT_number 2
_symmetry_cell_setting 'triclinic'
loop_
_space_group_symop_operation_xyz
x,y,z
-x,-y,-z
loop_
_atom_site_type_symbol
_atom_site_label
_atom_site_fract_x
_atom_site_fract_y
_atom_site_fract_z
Si Si1 0.601680 0.802179 0.851043
Si Si2 0.000000 0.500000 0.500000
Si Si3 0.084080 0.198950 0.753416
Si Si4 0.411421 0.797165 0.246662
Si Si5 0.379591 0.862356 0.975220
Si Si6 0.431765 0.453692 0.771097
Si Si7 0.080362 0.551506 0.238899
O O1 0.353289 0.610745 0.501892
O O2 0.636272 0.962601 0.897743
O O3 0.843669 0.806334 0.052161
O O4 0.548489 0.867825 0.992228
O O5 0.204083 0.458637 0.574090
O O6 0.119566 0.682762 0.623818
O O7 0.900837 0.252509 0.614139
O O8 0.335939 0.379100 0.014361
O O9 0.000000 0.000000 0.500000
O O10 0.416994 0.804562 0.102053
O O11 0.578894 0.734583 0.383120
O O12 0.500000 0.000000 0.500000
O O13 0.136980 0.623017 0.961383
O O14 0.500000 0.500000 0.000000
O O15 0.000000 0.500000 0.000000
#
# Coordination Sequence:
#
# PCOD9056556 Si02
#       7
#     2   1   2   2   2   2   2
#     4  11  23  42  68 101 140 178 234 286 347 412
#     4  12  22  40  66 104 140 172 240 286 348 416
#     4  11  24  41  69 104 135 180 236 281 351 418
#     4  11  24  46  70 100 143 185 236 286 355 422
#     4  11  22  39  68 101 134 179 224 289 340 409
#     4  11  24  40  70 100 140 182 228 292 348 411
#     4  11  26  45  70  98 140 185 227 294 353 414
#
# _framework density 25.601002999999999
#
# number of rings (size 3 to 8) (size 9 to 14) (size 15 to 20)
#    0.000    0.923    3.077    3.692    4.308    1.846 
#    0.000    0.769    0.000    0.000    0.000    0.000 
#    0.000    0.000    0.000    0.000    0.000    0.000 
#
# Total GULP energy -72380.841698 kJ/mol
# GULP energy per Si atom -5567.757054 kJ/mol
# Density = 2.554273 g / cm^3
# Si number density = 25.601003 Si / 1000 Ang^3
#
#
#
# Elastic Constant Matrix: (Units=GPa)
#
#
# Indices 1 2 3 4 5 6 
#
# 1 28.1343 22.2866 14.6538 3.9071 -7.2717 -5.7641
# 2 22.2866 158.8054 51.7454 14.3376 -5.4002 -14.2796
# 3 14.6538 51.7454 112.0142 6.8128 -9.2497 -15.4812
# 4 3.9071 14.3376 6.8128 54.2251 -9.6554 -9.4889
# 5 -7.2717 -5.4002 -9.2497 -9.6554 40.1465 0.4616
# 6 -5.7641 -14.2796 -15.4812 -9.4889 0.4616 32.2297
#
#
#
# Elastic Compliance Matrix: (Units=1/GPa)
#
#
# Indices 1 2 3 4 5 6 
#
# 1 0.043065 -0.004692 -0.002312 0.000412 0.006683 0.004538
# 2 -0.004692 0.008111 -0.002987 -0.001413 -0.000797 0.000915
# 3 -0.002312 -0.002987 0.011256 0.000538 0.001859 0.003802
# 4 0.000412 -0.001413 0.000538 0.020586 0.004894 0.005697
# 5 0.006683 -0.000797 0.001859 0.004894 0.027585 0.002781
# 6 0.004538 0.000915 0.003802 0.005697 0.002781 0.035708
#
#
# Mechanical properties :
#
#
# Convention : Reuss Voigt Hill
#
# Bulk Modulus (GPa) = 23.55709 52.92505 38.24107
# Shear Modulus (GPa) = 27.70940 39.33812 33.52376
#
# Velocity S-wave (km/s) = 3.29349 3.92418 3.62259
# Velocity P-wave (km/s) = 4.86666 6.42263 5.69801
#
# Compressibility (1/GPa) = 0.04245007
#
# Stress axis : x y z
#
# Youngs Moduli (GPa) = 23.22076 123.28206 88.84323
#
# Poissons Ratio (x) = 0.57846 0.20542
# Poissons Ratio (y) = 0.10896 0.26535
# Poissons Ratio (z) = 0.05369 0.36820
#
# Static dielectric constant tensor:
#      x y z
#    x 2.000780 -0.124450 0.268050 
#    y -0.124450 2.443680 -0.314590 
#    z 0.268050 -0.314590 1.998790 
# 
# From -- ./inp_files/424353.got.cif
#   From: 2010.05.17/outbox.cif.g08.bks.cpg/sg2_213_cif.got.tgz:424353.got - 2010.06.03 11:33:40.
