data_PCOD9056607
_publ_section_title
;
Structure prediction by ZEFSAII (Michael W. Deem and Ramdas Pophale) SiO2 
 PCOD9056607
Probable space group: P -1
;
_chemical_formula_sum "Si O2"
_cell_formula_units_Z 16
_cell_length_a 12.896429
_cell_length_b 8.119272
_cell_length_c 9.355070
_cell_angle_alpha 98.071820
_cell_angle_beta 49.459590
_cell_angle_gamma 119.763429
_cell_volume 621.067240
_symmetry_space_group_name_H-M "P -1"
_symmetry_group_IT_number 2
_symmetry_cell_setting 'triclinic'
loop_
_space_group_symop_operation_xyz
x,y,z
-x,-y,-z
loop_
_atom_site_type_symbol
_atom_site_label
_atom_site_fract_x
_atom_site_fract_y
_atom_site_fract_z
Si Si1 0.114510 0.423063 0.414946
Si Si2 0.727031 0.398361 0.987713
Si Si3 0.693933 0.239415 0.491534
Si Si4 0.111731 0.932677 0.809102
Si Si5 0.139885 0.172830 0.555268
Si Si6 0.662632 0.502366 0.349199
Si Si7 0.659426 0.017097 0.132374
Si Si8 0.581604 0.727702 0.908259
O O1 0.252826 0.593888 0.414036
O O2 0.034768 0.219720 0.550031
O O3 0.000000 0.500000 0.500000
O O4 0.181661 0.443021 0.199510
O O5 0.722655 0.520977 0.138370
O O6 0.553765 0.256496 0.051697
O O7 0.765144 0.242255 0.003216
O O8 0.636174 0.304693 0.414278
O O9 0.527099 0.048494 0.674593
O O10 0.850179 0.236731 0.298252
O O11 0.091560 0.986805 0.670841
O O12 0.258841 0.016229 0.806001
O O13 0.000000 0.000000 0.000000
O O14 0.207075 0.329848 0.644040
O O15 0.282976 0.221420 0.324402
O O16 0.500000 0.500000 0.500000
O O17 0.646521 0.870555 0.002456
O O18 0.500000 0.500000 0.000000
#
# Coordination Sequence:
#
# PCOD9056607 Si02
#       8
#     2   2   2   2   2   2   2   2
#     4  11  27  46  71  99 143 189 239 296 363 428
#     4  12  24  42  70 106 143 182 237 294 373 420
#     4  11  24  48  71 108 142 189 243 299 360 433
#     4  12  29  48  69 105 148 195 242 293 369 436
#     4  11  25  43  69 102 141 187 242 293 356 432
#     4  11  22  39  73 107 140 184 235 300 353 423
#     4  12  26  45  74 108 145 188 239 305 361 427
#     4  12  23  43  71 112 142 178 243 298 361 428
#
# _framework density 25.762104999999998
#
# number of rings (size 3 to 8) (size 9 to 14) (size 15 to 20)
#    0.000    0.500    5.000    3.000    5.250    2.000 
#    0.000    3.750    0.000    0.000    0.000    0.000 
#    0.000    0.000    0.000    0.000    0.000    0.000 
#
# Total GULP energy -89215.071960 kJ/mol
# GULP energy per Si atom -5575.941998 kJ/mol
# Density = 2.570347 g / cm^3
# Si number density = 25.762105 Si / 1000 Ang^3
#
#
#
# Elastic Constant Matrix: (Units=GPa)
#
#
# Indices 1 2 3 4 5 6 
#
# 1 131.7160 31.2267 38.8143 -8.6332 29.2006 -28.1131
# 2 31.2267 105.3252 31.4336 4.4879 16.8120 -11.1176
# 3 38.8143 31.4336 144.5218 21.8096 42.7202 -5.4373
# 4 -8.6332 4.4879 21.8096 34.9774 3.9893 13.4364
# 5 29.2006 16.8120 42.7202 3.9893 51.8054 15.3361
# 6 -28.1131 -11.1176 -5.4373 13.4364 15.3361 58.8068
#
#
#
# Elastic Compliance Matrix: (Units=1/GPa)
#
#
# Indices 1 2 3 4 5 6 
#
# 1 0.011283 -0.001339 -0.000445 0.001514 -0.007675 0.006755
# 2 -0.001339 0.010910 -0.000855 -0.001837 -0.002667 0.002459
# 3 -0.000445 -0.000855 0.011555 -0.008040 -0.009895 0.005112
# 4 0.001514 -0.001837 -0.008040 0.037558 0.006642 -0.010681
# 5 -0.007675 -0.002667 -0.009895 0.006642 0.036951 -0.016242
# 6 0.006755 0.002459 0.005112 -0.010681 -0.016242 0.027848
#
#
# Mechanical properties :
#
#
# Convention : Reuss Voigt Hill
#
# Bulk Modulus (GPa) = 35.12362 64.94580 50.03471
# Shear Modulus (GPa) = 33.14038 47.79049 40.46543
#
# Velocity S-wave (km/s) = 3.59053 4.31172 3.96755
# Velocity P-wave (km/s) = 5.55452 7.07478 6.36023
#
# Compressibility (1/GPa) = 0.02847087
#
# Stress axis : x y z
#
# Youngs Moduli (GPa) = 88.62757 91.65784 86.54020
#
# Poissons Ratio (x) = 0.12272 0.03849
# Poissons Ratio (y) = 0.11866 0.07401
# Poissons Ratio (z) = 0.03942 0.07839
#
# Static dielectric constant tensor:
#      x y z
#    x 1.906740 -0.048270 -0.060290 
#    y -0.048270 2.055730 -0.008410 
#    z -0.060290 -0.008410 2.142410 
# 
# From -- ./inp_files/243885.got.cif
#   From: 2010.05.17/outbox.cif.g08.bks.cpg/sg2_122_cif.got.tgz:243885.got - 2010.06.03 11:33:40.
