data_PCOD9056372
_publ_section_title
;
Structure prediction by ZEFSAII (Michael W. Deem and Ramdas Pophale) SiO2 
 PCOD9056372
Probable space group: P -1
;
_chemical_formula_sum "Si O2"
_cell_formula_units_Z 16
_cell_length_a 20.679699
_cell_length_b 9.817145
_cell_length_c 14.896392
_cell_angle_alpha 52.806057
_cell_angle_beta 161.792789
_cell_angle_gamma 126.429001
_cell_volume 750.389149
_symmetry_space_group_name_H-M "P -1"
_symmetry_group_IT_number 2
_symmetry_cell_setting 'triclinic'
loop_
_space_group_symop_operation_xyz
x,y,z
-x,-y,-z
loop_
_atom_site_type_symbol
_atom_site_label
_atom_site_fract_x
_atom_site_fract_y
_atom_site_fract_z
Si Si1 0.093622 0.763791 0.273578
Si Si2 0.375931 0.076845 0.886231
Si Si3 0.835509 0.501245 0.161140
Si Si4 0.851212 0.842648 0.750307
Si Si5 0.994895 0.154995 0.244168
Si Si6 0.356894 0.767735 0.115944
Si Si7 0.112648 0.244728 0.724127
Si Si8 0.500855 0.304730 0.103223
O O1 0.334527 0.736277 0.588721
O O2 0.011926 0.613575 0.293337
O O3 0.088137 0.953669 0.233461
O O4 0.961350 0.752929 0.013224
O O5 0.189638 0.177145 0.560384
O O6 0.542546 0.199882 0.110806
O O7 0.500000 0.000000 0.000000
O O8 0.298324 0.921735 0.911396
O O9 0.766633 0.642740 0.083763
O O10 0.929320 0.354359 0.403500
O O11 0.683879 0.405807 0.926862
O O12 0.601737 0.806299 0.442514
O O13 0.934063 0.785579 0.785396
O O14 0.954674 0.948770 0.262812
O O15 0.795010 0.227567 0.999790
O O16 0.272430 0.237183 0.857049
O O17 0.500000 0.500000 0.000000
#
# Coordination Sequence:
#
# PCOD9056372 Si02
#       8
#     2   2   2   2   2   2   2   2
#     4  11  23  46  66  94 133 177 224 267 324 397
#     4  12  23  37  66 100 135 172 215 273 336 392
#     4  11  24  39  65  96 135 167 211 278 336 382
#     4  11  25  46  69  90 135 187 223 261 320 406
#     4  12  22  42  68 100 129 173 223 270 328 394
#     4  12  24  42  66 100 130 172 220 276 332 385
#     4  11  22  38  64 100 132 165 214 276 335 388
#     4  12  24  39  67 101 130 169 222 280 331 386
#
# _framework density 21.322268999999999
#
# number of rings (size 3 to 8) (size 9 to 14) (size 15 to 20)
#    0.000    0.500    7.500    1.125    1.750    0.500 
#    2.250    2.500    0.000    0.000    0.000    0.000 
#    0.000    0.000    0.000    0.000    0.000    0.000 
#
# Total GULP energy -89390.374078 kJ/mol
# GULP energy per Si atom -5586.898380 kJ/mol
# Density = 2.127374 g / cm^3
# Si number density = 21.322269 Si / 1000 Ang^3
#
#
#
# Elastic Constant Matrix: (Units=GPa)
#
#
# Indices 1 2 3 4 5 6 
#
# 1 102.8317 3.6151 49.3396 2.9800 4.4277 -19.0218
# 2 3.6151 71.7628 13.6609 17.0274 -9.8967 -13.3890
# 3 49.3396 13.6609 88.4611 18.4347 -11.6918 -18.8798
# 4 2.9800 17.0274 18.4347 24.9131 -2.2316 -2.6730
# 5 4.4277 -9.8967 -11.6918 -2.2316 24.6028 8.4872
# 6 -19.0218 -13.3890 -18.8798 -2.6730 8.4872 22.2852
#
#
#
# Elastic Compliance Matrix: (Units=1/GPa)
#
#
# Indices 1 2 3 4 5 6 
#
# 1 0.016576 0.000378 -0.009375 0.004930 -0.010664 0.011086
# 2 0.000378 0.019204 0.002460 -0.013480 0.003858 0.010858
# 3 -0.009375 0.002460 0.022017 -0.015287 0.009442 0.006699
# 4 0.004930 -0.013480 -0.015287 0.058751 -0.005603 -0.007661
# 5 -0.010664 0.003858 0.009442 -0.005603 0.055154 -0.020462
# 6 0.011086 0.010858 0.006699 -0.007661 -0.020462 0.073409
#
#
# Mechanical properties :
#
#
# Convention : Reuss Voigt Hill
#
# Bulk Modulus (GPa) = 22.35973 44.03187 33.19580
# Shear Modulus (GPa) = 18.30882 27.45623 22.88253
#
# Velocity S-wave (km/s) = 2.93349 3.59232 3.27949
# Velocity P-wave (km/s) = 4.68862 6.15644 5.47197
#
# Compressibility (1/GPa) = 0.04472327
#
# Stress axis : x y z
#
# Youngs Moduli (GPa) = 60.32679 52.07301 45.42022
#
# Poissons Ratio (x) = -0.01966 0.42580
# Poissons Ratio (y) = -0.02277 -0.11175
# Poissons Ratio (z) = 0.56554 -0.12812
#
# Static dielectric constant tensor:
#      x y z
#    x 1.830500 -0.037010 0.019440 
#    y -0.037010 1.814480 0.017470 
#    z 0.019440 0.017470 1.783750 
# 
# From -- ./inp_files/274351.got.cif
#   From: 2010.05.17/outbox.cif.g08.bks.cpg/sg2_138_cif.got.tgz:274351.got - 2010.06.03 11:33:40.
