data_PCOD9056960
_publ_section_title
;
Structure prediction by ZEFSAII (Michael W. Deem and Ramdas Pophale) SiO2 
 PCOD9056960
Probable space group: P -1
;
_chemical_formula_sum "Si O2"
_cell_formula_units_Z 16
_cell_length_a 18.237088
_cell_length_b 11.909416
_cell_length_c 9.012423
_cell_angle_alpha 105.697025
_cell_angle_beta 38.001100
_cell_angle_gamma 132.337740
_cell_volume 730.912660
_symmetry_space_group_name_H-M "P -1"
_symmetry_group_IT_number 2
_symmetry_cell_setting 'triclinic'
loop_
_space_group_symop_operation_xyz
x,y,z
-x,-y,-z
loop_
_atom_site_type_symbol
_atom_site_label
_atom_site_fract_x
_atom_site_fract_y
_atom_site_fract_z
Si Si1 0.878606 0.224568 0.700238
Si Si2 0.234592 0.248179 0.634428
Si Si3 0.828470 0.034385 0.227784
Si Si4 0.843368 0.935992 0.620431
Si Si5 0.389075 0.033016 0.716031
Si Si6 0.447547 0.620470 0.321790
Si Si7 0.882936 0.481351 0.309083
Si Si8 0.292141 0.847133 0.340493
O O1 0.846430 0.273424 0.621760
O O2 0.993303 0.376582 0.700269
O O3 0.927337 0.130644 0.537754
O O4 0.685012 0.045119 0.029092
O O5 0.258770 0.161301 0.681676
O O6 0.177510 0.142717 0.532391
O O7 0.408278 0.466570 0.404823
O O8 0.051541 0.185239 0.947648
O O9 0.781036 0.062388 0.158206
O O10 0.743652 0.055322 0.493179
O O11 0.635442 0.763882 0.969475
O O12 0.000000 0.000000 0.500000
O O13 0.518155 0.245162 0.574601
O O14 0.500000 0.000000 0.500000
O O15 0.251262 0.512643 0.520680
O O16 0.746468 0.279564 0.522062
O O17 0.000000 0.500000 0.000000
O O18 0.500000 0.000000 0.000000
#
# Coordination Sequence:
#
# PCOD9056960 Si02
#       8
#     2   2   2   2   2   2   2   2
#     4  11  23  41  64  98 132 175 232 278 352 413
#     4  11  23  42  67  96 139 183 235 283 347 423
#     4  11  24  43  68  97 139 187 226 288 359 415
#     4  11  22  42  67  96 135 182 231 288 350 413
#     4  11  22  41  66  96 133 181 229 285 351 418
#     4  11  23  40  68 101 132 178 239 284 348 422
#     4  12  25  43  72 102 141 182 230 293 352 425
#     4  12  24  44  70 103 140 181 233 297 354 417
#
# _framework density 21.890439000000001
#
# number of rings (size 3 to 8) (size 9 to 14) (size 15 to 20)
#    0.000    0.750    1.250    9.000    0.000    0.500 
#    0.000    1.250    0.000    0.000    0.000    0.000 
#    0.000    0.000    0.000    0.000    0.000    0.000 
#
# Total GULP energy -89308.943060 kJ/mol
# GULP energy per Si atom -5581.808941 kJ/mol
# Density = 2.184062 g / cm^3
# Si number density = 21.890439 Si / 1000 Ang^3
#
#
#
# Elastic Constant Matrix: (Units=GPa)
#
#
# Indices 1 2 3 4 5 6 
#
# 1 78.6575 -0.8562 14.7934 -1.6513 3.8666 -17.4345
# 2 -0.8562 93.1347 27.1396 -2.1999 -4.1059 -6.7195
# 3 14.7934 27.1396 104.2368 2.1007 4.2526 -15.7669
# 4 -1.6513 -2.1999 2.1007 34.7159 -4.2184 2.1528
# 5 3.8666 -4.1059 4.2526 -4.2184 26.4280 -6.1535
# 6 -17.4345 -6.7195 -15.7669 2.1528 -6.1535 34.5300
#
#
#
# Elastic Compliance Matrix: (Units=1/GPa)
#
#
# Indices 1 2 3 4 5 6 
#
# 1 0.014507 0.001010 -0.001283 0.000393 -0.000091 0.006894
# 2 0.001010 0.011940 -0.003114 0.001223 0.002832 0.001840
# 3 -0.001283 -0.003114 0.011233 -0.001344 -0.001457 0.003699
# 4 0.000393 0.001223 -0.001344 0.029639 0.004808 -0.001169
# 5 -0.000091 0.002832 -0.001457 0.004808 0.040883 0.006826
# 6 0.006894 0.001840 0.003699 -0.001169 0.006826 0.035778
#
#
# Mechanical properties :
#
#
# Convention : Reuss Voigt Hill
#
# Bulk Modulus (GPa) = 32.35721 39.79807 36.07764
# Shear Modulus (GPa) = 31.04510 34.79826 32.92168
#
# Velocity S-wave (km/s) = 3.76999 3.99137 3.88226
# Velocity P-wave (km/s) = 5.81068 6.28184 6.05084
#
# Compressibility (1/GPa) = 0.03090502
#
# Stress axis : x y z
#
# Youngs Moduli (GPa) = 68.93445 83.74953 89.02728
#
# Poissons Ratio (x) = -0.08458 0.11423
# Poissons Ratio (y) = -0.06962 0.27724
# Poissons Ratio (z) = 0.08845 0.26080
#
# Static dielectric constant tensor:
#      x y z
#    x 1.912200 -0.096100 -0.051250 
#    y -0.096100 2.050940 0.045520 
#    z -0.051250 0.045520 1.834580 
# 
# From -- ./inp_files/333336.got.cif
#   From: 2010.05.17/outbox.cif.g08.bks.cpg/sg2_167_cif.got.tgz:333336.got - 2010.06.03 11:33:40.
