data_PCOD9056073
_publ_section_title
;
Structure prediction by ZEFSAII (Michael W. Deem and Ramdas Pophale) SiO2 
 PCOD9056073
Probable space group: P -1
;
_chemical_formula_sum "Si O2"
_cell_formula_units_Z 14
_cell_length_a 7.512859
_cell_length_b 9.501304
_cell_length_c 16.091822
_cell_angle_alpha 122.017584
_cell_angle_beta 36.234339
_cell_angle_gamma 110.322511
_cell_volume 568.238417
_symmetry_space_group_name_H-M "P -1"
_symmetry_group_IT_number 2
_symmetry_cell_setting 'triclinic'
loop_
_space_group_symop_operation_xyz
x,y,z
-x,-y,-z
loop_
_atom_site_type_symbol
_atom_site_label
_atom_site_fract_x
_atom_site_fract_y
_atom_site_fract_z
Si Si1 0.287632 0.594757 0.924997
Si Si2 0.149628 0.008330 0.310902
Si Si3 0.226451 0.652113 0.149761
Si Si4 0.784144 0.076313 0.031248
Si Si5 0.317758 0.712172 0.381052
Si Si6 0.558915 0.630040 0.446507
Si Si7 0.732517 0.999832 0.311895
O O1 0.257536 0.723592 0.901020
O O2 0.588505 0.454386 0.761551
O O3 0.249526 0.697548 0.057378
O O4 0.000000 0.500000 0.000000
O O5 0.245950 0.818807 0.248350
O O6 0.446844 0.039507 0.159985
O O7 0.011259 0.170873 0.467649
O O8 0.861299 0.995795 0.355624
O O9 0.908690 0.594969 0.273990
O O10 0.500000 0.500000 0.000000
O O11 0.000000 0.000000 0.000000
O O12 0.974736 0.001035 0.856618
O O13 0.362514 0.641045 0.437535
O O14 0.563312 0.839414 0.312326
O O15 0.500000 0.500000 0.500000
O O16 0.481444 0.822786 0.568138
#
# Coordination Sequence:
#
# PCOD9056073 Si02
#       7
#     2   2   2   2   2   2   2
#     4  12  24  46  72  99 143 184 230 282 351 412
#     4  11  23  46  70  98 137 181 238 275 341 415
#     4  12  26  43  72 104 138 184 232 282 345 416
#     4  12  28  42  70 104 141 183 230 289 348 407
#     4  11  22  46  76  96 140 192 221 282 356 409
#     4  11  23  39  68 108 137 174 235 286 334 408
#     4  11  21  45  74  95 138 191 228 275 348 413
#
# _framework density 24.637547000000001
#
# number of rings (size 3 to 8) (size 9 to 14) (size 15 to 20)
#    0.000    0.571    7.143    1.286    6.000    1.714 
#    2.571    1.429    0.000    0.000    0.000    0.000 
#    0.000    0.000    0.000    0.000    0.000    0.000 
#
# Total GULP energy -78307.761845 kJ/mol
# GULP energy per Si atom -5593.411560 kJ/mol
# Density = 2.458147 g / cm^3
# Si number density = 24.637547 Si / 1000 Ang^3
#
#
#
# Elastic Constant Matrix: (Units=GPa)
#
#
# Indices 1 2 3 4 5 6 
#
# 1 65.1119 36.9334 24.5133 3.1632 -4.7953 -15.0589
# 2 36.9334 163.3532 65.1421 10.1915 -8.2877 -31.4632
# 3 24.5133 65.1421 214.2614 23.5680 -11.9620 -11.6934
# 4 3.1632 10.1915 23.5680 53.8663 -5.5116 -8.9457
# 5 -4.7953 -8.2877 -11.9620 -5.5116 37.0580 3.5175
# 6 -15.0589 -31.4632 -11.6934 -8.9457 3.5175 27.9942
#
#
#
# Elastic Compliance Matrix: (Units=1/GPa)
#
#
# Indices 1 2 3 4 5 6 
#
# 1 0.018838 -0.002472 -0.001081 0.001124 0.001026 0.007134
# 2 -0.002472 0.009059 -0.002086 0.000738 0.000367 0.008170
# 3 -0.001081 -0.002086 0.005642 -0.002134 0.001028 -0.001381
# 4 0.001124 0.000738 -0.002134 0.020644 0.002039 0.006884
# 5 0.001026 0.000367 0.001028 0.002039 0.027974 -0.001470
# 6 0.007134 0.008170 -0.001381 0.006884 -0.001470 0.050549
#
#
# Mechanical properties :
#
#
# Convention : Reuss Voigt Hill
#
# Bulk Modulus (GPa) = 44.92231 77.32268 61.12249
# Shear Modulus (GPa) = 33.02403 44.85954 38.94179
#
# Velocity S-wave (km/s) = 3.66511 4.27169 3.97997
# Velocity P-wave (km/s) = 6.01528 7.46873 6.78106
#
# Compressibility (1/GPa) = 0.02226065
#
# Stress axis : x y z
#
# Youngs Moduli (GPa) = 53.08358 110.39090 177.24459
#
# Poissons Ratio (x) = 0.27293 0.19153
# Poissons Ratio (y) = 0.13124 0.36976
# Poissons Ratio (z) = 0.05736 0.23029
#
# Static dielectric constant tensor:
#      x y z
#    x 2.036140 -0.056110 0.028050 
#    y -0.056110 1.953530 0.049670 
#    z 0.028050 0.049670 1.983150 
# 
# From -- ./inp_files/183999.got.cif
#   From: 2010.05.17/outbox.cif.g08.bks.cpg/sg2_92_cif.got.tgz:183999.got - 2010.06.03 11:33:40.
