data_PCOD9056529
_publ_section_title
;
Structure prediction by ZEFSAII (Michael W. Deem and Ramdas Pophale) SiO2 
 PCOD9056529
Probable space group: P -1
;
_chemical_formula_sum "Si O2"
_cell_formula_units_Z 14
_cell_length_a 19.108157
_cell_length_b 7.908236
_cell_length_c 17.750657
_cell_angle_alpha 138.317317
_cell_angle_beta 158.343271
_cell_angle_gamma 41.177598
_cell_volume 639.279859
_symmetry_space_group_name_H-M "P -1"
_symmetry_group_IT_number 2
_symmetry_cell_setting 'triclinic'
loop_
_space_group_symop_operation_xyz
x,y,z
-x,-y,-z
loop_
_atom_site_type_symbol
_atom_site_label
_atom_site_fract_x
_atom_site_fract_y
_atom_site_fract_z
Si Si1 0.388481 0.269049 0.597078
Si Si2 0.424438 0.678247 0.649692
Si Si3 0.689989 0.510912 0.244981
Si Si4 0.788699 0.765204 0.990551
Si Si5 0.046428 0.095092 0.414418
Si Si6 0.654615 0.688990 0.670011
Si Si7 0.946328 0.729821 0.841604
O O1 0.479995 0.433930 0.681604
O O2 0.389666 0.397557 0.721997
O O3 0.168687 0.280087 0.353779
O O4 0.496121 0.964043 0.605537
O O5 0.576203 0.858670 0.847880
O O6 0.414483 0.557864 0.515452
O O7 0.215438 0.844707 0.525100
O O8 0.820498 0.710184 0.413258
O O9 0.864659 0.243211 0.333353
O O10 0.500000 0.500000 0.000000
O O11 0.767159 0.655539 0.849839
O O12 0.884645 0.526024 0.061423
O O13 0.922868 0.971661 0.188431
O O14 0.797857 0.719317 0.756585
O O15 0.000000 0.000000 0.000000
#
# Coordination Sequence:
#
# PCOD9056529 Si02
#       7
#     2   2   2   2   2   2   2
#     4  11  23  44  67  98 140 177 221 281 336 396
#     4  11  23  42  65 103 139 174 223 277 335 403
#     4  11  26  49  70  95 130 180 234 284 337 395
#     4  12  23  42  68 101 137 180 225 272 332 406
#     4  11  24  45  69  97 132 169 237 280 332 400
#     4  11  22  39  66  99 143 180 222 266 332 408
#     4  11  23  39  64 104 144 175 217 270 338 403
#
# _framework density 21.899640999999999
#
# number of rings (size 3 to 8) (size 9 to 14) (size 15 to 20)
#    0.000    0.857    2.857    6.857    2.000    0.571 
#    5.143    1.429    0.000    0.000    0.000    0.000 
#    0.000    0.000    0.000    0.000    0.000    0.000 
#
# Total GULP energy -78075.993210 kJ/mol
# GULP energy per Si atom -5576.856658 kJ/mol
# Density = 2.184980 g / cm^3
# Si number density = 21.899641 Si / 1000 Ang^3
#
#
#
# Elastic Constant Matrix: (Units=GPa)
#
#
# Indices 1 2 3 4 5 6 
#
# 1 -61.3908 -99.7725 19.7179 9.9821 136.2949 -30.1555
# 2 -99.7725 -16.1004 7.7764 -3.5559 139.7842 -39.1152
# 3 19.7179 7.7764 131.8821 12.9637 44.3971 2.1445
# 4 9.9821 -3.5559 12.9637 40.9559 -7.4575 13.8127
# 5 136.2949 139.7842 44.3971 -7.4575 -134.6529 20.4521
# 6 -30.1555 -39.1152 2.1445 13.8127 20.4521 27.7232
#
#
#
# Elastic Compliance Matrix: (Units=1/GPa)
#
#
# Indices 1 2 3 4 5 6 
#
# 1 0.024420 -0.002410 -0.010320 -0.002578 0.020495 0.010126
# 2 -0.002410 0.010971 -0.003478 0.002277 0.008542 0.005692
# 3 -0.010320 -0.003478 0.013255 -0.001086 -0.010926 -0.008557
# 4 -0.002578 0.002277 -0.001086 0.028564 -0.003842 -0.010905
# 5 0.020495 0.008542 -0.010926 -0.003842 0.021970 0.020896
# 6 0.010126 0.005692 -0.008557 -0.010905 0.020896 0.045795
#
#
# Mechanical properties :
#
#
# Convention : Reuss Voigt Hill
#
# Bulk Modulus (GPa) = 61.61338 -10.01839 25.79749
# Shear Modulus (GPa) = 27.35216 -4.75016 11.30100
#
# Velocity S-wave (km/s) = 3.53792 -1.47437 2.27411
# Velocity P-wave (km/s) = 6.69960 2.73550 4.32445
#
# Compressibility (1/GPa) = 0.01623024
#
# Stress axis : x y z
#
# Youngs Moduli (GPa) = 40.94979 91.14746 75.44604
#
# Poissons Ratio (x) = 0.21964 0.77857
# Poissons Ratio (y) = 0.09868 0.26244
# Poissons Ratio (z) = 0.42259 0.31705
#
# Static dielectric constant tensor:
#      x y z
#    x 1.763580 0.070720 0.051070 
#    y 0.070720 2.457880 0.060450 
#    z 0.051070 0.060450 1.919940 
# 
# From -- ./inp_files/241367.got.cif
#   From: 2010.05.17/outbox.cif.g08.bks.cpg/sg2_121_cif.got.tgz:241367.got - 2010.06.03 11:33:40.
