data_PCOD9056479
_publ_section_title
;
Structure prediction by ZEFSAII (Michael W. Deem and Ramdas Pophale) SiO2 
 PCOD9056479
Probable space group: P -1
;
_chemical_formula_sum "Si O2"
_cell_formula_units_Z 14
_cell_length_a 7.818215
_cell_length_b 12.584261
_cell_length_c 6.956038
_cell_angle_alpha 93.997738
_cell_angle_beta 78.684149
_cell_angle_gamma 75.339072
_cell_volume 644.064757
_symmetry_space_group_name_H-M "P -1"
_symmetry_group_IT_number 2
_symmetry_cell_setting 'triclinic'
loop_
_space_group_symop_operation_xyz
x,y,z
-x,-y,-z
loop_
_atom_site_type_symbol
_atom_site_label
_atom_site_fract_x
_atom_site_fract_y
_atom_site_fract_z
Si Si1 0.091799 0.120303 0.198512
Si Si2 0.465042 0.452979 0.204879
Si Si3 0.875931 0.588758 0.190082
Si Si4 0.758856 0.407331 0.411893
Si Si5 0.647658 0.729993 0.949268
Si Si6 0.772350 0.132836 0.968997
Si Si7 0.020687 0.774340 0.395869
O O1 0.097105 0.125266 0.433446
O O2 0.198996 0.997040 0.091772
O O3 0.204809 0.203751 0.108921
O O4 0.898306 0.140106 0.128952
O O5 0.656071 0.387067 0.242219
O O6 0.381770 0.551660 0.379519
O O7 0.500000 0.500000 0.000000
O O8 0.336983 0.372013 0.212720
O O9 0.838783 0.508037 0.351065
O O10 0.697289 0.662271 0.129465
O O11 0.954093 0.683546 0.276323
O O12 0.000000 0.500000 0.000000
O O13 0.890425 0.298713 0.450174
O O14 0.442331 0.804863 0.977352
O O15 0.857837 0.180818 0.773677
#
# Coordination Sequence:
#
# PCOD9056479 Si02
#       7
#     2   2   2   2   2   2   2
#     4  11  25  50  70 101 137 179 237 295 355 400
#     4  11  22  39  63  98 138 175 226 280 331 416
#     4  12  25  42  68 101 146 188 223 279 346 420
#     4  11  24  38  64  99 136 182 225 269 345 417
#     4  12  23  44  73  97 141 183 227 283 353 404
#     4  11  26  46  75 101 133 181 237 298 345 409
#     4  12  24  44  70  99 140 184 229 283 353 407
#
# _framework density 21.736944000000001
#
# number of rings (size 3 to 8) (size 9 to 14) (size 15 to 20)
#    0.000    0.571    2.857    5.571    4.000    0.000 
#    2.571    0.714    0.000    0.000    0.000    0.000 
#    0.000    0.000    0.000    0.000    0.000    0.000 
#
# Total GULP energy -78107.136780 kJ/mol
# GULP energy per Si atom -5579.081199 kJ/mol
# Density = 2.168747 g / cm^3
# Si number density = 21.736944 Si / 1000 Ang^3
#
#
#
# Elastic Constant Matrix: (Units=GPa)
#
#
# Indices 1 2 3 4 5 6 
#
# 1 73.8481 30.7970 26.1005 8.4711 18.3675 3.6620
# 2 30.7970 78.6791 19.8406 9.4111 16.4671 15.7087
# 3 26.1005 19.8406 111.5361 11.2105 5.4253 3.7544
# 4 8.4711 9.4111 11.2105 40.2350 6.4679 3.3957
# 5 18.3675 16.4671 5.4253 6.4679 34.1035 -2.2099
# 6 3.6620 15.7087 3.7544 3.3957 -2.2099 51.1638
#
#
#
# Elastic Compliance Matrix: (Units=1/GPa)
#
#
# Indices 1 2 3 4 5 6 
#
# 1 0.018485 -0.004965 -0.003033 -0.000789 -0.006915 0.000177
# 2 -0.004965 0.017312 -0.001347 -0.001314 -0.005547 -0.005013
# 3 -0.003033 -0.001347 0.010064 -0.002029 0.001072 0.000073
# 4 -0.000789 -0.001314 -0.002029 0.026607 -0.003749 -0.001319
# 5 -0.006915 -0.005547 0.001072 -0.003749 0.036521 0.003946
# 6 0.000177 -0.005013 0.000073 -0.001319 0.003946 0.021324
#
#
# Mechanical properties :
#
#
# Convention : Reuss Voigt Hill
#
# Bulk Modulus (GPa) = 36.80229 46.39328 41.59779
# Shear Modulus (GPa) = 31.63349 37.58881 34.61115
#
# Velocity S-wave (km/s) = 3.81896 4.16295 3.99466
# Velocity P-wave (km/s) = 6.03436 6.67055 6.36041
#
# Compressibility (1/GPa) = 0.02717222
#
# Stress axis : x y z
#
# Youngs Moduli (GPa) = 54.09727 57.76399 99.36023
#
# Poissons Ratio (x) = 0.28677 0.30135
# Poissons Ratio (y) = 0.26857 0.13385
# Poissons Ratio (z) = 0.16407 0.07782
#
# Static dielectric constant tensor:
#      x y z
#    x 1.915110 -0.102740 0.015670 
#    y -0.102740 1.953890 0.085010 
#    z 0.015670 0.085010 1.841270 
# 
# From -- ./inp_files/27492.got.cif
#   From: 2010.05.17/outbox.cif.g08.bks.cpg/sg2_14_cif.got.tgz:27492.got - 2010.06.03 11:33:40.
