data_PCOD9056182
_publ_section_title
;
Structure prediction by ZEFSAII (Michael W. Deem and Ramdas Pophale) SiO2 
 PCOD9056182
Probable space group: P -1
;
_chemical_formula_sum "Si O2"
_cell_formula_units_Z 16
_cell_length_a 19.034805
_cell_length_b 12.711723
_cell_length_c 11.744656
_cell_angle_alpha 118.597306
_cell_angle_beta 144.555084
_cell_angle_gamma 35.498627
_cell_volume 800.377159
_symmetry_space_group_name_H-M "P -1"
_symmetry_group_IT_number 2
_symmetry_cell_setting 'triclinic'
loop_
_space_group_symop_operation_xyz
x,y,z
-x,-y,-z
loop_
_atom_site_type_symbol
_atom_site_label
_atom_site_fract_x
_atom_site_fract_y
_atom_site_fract_z
Si Si1 0.677698 0.859988 0.037176
Si Si2 0.202612 0.991168 0.078417
Si Si3 0.559798 0.679399 0.793968
Si Si4 0.166039 0.864337 0.369400
Si Si5 0.604491 0.571343 0.536125
Si Si6 0.194774 0.246073 0.604075
Si Si7 0.949507 0.671152 0.075141
Si Si8 0.004932 0.196203 0.167365
O O1 0.640770 0.748041 0.952064
O O2 0.431381 0.106255 0.808996
O O3 0.760237 0.843111 0.256732
O O4 0.855454 0.731600 0.108063
O O5 0.061538 0.146403 0.083512
O O6 0.412346 0.754976 0.287680
O O7 0.227952 0.095947 0.100659
O O8 0.056260 0.019483 0.824473
O O9 0.327978 0.830010 0.619242
O O10 0.546726 0.676419 0.636943
O O11 0.749577 0.436431 0.964340
O O12 0.335347 0.615018 0.452222
O O13 0.074572 0.012253 0.216758
O O14 0.821789 0.448861 0.703782
O O15 0.127711 0.201435 0.400361
O O16 0.000000 0.500000 0.500000
O O17 0.000000 0.500000 0.000000
#
# Coordination Sequence:
#
# PCOD9056182 Si02
#       8
#     2   2   2   2   2   2   2   2
#     4  11  23  43  60  91 125 161 204 251 301 362
#     4  11  23  37  58  92 128 161 204 241 313 373
#     4  12  20  35  58  89 130 153 196 249 309 365
#     4  11  22  34  58  88 130 161 195 255 308 365
#     4  11  22  36  56  90 125 166 193 244 306 373
#     4  11  24  40  64  87 121 163 210 254 299 353
#     4  11  23  40  60  89 129 167 197 246 308 375
#     4  12  21  35  58  92 121 159 201 251 305 360
#
# _framework density 19.990573999999999
#
# number of rings (size 3 to 8) (size 9 to 14) (size 15 to 20)
#    0.000    0.750    7.500    1.500    0.000    1.500 
#    0.000    0.000    0.000    3.000    0.000    8.750 
#    0.000    0.000    0.000    0.000    0.000    0.000 
#
# Total GULP energy -89136.251868 kJ/mol
# GULP energy per Si atom -5571.015742 kJ/mol
# Density = 1.994507 g / cm^3
# Si number density = 19.990574 Si / 1000 Ang^3
#
#
#
# Elastic Constant Matrix: (Units=GPa)
#
#
# Indices 1 2 3 4 5 6 
#
# 1 73.9321 33.1296 20.6180 3.7823 7.7505 3.5989
# 2 33.1296 95.8608 33.7962 -10.1471 4.7317 15.5952
# 3 20.6180 33.7962 119.9686 -15.9656 5.1593 8.0736
# 4 3.7823 -10.1471 -15.9656 38.2645 3.8981 -1.5732
# 5 7.7505 4.7317 5.1593 3.8981 21.2908 -6.4088
# 6 3.5989 15.5952 8.0736 -1.5732 -6.4088 30.9009
#
#
#
# Elastic Compliance Matrix: (Units=1/GPa)
#
#
# Indices 1 2 3 4 5 6 
#
# 1 0.017032 -0.005509 -0.001685 -0.003444 -0.003858 0.000261
# 2 -0.005509 0.014741 -0.002116 0.003645 -0.003466 -0.006779
# 3 -0.001685 -0.002116 0.009970 0.003958 -0.002560 -0.001670
# 4 -0.003444 0.003645 0.003958 0.029674 -0.006653 -0.002342
# 5 -0.003858 -0.003466 -0.002560 -0.006653 0.055189 0.013975
# 6 0.000261 -0.006779 -0.001670 -0.002342 0.013975 0.038968
#
#
# Mechanical properties :
#
#
# Convention : Reuss Voigt Hill
#
# Bulk Modulus (GPa) = 43.24420 51.64990 47.44705
# Shear Modulus (GPa) = 26.05501 31.57241 28.81371
#
# Velocity S-wave (km/s) = 3.61413 3.97843 3.80065
# Velocity P-wave (km/s) = 6.25261 6.85545 6.56096
#
# Compressibility (1/GPa) = 0.02312449
#
# Stress axis : x y z
#
# Youngs Moduli (GPa) = 58.71156 67.83695 100.29752
#
# Poissons Ratio (x) = 0.37370 0.16903
# Poissons Ratio (y) = 0.32343 0.21219
# Poissons Ratio (z) = 0.09895 0.14352
#
# Static dielectric constant tensor:
#      x y z
#    x 1.684170 0.036410 0.028370 
#    y 0.036410 1.752930 -0.025400 
#    z 0.028370 -0.025400 1.778960 
# 
# From -- ./inp_files/437237.got.cif
#   From: 2010.05.17/outbox.cif.g08.bks.cpg/sg2_219_cif.got.tgz:437237.got - 2010.06.03 11:33:40.
