data_PCOD9056934
_publ_section_title
;
Structure prediction by ZEFSAII (Michael W. Deem and Ramdas Pophale) SiO2 
 PCOD9056934
Probable space group: P -1
;
_chemical_formula_sum "Si O2"
_cell_formula_units_Z 16
_cell_length_a 9.887232
_cell_length_b 13.817542
_cell_length_c 13.346839
_cell_angle_alpha 55.373251
_cell_angle_beta 84.956157
_cell_angle_gamma 38.161063
_cell_volume 656.722597
_symmetry_space_group_name_H-M "P -1"
_symmetry_group_IT_number 2
_symmetry_cell_setting 'triclinic'
loop_
_space_group_symop_operation_xyz
x,y,z
-x,-y,-z
loop_
_atom_site_type_symbol
_atom_site_label
_atom_site_fract_x
_atom_site_fract_y
_atom_site_fract_z
Si Si1 0.242503 0.503362 0.057272
Si Si2 0.234226 0.700185 0.101294
Si Si3 0.933251 0.898588 0.674396
Si Si4 0.790754 0.712875 0.095999
Si Si5 0.320262 0.897728 0.978123
Si Si6 0.761752 0.293596 0.449795
Si Si7 0.641916 0.809974 0.512139
Si Si8 0.829678 0.880240 0.336165
O O1 0.352876 0.506154 0.136021
O O2 0.526449 0.195188 0.198871
O O3 0.944394 0.661005 0.022757
O O4 0.135292 0.668895 0.875562
O O5 0.408952 0.563520 0.277211
O O6 0.284710 0.792276 0.003602
O O7 0.873757 0.955304 0.993310
O O8 0.075675 0.799109 0.612081
O O9 0.870118 0.081448 0.603583
O O10 0.615362 0.076983 0.577184
O O11 0.072103 0.481706 0.289268
O O12 0.662758 0.682414 0.094785
O O13 0.500000 0.000000 0.000000
O O14 0.155936 0.114844 0.785623
O O15 0.873103 0.300344 0.519737
O O16 0.500000 0.000000 0.500000
O O17 0.758874 0.805912 0.421403
#
# Coordination Sequence:
#
# PCOD9056934 Si02
#       8
#     2   2   2   2   2   2   2   2
#     4  12  24  44  72 102 135 179 233 277 342 413
#     4  11  24  45  67  96 144 180 226 277 342 411
#     4  11  24  39  66 103 133 175 225 285 334 398
#     4  12  25  48  73  96 139 186 225 281 353 408
#     4  11  26  43  68 101 134 184 227 281 338 409
#     4  11  22  41  65  95 138 179 216 281 341 398
#     4  12  24  44  70 103 137 176 228 290 344 399
#     4  12  25  43  71 104 136 176 231 287 336 406
#
# _framework density 24.363406000000001
#
# number of rings (size 3 to 8) (size 9 to 14) (size 15 to 20)
#    0.000    0.500    3.750    5.250    1.750    3.000 
#    2.250    1.250    0.000    0.000    0.000    0.000 
#    0.000    0.000    0.000    0.000    0.000    0.000 
#
# Total GULP energy -89672.530645 kJ/mol
# GULP energy per Si atom -5604.533165 kJ/mol
# Density = 2.430795 g / cm^3
# Si number density = 24.363406 Si / 1000 Ang^3
#
#
#
# Elastic Constant Matrix: (Units=GPa)
#
#
# Indices 1 2 3 4 5 6 
#
# 1 125.0069 28.9629 13.1104 8.3865 3.1629 -23.4668
# 2 28.9629 51.7082 19.0763 -1.9110 -7.4624 -10.1145
# 3 13.1104 19.0763 114.9304 2.7747 -4.5105 -12.6952
# 4 8.3865 -1.9110 2.7747 27.8131 -8.6632 -9.2753
# 5 3.1629 -7.4624 -4.5105 -8.6632 51.6391 3.1821
# 6 -23.4668 -10.1145 -12.6952 -9.2753 3.1821 28.5997
#
#
#
# Elastic Compliance Matrix: (Units=1/GPa)
#
#
# Indices 1 2 3 4 5 6 
#
# 1 0.010583 -0.005144 0.000341 -0.002038 -0.002110 0.006589
# 2 -0.005144 0.025214 -0.003029 0.006659 0.004503 0.005010
# 3 0.000341 -0.003029 0.009549 -0.000081 0.000152 0.003404
# 4 -0.002038 0.006659 -0.000081 0.044109 0.007611 0.014105
# 5 -0.002110 0.004503 0.000152 0.007611 0.021434 0.000012
# 6 0.006589 0.005010 0.003404 0.014105 0.000012 0.048228
#
#
# Mechanical properties :
#
#
# Convention : Reuss Voigt Hill
#
# Bulk Modulus (GPa) = 33.69166 45.99387 39.84276
# Shear Modulus (GPa) = 27.07457 36.97678 32.02567
#
# Velocity S-wave (km/s) = 3.33720 3.90002 3.62954
# Velocity P-wave (km/s) = 5.35799 6.26094 5.82698
#
# Compressibility (1/GPa) = 0.02968094
#
# Stress axis : x y z
#
# Youngs Moduli (GPa) = 94.49330 39.66036 104.72643
#
# Poissons Ratio (x) = 0.20403 -0.03570
# Poissons Ratio (y) = 0.48610 0.31720
# Poissons Ratio (z) = -0.03221 0.12013
#
# Static dielectric constant tensor:
#      x y z
#    x 1.948280 0.015190 0.004380 
#    y 0.015190 1.974200 -0.027190 
#    z 0.004380 -0.027190 1.912700 
# 
# From -- ./inp_files/505361.got.cif
#   From: 2010.05.17/outbox.cif.g08.bks.cpg/sg2_253_cif.got.tgz:505361.got - 2010.06.03 11:33:40.
