data_PCOD9056406
_publ_section_title
;
Structure prediction by ZEFSAII (Michael W. Deem and Ramdas Pophale) SiO2 
 PCOD9056406
Probable space group: P -1
;
_chemical_formula_sum "Si O2"
_cell_formula_units_Z 12
_cell_length_a 27.814909
_cell_length_b 14.931241
_cell_length_c 6.605635
_cell_angle_alpha 59.074144
_cell_angle_beta 132.702344
_cell_angle_gamma 159.629618
_cell_volume 617.044332
_symmetry_space_group_name_H-M "P -1"
_symmetry_group_IT_number 2
_symmetry_cell_setting 'triclinic'
loop_
_space_group_symop_operation_xyz
x,y,z
-x,-y,-z
loop_
_atom_site_type_symbol
_atom_site_label
_atom_site_fract_x
_atom_site_fract_y
_atom_site_fract_z
Si Si1 0.869681 0.867185 0.937760
Si Si2 0.973057 0.192522 0.180458
Si Si3 0.619602 0.148300 0.861707
Si Si4 0.980596 0.348953 0.666664
Si Si5 0.716110 0.808966 0.280630
Si Si6 0.319871 0.613372 0.883078
O O1 0.744785 0.750972 0.571279
O O2 0.766734 0.628390 0.055509
O O3 0.963430 0.087764 0.103801
O O4 0.000000 0.000000 0.000000
O O5 0.169748 0.468636 0.526708
O O6 0.820127 0.950770 0.198192
O O7 0.945427 0.259557 0.902037
O O8 0.500000 0.000000 0.500000
O O9 0.501613 0.887527 0.950527
O O10 0.633961 0.271323 0.900458
O O11 0.822614 0.410582 0.095889
O O12 0.000000 0.500000 0.500000
O O13 0.824094 0.063075 0.411171
O O14 0.500000 0.500000 0.000000
#
# Coordination Sequence:
#
# PCOD9056406 Si02
#       6
#     2   2   2   2   2   2
#     4  11  23  39  69  99 127 169 219 270 329 388
#     4  11  22  43  68  91 135 169 216 275 327 385
#     4  11  23  40  65  95 131 167 218 270 321 391
#     4  11  25  44  64  95 132 175 219 272 327 388
#     4  11  26  45  64  95 134 175 223 269 325 394
#     4  11  22  38  66  99 126 167 216 267 332 383
#
# _framework density 19.447551000000001
#
# number of rings (size 3 to 8) (size 9 to 14) (size 15 to 20)
#    0.000    1.000    5.000    1.500    0.000    7.333 
#    0.000    0.000    0.000    0.000    0.000    0.000 
#    0.000    0.000    0.000    0.000    0.000    0.000 
#
# Total GULP energy -67022.442185 kJ/mol
# GULP energy per Si atom -5585.203515 kJ/mol
# Density = 1.940329 g / cm^3
# Si number density = 19.447551 Si / 1000 Ang^3
#
#
#
# Elastic Constant Matrix: (Units=GPa)
#
#
# Indices 1 2 3 4 5 6 
#
# 1 47.2541 21.6326 46.2171 3.2748 -12.0525 -3.6744
# 2 21.6326 82.8844 34.1669 11.5966 9.5883 -6.3622
# 3 46.2171 34.1669 134.1738 16.3346 -12.0600 -11.3771
# 4 3.2748 11.5966 16.3346 42.9554 -0.1954 12.7868
# 5 -12.0525 9.5883 -12.0600 -0.1954 26.0035 -5.5253
# 6 -3.6744 -6.3622 -11.3771 12.7868 -5.5253 39.7492
#
#
#
# Elastic Compliance Matrix: (Units=1/GPa)
#
#
# Indices 1 2 3 4 5 6 
#
# 1 0.038910 -0.008265 -0.010108 0.002967 0.016571 0.000730
# 2 -0.008265 0.016811 -0.001874 -0.003556 -0.010703 0.001046
# 3 -0.010108 -0.001874 0.012603 -0.004780 0.002727 0.004290
# 4 0.002967 -0.003556 -0.004780 0.029184 -0.001710 -0.011289
# 5 0.016571 -0.010703 0.002727 -0.001710 0.053149 0.008537
# 6 0.000730 0.001046 0.004290 -0.011289 0.008537 0.031439
#
#
# Mechanical properties :
#
#
# Convention : Reuss Voigt Hill
#
# Bulk Modulus (GPa) = 35.93338 52.03838 43.98588
# Shear Modulus (GPa) = 21.56420 32.56133 27.06277
#
# Velocity S-wave (km/s) = 3.33354 4.09628 3.73443
# Velocity P-wave (km/s) = 5.77354 7.01349 6.42351
#
# Compressibility (1/GPa) = 0.02782928
#
# Stress axis : x y z
#
# Youngs Moduli (GPa) = 25.70062 59.48618 79.34711
#
# Poissons Ratio (x) = 0.49163 0.80203
# Poissons Ratio (y) = 0.21241 0.14873
# Poissons Ratio (z) = 0.25978 0.11150
#
# Static dielectric constant tensor:
#      x y z
#    x 1.677450 -0.000270 -0.013810 
#    y -0.000270 1.722160 -0.009220 
#    z -0.013810 -0.009220 1.717080 
# 
# From -- ./inp_files/17459.got.cif
#   From: 2010.05.17/outbox.cif.g08.bks.cpg/sg2_9_cif.got.tgz:17459.got - 2010.06.03 11:33:40.
