data_PCOD9056634
_publ_section_title
;
Structure prediction by ZEFSAII (Michael W. Deem and Ramdas Pophale) SiO2 
 PCOD9056634
Probable space group: P -1
;
_chemical_formula_sum "Si O2"
_cell_formula_units_Z 16
_cell_length_a 8.252445
_cell_length_b 14.888851
_cell_length_c 8.930417
_cell_angle_alpha 40.341290
_cell_angle_beta 93.292160
_cell_angle_gamma 98.723244
_cell_volume 699.185376
_symmetry_space_group_name_H-M "P -1"
_symmetry_group_IT_number 2
_symmetry_cell_setting 'triclinic'
loop_
_space_group_symop_operation_xyz
x,y,z
-x,-y,-z
loop_
_atom_site_type_symbol
_atom_site_label
_atom_site_fract_x
_atom_site_fract_y
_atom_site_fract_z
Si Si1 0.638368 0.338824 0.029026
Si Si2 0.847501 0.930203 0.177368
Si Si3 0.282785 0.366601 0.833951
Si Si4 0.724919 0.626571 0.536270
Si Si5 0.322086 0.958074 0.710979
Si Si6 0.328892 0.957122 0.220133
Si Si7 0.367939 0.650758 0.623389
Si Si8 0.848664 0.924367 0.684993
O O1 0.753357 0.478589 0.793963
O O2 0.463001 0.340333 0.934213
O O3 0.698343 0.194918 0.168854
O O4 0.624699 0.349886 0.194243
O O5 0.847328 0.766706 0.414421
O O6 0.815613 0.022094 0.200346
O O7 0.691313 0.941658 0.047195
O O8 0.000000 0.000000 0.000000
O O9 0.156386 0.231667 0.055491
O O10 0.281569 0.379111 0.637911
O O11 0.258735 0.511090 0.728387
O O12 0.549359 0.648470 0.568799
O O13 0.497228 0.994950 0.752469
O O14 0.306364 0.073839 0.437099
O O15 0.312215 0.794434 0.385082
O O16 0.188854 0.979215 0.302670
O O17 0.000000 0.000000 0.500000
#
# Coordination Sequence:
#
# PCOD9056634 Si02
#       8
#     2   2   2   2   2   2   2   2
#     4  11  22  40  64 102 128 169 228 275 322 386
#     4  12  27  44  66 100 139 176 214 275 347 394
#     4  11  23  39  65  96 136 172 218 269 341 385
#     4  11  23  40  65  95 136 172 216 274 336 389
#     4  12  24  41  74  97 130 177 230 278 316 389
#     4  12  23  44  68 100 129 171 239 269 320 394
#     4  11  23  39  66 100 128 171 223 281 319 385
#     4  12  25  44  67  97 140 175 216 276 339 396
#
# _framework density 22.883773999999999
#
# number of rings (size 3 to 8) (size 9 to 14) (size 15 to 20)
#    0.000    0.500    5.000    5.250    5.250    0.000 
#    0.000    2.500    0.000    0.000    0.000    0.000 
#    0.000    0.000    0.000    0.000    0.000    0.000 
#
# Total GULP energy -89550.069348 kJ/mol
# GULP energy per Si atom -5596.879334 kJ/mol
# Density = 2.283169 g / cm^3
# Si number density = 22.883774 Si / 1000 Ang^3
#
#
#
# Elastic Constant Matrix: (Units=GPa)
#
#
# Indices 1 2 3 4 5 6 
#
# 1 38.1438 31.4791 22.2277 -1.4789 -16.9385 -3.4940
# 2 31.4791 181.7131 76.9637 -8.3648 -19.4224 -27.8110
# 3 22.2277 76.9637 158.9006 -14.3704 -22.1112 -8.7071
# 4 -1.4789 -8.3648 -14.3704 60.8112 6.4567 2.3189
# 5 -16.9385 -19.4224 -22.1112 6.4567 37.0007 7.7538
# 6 -3.4940 -27.8110 -8.7071 2.3189 7.7538 32.5038
#
#
#
# Elastic Compliance Matrix: (Units=1/GPa)
#
#
# Indices 1 2 3 4 5 6 
#
# 1 0.037194 -0.005121 -0.001013 -0.001459 0.014846 -0.004092
# 2 -0.005121 0.008605 -0.003249 0.000172 -0.001097 0.006191
# 3 -0.001013 -0.003249 0.008458 0.001267 0.002961 -0.001420
# 4 -0.001459 0.000172 0.001267 0.017032 -0.002745 -0.000231
# 5 0.014846 -0.001097 0.002961 -0.002745 0.037000 -0.007180
# 6 -0.004092 0.006191 -0.001420 -0.000231 -0.007180 0.036972
#
#
# Mechanical properties :
#
#
# Convention : Reuss Voigt Hill
#
# Bulk Modulus (GPa) = 28.17679 71.12206 49.64943
# Shear Modulus (GPa) = 28.43221 42.60227 35.51724
#
# Velocity S-wave (km/s) = 3.52868 4.31940 3.94391
# Velocity P-wave (km/s) = 5.37976 7.48488 6.51787
#
# Compressibility (1/GPa) = 0.03549020
#
# Stress axis : x y z
#
# Youngs Moduli (GPa) = 26.88588 116.21561 118.23824
#
# Poissons Ratio (x) = 0.59514 0.11977
# Poissons Ratio (y) = 0.13768 0.38418
# Poissons Ratio (z) = 0.02723 0.37760
#
# Static dielectric constant tensor:
#      x y z
#    x 1.939770 0.058240 0.021660 
#    y 0.058240 1.875460 0.017810 
#    z 0.021660 0.017810 1.855950 
# 
# From -- ./inp_files/205190.got.cif
#   From: 2010.05.17/outbox.cif.g08.bks.cpg/sg2_103_cif.got.tgz:205190.got - 2010.06.03 11:33:40.
