data_PCOD9056397
_publ_section_title
;
Structure prediction by ZEFSAII (Michael W. Deem and Ramdas Pophale) SiO2 
 PCOD9056397
Probable space group: P -1
;
_chemical_formula_sum "Si O2"
_cell_formula_units_Z 14
_cell_length_a 9.410732
_cell_length_b 19.270577
_cell_length_c 11.232966
_cell_angle_alpha 31.878837
_cell_angle_beta 121.831967
_cell_angle_gamma 141.887343
_cell_volume 598.982830
_symmetry_space_group_name_H-M "P -1"
_symmetry_group_IT_number 2
_symmetry_cell_setting 'triclinic'
loop_
_space_group_symop_operation_xyz
x,y,z
-x,-y,-z
loop_
_atom_site_type_symbol
_atom_site_label
_atom_site_fract_x
_atom_site_fract_y
_atom_site_fract_z
Si Si1 0.641196 0.798679 0.260110
Si Si2 0.848597 0.310631 0.125822
Si Si3 0.626834 0.427262 0.293883
Si Si4 0.247841 0.999943 0.339405
Si Si5 0.751568 0.800683 0.748655
Si Si6 0.102711 0.549545 0.314060
Si Si7 0.049021 0.208791 0.735534
O O1 0.578029 0.694121 0.511000
O O2 0.394236 0.739326 0.206815
O O3 0.701196 0.725261 0.291145
O O4 0.888177 0.038768 0.013654
O O5 0.545863 0.147320 0.241714
O O6 0.895700 0.190620 0.362577
O O7 0.919438 0.389727 0.909856
O O8 0.000000 0.500000 0.000000
O O9 0.482781 0.295249 0.302139
O O10 0.856465 0.470773 0.380091
O O11 0.729253 0.632221 0.007830
O O12 0.248777 0.134029 0.217515
O O13 0.120298 0.907786 0.289171
O O14 0.000000 0.000000 0.500000
O O15 0.078762 0.378068 0.535238
#
# Coordination Sequence:
#
# PCOD9056397 Si02
#       7
#     2   2   2   2   2   2   2
#     4  11  26  46  65  98 140 184 231 278 342 405
#     4  11  22  38  66 102 134 166 218 279 341 396
#     4  11  27  45  70 101 138 184 229 279 340 411
#     4  11  23  40  69 101 132 174 220 285 336 398
#     4  11  25  45  70 100 139 180 228 277 346 409
#     4  12  24  43  70 101 137 178 228 285 343 407
#     4  11  25  44  70 102 133 180 233 284 340 405
#
# _framework density 23.372959000000002
#
# number of rings (size 3 to 8) (size 9 to 14) (size 15 to 20)
#    0.000    0.857    2.857    3.429    4.000    7.429 
#    0.000    0.000    0.000    0.000    0.000    0.000 
#    0.000    0.000    0.000    0.000    0.000    0.000 
#
# Total GULP energy -78273.693591 kJ/mol
# GULP energy per Si atom -5590.978114 kJ/mol
# Density = 2.331976 g / cm^3
# Si number density = 23.372959 Si / 1000 Ang^3
#
#
#
# Elastic Constant Matrix: (Units=GPa)
#
#
# Indices 1 2 3 4 5 6 
#
# 1 83.3164 5.8870 23.6926 -4.4808 -9.8389 19.2774
# 2 5.8870 80.3828 -1.1529 -2.9586 0.2390 22.1745
# 3 23.6926 -1.1529 133.5542 -0.5703 -13.2028 7.2855
# 4 -4.4808 -2.9586 -0.5703 26.3679 -3.8148 3.7408
# 5 -9.8389 0.2390 -13.2028 -3.8148 41.0032 -0.0003
# 6 19.2774 22.1745 7.2855 3.7408 -0.0003 36.3164
#
#
#
# Elastic Compliance Matrix: (Units=1/GPa)
#
#
# Indices 1 2 3 4 5 6 
#
# 1 0.015163 0.001522 -0.001820 0.004497 0.003462 -0.009077
# 2 0.001522 0.015422 0.000541 0.003634 0.000787 -0.010707
# 3 -0.001820 0.000541 0.008091 0.000391 0.002201 -0.001027
# 4 0.004497 0.003634 0.000391 0.041095 0.005007 -0.008917
# 5 0.003462 0.000787 0.002201 0.005007 0.026389 -0.003276
# 6 -0.009077 -0.010707 -0.001027 -0.008917 -0.003276 0.040016
#
#
# Mechanical properties :
#
#
# Convention : Reuss Voigt Hill
#
# Bulk Modulus (GPa) = 25.53563 39.34521 32.44042
# Shear Modulus (GPa) = 31.49730 38.65927 35.07828
#
# Velocity S-wave (km/s) = 3.67494 4.07137 3.87823
# Velocity P-wave (km/s) = 5.38107 6.24273 5.82785
#
# Compressibility (1/GPa) = 0.03916097
#
# Stress axis : x y z
#
# Youngs Moduli (GPa) = 65.94898 64.84303 123.60159
#
# Poissons Ratio (x) = -0.09872 0.22499
# Poissons Ratio (y) = -0.10040 -0.06681
# Poissons Ratio (z) = 0.12005 -0.03505
#
# Static dielectric constant tensor:
#      x y z
#    x 1.996770 0.040890 -0.088500 
#    y 0.040890 1.912420 0.020450 
#    z -0.088500 0.020450 1.913250 
# 
# From -- ./inp_files/98666.got.cif
#   From: 2010.05.17/outbox.cif.g08.bks.cpg/sg2_50_cif.got.tgz:98666.got - 2010.06.03 11:33:40.
