data_PCOD9056234
_publ_section_title
;
Structure prediction by ZEFSAII (Michael W. Deem and Ramdas Pophale) SiO2 
 PCOD9056234
Probable space group: P -1
;
_chemical_formula_sum "Si O2"
_cell_formula_units_Z 14
_cell_length_a 8.920972
_cell_length_b 11.683740
_cell_length_c 9.870053
_cell_angle_alpha 89.767306
_cell_angle_beta 133.216639
_cell_angle_gamma 62.420972
_cell_volume 576.629300
_symmetry_space_group_name_H-M "P -1"
_symmetry_group_IT_number 2
_symmetry_cell_setting 'triclinic'
loop_
_space_group_symop_operation_xyz
x,y,z
-x,-y,-z
loop_
_atom_site_type_symbol
_atom_site_label
_atom_site_fract_x
_atom_site_fract_y
_atom_site_fract_z
Si Si1 0.080652 0.663435 0.932144
Si Si2 0.339060 0.868576 0.681614
Si Si3 0.807163 0.935729 0.179513
Si Si4 0.690631 0.180403 0.904264
Si Si5 0.486693 0.866088 0.487113
Si Si6 0.618145 0.604469 0.051262
Si Si7 0.945862 0.674972 0.128259
O O1 0.293651 0.549621 0.951608
O O2 0.796133 0.725866 0.701649
O O3 0.093538 0.794490 0.968377
O O4 0.131412 0.591466 0.113097
O O5 0.311471 0.879185 0.503567
O O6 0.152533 0.024079 0.647195
O O7 0.389189 0.738595 0.807142
O O8 0.649408 0.807945 0.882172
O O9 0.999027 0.764560 0.255394
O O10 0.500000 0.000000 0.000000
O O11 0.790091 0.040671 0.057529
O O12 0.607329 0.157777 0.710198
O O13 0.457007 0.326774 0.845572
O O14 0.500000 0.000000 0.500000
O O15 0.880518 0.587587 0.175001
#
# Coordination Sequence:
#
# PCOD9056234 Si02
#       7
#     2   2   2   2   2   2   2
#     4  11  22  38  59  90 119 151 200 240 283 352
#     4   7  16  31  57  78 107 155 191 224 286 347
#     4   9  14  32  57  82 106 155 194 223 289 349
#     4  11  22  36  63  89 116 154 192 245 297 335
#     4  11  23  36  59  89 123 149 188 249 303 333
#     4   9  19  37  63  81 116 166 193 227 294 351
#     4   8  16  29  60  81 104 154 195 226 279 344
#
# _framework density 24.279031
#
# number of rings (size 3 to 8) (size 9 to 14) (size 15 to 20)
#    0.857    1.714    1.429    3.429    0.000    2.857 
#    0.000    0.714    6.286    5.143    0.000    0.000 
#    0.000    0.000    0.000    0.000    0.000    0.000 
#
# Total GULP energy -78075.014866 kJ/mol
# GULP energy per Si atom -5576.786776 kJ/mol
# Density = 2.422377 g / cm^3
# Si number density = 24.279031 Si / 1000 Ang^3
#
#
#
# Elastic Constant Matrix: (Units=GPa)
#
#
# Indices 1 2 3 4 5 6 
#
# 1 63.6499 7.2796 38.4749 18.4924 -13.6917 -26.3688
# 2 7.2796 128.7595 55.0223 35.9428 -10.7876 -23.3398
# 3 38.4749 55.0223 118.9348 50.4009 -19.9119 -10.2891
# 4 18.4924 35.9428 50.4009 39.9792 -7.9079 -3.7658
# 5 -13.6917 -10.7876 -19.9119 -7.9079 26.6334 16.0385
# 6 -26.3688 -23.3398 -10.2891 -3.7658 16.0385 54.2924
#
#
#
# Elastic Compliance Matrix: (Units=1/GPa)
#
#
# Indices 1 2 3 4 5 6 
#
# 1 0.027558 0.006313 -0.007145 -0.007982 0.000568 0.014023
# 2 0.006313 0.012877 -0.003516 -0.009672 -0.001720 0.007773
# 3 -0.007145 -0.003516 0.021599 -0.019615 0.008005 -0.004614
# 4 -0.007982 -0.009672 -0.019615 0.061437 0.000081 -0.007515
# 5 0.000568 -0.001720 0.008005 0.000081 0.051713 -0.014217
# 6 0.014023 0.007773 -0.004614 -0.007515 -0.014217 0.031375
#
#
# Mechanical properties :
#
#
# Convention : Reuss Voigt Hill
#
# Bulk Modulus (GPa) = 18.74828 56.98866 37.86847
# Shear Modulus (GPa) = 21.45601 38.21880 29.83741
#
# Velocity S-wave (km/s) = 2.97598 3.97186 3.50942
# Velocity P-wave (km/s) = 4.42124 6.67514 5.66149
#
# Compressibility (1/GPa) = 0.05333823
#
# Stress axis : x y z
#
# Youngs Moduli (GPa) = 36.28664 77.65933 46.29804
#
# Poissons Ratio (x) = -0.49024 0.33078
# Poissons Ratio (y) = -0.22907 0.16279
# Poissons Ratio (z) = 0.25925 0.27306
#
# Static dielectric constant tensor:
#      x y z
#    x 2.062380 -0.012170 0.045240 
#    y -0.012170 1.961640 0.014620 
#    z 0.045240 0.014620 2.010820 
# 
# From -- ./inp_files/188827.got.cif
#   From: 2010.05.17/outbox.cif.g08.bks.cpg/sg2_95_cif.got.tgz:188827.got - 2010.06.03 11:33:40.
