data_PCOD9056477
_publ_section_title
;
Structure prediction by ZEFSAII (Michael W. Deem and Ramdas Pophale) SiO2 
 PCOD9056477
Probable space group: P -1
;
_chemical_formula_sum "Si O2"
_cell_formula_units_Z 16
_cell_length_a 12.195844
_cell_length_b 7.801865
_cell_length_c 7.362166
_cell_angle_alpha 89.777349
_cell_angle_beta 89.294524
_cell_angle_gamma 108.341163
_cell_volume 664.853605
_symmetry_space_group_name_H-M "P -1"
_symmetry_group_IT_number 2
_symmetry_cell_setting 'triclinic'
loop_
_space_group_symop_operation_xyz
x,y,z
-x,-y,-z
loop_
_atom_site_type_symbol
_atom_site_label
_atom_site_fract_x
_atom_site_fract_y
_atom_site_fract_z
Si Si1 0.067413 0.834649 0.144537
Si Si2 0.874167 0.519599 0.710205
Si Si3 0.465939 0.287549 0.525832
Si Si4 0.294611 0.073403 0.251306
Si Si5 0.591221 0.677675 0.084528
Si Si6 0.305509 0.766707 0.479259
Si Si7 0.119193 0.739213 0.748085
Si Si8 0.823846 0.613981 0.107816
O O1 0.091984 0.656596 0.225141
O O2 0.930393 0.787052 0.162972
O O3 0.156191 0.009188 0.232041
O O4 0.100355 0.836867 0.930785
O O5 0.771859 0.437124 0.571287
O O6 0.995396 0.664523 0.649282
O O7 0.829492 0.594559 0.889114
O O8 0.500000 0.500000 0.500000
O O9 0.349767 0.198601 0.418489
O O10 0.458907 0.250697 0.740642
O O11 0.571046 0.224726 0.446835
O O12 0.321666 0.888480 0.298145
O O13 0.357744 0.173279 0.071002
O O14 0.699768 0.623268 0.158482
O O15 0.500000 0.500000 0.000000
O O16 0.224771 0.836799 0.615702
O O17 0.151526 0.563371 0.816503
#
# Coordination Sequence:
#
# PCOD9056477 Si02
#       8
#     2   2   2   2   2   2   2   2
#     4   8  18  38  62  92 128 159 205 264 312 369
#     4   8  16  33  61  95 124 159 209 256 306 376
#     4  12  26  46  63  92 127 164 218 257 304 385
#     4  11  26  44  63  94 129 160 215 264 313 372
#     4  12  25  43  67  87 127 174 209 257 311 375
#     4  11  22  39  63  94 131 161 207 267 311 362
#     4   9  17  33  66  96 123 162 209 256 312 372
#     4   9  18  38  64  93 123 169 211 249 314 374
#
# _framework density 24.065445
#
# number of rings (size 3 to 8) (size 9 to 14) (size 15 to 20)
#    0.000    2.000    1.250    3.750    1.750    1.000 
#    0.000    0.625    0.000    0.000    0.000    0.000 
#    0.000    0.000    0.000    0.000    0.000    0.000 
#
# Total GULP energy -89486.739081 kJ/mol
# GULP energy per Si atom -5592.921193 kJ/mol
# Density = 2.401067 g / cm^3
# Si number density = 24.065445 Si / 1000 Ang^3
#
#
#
# Elastic Constant Matrix: (Units=GPa)
#
#
# Indices 1 2 3 4 5 6 
#
# 1 92.7954 49.1662 2.7670 5.7309 -0.6143 29.0025
# 2 49.1662 98.5166 18.9636 1.2068 14.0669 38.6507
# 3 2.7670 18.9636 71.6983 -2.7752 4.1415 21.0358
# 4 5.7309 1.2068 -2.7752 37.7412 9.3416 16.4872
# 5 -0.6143 14.0669 4.1415 9.3416 28.2304 3.1585
# 6 29.0025 38.6507 21.0358 16.4872 3.1585 44.6115
#
#
#
# Elastic Compliance Matrix: (Units=1/GPa)
#
#
# Indices 1 2 3 4 5 6 
#
# 1 0.016278 -0.006875 0.002696 -0.000465 0.004212 -0.006024
# 2 -0.006875 0.022709 0.001174 0.012180 -0.013508 -0.019303
# 3 0.002696 0.001174 0.018216 0.008094 -0.004306 -0.014046
# 4 -0.000465 0.012180 0.008094 0.044059 -0.018598 -0.029034
# 5 0.004212 -0.013508 -0.004306 -0.018598 0.047407 0.014512
# 6 -0.006024 -0.019303 -0.014046 -0.029034 0.014512 0.059382
#
#
# Mechanical properties :
#
#
# Convention : Reuss Voigt Hill
#
# Bulk Modulus (GPa) = 19.53396 44.97820 32.25608
# Shear Modulus (GPa) = 21.63337 34.92420 28.27879
#
# Velocity S-wave (km/s) = 3.00148 3.81362 3.43166
# Velocity P-wave (km/s) = 4.48849 6.17431 5.39762
#
# Compressibility (1/GPa) = 0.05119289
#
# Stress axis : x y z
#
# Youngs Moduli (GPa) = 61.43248 44.03626 54.89761
#
# Poissons Ratio (x) = 0.30276 -0.14802
# Poissons Ratio (y) = 0.42237 -0.06447
# Poissons Ratio (z) = -0.16564 -0.05171
#
# Static dielectric constant tensor:
#      x y z
#    x 1.909550 0.019370 0.004430 
#    y 0.019370 1.938300 -0.012380 
#    z 0.004430 -0.012380 1.951750 
# 
# From -- ./inp_files/239043.got.cif
#   From: 2010.05.17/outbox.cif.g08.bks.cpg/sg2_120_cif.got.tgz:239043.got - 2010.06.03 11:33:40.
