data_PCOD9056633
_publ_section_title
;
Structure prediction by ZEFSAII (Michael W. Deem and Ramdas Pophale) SiO2 
 PCOD9056633
Probable space group: P -1
;
_chemical_formula_sum "Si O2"
_cell_formula_units_Z 12
_cell_length_a 6.076339
_cell_length_b 8.788078
_cell_length_c 18.408472
_cell_angle_alpha 44.328911
_cell_angle_beta 71.168796
_cell_angle_gamma 96.946253
_cell_volume 550.502729
_symmetry_space_group_name_H-M "P -1"
_symmetry_group_IT_number 2
_symmetry_cell_setting 'triclinic'
loop_
_space_group_symop_operation_xyz
x,y,z
-x,-y,-z
loop_
_atom_site_type_symbol
_atom_site_label
_atom_site_fract_x
_atom_site_fract_y
_atom_site_fract_z
Si Si1 0.731222 0.565930 0.889262
Si Si2 0.288065 0.195660 0.443525
Si Si3 0.584793 0.180759 0.152585
Si Si4 0.679684 0.780807 0.194862
Si Si5 0.289395 0.859306 0.680193
Si Si6 0.291559 0.086621 0.015740
O O1 0.691565 0.806411 0.816544
O O2 0.975074 0.627196 0.788696
O O3 0.772488 0.455271 0.997421
O O4 0.454832 0.326635 0.969001
O O5 0.416474 0.499095 0.334454
O O6 0.509523 0.189197 0.370440
O O7 0.294210 0.090569 0.558570
O O8 0.000000 0.000000 0.500000
O O9 0.644196 0.125199 0.246605
O O10 0.605610 0.981648 0.166108
O O11 0.729967 0.797777 0.097409
O O12 0.993934 0.878515 0.152320
O O13 0.500000 0.000000 0.000000
#
# Coordination Sequence:
#
# PCOD9056633 Si02
#       6
#     2   2   2   2   2   2
#     4  11  24  42  68 100 140 173 218 266 344 393
#     4  11  25  48  70  92 128 182 227 274 324 400
#     4  11  25  40  67 104 136 174 214 279 333 396
#     4  11  25  40  66 101 133 169 226 272 331 388
#     4  11  24  44  69  94 132 180 222 268 333 396
#     4  11  22  40  64 100 135 172 216 273 326 397
#
# _framework density 21.798259000000002
#
# number of rings (size 3 to 8) (size 9 to 14) (size 15 to 20)
#    0.000    1.000    1.667    4.500    9.333    2.000 
#    0.000    3.333    0.000    0.000    0.000    0.000 
#    0.000    0.000    0.000    0.000    0.000    0.000 
#
# Total GULP energy -66843.088785 kJ/mol
# GULP energy per Si atom -5570.257399 kJ/mol
# Density = 2.174865 g / cm^3
# Si number density = 21.798259 Si / 1000 Ang^3
#
#
#
# Elastic Constant Matrix: (Units=GPa)
#
#
# Indices 1 2 3 4 5 6 
#
# 1 118.1643 55.5566 57.8892 -13.7671 -13.5695 -2.4946
# 2 55.5566 108.4730 48.2067 -7.8082 2.4617 -5.6180
# 3 57.8892 48.2067 137.4137 0.6540 2.8947 2.5154
# 4 -13.7671 -7.8082 0.6540 38.2186 4.4897 9.9681
# 5 -13.5695 2.4617 2.8947 4.4897 47.6711 12.6849
# 6 -2.4946 -5.6180 2.5154 9.9681 12.6849 35.5541
#
#
#
# Elastic Compliance Matrix: (Units=1/GPa)
#
#
# Indices 1 2 3 4 5 6 
#
# 1 0.013897 -0.005237 -0.004093 0.004075 0.004727 -0.002392
# 2 -0.005237 0.013219 -0.002425 0.000465 -0.002805 0.002763
# 3 -0.004093 -0.002425 0.009896 -0.001886 -0.001369 -0.000353
# 4 0.004075 0.000465 -0.001886 0.029796 0.000592 -0.008072
# 5 0.004727 -0.002805 -0.001369 0.000592 0.024908 -0.009067
# 6 -0.002392 0.002763 -0.000353 -0.008072 -0.009067 0.033918
#
#
# Mechanical properties :
#
#
# Convention : Reuss Voigt Hill
#
# Bulk Modulus (GPa) = 74.05332 76.37288 75.21310
# Shear Modulus (GPa) = 32.54282 37.78199 35.16241
#
# Velocity S-wave (km/s) = 3.86801 4.16776 4.02068
# Velocity P-wave (km/s) = 7.34810 7.63365 7.49223
#
# Compressibility (1/GPa) = 0.01350378
#
# Stress axis : x y z
#
# Youngs Moduli (GPa) = 71.95812 75.64943 101.04692
#
# Poissons Ratio (x) = 0.39615 0.41354
# Poissons Ratio (y) = 0.37682 0.24504
# Poissons Ratio (z) = 0.29449 0.18345
#
# Static dielectric constant tensor:
#      x y z
#    x 1.974720 0.022120 0.017300 
#    y 0.022120 1.793850 0.000210 
#    z 0.017300 0.000210 1.819040 
# 
# From -- ./inp_files/131305.got.cif
#   From: 2010.05.17/outbox.cif.g08.bks.cpg/sg2_66_cif.got.tgz:131305.got - 2010.06.03 11:33:40.
