data_PCOD9056164
_publ_section_title
;
Structure prediction by ZEFSAII (Michael W. Deem and Ramdas Pophale) SiO2 
 PCOD9056164
Probable space group: P -1
;
_chemical_formula_sum "Si O2"
_cell_formula_units_Z 16
_cell_length_a 9.191173
_cell_length_b 16.306371
_cell_length_c 8.750883
_cell_angle_alpha 81.131783
_cell_angle_beta 87.091508
_cell_angle_gamma 138.591820
_cell_volume 828.866304
_symmetry_space_group_name_H-M "P -1"
_symmetry_group_IT_number 2
_symmetry_cell_setting 'triclinic'
loop_
_space_group_symop_operation_xyz
x,y,z
-x,-y,-z
loop_
_atom_site_type_symbol
_atom_site_label
_atom_site_fract_x
_atom_site_fract_y
_atom_site_fract_z
Si Si1 0.639158 0.711508 0.488145
Si Si2 0.795020 0.290795 0.597802
Si Si3 0.788119 0.828059 0.775770
Si Si4 0.692575 0.914183 0.296212
Si Si5 0.810984 0.980530 0.942913
Si Si6 0.419362 0.394388 0.919916
Si Si7 0.234193 0.534374 0.352506
Si Si8 0.046335 0.250281 0.735956
O O1 0.663648 0.749861 0.649147
O O2 0.705790 0.820737 0.349240
O O3 0.387690 0.578886 0.481409
O O4 0.818900 0.719803 0.432109
O O5 0.540732 0.161891 0.588064
O O6 0.782375 0.372827 0.666751
O O7 0.983226 0.388614 0.429244
O O8 0.886426 0.256725 0.705985
O O9 0.727338 0.892540 0.825983
O O10 0.713158 0.732209 0.938580
O O11 0.062673 0.944693 0.704881
O O12 0.655013 0.920374 0.118083
O O13 0.907817 0.110730 0.848374
O O14 0.000000 0.000000 0.000000
O O15 0.624732 0.440393 0.803492
O O16 0.244835 0.354709 0.816987
O O17 0.500000 0.500000 0.000000
#
# Coordination Sequence:
#
# PCOD9056164 Si02
#       8
#     2   2   2   2   2   2   2   2
#     4  10  20  34  65  90 115 155 214 254 289 356
#     4  10  22  38  66  84 125 168 204 234 306 384
#     4  11  20  35  64  93 119 155 204 260 306 343
#     4  10  19  38  60  85 121 163 196 245 307 364
#     4  10  17  36  60  87 123 154 200 255 304 349
#     4  11  24  40  65  92 121 154 211 266 295 346
#     4   9  22  45  62  84 124 172 198 246 310 362
#     4  11  21  37  62  93 115 162 206 251 299 360
#
# _framework density 19.303474999999999
#
# number of rings (size 3 to 8) (size 9 to 14) (size 15 to 20)
#    0.000    1.750    5.000    1.875    3.500    1.500 
#    0.000    1.250    8.250    0.000    0.000    0.000 
#    0.000    0.000    0.000    0.000    0.000    0.000 
#
# Total GULP energy -89234.032297 kJ/mol
# GULP energy per Si atom -5577.127019 kJ/mol
# Density = 1.925954 g / cm^3
# Si number density = 19.303475 Si / 1000 Ang^3
#
#
#
# Elastic Constant Matrix: (Units=GPa)
#
#
# Indices 1 2 3 4 5 6 
#
# 1 102.9744 24.3600 22.2525 -12.7355 -5.1030 -7.8633
# 2 24.3600 71.0127 22.4942 -0.1509 -11.5641 2.1342
# 3 22.2525 22.4942 56.1525 5.4511 -6.2862 4.1330
# 4 -12.7355 -0.1509 5.4511 41.8597 1.7378 -5.8366
# 5 -5.1030 -11.5641 -6.2862 1.7378 19.6931 -13.8106
# 6 -7.8633 2.1342 4.1330 -5.8366 -13.8106 24.5815
#
#
#
# Elastic Compliance Matrix: (Units=1/GPa)
#
#
# Indices 1 2 3 4 5 6 
#
# 1 0.013215 -0.002000 -0.004934 0.005871 0.007925 0.011077
# 2 -0.002000 0.018438 -0.005666 0.000497 0.012601 0.005909
# 3 -0.004934 -0.005666 0.022882 -0.005441 -0.001959 -0.007326
# 4 0.005871 0.000497 -0.005441 0.027950 0.006918 0.013273
# 5 0.007925 0.012601 -0.001959 0.006918 0.101305 0.060329
# 6 0.011077 0.005909 -0.007326 0.013273 0.060329 0.081990
#
#
# Mechanical properties :
#
#
# Convention : Reuss Voigt Hill
#
# Bulk Modulus (GPa) = 34.08895 40.92811 37.50853
# Shear Modulus (GPa) = 16.62464 27.96240 22.29352
#
# Velocity S-wave (km/s) = 2.93785 3.81013 3.40206
# Velocity P-wave (km/s) = 5.40423 6.37218 5.90806
#
# Compressibility (1/GPa) = 0.02933502
#
# Stress axis : x y z
#
# Youngs Moduli (GPa) = 75.66961 54.23471 43.70296
#
# Poissons Ratio (x) = 0.10849 0.21562
# Poissons Ratio (y) = 0.15137 0.24762
# Poissons Ratio (z) = 0.37334 0.30730
#
# Static dielectric constant tensor:
#      x y z
#    x 1.670710 0.007320 -0.026140 
#    y 0.007320 1.714030 -0.022930 
#    z -0.026140 -0.022930 1.717630 
# 
# From -- ./inp_files/206892.got.cif
#   From: 2010.05.17/outbox.cif.g08.bks.cpg/sg2_104_cif.got.tgz:206892.got - 2010.06.03 11:33:40.
