data_PCOD9056194
_publ_section_title
;
Structure prediction by ZEFSAII (Michael W. Deem and Ramdas Pophale) SiO2 
 PCOD9056194
Probable space group: P -1
;
_chemical_formula_sum "Si O2"
_cell_formula_units_Z 14
_cell_length_a 8.734350
_cell_length_b 10.301673
_cell_length_c 11.366727
_cell_angle_alpha 55.639750
_cell_angle_beta 57.458101
_cell_angle_gamma 95.702437
_cell_volume 580.275738
_symmetry_space_group_name_H-M "P -1"
_symmetry_group_IT_number 2
_symmetry_cell_setting 'triclinic'
loop_
_space_group_symop_operation_xyz
x,y,z
-x,-y,-z
loop_
_atom_site_type_symbol
_atom_site_label
_atom_site_fract_x
_atom_site_fract_y
_atom_site_fract_z
Si Si1 0.089080 0.297315 0.805459
Si Si2 0.407576 0.881775 0.479445
Si Si3 0.667380 0.709160 0.496747
Si Si4 0.776342 0.685594 0.709830
Si Si5 0.145410 0.057706 0.070980
Si Si6 0.950559 0.536744 0.869951
Si Si7 0.731553 0.984688 0.720344
O O1 0.263561 0.384347 0.581065
O O2 0.000045 0.415921 0.826390
O O3 0.889623 0.087997 0.943066
O O4 0.192101 0.247921 0.895287
O O5 0.479669 0.736438 0.519228
O O6 0.144670 0.762129 0.666366
O O7 0.445551 0.997450 0.285518
O O8 0.500000 0.000000 0.500000
O O9 0.627265 0.619420 0.687791
O O10 0.891896 0.932779 0.292500
O O11 0.748875 0.530048 0.894462
O O12 0.026905 0.806105 0.487030
O O13 0.756341 0.838096 0.710190
O O14 0.306715 0.082217 0.094590
O O15 0.000000 0.500000 0.000000
#
# Coordination Sequence:
#
# PCOD9056194 Si02
#       7
#     2   2   2   2   2   2   2
#     4   9  19  35  58  81 114 144 186 225 278 326
#     4  11  22  35  58  86 112 146 184 230 278 322
#     4   9  18  35  57  80 109 146 185 223 273 326
#     4   9  17  31  54  79 105 145 184 227 263 322
#     4   8  17  34  61  79 108 151 183 223 270 331
#     4  11  24  36  57  83 111 145 188 231 277 329
#     4   9  16  31  55  82 107 142 193 221 261 334
#
# _framework density 24.126459000000001
#
# number of rings (size 3 to 8) (size 9 to 14) (size 15 to 20)
#    0.857    1.714    1.429    0.857    4.000    1.143 
#    0.000    1.429    0.000    0.000    0.000    0.000 
#    0.000    0.000    0.000    0.000    0.000    0.000 
#
# Total GULP energy -78051.497679 kJ/mol
# GULP energy per Si atom -5575.106977 kJ/mol
# Density = 2.407155 g / cm^3
# Si number density = 24.126459 Si / 1000 Ang^3
#
#
#
# Elastic Constant Matrix: (Units=GPa)
#
#
# Indices 1 2 3 4 5 6 
#
# 1 135.1234 36.1552 47.1959 6.8481 68.7244 -9.0647
# 2 36.1552 89.3663 11.1088 10.1831 20.2220 -7.3596
# 3 47.1959 11.1088 81.1027 10.6432 39.0907 -3.0013
# 4 6.8481 10.1831 10.6432 22.1535 6.6473 2.3803
# 5 68.7244 20.2220 39.0907 6.6473 64.1283 -1.6199
# 6 -9.0647 -7.3596 -3.0013 2.3803 -1.6199 26.8730
#
#
#
# Elastic Compliance Matrix: (Units=1/GPa)
#
#
# Indices 1 2 3 4 5 6 
#
# 1 0.017560 -0.002913 -0.001716 0.001400 -0.016903 0.003791
# 2 -0.002913 0.013425 0.001350 -0.005901 -0.001239 0.003293
# 3 -0.001716 0.001350 0.018452 -0.006419 -0.009122 0.001870
# 4 0.001400 -0.005901 -0.006419 0.051573 -0.001237 -0.006503
# 5 -0.016903 -0.001239 -0.009122 -0.001237 0.039673 -0.004559
# 6 0.003791 0.003293 0.001870 -0.006503 -0.004559 0.039903
#
#
# Mechanical properties :
#
#
# Convention : Reuss Voigt Hill
#
# Bulk Modulus (GPa) = 23.32185 54.94582 39.13383
# Shear Modulus (GPa) = 24.82181 36.70647 30.76414
#
# Velocity S-wave (km/s) = 3.21100 3.90477 3.57476
# Velocity P-wave (km/s) = 4.84096 6.56911 5.77010
#
# Compressibility (1/GPa) = 0.04287825
#
# Stress axis : x y z
#
# Youngs Moduli (GPa) = 56.94823 74.48945 54.19481
#
# Poissons Ratio (x) = 0.21702 0.09299
# Poissons Ratio (y) = 0.16591 -0.07317
# Poissons Ratio (z) = 0.09771 -0.10057
#
# Static dielectric constant tensor:
#      x y z
#    x 2.081190 0.018590 0.044840 
#    y 0.018590 1.873740 -0.022020 
#    z 0.044840 -0.022020 2.078270 
# 
# From -- ./inp_files/388994.got.cif
#   From: 2010.05.17/outbox.cif.g08.bks.cpg/sg2_195_cif.got.tgz:388994.got - 2010.06.03 11:33:40.
