data_PCOD9056939
_publ_section_title
;
Structure prediction by ZEFSAII (Michael W. Deem and Ramdas Pophale) SiO2 
 PCOD9056939
Probable space group: P -1
;
_chemical_formula_sum "Si O2"
_cell_formula_units_Z 16
_cell_length_a 20.888609
_cell_length_b 10.430687
_cell_length_c 5.169088
_cell_angle_alpha 81.558697
_cell_angle_beta 114.611968
_cell_angle_gamma 131.115350
_cell_volume 758.027570
_symmetry_space_group_name_H-M "P -1"
_symmetry_group_IT_number 2
_symmetry_cell_setting 'triclinic'
loop_
_space_group_symop_operation_xyz
x,y,z
-x,-y,-z
loop_
_atom_site_type_symbol
_atom_site_label
_atom_site_fract_x
_atom_site_fract_y
_atom_site_fract_z
Si Si1 0.823122 0.484850 0.185669
Si Si2 0.940643 0.800041 0.913949
Si Si3 0.266211 0.035944 0.467518
Si Si4 0.517966 0.611936 0.249779
Si Si5 0.990453 0.613754 0.771518
Si Si6 0.240671 0.285503 0.510567
Si Si7 0.331537 0.500421 0.080161
Si Si8 0.811570 0.195155 0.106596
O O1 0.725673 0.437979 0.093354
O O2 0.805294 0.341825 0.008744
O O3 0.887180 0.499066 0.510163
O O4 0.891305 0.675439 0.116330
O O5 0.851373 0.738122 0.614759
O O6 0.000634 0.760034 0.899070
O O7 0.000000 0.000000 0.000000
O O8 0.376718 0.205627 0.613029
O O9 0.216695 0.112605 0.427317
O O10 0.242896 0.909516 0.696112
O O11 0.230596 0.934063 0.168479
O O12 0.500000 0.500000 0.500000
O O13 0.500000 0.500000 0.000000
O O14 0.440652 0.630877 0.150858
O O15 0.078533 0.708620 0.699874
O O16 0.000000 0.500000 0.000000
O O17 0.288749 0.342808 0.854218
O O18 0.307024 0.428675 0.354611
#
# Coordination Sequence:
#
# PCOD9056939 Si02
#       8
#     2   2   2   2   2   2   2   2
#     4  11  26  45  66  96 139 186 235 279 352 408
#     4  11  25  41  65 100 137 181 233 293 342 414
#     4  12  25  43  68 105 137 176 233 286 352 412
#     4  12  22  43  72 103 137 174 225 287 359 421
#     4  12  24  45  70  96 138 192 242 275 351 414
#     4  11  22  41  65  99 141 172 221 284 354 396
#     4  11  22  43  70  97 133 179 217 286 347 416
#     4  12  27  42  68  96 142 186 231 287 333 422
#
# _framework density 21.107412
#
# number of rings (size 3 to 8) (size 9 to 14) (size 15 to 20)
#    0.000    0.500    5.000    3.375    3.500    1.500 
#    0.000    1.250    0.000    0.000    0.000    0.000 
#    0.000    0.000    0.000    0.000    0.000    0.000 
#
# Total GULP energy -89457.356634 kJ/mol
# GULP energy per Si atom -5591.084790 kJ/mol
# Density = 2.105937 g / cm^3
# Si number density = 21.107412 Si / 1000 Ang^3
#
#
#
# Elastic Constant Matrix: (Units=GPa)
#
#
# Indices 1 2 3 4 5 6 
#
# 1 142.0923 46.2302 25.3428 4.4295 22.7642 -10.9363
# 2 46.2302 105.0303 24.7710 -2.0783 4.7673 -5.2392
# 3 25.3428 24.7710 74.1115 -0.3056 -0.1340 -0.6260
# 4 4.4295 -2.0783 -0.3056 23.8919 -0.8058 -6.4827
# 5 22.7642 4.7673 -0.1340 -0.8058 38.3301 -0.9254
# 6 -10.9363 -5.2392 -0.6260 -6.4827 -0.9254 46.3012
#
#
#
# Elastic Compliance Matrix: (Units=1/GPa)
#
#
# Indices 1 2 3 4 5 6 
#
# 1 0.009544 -0.003425 -0.002124 -0.001873 -0.005253 0.001471
# 2 -0.003425 0.011718 -0.002730 0.001844 0.000624 0.000751
# 3 -0.002124 -0.002730 0.015131 0.000260 0.001646 -0.000537
# 4 -0.001873 0.001844 0.000260 0.044054 0.001954 0.005977
# 5 -0.005253 0.000624 0.001646 0.001954 0.029171 -0.000291
# 6 0.001471 0.000751 -0.000537 0.005977 -0.000291 0.022854
#
#
# Mechanical properties :
#
#
# Convention : Reuss Voigt Hill
#
# Bulk Modulus (GPa) = 50.41496 57.10245 53.75870
# Shear Modulus (GPa) = 32.12477 36.69731 34.41104
#
# Velocity S-wave (km/s) = 3.90547 4.17417 4.04206
# Velocity P-wave (km/s) = 6.65385 7.09532 6.87813
#
# Compressibility (1/GPa) = 0.01983538
#
# Stress axis : x y z
#
# Youngs Moduli (GPa) = 104.77675 85.33656 66.08751
#
# Poissons Ratio (x) = 0.29231 0.14034
# Poissons Ratio (y) = 0.35890 0.18044
# Poissons Ratio (z) = 0.22250 0.23300
#
# Static dielectric constant tensor:
#      x y z
#    x 1.809780 -0.003660 -0.003500 
#    y -0.003660 1.758660 0.009530 
#    z -0.003500 0.009530 1.819540 
# 
# From -- ./inp_files/80999.got.cif
#   From: 2010.05.17/outbox.cif.g08.bks.cpg/sg2_41_cif.got.tgz:80999.got - 2010.06.03 11:33:40.
