data_PCOD9056071
_publ_section_title
;
Structure prediction by ZEFSAII (Michael W. Deem and Ramdas Pophale) SiO2 
 PCOD9056071
Probable space group: P -1
;
_chemical_formula_sum "Si O2"
_cell_formula_units_Z 16
_cell_length_a 17.915055
_cell_length_b 9.163318
_cell_length_c 7.546124
_cell_angle_alpha 131.419095
_cell_angle_beta 132.958581
_cell_angle_gamma 57.747770
_cell_volume 672.064837
_symmetry_space_group_name_H-M "P -1"
_symmetry_group_IT_number 2
_symmetry_cell_setting 'triclinic'
loop_
_space_group_symop_operation_xyz
x,y,z
-x,-y,-z
loop_
_atom_site_type_symbol
_atom_site_label
_atom_site_fract_x
_atom_site_fract_y
_atom_site_fract_z
Si Si1 0.237631 0.198142 0.499269
Si Si2 0.272719 0.757491 0.187849
Si Si3 0.416087 0.442894 0.955411
Si Si4 0.162537 0.546824 0.127854
Si Si5 0.048547 0.530505 0.414479
Si Si6 0.568769 0.160096 0.184972
Si Si7 0.263390 0.140388 0.927483
Si Si8 0.888756 0.123944 0.391956
O O1 0.342573 0.275735 0.668106
O O2 0.140762 0.350117 0.397563
O O3 0.239059 0.179401 0.705585
O O4 0.230344 0.979881 0.246410
O O5 0.192492 0.643741 0.070219
O O6 0.357273 0.784634 0.497932
O O7 0.333962 0.628494 0.030544
O O8 0.500000 0.500000 0.000000
O O9 0.491112 0.350870 0.158988
O O10 0.150240 0.716085 0.389817
O O11 0.253332 0.363483 0.161468
O O12 0.051752 0.471991 0.874319
O O13 0.095947 0.731475 0.629634
O O14 0.000000 0.500000 0.500000
O O15 0.638704 0.031543 0.047320
O O16 0.500000 0.000000 0.000000
O O17 0.182737 0.040576 0.828910
O O18 0.000000 0.000000 0.500000
#
# Coordination Sequence:
#
# PCOD9056071 Si02
#       8
#     2   2   2   2   2   2   2   2
#     4  11  23  47  64 101 141 175 227 282 335 406
#     4  11  23  45  74  95 134 182 229 278 339 406
#     4  12  26  44  68 103 140 175 225 286 343 400
#     4  12  23  45  72 101 132 183 229 277 334 405
#     4  12  25  44  69 100 144 181 216 276 348 404
#     4  11  21  45  74  94 127 181 227 278 341 398
#     4  11  22  44  70  97 136 172 233 281 326 401
#     4  12  25  45  69 100 137 178 233 282 326 399
#
# _framework density 23.807227000000001
#
# number of rings (size 3 to 8) (size 9 to 14) (size 15 to 20)
#    0.000    0.500    8.750    0.750    1.750    1.000 
#    4.500    0.000    0.000    0.000    0.000    0.000 
#    0.000    0.000    0.000    0.000    0.000    0.000 
#
# Total GULP energy -89425.615413 kJ/mol
# GULP energy per Si atom -5589.100963 kJ/mol
# Density = 2.375304 g / cm^3
# Si number density = 23.807227 Si / 1000 Ang^3
#
#
#
# Elastic Constant Matrix: (Units=GPa)
#
#
# Indices 1 2 3 4 5 6 
#
# 1 162.2837 36.1625 25.5712 22.8922 25.3629 18.9418
# 2 36.1625 124.1469 21.2302 37.7604 5.3851 0.4435
# 3 25.5712 21.2302 57.4725 23.3164 17.5559 8.2913
# 4 22.8922 37.7604 23.3164 46.6599 -3.2255 2.7646
# 5 25.3629 5.3851 17.5559 -3.2255 47.6912 7.9126
# 6 18.9418 0.4435 8.2913 2.7646 7.9126 51.4944
#
#
#
# Elastic Compliance Matrix: (Units=1/GPa)
#
#
# Indices 1 2 3 4 5 6 
#
# 1 0.007685 -0.001166 -0.000488 -0.002713 -0.003621 -0.002036
# 2 -0.001166 0.011043 0.000257 -0.008653 -0.001470 0.000983
# 3 -0.000488 0.000257 0.026478 -0.013796 -0.010153 -0.001785
# 4 -0.002713 -0.008653 -0.013796 0.037371 0.010069 -0.000260
# 5 -0.003621 -0.001470 -0.010153 0.010069 0.027782 -0.001830
# 6 -0.002036 0.000983 -0.001785 -0.000260 -0.001830 0.020743
#
#
# Mechanical properties :
#
#
# Convention : Reuss Voigt Hill
#
# Bulk Modulus (GPa) = 23.57800 56.64789 40.11294
# Shear Modulus (GPa) = 33.77660 46.56506 40.17083
#
# Velocity S-wave (km/s) = 3.77072 4.42738 4.11218
# Velocity P-wave (km/s) = 5.37429 7.06977 6.27952
#
# Compressibility (1/GPa) = 0.04241242
#
# Stress axis : x y z
#
# Youngs Moduli (GPa) = 130.12329 90.55812 37.76754
#
# Poissons Ratio (x) = 0.10555 0.01844
# Poissons Ratio (y) = 0.15167 -0.00972
# Poissons Ratio (z) = 0.06352 -0.02329
#
# Static dielectric constant tensor:
#      x y z
#    x 1.884290 0.045040 -0.017420 
#    y 0.045040 1.859220 -0.054950 
#    z -0.017420 -0.054950 1.979810 
# 
# From -- ./inp_files/329654.got.cif
#   From: 2010.05.17/outbox.cif.g08.bks.cpg/sg2_165_cif.got.tgz:329654.got - 2010.06.03 11:33:40.
