data_PCOD9056443
_publ_section_title
;
Structure prediction by ZEFSAII (Michael W. Deem and Ramdas Pophale) SiO2 
 PCOD9056443
Probable space group: P -1
;
_chemical_formula_sum "Si O2"
_cell_formula_units_Z 12
_cell_length_a 14.275025
_cell_length_b 7.019286
_cell_length_c 11.430335
_cell_angle_alpha 33.767207
_cell_angle_beta 45.836627
_cell_angle_gamma 47.736224
_cell_volume 443.967102
_symmetry_space_group_name_H-M "P -1"
_symmetry_group_IT_number 2
_symmetry_cell_setting 'triclinic'
loop_
_space_group_symop_operation_xyz
x,y,z
-x,-y,-z
loop_
_atom_site_type_symbol
_atom_site_label
_atom_site_fract_x
_atom_site_fract_y
_atom_site_fract_z
Si Si1 0.342594 0.712749 0.029938
Si Si2 0.174242 0.243148 0.511548
Si Si3 0.024387 0.772219 0.975378
Si Si4 0.867699 0.312078 0.439306
Si Si5 0.293922 0.147673 0.088925
Si Si6 0.386128 0.788846 0.704952
O O1 0.233158 0.472426 0.251401
O O2 0.317303 0.903736 0.830693
O O3 0.500000 0.500000 0.000000
O O4 0.320375 0.948581 0.044237
O O5 0.149196 0.472970 0.534281
O O6 0.300778 0.928917 0.594116
O O7 0.051321 0.049126 0.711931
O O8 0.158800 0.463515 0.034230
O O9 0.906845 0.561702 0.176994
O O10 0.000000 0.000000 0.000000
O O11 0.741688 0.126924 0.644553
O O12 0.000000 0.000000 0.500000
O O13 0.406761 0.367019 0.903826
O O14 0.500000 0.000000 0.500000
#
# Coordination Sequence:
#
# PCOD9056443 Si02
#       6
#     2   2   2   2   2   2
#     4  11  22  39  57  82 120 155 193 239 282 338
#     4   9  18  35  56  85 114 149 190 231 285 337
#     4   8  14  30  60  83 110 151 186 231 289 339
#     4   8  14  30  58  83 108 149 187 227 288 340
#     4   9  20  35  58  87 114 153 192 230 293 339
#     4  11  22  39  57  82 118 154 195 241 280 339
#
# _framework density 27.029029999999999
#
# number of rings (size 3 to 8) (size 9 to 14) (size 15 to 20)
#    0.000    2.667    1.667    0.000    0.000    1.333 
#    0.000    0.000    0.000  126.000    0.000    0.000 
#    0.000    0.000    0.000    0.000    0.000    0.000 
#
# Total GULP energy -67051.348034 kJ/mol
# GULP energy per Si atom -5587.612336 kJ/mol
# Density = 2.696751 g / cm^3
# Si number density = 27.029030 Si / 1000 Ang^3
#
#
#
# Elastic Constant Matrix: (Units=GPa)
#
#
# Indices 1 2 3 4 5 6 
#
# 1 75.9663 25.1153 45.7529 0.1535 -0.6715 10.3897
# 2 25.1153 139.4529 27.1603 -9.6154 -17.4961 13.6584
# 3 45.7529 27.1603 338.6445 20.0469 -42.6408 16.6338
# 4 0.1535 -9.6154 20.0469 32.7792 16.2385 -7.1142
# 5 -0.6715 -17.4961 -42.6408 16.2385 31.7165 -15.1485
# 6 10.3897 13.6584 16.6338 -7.1142 -15.1485 41.3598
#
#
#
# Elastic Compliance Matrix: (Units=1/GPa)
#
#
# Indices 1 2 3 4 5 6 
#
# 1 0.016850 -0.002877 -0.003587 0.005852 -0.011450 -0.005027
# 2 -0.002877 0.008255 0.000407 -0.000407 0.005067 -0.000381
# 3 -0.003587 0.000407 0.005555 -0.009472 0.013317 0.001781
# 4 0.005852 -0.000407 -0.009472 0.057057 -0.043849 -0.003772
# 5 -0.011450 0.005067 0.013317 -0.043849 0.083448 0.018869
# 6 -0.005027 -0.000381 0.001781 -0.003772 0.018869 0.031113
#
#
# Mechanical properties :
#
#
# Convention : Reuss Voigt Hill
#
# Bulk Modulus (GPa) = 53.91793 83.34675 68.63234
# Shear Modulus (GPa) = 22.66838 51.57344 37.12091
#
# Velocity S-wave (km/s) = 2.89912 4.37289 3.70992
# Velocity P-wave (km/s) = 5.58551 7.50994 6.61805
#
# Compressibility (1/GPa) = 0.01854671
#
# Stress axis : x y z
#
# Youngs Moduli (GPa) = 59.34823 121.14487 180.01959
#
# Poissons Ratio (x) = 0.34849 0.64574
# Poissons Ratio (y) = 0.17072 -0.07334
# Poissons Ratio (z) = 0.21288 -0.04936
#
# Static dielectric constant tensor:
#      x y z
#    x 2.258350 -0.147850 -0.089920 
#    y -0.147850 2.216480 0.018610 
#    z -0.089920 0.018610 2.227020 
# 
# From -- ./inp_files/164615.got.cif
#   From: 2010.05.17/outbox.cif.g08.bks.cpg/sg2_83_cif.got.tgz:164615.got - 2010.06.03 11:33:40.
