data_PCOD9056909
_publ_section_title
;
Structure prediction by ZEFSAII (Michael W. Deem and Ramdas Pophale) SiO2 
 PCOD9056909
Probable space group: P -1
;
_chemical_formula_sum "Si O2"
_cell_formula_units_Z 14
_cell_length_a 14.562485
_cell_length_b 4.991488
_cell_length_c 10.989888
_cell_angle_alpha 89.898608
_cell_angle_beta 82.808661
_cell_angle_gamma 50.475119
_cell_volume 608.159921
_symmetry_space_group_name_H-M "P -1"
_symmetry_group_IT_number 2
_symmetry_cell_setting 'triclinic'
loop_
_space_group_symop_operation_xyz
x,y,z
-x,-y,-z
loop_
_atom_site_type_symbol
_atom_site_label
_atom_site_fract_x
_atom_site_fract_y
_atom_site_fract_z
Si Si1 0.867951 0.170639 0.904332
Si Si2 0.175784 0.264665 0.939388
Si Si3 0.867521 0.714099 0.332472
Si Si4 0.194797 0.642940 0.506026
Si Si5 0.319581 0.655784 0.258765
Si Si6 0.109660 0.469641 0.305267
Si Si7 0.460375 0.819167 0.926521
O O1 0.873037 0.350695 0.021308
O O2 0.879141 0.849874 0.956275
O O3 0.742526 0.375266 0.847469
O O4 0.930643 0.246709 0.793279
O O5 0.154740 0.214447 0.806263
O O6 0.318436 0.046471 0.932759
O O7 0.787204 0.619441 0.395788
O O8 0.012511 0.410842 0.322920
O O9 0.841797 0.024768 0.415693
O O10 0.292158 0.562349 0.390924
O O11 0.107034 0.643599 0.428990
O O12 0.241811 0.080065 0.273295
O O13 0.460613 0.370441 0.208240
O O14 0.500000 0.500000 0.000000
O O15 0.500000 0.000000 0.000000
#
# Coordination Sequence:
#
# PCOD9056909 Si02
#       7
#     2   2   2   2   2   2   2
#     4  11  22  41  64  97 131 164 215 272 324 384
#     4  12  24  44  63  99 137 169 213 263 338 395
#     4  12  27  42  66  94 137 182 211 265 324 391
#     4  11  25  44  66  94 129 178 230 263 309 383
#     4  11  23  41  70  99 125 165 225 278 312 370
#     4  11  24  42  71  97 130 171 228 270 318 377
#     4  12  23  41  72  96 128 166 217 270 323 392
#
# _framework density 23.02026
#
# number of rings (size 3 to 8) (size 9 to 14) (size 15 to 20)
#    0.000    0.571    5.714    1.714    6.000    1.143 
#    0.000    1.429    0.000    0.000    0.000    0.000 
#    0.000    0.000    0.000    0.000    0.000    0.000 
#
# Total GULP energy -78097.413749 kJ/mol
# GULP energy per Si atom -5578.386696 kJ/mol
# Density = 2.296787 g / cm^3
# Si number density = 23.020260 Si / 1000 Ang^3
#
#
#
# Elastic Constant Matrix: (Units=GPa)
#
#
# Indices 1 2 3 4 5 6 
#
# 1 78.9047 58.3623 25.7906 12.3936 -7.3050 11.0816
# 2 58.3623 126.4866 40.7540 13.4107 -12.4069 29.6893
# 3 25.7906 40.7540 143.1057 0.2681 -15.9399 11.2978
# 4 12.3936 13.4107 0.2681 38.6643 11.5301 -4.9084
# 5 -7.3050 -12.4069 -15.9399 11.5301 36.6385 -2.8684
# 6 11.0816 29.6893 11.2978 -4.9084 -2.8684 40.3844
#
#
#
# Elastic Compliance Matrix: (Units=1/GPa)
#
#
# Indices 1 2 3 4 5 6 
#
# 1 0.019946 -0.008410 -0.001022 -0.003979 0.001987 0.000653
# 2 -0.008410 0.015248 -0.001733 -0.004747 0.003542 -0.008742
# 3 -0.001022 -0.001733 0.007999 0.000022 0.002644 -0.000493
# 4 -0.003979 -0.004747 0.000022 0.033441 -0.012307 0.007766
# 5 0.001987 0.003542 0.002644 -0.012307 0.033678 -0.002993
# 6 0.000653 -0.008742 -0.000493 0.007766 -0.002993 0.031879
#
#
# Mechanical properties :
#
#
# Convention : Reuss Voigt Hill
#
# Bulk Modulus (GPa) = 47.93610 66.47898 57.20754
# Shear Modulus (GPa) = 29.15872 38.04345 33.60108
#
# Velocity S-wave (km/s) = 3.56287 4.06964 3.82466
# Velocity P-wave (km/s) = 6.14769 7.14309 6.66400
#
# Compressibility (1/GPa) = 0.02086110
#
# Stress axis : x y z
#
# Youngs Moduli (GPa) = 50.13641 65.58386 125.01680
#
# Poissons Ratio (x) = 0.55158 0.12780
# Poissons Ratio (y) = 0.42166 0.21665
# Poissons Ratio (z) = 0.05125 0.11366
#
# Static dielectric constant tensor:
#      x y z
#    x 1.787030 0.027870 -0.017460 
#    y 0.027870 1.876930 -0.005570 
#    z -0.017460 -0.005570 1.859320 
# 
# From -- ./inp_files/321694.got.cif
#   From: 2010.05.17/outbox.cif.g08.bks.cpg/sg2_161_cif.got.tgz:321694.got - 2010.06.03 11:33:40.
