data_PCOD9056303
_publ_section_title
;
Structure prediction by ZEFSAII (Michael W. Deem and Ramdas Pophale) SiO2 
 PCOD9056303
Probable space group: P -1
;
_chemical_formula_sum "Si O2"
_cell_formula_units_Z 16
_cell_length_a 8.176250
_cell_length_b 20.466949
_cell_length_c 11.159004
_cell_angle_alpha 40.107944
_cell_angle_beta 136.085425
_cell_angle_gamma 109.180277
_cell_volume 723.673861
_symmetry_space_group_name_H-M "P -1"
_symmetry_group_IT_number 2
_symmetry_cell_setting 'triclinic'
loop_
_space_group_symop_operation_xyz
x,y,z
-x,-y,-z
loop_
_atom_site_type_symbol
_atom_site_label
_atom_site_fract_x
_atom_site_fract_y
_atom_site_fract_z
Si Si1 0.369892 0.937055 0.172517
Si Si2 0.839208 0.543795 0.478900
Si Si3 0.703400 0.218595 0.106219
Si Si4 0.290129 0.658185 0.285007
Si Si5 0.861654 0.823500 0.411037
Si Si6 0.914278 0.583675 0.720703
Si Si7 0.047849 0.132292 0.027901
Si Si8 0.620591 0.019403 0.369920
O O1 0.557395 0.928447 0.395294
O O2 0.582269 0.867055 0.276871
O O3 0.214805 0.075538 0.867789
O O4 0.148517 0.895431 0.117818
O O5 0.705265 0.462755 0.542716
O O6 0.004829 0.529506 0.710540
O O7 0.000000 0.500000 0.500000
O O8 0.593959 0.677443 0.158019
O O9 0.686751 0.106496 0.207718
O O10 0.908807 0.178110 0.381272
O O11 0.819036 0.271283 0.994952
O O12 0.590527 0.638685 0.473814
O O13 0.118970 0.737030 0.194547
O O14 0.968273 0.691636 0.610191
O O15 0.000000 0.500000 0.000000
O O16 0.331111 0.104266 0.159548
O O17 0.147705 0.046569 0.316404
#
# Coordination Sequence:
#
# PCOD9056303 Si02
#       8
#     2   2   2   2   2   2   2   2
#     4  11  22  39  61  94 129 165 218 261 324 384
#     4  11  24  43  66  93 130 172 217 271 336 397
#     4  11  22  41  66  94 126 170 222 265 329 391
#     4  11  22  40  65  90 123 169 218 266 320 390
#     4  11  22  37  64  95 124 163 217 274 314 383
#     4  11  22  41  65  95 127 165 221 274 324 385
#     4  11  23  42  60  93 130 169 216 260 332 390
#     4  11  24  39  64  91 133 173 205 271 327 392
#
# _framework density 22.109404999999999
#
# number of rings (size 3 to 8) (size 9 to 14) (size 15 to 20)
#    0.000    1.000    2.500    6.375    1.750    1.000 
#    0.000    3.750    0.000    0.000    0.000    0.000 
#    0.000    0.000    0.000    0.000    0.000    0.000 
#
# Total GULP energy -89399.150946 kJ/mol
# GULP energy per Si atom -5587.446934 kJ/mol
# Density = 2.205908 g / cm^3
# Si number density = 22.109405 Si / 1000 Ang^3
#
#
#
# Elastic Constant Matrix: (Units=GPa)
#
#
# Indices 1 2 3 4 5 6 
#
# 1 63.2444 7.7991 11.7370 -6.3252 1.9748 -16.6843
# 2 7.7991 123.6862 23.5014 -2.8338 -4.9820 2.4566
# 3 11.7370 23.5014 75.3866 8.0154 -1.0256 -5.6133
# 4 -6.3252 -2.8338 8.0154 36.1141 -1.9728 -2.5336
# 5 1.9748 -4.9820 -1.0256 -1.9728 25.8818 -4.6138
# 6 -16.6843 2.4566 -5.6133 -2.5336 -4.6138 38.8340
#
#
#
# Elastic Compliance Matrix: (Units=1/GPa)
#
#
# Indices 1 2 3 4 5 6 
#
# 1 0.018965 -0.000763 -0.002578 0.004408 0.000088 0.008122
# 2 -0.000763 0.008775 -0.002798 0.001188 0.001544 -0.001026
# 3 -0.002578 -0.002798 0.015033 -0.003930 0.000133 0.001002
# 4 0.004408 0.001188 -0.003930 0.029818 0.002635 0.003509
# 5 0.000088 0.001544 0.000133 0.002635 0.040004 0.004884
# 6 0.008122 -0.001026 0.001002 0.003509 0.004884 0.030259
#
#
# Mechanical properties :
#
#
# Convention : Reuss Voigt Hill
#
# Bulk Modulus (GPa) = 32.79278 38.71025 35.75151
# Shear Modulus (GPa) = 30.24878 34.78464 32.51671
#
# Velocity S-wave (km/s) = 3.70285 3.97078 3.83916
# Velocity P-wave (km/s) = 5.75723 6.21042 5.98812
#
# Compressibility (1/GPa) = 0.03049452
#
# Stress axis : x y z
#
# Youngs Moduli (GPa) = 52.72934 113.96519 66.52063
#
# Poissons Ratio (x) = 0.08694 0.17146
# Poissons Ratio (y) = 0.04022 0.18615
# Poissons Ratio (z) = 0.13592 0.31893
#
# Static dielectric constant tensor:
#      x y z
#    x 1.878110 -0.057110 -0.065560 
#    y -0.057110 1.831920 0.019600 
#    z -0.065560 0.019600 1.872100 
# 
# From -- ./inp_files/261037.got.cif
#   From: 2010.05.17/outbox.cif.g08.bks.cpg/sg2_131_cif.got.tgz:261037.got - 2010.06.03 11:33:40.
