data_PCOD9056201
_publ_section_title
;
Structure prediction by ZEFSAII (Michael W. Deem and Ramdas Pophale) SiO2 
 PCOD9056201
Probable space group: P -1
;
_chemical_formula_sum "Si O2"
_cell_formula_units_Z 16
_cell_length_a 11.934837
_cell_length_b 9.752181
_cell_length_c 16.675572
_cell_angle_alpha 137.146502
_cell_angle_beta 37.826782
_cell_angle_gamma 115.799492
_cell_volume 759.901477
_symmetry_space_group_name_H-M "P -1"
_symmetry_group_IT_number 2
_symmetry_cell_setting 'triclinic'
loop_
_space_group_symop_operation_xyz
x,y,z
-x,-y,-z
loop_
_atom_site_type_symbol
_atom_site_label
_atom_site_fract_x
_atom_site_fract_y
_atom_site_fract_z
Si Si1 0.314118 0.196131 0.790758
Si Si2 0.766412 0.040060 0.418391
Si Si3 0.782368 0.494146 0.566040
Si Si4 0.854528 0.503394 0.707111
Si Si5 0.864621 0.294402 0.869037
Si Si6 0.624907 0.903914 0.109202
Si Si7 0.220825 0.843637 0.310364
Si Si8 0.405313 0.860370 0.935382
O O1 0.544082 0.142957 0.619601
O O2 0.306311 0.088771 0.835812
O O3 0.236934 0.088404 0.716391
O O4 0.194164 0.452558 0.970919
O O5 0.831998 0.241569 0.443227
O O6 0.908856 0.860368 0.320683
O O7 0.809289 0.586910 0.678067
O O8 0.560089 0.623658 0.730729
O O9 0.913990 0.552819 0.449722
O O10 0.776863 0.309591 0.682108
O O11 0.748771 0.669019 0.905423
O O12 0.763619 0.281962 0.836029
O O13 0.769359 0.175752 0.934538
O O14 0.396569 0.931845 0.252454
O O15 0.651080 0.043730 0.079962
O O16 0.000000 0.000000 0.500000
O O17 0.500000 0.000000 0.000000
#
# Coordination Sequence:
#
# PCOD9056201 Si02
#       8
#     2   2   2   2   2   2   2   2
#     4  11  25  47  69  93 133 176 225 274 317 385
#     4  11  25  45  70  95 128 180 227 267 321 388
#     4  11  22  40  61  93 136 169 215 267 331 392
#     4  11  22  35  61  92 130 168 205 270 335 386
#     4  12  23  43  70  97 131 173 221 267 330 393
#     4  12  23  40  63  97 132 167 215 268 328 393
#     4  12  23  35  62  99 132 164 211 272 335 391
#     4  12  23  39  63  99 133 173 205 264 340 398
#
# _framework density 21.055361000000001
#
# number of rings (size 3 to 8) (size 9 to 14) (size 15 to 20)
#    0.000    0.500    5.000    4.500    1.750    0.000 
#    0.000    3.125    0.000    0.000    0.000    0.000 
#    0.000    0.000    0.000    0.000    0.000    0.000 
#
# Total GULP energy -89300.873296 kJ/mol
# GULP energy per Si atom -5581.304581 kJ/mol
# Density = 2.100744 g / cm^3
# Si number density = 21.055361 Si / 1000 Ang^3
#
#
#
# Elastic Constant Matrix: (Units=GPa)
#
#
# Indices 1 2 3 4 5 6 
#
# 1 70.0511 11.7319 0.9934 5.6101 15.2548 -14.4365
# 2 11.7319 79.8803 14.9493 -12.1714 10.4423 -22.0329
# 3 0.9934 14.9493 68.9347 5.3753 -5.6218 -5.4281
# 4 5.6101 -12.1714 5.3753 37.3718 0.2400 -0.1485
# 5 15.2548 10.4423 -5.6218 0.2400 33.8420 -0.7384
# 6 -14.4365 -22.0329 -5.4281 -0.1485 -0.7384 30.2320
#
#
#
# Elastic Compliance Matrix: (Units=1/GPa)
#
#
# Indices 1 2 3 4 5 6 
#
# 1 0.017932 0.000464 -0.000143 -0.002434 -0.008044 0.008668
# 2 0.000464 0.018639 -0.004072 0.006679 -0.006402 0.012951
# 3 -0.000143 -0.004072 0.015994 -0.003631 0.004002 -0.000084
# 4 -0.002434 0.006679 -0.003631 0.029845 -0.001710 0.003158
# 5 -0.008044 -0.006402 0.004002 -0.001710 0.035676 -0.006925
# 6 0.008668 0.012951 -0.000084 0.003158 -0.006925 0.046487
#
#
# Mechanical properties :
#
#
# Convention : Reuss Voigt Hill
#
# Bulk Modulus (GPa) = 22.18985 30.46837 26.32911
# Shear Modulus (GPa) = 26.72416 33.03528 29.87972
#
# Velocity S-wave (km/s) = 3.56649 3.96532 3.77118
# Velocity P-wave (km/s) = 5.24610 5.95542 5.61198
#
# Compressibility (1/GPa) = 0.04506564
#
# Stress axis : x y z
#
# Youngs Moduli (GPa) = 55.76482 53.64955 62.52163
#
# Poissons Ratio (x) = -0.02491 0.00893
# Poissons Ratio (y) = -0.02590 0.25459
# Poissons Ratio (z) = 0.00796 0.21846
#
# Static dielectric constant tensor:
#      x y z
#    x 1.825740 0.031450 -0.026240 
#    y 0.031450 1.810870 0.015130 
#    z -0.026240 0.015130 1.810400 
# 
# From -- ./inp_files/181667.got.cif
#   From: 2010.05.17/outbox.cif.g08.bks.cpg/sg2_91_cif.got.tgz:181667.got - 2010.06.03 11:33:40.
