data_PCOD9056414
_publ_section_title
;
Structure prediction by ZEFSAII (Michael W. Deem and Ramdas Pophale) SiO2 
 PCOD9056414
Probable space group: P -1
;
_chemical_formula_sum "Si O2"
_cell_formula_units_Z 16
_cell_length_a 17.274289
_cell_length_b 20.136815
_cell_length_c 11.617946
_cell_angle_alpha 37.568067
_cell_angle_beta 30.098503
_cell_angle_gamma 19.869780
_cell_volume 683.565674
_symmetry_space_group_name_H-M "P -1"
_symmetry_group_IT_number 2
_symmetry_cell_setting 'triclinic'
loop_
_space_group_symop_operation_xyz
x,y,z
-x,-y,-z
loop_
_atom_site_type_symbol
_atom_site_label
_atom_site_fract_x
_atom_site_fract_y
_atom_site_fract_z
Si Si1 0.229676 0.182574 0.810762
Si Si2 0.326493 0.405389 0.100911
Si Si3 0.342898 0.474512 0.247196
Si Si4 0.347704 0.694779 0.377939
Si Si5 0.696802 0.052013 0.782517
Si Si6 0.841505 0.899113 0.377038
Si Si7 0.710371 0.120750 0.437676
Si Si8 0.154311 0.029705 0.967841
O O1 0.971240 0.418728 0.823119
O O2 0.515253 0.065410 0.561759
O O3 0.107035 0.174336 0.883027
O O4 0.315683 0.052525 0.985073
O O5 0.320467 0.435624 0.202652
O O6 0.518406 0.185948 0.142768
O O7 0.526212 0.371931 0.820997
O O8 0.503577 0.303292 0.365577
O O9 0.038640 0.680744 0.405144
O O10 0.500000 0.500000 0.000000
O O11 0.500000 0.500000 0.500000
O O12 0.396777 0.785623 0.248380
O O13 0.023521 0.865314 0.585182
O O14 0.562450 0.147702 0.697474
O O15 0.880982 0.933750 0.399760
O O16 0.910380 0.937058 0.129267
O O17 0.936883 0.078063 0.243543
#
# Coordination Sequence:
#
# PCOD9056414 Si02
#       8
#     2   2   2   2   2   2   2   2
#     4  12  26  45  66 102 139 180 222 272 342 407
#     4  12  23  39  72 101 132 172 225 282 340 392
#     4  12  25  41  69 102 132 175 227 278 339 401
#     4  11  22  38  68 105 129 172 229 286 328 382
#     4  11  24  42  66  97 140 176 222 278 330 397
#     4  12  27  44  67  99 144 179 216 278 344 405
#     4  12  25  44  69  99 135 178 228 278 330 396
#     4  12  22  43  70 100 136 169 225 289 331 385
#
# _framework density 23.406676000000001
#
# number of rings (size 3 to 8) (size 9 to 14) (size 15 to 20)
#    0.000    0.250    7.500    2.250    1.750    2.000 
#    0.000    0.625    0.000    0.000    0.000    0.000 
#    0.000    0.000    0.000    0.000    0.000    0.000 
#
# Total GULP energy -89371.297822 kJ/mol
# GULP energy per Si atom -5585.706114 kJ/mol
# Density = 2.335340 g / cm^3
# Si number density = 23.406676 Si / 1000 Ang^3
#
#
#
# Elastic Constant Matrix: (Units=GPa)
#
#
# Indices 1 2 3 4 5 6 
#
# 1 62.4685 19.2683 16.4507 -9.1160 25.1651 -7.2943
# 2 19.2683 162.3485 31.9025 5.8465 24.9147 -19.5069
# 3 16.4507 31.9025 57.1702 0.1404 16.6889 -17.9422
# 4 -9.1160 5.8465 0.1404 38.8390 -14.4659 8.5964
# 5 25.1651 24.9147 16.6889 -14.4659 40.0216 -7.6607
# 6 -7.2943 -19.5069 -17.9422 8.5964 -7.6607 30.0180
#
#
#
# Elastic Compliance Matrix: (Units=1/GPa)
#
#
# Indices 1 2 3 4 5 6 
#
# 1 0.021787 -0.000180 -0.002433 0.000462 -0.012320 0.000446
# 2 -0.000180 0.007848 -0.001715 -0.003835 -0.004691 0.003933
# 3 -0.002433 -0.001715 0.025660 -0.006287 -0.007802 0.013441
# 4 0.000462 -0.003835 -0.006287 0.034731 0.014922 -0.012275
# 5 -0.012320 -0.004691 -0.007802 0.014922 0.043562 -0.003862
# 6 0.000446 0.003933 0.013441 -0.012275 -0.003862 0.046541
#
#
# Mechanical properties :
#
#
# Convention : Reuss Voigt Hill
#
# Bulk Modulus (GPa) = 21.44113 46.35893 33.90003
# Shear Modulus (GPa) = 24.47004 36.06678 30.26841
#
# Velocity S-wave (km/s) = 3.23682 3.92966 3.59994
# Velocity P-wave (km/s) = 4.81139 6.35912 5.63861
#
# Compressibility (1/GPa) = 0.04663934
#
# Stress axis : x y z
#
# Youngs Moduli (GPa) = 45.89873 127.41319 38.97120
#
# Poissons Ratio (x) = 0.02292 0.09483
# Poissons Ratio (y) = 0.00826 0.06683
# Poissons Ratio (z) = 0.11169 0.21849
#
# Static dielectric constant tensor:
#      x y z
#    x 1.939060 -0.064960 0.015150 
#    y -0.064960 1.925440 -0.044610 
#    z 0.015150 -0.044610 1.870860 
# 
# From -- ./inp_files/455397.got.cif
#   From: 2010.05.17/outbox.cif.g08.bks.cpg/sg2_228_cif.got.tgz:455397.got - 2010.06.03 11:33:40.
