data_PCOD9056745
_publ_section_title
;
Structure prediction by ZEFSAII (Michael W. Deem and Ramdas Pophale) SiO2 
 PCOD9056745
Probable space group: P -1
;
_chemical_formula_sum "Si O2"
_cell_formula_units_Z 16
_cell_length_a 9.806782
_cell_length_b 5.280400
_cell_length_c 20.296143
_cell_angle_alpha 114.467351
_cell_angle_beta 137.073996
_cell_angle_gamma 71.908164
_cell_volume 651.468900
_symmetry_space_group_name_H-M "P -1"
_symmetry_group_IT_number 2
_symmetry_cell_setting 'triclinic'
loop_
_space_group_symop_operation_xyz
x,y,z
-x,-y,-z
loop_
_atom_site_type_symbol
_atom_site_label
_atom_site_fract_x
_atom_site_fract_y
_atom_site_fract_z
Si Si1 0.191922 0.418245 0.197595
Si Si2 0.011617 0.722107 0.661366
Si Si3 0.927868 0.887269 0.159320
Si Si4 0.872003 0.096111 0.529822
Si Si5 0.595920 0.574063 0.207184
Si Si6 0.439594 0.223207 0.913821
Si Si7 0.778676 0.805873 0.959694
Si Si8 0.454968 0.954614 0.310298
O O1 0.146675 0.274784 0.095240
O O2 0.333788 0.687991 0.265233
O O3 0.994379 0.575136 0.170897
O O4 0.308583 0.202131 0.261547
O O5 0.249499 0.648117 0.731482
O O6 0.910767 0.421148 0.590909
O O7 0.971027 0.889216 0.733106
O O8 0.941590 0.908374 0.595563
O O9 0.695020 0.940090 0.099756
O O10 0.935585 0.865764 0.080093
O O11 0.635479 0.050693 0.430160
O O12 0.000000 0.000000 0.500000
O O13 0.688851 0.684674 0.184814
O O14 0.379253 0.436963 0.104161
O O15 0.563705 0.832404 0.271021
O O16 0.630829 0.068163 0.935547
O O17 0.500000 0.500000 0.000000
#
# Coordination Sequence:
#
# PCOD9056745 Si02
#       8
#     2   2   2   2   2   2   2   2
#     4  11  27  48  73 104 145 201 236 282 347 442
#     4  12  26  42  71 110 143 176 233 303 363 419
#     4  12  26  46  68 109 149 191 238 288 357 425
#     4  12  26  45  74 110 137 180 240 308 367 417
#     4  11  22  40  68 106 140 181 230 293 357 411
#     4  12  22  39  68 102 144 185 235 295 352 406
#     4  11  23  44  67 103 144 191 239 283 345 423
#     4  11  25  47  74 100 142 182 246 295 353 421
#
# _framework density 24.559881000000001
#
# number of rings (size 3 to 8) (size 9 to 14) (size 15 to 20)
#    0.000    0.500    5.000    3.375    3.500    3.000 
#    0.000    6.250    0.000    0.000    0.000    0.000 
#    0.000    0.000    0.000    0.000    0.000    0.000 
#
# Total GULP energy -89587.147147 kJ/mol
# GULP energy per Si atom -5599.196697 kJ/mol
# Density = 2.450398 g / cm^3
# Si number density = 24.559881 Si / 1000 Ang^3
#
#
#
# Elastic Constant Matrix: (Units=GPa)
#
#
# Indices 1 2 3 4 5 6 
#
# 1 85.9392 44.5462 42.8534 -3.1964 -10.2578 -7.0139
# 2 44.5462 191.4584 89.5993 -2.0324 -16.3401 -8.3358
# 3 42.8534 89.5993 172.8701 -0.5040 -1.3047 3.2032
# 4 -3.1964 -2.0324 -0.5040 55.7843 1.5445 -4.2168
# 5 -10.2578 -16.3401 -1.3047 1.5445 30.8145 4.1137
# 6 -7.0139 -8.3358 3.2032 -4.2168 4.1137 46.1075
#
#
#
# Elastic Compliance Matrix: (Units=1/GPa)
#
#
# Indices 1 2 3 4 5 6 
#
# 1 0.014471 -0.001713 -0.002704 0.000784 0.003509 0.001838
# 2 -0.001713 0.007576 -0.003498 0.000141 0.003147 0.001084
# 3 -0.002704 -0.003498 0.008277 -0.000256 -0.002199 -0.001446
# 4 0.000784 0.000141 -0.000256 0.018140 -0.000837 0.001896
# 5 0.003509 0.003147 -0.002199 -0.000837 0.035504 -0.001989
# 6 0.001838 0.001084 -0.001446 0.001896 -0.001989 0.022615
#
#
# Mechanical properties :
#
#
# Convention : Reuss Voigt Hill
#
# Bulk Modulus (GPa) = 68.99905 89.36283 79.18094
# Shear Modulus (GPa) = 39.29391 44.75919 42.02655
#
# Velocity S-wave (km/s) = 4.00424 4.27365 4.14114
# Velocity P-wave (km/s) = 7.03803 7.79851 7.42801
#
# Compressibility (1/GPa) = 0.01449295
#
# Stress axis : x y z
#
# Youngs Moduli (GPa) = 69.10413 131.99705 120.80950
#
# Poissons Ratio (x) = 0.22617 0.32672
# Poissons Ratio (y) = 0.11840 0.42257
# Poissons Ratio (z) = 0.18689 0.46170
#
# Static dielectric constant tensor:
#      x y z
#    x 2.020680 0.023850 0.039140 
#    y 0.023850 1.950170 -0.019900 
#    z 0.039140 -0.019900 1.961600 
# 
# From -- ./inp_files/366901.got.cif
#   From: 2010.05.17/outbox.cif.g08.bks.cpg/sg2_184_cif.got.tgz:366901.got - 2010.06.03 11:33:40.
