data_PCOD9056784
_publ_section_title
;
Structure prediction by ZEFSAII (Michael W. Deem and Ramdas Pophale) SiO2 
 PCOD9056784
Probable space group: P -1
;
_chemical_formula_sum "Si O2"
_cell_formula_units_Z 14
_cell_length_a 12.571532
_cell_length_b 9.550483
_cell_length_c 9.870950
_cell_angle_alpha 43.208441
_cell_angle_beta 63.743403
_cell_angle_gamma 62.172881
_cell_volume 707.298162
_symmetry_space_group_name_H-M "P -1"
_symmetry_group_IT_number 2
_symmetry_cell_setting 'triclinic'
loop_
_space_group_symop_operation_xyz
x,y,z
-x,-y,-z
loop_
_atom_site_type_symbol
_atom_site_label
_atom_site_fract_x
_atom_site_fract_y
_atom_site_fract_z
Si Si1 0.462390 0.416166 0.939915
Si Si2 0.193512 0.392126 0.158116
Si Si3 0.392184 0.880069 0.134030
Si Si4 0.192772 0.295700 0.923967
Si Si5 0.970990 0.182578 0.998562
Si Si6 0.103454 0.994375 0.557159
Si Si7 0.661598 0.362961 0.407676
O O1 0.576166 0.248234 0.931920
O O2 0.419535 0.576781 0.724634
O O3 0.500000 0.500000 0.000000
O O4 0.340029 0.334230 0.098308
O O5 0.143143 0.214042 0.386481
O O6 0.146423 0.393561 0.027698
O O7 0.144747 0.619367 0.093376
O O8 0.396503 0.725926 0.368202
O O9 0.500000 0.000000 0.000000
O O10 0.266852 0.056202 0.076757
O O11 0.286251 0.433853 0.726432
O O12 0.084781 0.288222 0.887800
O O13 0.946534 0.069663 0.229453
O O14 0.000000 0.000000 0.000000
O O15 0.222028 0.818365 0.572191
O O16 0.000000 0.000000 0.500000
#
# Coordination Sequence:
#
# PCOD9056784 Si02
#       7
#     2   2   2   2   2   2   2
#     4  11  25  43  66  94 138 172 211 277 328 384
#     4  11  22  44  67  93 130 172 221 260 327 388
#     4  12  22  42  69  98 129 168 231 263 312 396
#     4  11  22  40  69  94 127 173 222 267 320 392
#     4  12  26  42  64  98 134 167 214 275 331 385
#     4  12  21  40  72  96 127 172 220 265 324 396
#     4  11  22  41  70  98 125 177 223 265 325 386
#
# _framework density 19.793633
#
# number of rings (size 3 to 8) (size 9 to 14) (size 15 to 20)
#    0.000    0.571    8.571    1.714    2.000    0.571 
#    2.571    2.857    0.000    0.000    0.000    0.000 
#    0.000    0.000    0.000    0.000    0.000    0.000 
#
# Total GULP energy -78210.625306 kJ/mol
# GULP energy per Si atom -5586.473236 kJ/mol
# Density = 1.974858 g / cm^3
# Si number density = 19.793633 Si / 1000 Ang^3
#
#
#
# Elastic Constant Matrix: (Units=GPa)
#
#
# Indices 1 2 3 4 5 6 
#
# 1 59.9527 22.8540 25.7886 9.4044 -5.7789 11.9687
# 2 22.8540 141.2509 36.2886 10.0987 5.0387 9.2392
# 3 25.7886 36.2886 141.4234 -5.8632 -16.4158 13.5294
# 4 9.4044 10.0987 -5.8632 30.8250 0.4092 5.1809
# 5 -5.7789 5.0387 -16.4158 0.4092 14.6667 -1.8397
# 6 11.9687 9.2392 13.5294 5.1809 -1.8397 33.7555
#
#
#
# Elastic Compliance Matrix: (Units=1/GPa)
#
#
# Indices 1 2 3 4 5 6 
#
# 1 0.020909 -0.002320 -0.002288 -0.005342 0.006033 -0.004713
# 2 -0.002320 0.008575 -0.002620 -0.002431 -0.006784 -0.000471
# 3 -0.002288 -0.002620 0.009761 0.003672 0.010524 -0.002374
# 4 -0.005342 -0.002431 0.003672 0.036291 0.001274 -0.004413
# 5 0.006033 -0.006784 0.010524 0.001274 0.084622 -0.000084
# 6 -0.004713 -0.000471 -0.002374 -0.004413 -0.000084 0.033049
#
#
# Mechanical properties :
#
#
# Convention : Reuss Voigt Hill
#
# Bulk Modulus (GPa) = 40.34152 56.94326 48.64239
# Shear Modulus (GPa) = 23.15606 33.02917 28.09262
#
# Velocity S-wave (km/s) = 3.42405 4.08938 3.77141
# Velocity P-wave (km/s) = 6.00479 7.15040 6.60249
#
# Compressibility (1/GPa) = 0.02478836
#
# Stress axis : x y z
#
# Youngs Moduli (GPa) = 47.82705 116.62128 102.44366
#
# Poissons Ratio (x) = 0.27059 0.23436
# Poissons Ratio (y) = 0.11097 0.26844
# Poissons Ratio (z) = 0.10941 0.30559
#
# Static dielectric constant tensor:
#      x y z
#    x 1.711260 -0.030620 -0.014330 
#    y -0.030620 1.741330 -0.021450 
#    z -0.014330 -0.021450 1.696720 
# 
# From -- ./inp_files/177011.got.cif
#   From: 2010.05.17/outbox.cif.g08.bks.cpg/sg2_89_cif.got.tgz:177011.got - 2010.06.03 11:33:40.
