data_PCOD9056377
_publ_section_title
;
Structure prediction by ZEFSAII (Michael W. Deem and Ramdas Pophale) SiO2 
 PCOD9056377
Probable space group: P -1
;
_chemical_formula_sum "Si O2"
_cell_formula_units_Z 14
_cell_length_a 5.415472
_cell_length_b 13.562407
_cell_length_c 10.920719
_cell_angle_alpha 129.639633
_cell_angle_beta 88.569253
_cell_angle_gamma 108.707932
_cell_volume 567.011196
_symmetry_space_group_name_H-M "P -1"
_symmetry_group_IT_number 2
_symmetry_cell_setting 'triclinic'
loop_
_space_group_symop_operation_xyz
x,y,z
-x,-y,-z
loop_
_atom_site_type_symbol
_atom_site_label
_atom_site_fract_x
_atom_site_fract_y
_atom_site_fract_z
Si Si1 0.230993 0.317185 0.871198
Si Si2 0.908520 0.651592 0.372464
Si Si3 0.618628 0.165273 0.098103
Si Si4 0.965554 0.008167 0.734048
Si Si5 0.855187 0.792126 0.738188
Si Si6 0.394139 0.900772 0.538491
Si Si7 0.236979 0.636270 0.958559
O O1 0.223265 0.314221 0.721857
O O2 0.086792 0.163121 0.807852
O O3 0.529930 0.372335 0.964446
O O4 0.031067 0.383739 0.979603
O O5 0.831989 0.702397 0.542660
O O6 0.830846 0.487180 0.236839
O O7 0.228128 0.735094 0.405845
O O8 0.426246 0.231712 0.215249
O O9 0.645925 0.214477 0.995147
O O10 0.921456 0.228149 0.196818
O O11 0.500000 0.000000 0.000000
O O12 0.974823 0.957646 0.831003
O O13 0.652407 0.937752 0.648541
O O14 0.153917 0.942861 0.616575
O O15 0.500000 0.000000 0.500000
#
# Coordination Sequence:
#
# PCOD9056377 Si02
#       7
#     2   2   2   2   2   2   2
#     4  12  25  45  71 102 146 188 236 282 356 426
#     4  11  27  45  71 107 149 180 236 286 360 431
#     4  12  25  49  73 101 138 181 248 287 344 416
#     4  11  22  40  66 103 133 175 229 283 350 406
#     4  11  25  43  74 105 134 185 230 302 348 399
#     4  11  22  38  64  97 137 178 215 283 345 408
#     4  12  28  46  70 101 143 200 230 289 349 416
#
# _framework density 24.690871000000001
#
# number of rings (size 3 to 8) (size 9 to 14) (size 15 to 20)
#    0.000    0.571    1.429    6.857    2.000    5.714 
#    0.000    0.000    0.000    0.000    0.000    0.000 
#    0.000    0.000    0.000    0.000    0.000    0.000 
#
# Total GULP energy -78325.903842 kJ/mol
# GULP energy per Si atom -5594.707417 kJ/mol
# Density = 2.463467 g / cm^3
# Si number density = 24.690871 Si / 1000 Ang^3
#
#
#
# Elastic Constant Matrix: (Units=GPa)
#
#
# Indices 1 2 3 4 5 6 
#
# 1 169.7159 46.3284 104.5770 4.3283 -5.4681 -12.7400
# 2 46.3284 93.3447 13.7890 -8.6349 10.5977 -3.8526
# 3 104.5770 13.7890 98.9733 -20.0318 5.5002 -3.7082
# 4 4.3283 -8.6349 -20.0318 40.8416 9.7912 7.6450
# 5 -5.4681 10.5977 5.5002 9.7912 39.6053 -7.6480
# 6 -12.7400 -3.8526 -3.7082 7.6450 -7.6480 40.1462
#
#
#
# Elastic Compliance Matrix: (Units=1/GPa)
#
#
# Indices 1 2 3 4 5 6 
#
# 1 0.614285 -0.299165 -0.761240 -0.682021 0.501229 0.321278
# 2 -0.299165 0.157222 0.369934 0.335147 -0.247867 -0.156722
# 3 -0.761240 0.369934 0.955021 0.851651 -0.624305 -0.398972
# 4 -0.682021 0.335147 0.851651 0.789568 -0.567622 -0.364098
# 5 0.501229 -0.247867 -0.624305 -0.567622 0.439844 0.269493
# 6 0.321278 -0.156722 -0.398972 -0.364098 0.269493 0.195647
#
#
# Mechanical properties :
#
#
# Convention : Reuss Voigt Hill
#
# Bulk Modulus (GPa) = 2.89364 76.82476 39.85920
# Shear Modulus (GPa) = 1.07580 37.27458 19.17519
#
# Velocity S-wave (km/s) = 0.66080 3.88964 2.78980
# Velocity P-wave (km/s) = 1.32540 7.16621 5.15321
#
# Compressibility (1/GPa) = 0.34558588
#
# Stress axis : x y z
#
# Youngs Moduli (GPa) = 1.62791 6.36043 1.04710
#
# Poissons Ratio (x) = 1.90282 0.79709
# Poissons Ratio (y) = 0.48701 -0.38736
# Poissons Ratio (z) = 1.23923 -2.35294
#
# Static dielectric constant tensor:
#      x y z
#    x 1.883290 0.028090 0.023870 
#    y 0.028090 2.017710 0.060670 
#    z 0.023870 0.060670 2.042020 
# 
# From -- ./inp_files/368085.got.cif
#   From: 2010.05.17/outbox.cif.g08.bks.cpg/sg2_185_cif.got.tgz:368085.got - 2010.06.03 11:33:40.
