data_PCOD9056861
_publ_section_title
;
Structure prediction by ZEFSAII (Michael W. Deem and Ramdas Pophale) SiO2 
 PCOD9056861
Probable space group: P -1
;
_chemical_formula_sum "Si O2"
_cell_formula_units_Z 16
_cell_length_a 10.590676
_cell_length_b 9.664778
_cell_length_c 15.664083
_cell_angle_alpha 142.051148
_cell_angle_beta 79.385500
_cell_angle_gamma 120.675609
_cell_volume 772.548399
_symmetry_space_group_name_H-M "P -1"
_symmetry_group_IT_number 2
_symmetry_cell_setting 'triclinic'
loop_
_space_group_symop_operation_xyz
x,y,z
-x,-y,-z
loop_
_atom_site_type_symbol
_atom_site_label
_atom_site_fract_x
_atom_site_fract_y
_atom_site_fract_z
Si Si1 0.366329 0.531526 0.320542
Si Si2 0.753508 0.832286 0.201192
Si Si3 0.509060 0.093893 0.678409
Si Si4 0.911428 0.377220 0.038815
Si Si5 0.111066 0.219638 0.666277
Si Si6 0.598872 0.193253 0.894759
Si Si7 0.544069 0.246567 0.180626
Si Si8 0.987936 0.959717 0.879450
O O1 0.411711 0.658296 0.280826
O O2 0.426254 0.339719 0.236047
O O3 0.174751 0.352329 0.270390
O O4 0.459374 0.807444 0.502558
O O5 0.647698 0.942262 0.282535
O O6 0.858071 0.888159 0.301569
O O7 0.624535 0.487919 0.044628
O O8 0.863766 0.951815 0.159404
O O9 0.625139 0.175640 0.783729
O O10 0.961736 0.619402 0.216812
O O11 0.730021 0.230762 0.960814
O O12 0.000000 0.500000 0.000000
O O13 0.945671 0.167413 0.961212
O O14 0.285318 0.463981 0.724801
O O15 0.000000 0.000000 0.500000
O O16 0.447434 0.886283 0.796461
O O17 0.500000 0.000000 0.000000
O O18 0.000000 0.000000 0.000000
#
# Coordination Sequence:
#
# PCOD9056861 Si02
#       8
#     2   2   2   2   2   2   2   2
#     4  11  25  43  65  99 140 177 232 286 342 415
#     4  11  23  45  68 100 141 181 233 284 344 426
#     4  11  25  44  65  96 138 185 225 284 352 409
#     4  11  22  43  65  97 134 174 230 285 337 418
#     4  11  24  40  69 103 138 183 224 289 357 405
#     4  11  22  40  73  93 126 180 231 282 335 408
#     4  12  21  43  70  97 132 174 236 287 329 409
#     4  12  25  43  70 102 134 183 233 287 346 417
#
# _framework density 20.710675999999999
#
# number of rings (size 3 to 8) (size 9 to 14) (size 15 to 20)
#    0.000    0.750    7.500    1.125    0.000    6.000 
#    0.000    0.000    0.000    0.000    0.000    0.000 
#    0.000    0.000    0.000    0.000    0.000    0.000 
#
# Total GULP energy -89215.499569 kJ/mol
# GULP energy per Si atom -5575.968723 kJ/mol
# Density = 2.066354 g / cm^3
# Si number density = 20.710676 Si / 1000 Ang^3
#
#
#
# Elastic Constant Matrix: (Units=GPa)
#
#
# Indices 1 2 3 4 5 6 
#
# 1 50.1541 43.4739 17.3290 3.1333 -17.1029 9.8577
# 2 43.4739 140.5733 58.2345 -9.9151 -0.9699 2.6754
# 3 17.3290 58.2345 97.3761 -3.8771 0.9519 -8.4859
# 4 3.1333 -9.9151 -3.8771 30.0141 -2.4796 1.7159
# 5 -17.1029 -0.9699 0.9519 -2.4796 31.8386 -3.7287
# 6 9.8577 2.6754 -8.4859 1.7159 -3.7287 38.4744
#
#
#
# Elastic Compliance Matrix: (Units=1/GPa)
#
#
# Indices 1 2 3 4 5 6 
#
# 1 0.038806 -0.011779 -0.000917 -0.006063 0.019199 -0.007195
# 2 -0.011779 0.013379 -0.005664 0.004466 -0.005389 0.000117
# 3 -0.000917 -0.005664 0.014140 -0.000215 -0.000673 0.003692
# 4 -0.006063 0.004466 -0.000215 0.035389 -0.000408 -0.000422
# 5 0.019199 -0.005389 -0.000673 -0.000408 0.041469 -0.000656
# 6 -0.007195 0.000117 0.003692 -0.000422 -0.000656 0.028596
#
#
# Mechanical properties :
#
#
# Convention : Reuss Voigt Hill
#
# Bulk Modulus (GPa) = 33.78072 58.46423 46.12248
# Shear Modulus (GPa) = 22.89719 31.33650 27.11684
#
# Velocity S-wave (km/s) = 3.32863 3.89403 3.62237
# Velocity P-wave (km/s) = 5.57846 6.96479 6.30981
#
# Compressibility (1/GPa) = 0.02960268
#
# Stress axis : x y z
#
# Youngs Moduli (GPa) = 25.76921 74.74634 70.72274
#
# Poissons Ratio (x) = 0.88047 0.06489
# Poissons Ratio (y) = 0.30355 0.40057
# Poissons Ratio (z) = 0.02364 0.42336
#
# Static dielectric constant tensor:
#      x y z
#    x 1.773770 0.027280 0.029890 
#    y 0.027280 1.830220 -0.010070 
#    z 0.029890 -0.010070 1.720400 
# 
# From -- ./inp_files/514740.got.cif
#   From: 2010.05.17/outbox.cif.g08.bks.cpg/sg2_258_cif.got.tgz:514740.got - 2010.06.03 11:33:40.
