data_PCOD9056334
_publ_section_title
;
Structure prediction by ZEFSAII (Michael W. Deem and Ramdas Pophale) SiO2 
 PCOD9056334
Probable space group: P -1
;
_chemical_formula_sum "Si O2"
_cell_formula_units_Z 13
_cell_length_a 9.444436
_cell_length_b 7.102920
_cell_length_c 16.539058
_cell_angle_alpha 130.263977
_cell_angle_beta 146.696586
_cell_angle_gamma 45.483100
_cell_volume 429.191260
_symmetry_space_group_name_H-M "P -1"
_symmetry_group_IT_number 2
_symmetry_cell_setting 'triclinic'
loop_
_space_group_symop_operation_xyz
x,y,z
-x,-y,-z
loop_
_atom_site_type_symbol
_atom_site_label
_atom_site_fract_x
_atom_site_fract_y
_atom_site_fract_z
Si Si1 0.530443 0.495786 0.144306
Si Si2 0.388910 0.117283 0.392916
Si Si3 0.986530 0.364058 0.545305
Si Si4 0.087486 0.041423 0.917547
Si Si5 0.500000 0.500000 0.500000
Si Si6 0.977510 0.583929 0.162258
Si Si7 0.401149 0.886086 0.776034
O O1 0.727186 0.245314 0.114127
O O2 0.530401 0.348333 0.188139
O O3 0.707017 0.681664 0.287750
O O4 0.214214 0.592207 0.987988
O O5 0.215991 0.430010 0.424859
O O6 0.635235 0.166630 0.481124
O O7 0.208441 0.987444 0.223652
O O8 0.500000 0.000000 0.500000
O O9 0.812794 0.181964 0.400141
O O10 0.000000 0.500000 0.500000
O O11 0.016711 0.270747 0.878944
O O12 0.297375 0.102543 0.095230
O O13 0.721900 0.527725 0.684824
O O14 0.775614 0.833105 0.188341
#
# Coordination Sequence:
#
# PCOD9056334 Si02
#       7
#     2   2   2   2   1   2   2
#     4   7  13  26  52  83 109 137 191 236 273 324
#     4  11  22  38  58  84 118 153 189 231 280 344
#     4   9  17  32  61  91 107 144 198 234 287 332
#     4   8  14  31  55  80 106 146 188 235 276 322
#     4  12  24  34  58  84 118 156 196 214 288 350
#     4   9  16  31  53  82 111 148 188 235 270 338
#     4   8  14  28  57  84 108 138 192 242 280 318
#
# _framework density 30.289524
#
# number of rings (size 3 to 8) (size 9 to 14) (size 15 to 20)
#    0.000    3.077    1.538    2.769    0.000    0.000 
#    0.000    8.462    0.000    1.846    0.000    0.000 
#    0.000    0.000    0.000    0.000    0.000    0.000 
#
# Total GULP energy -72610.145944 kJ/mol
# GULP energy per Si atom -5585.395842 kJ/mol
# Density = 3.022058 g / cm^3
# Si number density = 30.289524 Si / 1000 Ang^3
#
#
#
# Elastic Constant Matrix: (Units=GPa)
#
#
# Indices 1 2 3 4 5 6 
#
# 1 123.7555 36.3834 78.0603 -2.9523 16.6476 -7.3331
# 2 36.3834 69.5225 98.2088 18.2165 0.3023 21.4522
# 3 78.0603 98.2088 409.9018 49.6544 29.0118 6.7274
# 4 -2.9523 18.2165 49.6544 91.5769 6.9610 5.0128
# 5 16.6476 0.3023 29.0118 6.9610 52.5976 -10.3419
# 6 -7.3331 21.4522 6.7274 5.0128 -10.3419 61.3280
#
#
#
# Elastic Compliance Matrix: (Units=1/GPa)
#
#
# Indices 1 2 3 4 5 6 
#
# 1 0.010912 -0.006114 -0.000711 0.002001 -0.002721 0.002899
# 2 -0.006114 0.029042 -0.005546 -0.002699 0.003316 -0.009502
# 3 -0.000711 -0.005546 0.004133 -0.001103 -0.001638 0.001215
# 4 0.002001 -0.002699 -0.001103 0.012241 -0.001624 0.000030
# 5 -0.002721 0.003316 -0.001638 -0.001624 0.021454 0.002445
# 6 0.002899 -0.009502 0.001215 0.000030 0.002445 0.020252
#
#
# Mechanical properties :
#
#
# Convention : Reuss Voigt Hill
#
# Bulk Modulus (GPa) = 51.68775 114.27607 82.98191
# Shear Modulus (GPa) = 38.69287 67.13566 52.91426
#
# Velocity S-wave (km/s) = 3.57800 4.71304 4.18419
# Velocity P-wave (km/s) = 5.84560 8.21138 7.12734
#
# Compressibility (1/GPa) = 0.01934694
#
# Stress axis : x y z
#
# Youngs Moduli (GPa) = 91.64541 34.43297 241.94142
#
# Poissons Ratio (x) = 0.21051 0.17193
# Poissons Ratio (y) = 0.56028 1.34174
# Poissons Ratio (z) = 0.06512 0.19096
#
# Static dielectric constant tensor:
#      x y z
#    x 1.812160 -0.249630 -0.354550 
#    y -0.249630 2.402790 -0.090110 
#    z -0.354550 -0.090110 2.075590 
# 
# From -- ./inp_files/198677.got.cif
#   From: 2010.05.17/outbox.cif.g08.bks.cpg/sg2_100_cif.got.tgz:198677.got - 2010.06.03 11:33:40.
