data_PCOD9056997
_publ_section_title
;
Structure prediction by ZEFSAII (Michael W. Deem and Ramdas Pophale) SiO2 
 PCOD9056997
Probable space group: P -1
;
_chemical_formula_sum "Si O2"
_cell_formula_units_Z 16
_cell_length_a 24.545061
_cell_length_b 9.774582
_cell_length_c 8.787985
_cell_angle_alpha 46.416921
_cell_angle_beta 31.829934
_cell_angle_gamma 47.615784
_cell_volume 783.636720
_symmetry_space_group_name_H-M "P -1"
_symmetry_group_IT_number 2
_symmetry_cell_setting 'triclinic'
loop_
_space_group_symop_operation_xyz
x,y,z
-x,-y,-z
loop_
_atom_site_type_symbol
_atom_site_label
_atom_site_fract_x
_atom_site_fract_y
_atom_site_fract_z
Si Si1 0.527346 0.968213 0.280746
Si Si2 0.642462 0.270870 0.178155
Si Si3 0.497859 0.599281 0.092605
Si Si4 0.898555 0.489118 0.649911
Si Si5 0.990461 0.303981 0.259386
Si Si6 0.769737 0.900443 0.678578
Si Si7 0.153900 0.976130 0.279865
Si Si8 0.722392 0.296483 0.305999
O O1 0.500000 0.000000 0.500000
O O2 0.455615 0.831092 0.491874
O O3 0.498281 0.178214 0.109011
O O4 0.652334 0.884709 0.021761
O O5 0.593496 0.476539 0.058647
O O6 0.694606 0.291657 0.198829
O O7 0.730618 0.137356 0.964703
O O8 0.384925 0.596144 0.437586
O O9 0.500000 0.500000 0.000000
O O10 0.833786 0.705264 0.598898
O O11 0.000000 0.500000 0.500000
O O12 0.932966 0.367615 0.508574
O O13 0.819855 0.397390 0.009296
O O14 0.921627 0.176779 0.429616
O O15 0.100808 0.154321 0.157935
O O16 0.000000 0.500000 0.000000
O O17 0.832208 0.943861 0.647078
O O18 0.754573 0.082459 0.463408
#
# Coordination Sequence:
#
# PCOD9056997 Si02
#       8
#     2   2   2   2   2   2   2   2
#     4  11  22  41  67  98 135 176 220 268 326 405
#     4  12  23  42  68  97 138 174 222 279 331 400
#     4  11  23  42  69 100 134 180 221 267 336 400
#     4  12  26  46  69 102 132 177 231 282 333 403
#     4  11  27  47  70  99 133 176 231 282 343 399
#     4  11  25  43  70  99 135 181 224 269 343 400
#     4  11  24  46  68 100 137 177 223 280 340 403
#     4  11  27  44  67 100 140 175 222 282 337 395
#
# _framework density 20.417624
#
# number of rings (size 3 to 8) (size 9 to 14) (size 15 to 20)
#    0.000    0.750    5.000    1.875    3.500    4.500 
#    0.000    0.000    0.000    0.000    0.000    0.000 
#    0.000    0.000    0.000    0.000    0.000    0.000 
#
# Total GULP energy -89530.858823 kJ/mol
# GULP energy per Si atom -5595.678676 kJ/mol
# Density = 2.037115 g / cm^3
# Si number density = 20.417624 Si / 1000 Ang^3
#
#
#
# Elastic Constant Matrix: (Units=GPa)
#
#
# Indices 1 2 3 4 5 6 
#
# 1 57.2855 2.9168 29.1924 -10.6842 -18.5357 -17.3475
# 2 2.9168 94.4336 30.5983 4.6161 -9.6107 -30.4227
# 3 29.1924 30.5983 77.8010 -8.3788 -7.6541 -20.6880
# 4 -10.6842 4.6161 -8.3788 34.1258 3.5032 3.8010
# 5 -18.5357 -9.6107 -7.6541 3.5032 31.8366 -0.2631
# 6 -17.3475 -30.4227 -20.6880 3.8010 -0.2631 41.3786
#
#
#
# Elastic Compliance Matrix: (Units=1/GPa)
#
#
# Indices 1 2 3 4 5 6 
#
# 1 0.033731 0.009055 -0.009736 0.003155 0.019815 0.015767
# 2 0.009055 0.018138 -0.006119 -0.003740 0.009807 0.014478
# 3 -0.009736 -0.006119 0.019070 0.002717 -0.003224 0.000684
# 4 0.003155 -0.003740 0.002717 0.032026 -0.002188 -0.003025
# 5 0.019815 0.009807 -0.003224 -0.002188 0.045492 0.014396
# 6 0.015767 0.014478 0.000684 -0.003025 0.014396 0.042133
#
#
# Mechanical properties :
#
#
# Convention : Reuss Voigt Hill
#
# Bulk Modulus (GPa) = 17.44023 39.43724 28.43873
# Shear Modulus (GPa) = 22.39107 32.58903 27.49005
#
# Velocity S-wave (km/s) = 3.31517 3.99948 3.67330
# Velocity P-wave (km/s) = 4.81810 6.37848 5.65240
#
# Compressibility (1/GPa) = 0.05733871
#
# Stress axis : x y z
#
# Youngs Moduli (GPa) = 29.64600 55.13420 52.43795
#
# Poissons Ratio (x) = -0.49922 0.51053
# Poissons Ratio (y) = -0.26843 0.32086
# Poissons Ratio (z) = 0.28863 0.33736
#
# Static dielectric constant tensor:
#      x y z
#    x 1.689340 0.003120 -0.005770 
#    y 0.003120 1.717560 -0.002960 
#    z -0.005770 -0.002960 1.720170 
# 
# From -- ./inp_files/350157.got.cif
#   From: 2010.05.17/outbox.cif.g08.bks.cpg/sg2_176_cif.got.tgz:350157.got - 2010.06.03 11:33:40.
