data_PCOD9056573
_publ_section_title
;
Structure prediction by ZEFSAII (Michael W. Deem and Ramdas Pophale) SiO2 
 PCOD9056573
Probable space group: P -1
;
_chemical_formula_sum "Si O2"
_cell_formula_units_Z 14
_cell_length_a 14.361271
_cell_length_b 10.435440
_cell_length_c 13.853950
_cell_angle_alpha 128.493543
_cell_angle_beta 32.139446
_cell_angle_gamma 147.612704
_cell_volume 559.504646
_symmetry_space_group_name_H-M "P -1"
_symmetry_group_IT_number 2
_symmetry_cell_setting 'triclinic'
loop_
_space_group_symop_operation_xyz
x,y,z
-x,-y,-z
loop_
_atom_site_type_symbol
_atom_site_label
_atom_site_fract_x
_atom_site_fract_y
_atom_site_fract_z
Si Si1 0.752632 0.534055 0.385240
Si Si2 0.224907 0.704805 0.979822
Si Si3 0.951909 0.968723 0.729032
Si Si4 0.371046 0.062745 0.870862
Si Si5 0.996495 0.191954 0.104475
Si Si6 0.441555 0.335728 0.236675
Si Si7 0.277538 0.929269 0.511348
O O1 0.627545 0.552069 0.589267
O O2 0.537871 0.236323 0.415261
O O3 0.827138 0.723818 0.325027
O O4 0.040306 0.646520 0.200502
O O5 0.380412 0.962855 0.913093
O O6 0.439665 0.720775 0.825648
O O7 0.000000 0.500000 0.000000
O O8 0.814586 0.885915 0.707208
O O9 0.069864 0.873855 0.597861
O O10 0.742276 0.850374 0.945252
O O11 0.143960 0.850557 0.891597
O O12 0.643412 0.200591 0.643690
O O13 0.830408 0.131868 0.314020
O O14 0.307486 0.462077 0.960956
O O15 0.000000 0.000000 0.000000
#
# Coordination Sequence:
#
# PCOD9056573 Si02
#       7
#     2   2   2   2   2   2   2
#     4  11  23  39  69  94 128 167 217 259 319 377
#     4  11  22  39  68  98 123 165 211 272 319 369
#     4  11  26  40  65  99 132 171 203 270 333 373
#     4  11  23  43  67  96 127 166 223 264 315 377
#     4  12  23  43  68  93 125 175 221 262 310 381
#     4  12  25  44  63  98 137 163 212 266 324 385
#     4  12  23  41  68  95 128 173 220 260 310 384
#
# _framework density 25.022133
#
# number of rings (size 3 to 8) (size 9 to 14) (size 15 to 20)
#    0.000    0.571    5.714    2.143    2.000    4.000 
#    0.000    0.714    0.000    0.000    0.000    0.000 
#    0.000    0.000    0.000    0.000    0.000    0.000 
#
# Total GULP energy -78234.839882 kJ/mol
# GULP energy per Si atom -5588.202849 kJ/mol
# Density = 2.496518 g / cm^3
# Si number density = 25.022133 Si / 1000 Ang^3
#
#
#
# Elastic Constant Matrix: (Units=GPa)
#
#
# Indices 1 2 3 4 5 6 
#
# 1 96.7805 17.5426 33.3964 -4.1191 -7.5891 13.4538
# 2 17.5426 30.8388 9.7270 -0.0371 -8.8622 -1.3560
# 3 33.3964 9.7270 183.5829 24.0440 8.9559 9.3245
# 4 -4.1191 -0.0371 24.0440 24.8884 -9.4901 3.6984
# 5 -7.5891 -8.8622 8.9559 -9.4901 37.3053 -8.0377
# 6 13.4538 -1.3560 9.3245 3.6984 -8.0377 23.7869
#
#
#
# Elastic Compliance Matrix: (Units=1/GPa)
#
#
# Indices 1 2 3 4 5 6 
#
# 1 0.014063 -0.006855 -0.002816 0.006947 0.002031 -0.007635
# 2 -0.006855 0.041294 -0.002730 0.004766 0.012615 0.010824
# 3 -0.002816 -0.002730 0.007827 -0.010046 -0.006116 -0.002136
# 4 0.006947 0.004766 -0.010046 0.058787 0.019417 -0.002298
# 5 0.002031 0.012615 -0.006116 0.019417 0.039255 0.012214
# 6 -0.007635 0.010824 -0.002136 -0.002298 0.012214 0.052297
#
#
# Mechanical properties :
#
#
# Convention : Reuss Voigt Hill
#
# Bulk Modulus (GPa) = 26.05483 48.05935 37.05709
# Shear Modulus (GPa) = 19.91074 33.89853 26.90463
#
# Velocity S-wave (km/s) = 2.82392 3.68467 3.28263
# Velocity P-wave (km/s) = 4.58999 6.11154 5.40458
#
# Compressibility (1/GPa) = 0.03838060
#
# Stress axis : x y z
#
# Youngs Moduli (GPa) = 71.10684 24.21632 127.76786
#
# Poissons Ratio (x) = 0.16601 0.35982
# Poissons Ratio (y) = 0.48747 0.34884
# Poissons Ratio (z) = 0.20025 0.06612
#
# Static dielectric constant tensor:
#      x y z
#    x 1.972110 -0.025580 -0.011540 
#    y -0.025580 2.034050 0.004750 
#    z -0.011540 0.004750 2.051920 
# 
# From -- ./inp_files/390457.got.cif
#   From: 2010.05.17/outbox.cif.g08.bks.cpg/sg2_196_cif.got.tgz:390457.got - 2010.06.03 11:33:40.
