data_PCOD9056459
_publ_section_title
;
Structure prediction by ZEFSAII (Michael W. Deem and Ramdas Pophale) SiO2 
 PCOD9056459
Probable space group: P -1
;
_chemical_formula_sum "Si O2"
_cell_formula_units_Z 13
_cell_length_a 5.329045
_cell_length_b 8.690471
_cell_length_c 15.938704
_cell_angle_alpha 103.238816
_cell_angle_beta 123.989807
_cell_angle_gamma 83.956431
_cell_volume 595.527172
_symmetry_space_group_name_H-M "P -1"
_symmetry_group_IT_number 2
_symmetry_cell_setting 'triclinic'
loop_
_space_group_symop_operation_xyz
x,y,z
-x,-y,-z
loop_
_atom_site_type_symbol
_atom_site_label
_atom_site_fract_x
_atom_site_fract_y
_atom_site_fract_z
Si Si1 0.530630 0.646381 0.218253
Si Si2 0.000000 0.500000 0.000000
Si Si3 0.676545 0.869169 0.964537
Si Si4 0.298463 0.971393 0.178935
Si Si5 0.836527 0.751227 0.709683
Si Si6 0.731731 0.408543 0.104019
Si Si7 0.220445 0.573511 0.620121
O O1 0.519120 0.833682 0.228625
O O2 0.740719 0.569244 0.177288
O O3 0.647216 0.567380 0.315480
O O4 0.194966 0.576178 0.126917
O O5 0.774803 0.408037 0.014066
O O6 0.590843 0.686556 0.947357
O O7 0.592445 0.902624 0.856396
O O8 0.016390 0.896018 0.063910
O O9 0.500000 0.000000 0.000000
O O10 0.201284 0.063400 0.255756
O O11 0.506326 0.666933 0.643895
O O12 0.027638 0.700847 0.820768
O O13 0.026151 0.688195 0.658596
O O14 0.000000 0.500000 0.500000
#
# Coordination Sequence:
#
# PCOD9056459 Si02
#       7
#     2   1   2   2   2   2   2
#     4  11  24  40  65  99 135 181 228 289 339 402
#     4  12  22  40  60  98 140 174 240 270 342 392
#     4  11  22  39  61  92 144 202 225 268 338 419
#     4  11  24  40  62  98 141 183 235 278 345 413
#     4  11  23  46  70  99 133 181 230 290 351 415
#     4  11  23  41  62  95 142 186 233 275 337 418
#     4  11  25  50  76  99 130 181 239 292 352 419
#
# _framework density 21.829398000000001
#
# number of rings (size 3 to 8) (size 9 to 14) (size 15 to 20)
#    0.000    0.923    3.077    4.615    2.154    1.231 
#    0.000    1.538    0.000    0.000    0.000    0.000 
#    0.000    0.000    0.000    0.000    0.000    0.000 
#
# Total GULP energy -72498.796563 kJ/mol
# GULP energy per Si atom -5576.830505 kJ/mol
# Density = 2.177971 g / cm^3
# Si number density = 21.829398 Si / 1000 Ang^3
#
#
#
# Elastic Constant Matrix: (Units=GPa)
#
#
# Indices 1 2 3 4 5 6 
#
# 1 80.1691 29.0004 19.5077 1.5865 -8.4047 4.1801
# 2 29.0004 118.2721 34.6250 8.5706 -14.8585 -28.8070
# 3 19.5077 34.6250 125.1946 -2.5016 11.4385 2.0142
# 4 1.5865 8.5706 -2.5016 20.6449 -0.7872 0.7622
# 5 -8.4047 -14.8585 11.4385 -0.7872 30.8527 11.8652
# 6 4.1801 -28.8070 2.0142 0.7622 11.8652 38.5286
#
#
#
# Elastic Compliance Matrix: (Units=1/GPa)
#
#
# Indices 1 2 3 4 5 6 
#
# 1 0.015240 -0.004241 -0.001553 0.000832 0.005146 -0.006344
# 2 -0.004241 0.013894 -0.003726 -0.006167 0.002798 0.010304
# 3 -0.001553 -0.003726 0.009813 0.002717 -0.005175 -0.001591
# 4 0.000832 -0.006167 0.002717 0.051470 -0.000208 -0.005798
# 5 0.005146 0.002798 -0.005175 -0.000208 0.041266 -0.010900
# 6 -0.006344 0.010304 -0.001591 -0.005798 -0.010900 0.037902
#
#
# Mechanical properties :
#
#
# Convention : Reuss Voigt Hill
#
# Bulk Modulus (GPa) = 50.23848 54.43353 52.33601
# Shear Modulus (GPa) = 25.60683 34.03875 29.82279
#
# Velocity S-wave (km/s) = 3.42869 3.95309 3.70019
# Velocity P-wave (km/s) = 6.22404 6.76948 6.50248
#
# Compressibility (1/GPa) = 0.01990506
#
# Stress axis : x y z
#
# Youngs Moduli (GPa) = 65.61862 71.97398 101.90734
#
# Poissons Ratio (x) = 0.30525 0.15827
# Poissons Ratio (y) = 0.27830 0.37975
# Poissons Ratio (z) = 0.10191 0.26820
#
# Static dielectric constant tensor:
#      x y z
#    x 1.832740 0.077300 0.013390 
#    y 0.077300 1.845450 0.005420 
#    z 0.013390 0.005420 1.727380 
# 
# From -- ./inp_files/479262.got.cif
#   From: 2010.05.17/outbox.cif.g08.bks.cpg/sg2_240_cif.got.tgz:479262.got - 2010.06.03 11:33:40.
