data_PCOD9056451
_publ_section_title
;
Structure prediction by ZEFSAII (Michael W. Deem and Ramdas Pophale) SiO2 
 PCOD9056451
Probable space group: P -1
;
_chemical_formula_sum "Si O2"
_cell_formula_units_Z 16
_cell_length_a 13.360636
_cell_length_b 8.283088
_cell_length_c 7.052364
_cell_angle_alpha 84.754032
_cell_angle_beta 75.810343
_cell_angle_gamma 68.263088
_cell_volume 702.851242
_symmetry_space_group_name_H-M "P -1"
_symmetry_group_IT_number 2
_symmetry_cell_setting 'triclinic'
loop_
_space_group_symop_operation_xyz
x,y,z
-x,-y,-z
loop_
_atom_site_type_symbol
_atom_site_label
_atom_site_fract_x
_atom_site_fract_y
_atom_site_fract_z
Si Si1 0.245733 0.591805 0.074061
Si Si2 0.632663 0.565590 0.582028
Si Si3 0.957497 0.103920 0.819421
Si Si4 0.294895 0.107905 0.579888
Si Si5 0.374910 0.709153 0.699057
Si Si6 0.990617 0.414887 0.312036
Si Si7 0.180502 0.343768 0.918218
Si Si8 0.112615 0.078974 0.426212
O O1 0.289335 0.528964 0.269111
O O2 0.112053 0.695386 0.123451
O O3 0.302454 0.705267 0.918454
O O4 0.267159 0.416775 0.961948
O O5 0.650102 0.744598 0.491232
O O6 0.504579 0.623254 0.696045
O O7 0.651081 0.418422 0.427823
O O8 0.069601 0.052283 0.653602
O O9 0.869243 0.058701 0.732495
O O10 0.000000 0.000000 0.000000
O O11 0.233160 0.163524 0.805527
O O12 0.215185 0.131925 0.430178
O O13 0.355306 0.899757 0.598194
O O14 0.885063 0.530827 0.235258
O O15 0.000000 0.500000 0.500000
O O16 0.998360 0.226670 0.392112
O O17 0.093036 0.358100 0.123164
#
# Coordination Sequence:
#
# PCOD9056451 Si02
#       8
#     2   2   2   2   2   2   2   2
#     4  12  24  44  72  99 139 187 231 286 352 418
#     4  11  26  51  73 103 136 181 238 298 358 425
#     4  11  25  41  63 100 147 184 230 284 340 412
#     4  12  24  46  73 106 142 182 235 293 353 417
#     4  11  26  49  75 100 139 181 232 301 365 414
#     4  11  22  39  60  91 140 187 227 274 327 404
#     4  11  25  38  65 101 140 182 232 281 338 413
#     4  11  24  39  64  99 137 187 231 273 342 416
#
# _framework density 22.764420999999999
#
# number of rings (size 3 to 8) (size 9 to 14) (size 15 to 20)
#    0.000    0.750    2.500    4.500    7.000    2.000 
#    2.250    0.625    0.000    0.000    0.000    0.000 
#    0.000    0.000    0.000    0.000    0.000    0.000 
#
# Total GULP energy -89275.518201 kJ/mol
# GULP energy per Si atom -5579.719888 kJ/mol
# Density = 2.271261 g / cm^3
# Si number density = 22.764421 Si / 1000 Ang^3
#
#
#
# Elastic Constant Matrix: (Units=GPa)
#
#
# Indices 1 2 3 4 5 6 
#
# 1 66.3161 19.2205 26.8826 2.7467 9.4386 10.2543
# 2 19.2205 104.3768 18.0670 -1.7126 7.7651 8.6212
# 3 26.8826 18.0670 103.2945 -7.3381 3.8132 5.8164
# 4 2.7467 -1.7126 -7.3381 39.7090 -0.4261 4.6997
# 5 9.4386 7.7651 3.8132 -0.4261 27.9779 -2.7105
# 6 10.2543 8.6212 5.8164 4.6997 -2.7105 37.4145
#
#
#
# Elastic Compliance Matrix: (Units=1/GPa)
#
#
# Indices 1 2 3 4 5 6 
#
# 1 0.018922 -0.002003 -0.004248 -0.001737 -0.005688 -0.004258
# 2 -0.002003 0.010474 -0.001076 0.000596 -0.002263 -0.001936
# 3 -0.004248 -0.001076 0.011172 0.002386 0.000186 -0.000611
# 4 -0.001737 0.000596 0.002386 0.026163 0.000174 -0.003306
# 5 -0.005688 -0.002263 0.000186 0.000174 0.038735 0.004836
# 6 -0.004258 -0.001936 -0.000611 -0.003306 0.004836 0.029201
#
#
# Mechanical properties :
#
#
# Convention : Reuss Voigt Hill
#
# Bulk Modulus (GPa) = 38.58855 44.70307 41.64581
# Shear Modulus (GPa) = 31.65409 35.00809 33.33109
#
# Velocity S-wave (km/s) = 3.73300 3.92579 3.83060
# Velocity P-wave (km/s) = 5.96392 6.34263 6.15619
#
# Compressibility (1/GPa) = 0.02591443
#
# Stress axis : x y z
#
# Youngs Moduli (GPa) = 52.84990 95.47675 89.51134
#
# Poissons Ratio (x) = 0.19121 0.38022
# Poissons Ratio (y) = 0.10584 0.09630
# Poissons Ratio (z) = 0.22449 0.10271
#
# Static dielectric constant tensor:
#      x y z
#    x 1.866920 0.068800 -0.065950 
#    y 0.068800 1.955660 0.014380 
#    z -0.065950 0.014380 1.948890 
# 
# From -- ./inp_files/90381.got.cif
#   From: 2010.05.17/outbox.cif.g08.bks.cpg/sg2_46_cif.got.tgz:90381.got - 2010.06.03 11:33:40.
