data_PCOD9056053
_publ_section_title
;
Structure prediction by ZEFSAII (Michael W. Deem and Ramdas Pophale) SiO2 
 PCOD9056053
Probable space group: P -1
;
_chemical_formula_sum "Si O2"
_cell_formula_units_Z 14
_cell_length_a 7.874247
_cell_length_b 11.879057
_cell_length_c 18.501174
_cell_angle_alpha 146.722030
_cell_angle_beta 49.179907
_cell_angle_gamma 108.978241
_cell_volume 608.060383
_symmetry_space_group_name_H-M "P -1"
_symmetry_group_IT_number 2
_symmetry_cell_setting 'triclinic'
loop_
_space_group_symop_operation_xyz
x,y,z
-x,-y,-z
loop_
_atom_site_type_symbol
_atom_site_label
_atom_site_fract_x
_atom_site_fract_y
_atom_site_fract_z
Si Si1 0.032776 0.996384 0.575233
Si Si2 0.249058 0.003054 0.106158
Si Si3 0.729711 0.827044 0.657654
Si Si4 0.454383 0.484895 0.155885
Si Si5 0.115006 0.515880 0.052784
Si Si6 0.161492 0.246149 0.034429
Si Si7 0.809179 0.361876 0.322149
O O1 0.041731 0.220216 0.724147
O O2 0.795999 0.988654 0.675481
O O3 0.000000 0.000000 0.500000
O O4 0.292895 0.734566 0.378202
O O5 0.169466 0.169171 0.288812
O O6 0.004159 0.118357 0.181633
O O7 0.500000 0.000000 0.000000
O O8 0.347780 0.737456 0.966902
O O9 0.867285 0.562138 0.444386
O O10 0.409041 0.970761 0.827355
O O11 0.266755 0.403129 0.129077
O O12 0.602725 0.526475 0.071444
O O13 0.125979 0.326834 0.005106
O O14 0.000000 0.500000 0.000000
O O15 0.901524 0.309305 0.185168
O O16 0.500000 0.500000 0.500000
#
# Coordination Sequence:
#
# PCOD9056053 Si02
#       7
#     2   2   2   2   2   2   2
#     4  12  21  41  77 106 136 189 248 288 348 446
#     4  11  21  45  72 100 140 185 245 293 345 436
#     4  11  22  42  73  99 135 190 246 285 351 432
#     4  11  22  42  76 102 137 189 247 284 354 431
#     4  12  26  44  67 109 151 179 229 311 375 412
#     4  11  22  46  71 100 137 191 243 285 355 440
#     4  12  26  45  69 107 142 183 240 307 362 412
#
# _framework density 23.02403
#
# number of rings (size 3 to 8) (size 9 to 14) (size 15 to 20)
#    0.000    0.571    8.571    1.714    0.000    2.286 
#    5.143    0.000    0.000    0.000    0.000    0.000 
#    0.000    0.000    0.000    0.000    0.000    0.000 
#
# Total GULP energy -78349.860552 kJ/mol
# GULP energy per Si atom -5596.418611 kJ/mol
# Density = 2.297163 g / cm^3
# Si number density = 23.024030 Si / 1000 Ang^3
#
#
#
# Elastic Constant Matrix: (Units=GPa)
#
#
# Indices 1 2 3 4 5 6 
#
# 1 79.7591 36.8376 23.5384 -8.5492 -0.8736 -19.0187
# 2 36.8376 136.2142 38.4485 -25.1054 -15.7002 -22.6767
# 3 23.5384 38.4485 127.3568 -6.6332 4.6091 -9.3353
# 4 -8.5492 -25.1054 -6.6332 55.0861 6.7604 -0.0361
# 5 -0.8736 -15.7002 4.6091 6.7604 43.4030 1.6393
# 6 -19.0187 -22.6767 -9.3353 -0.0361 1.6393 31.3675
#
#
#
# Elastic Compliance Matrix: (Units=1/GPa)
#
#
# Indices 1 2 3 4 5 6 
#
# 1 0.016083 -0.002530 -0.001559 0.001272 -0.000907 0.007507
# 2 -0.002530 0.010619 -0.002270 0.003779 0.003243 0.005303
# 3 -0.001559 -0.002270 0.008903 0.000017 -0.001807 0.000157
# 4 0.001272 0.003779 0.000017 0.020312 -0.001910 0.003632
# 5 -0.000907 0.003243 -0.001807 -0.001910 0.024685 -0.000036
# 6 0.007507 0.005303 0.000157 0.003632 -0.000036 0.040318
#
#
# Mechanical properties :
#
#
# Convention : Reuss Voigt Hill
#
# Bulk Modulus (GPa) = 43.69303 60.10878 51.90090
# Shear Modulus (GPa) = 35.39351 42.27169 38.83260
#
# Velocity S-wave (km/s) = 3.92502 4.28948 4.11129
# Velocity P-wave (km/s) = 6.28963 7.12015 6.71774
#
# Compressibility (1/GPa) = 0.02288695
#
# Stress axis : x y z
#
# Youngs Moduli (GPa) = 62.17824 94.16745 112.31698
#
# Poissons Ratio (x) = 0.23821 0.17515
# Poissons Ratio (y) = 0.15729 0.25499
# Poissons Ratio (z) = 0.09696 0.21378
#
# Static dielectric constant tensor:
#      x y z
#    x 1.938780 0.051170 -0.015830 
#    y 0.051170 1.879830 0.018020 
#    z -0.015830 0.018020 1.862190 
# 
# From -- ./inp_files/559262.got.cif
#   From: 2010.05.17/outbox.cif.g08.bks.cpg/sg2_280_cif.got.tgz:559262.got - 2010.06.03 11:33:40.
