data_PCOD9056992
_publ_section_title
;
Structure prediction by ZEFSAII (Michael W. Deem and Ramdas Pophale) SiO2 
 PCOD9056992
Probable space group: P -1
;
_chemical_formula_sum "Si O2"
_cell_formula_units_Z 16
_cell_length_a 6.307766
_cell_length_b 13.980034
_cell_length_c 9.106306
_cell_angle_alpha 81.500465
_cell_angle_beta 82.326816
_cell_angle_gamma 115.736484
_cell_volume 697.578223
_symmetry_space_group_name_H-M "P -1"
_symmetry_group_IT_number 2
_symmetry_cell_setting 'triclinic'
loop_
_space_group_symop_operation_xyz
x,y,z
-x,-y,-z
loop_
_atom_site_type_symbol
_atom_site_label
_atom_site_fract_x
_atom_site_fract_y
_atom_site_fract_z
Si Si1 0.392875 0.762096 0.104976
Si Si2 0.680590 0.250829 0.553889
Si Si3 0.292711 0.915056 0.931010
Si Si4 0.860373 0.688250 0.683608
Si Si5 0.926816 0.483751 0.841384
Si Si6 0.142077 0.118352 0.174341
Si Si7 0.423701 0.074483 0.387851
Si Si8 0.376708 0.556318 0.594221
O O1 0.410348 0.794685 0.266390
O O2 0.302882 0.633538 0.129624
O O3 0.201212 0.798837 0.046722
O O4 0.629469 0.825579 0.968863
O O5 0.494138 0.177433 0.463090
O O6 0.698621 0.370020 0.517333
O O7 0.939496 0.262282 0.476472
O O8 0.403074 0.902786 0.771267
O O9 0.088916 0.946186 0.891928
O O10 0.500000 0.000000 0.000000
O O11 0.891015 0.783770 0.769039
O O12 0.587316 0.633953 0.665847
O O13 0.899236 0.589362 0.770122
O O14 0.140437 0.480941 0.725361
O O15 0.000000 0.500000 0.000000
O O16 0.182191 0.051240 0.321594
O O17 0.500000 0.000000 0.500000
O O18 0.500000 0.500000 0.500000
#
# Coordination Sequence:
#
# PCOD9056992 Si02
#       8
#     2   2   2   2   2   2   2   2
#     4  11  25  41  67 102 142 180 238 288 351 417
#     4  11  23  43  65 101 141 182 231 293 347 412
#     4  11  25  48  71 101 142 178 232 300 358 420
#     4  11  22  41  67  96 140 187 234 281 345 421
#     4  11  24  39  63  98 142 189 233 288 341 412
#     4  11  24  45  72 102 136 189 231 288 361 424
#     4  11  24  45  73 102 138 179 234 295 356 423
#     4  11  23  39  64  97 142 185 235 284 343 408
#
# _framework density 22.936495000000001
#
# number of rings (size 3 to 8) (size 9 to 14) (size 15 to 20)
#    0.000    1.000    2.500    3.750    3.500   10.500 
#    0.000    0.000    0.000    0.000    0.000    0.000 
#    0.000    0.000    0.000    0.000    0.000    0.000 
#
# Total GULP energy -89358.325901 kJ/mol
# GULP energy per Si atom -5584.895369 kJ/mol
# Density = 2.288429 g / cm^3
# Si number density = 22.936495 Si / 1000 Ang^3
#
#
#
# Elastic Constant Matrix: (Units=GPa)
#
#
# Indices 1 2 3 4 5 6 
#
# 1 102.8987 23.6224 51.9587 -3.5336 15.0125 -2.5046
# 2 23.6224 76.7603 39.3716 9.2701 4.5677 -16.8436
# 3 51.9587 39.3716 178.5736 4.3525 3.7815 -7.1673
# 4 -3.5336 9.2701 4.3525 33.4735 -3.0378 2.5958
# 5 15.0125 4.5677 3.7815 -3.0378 40.9410 11.6540
# 6 -2.5046 -16.8436 -7.1673 2.5958 11.6540 42.0528
#
#
#
# Elastic Compliance Matrix: (Units=1/GPa)
#
#
# Indices 1 2 3 4 5 6 
#
# 1 0.012430 -0.002164 -0.003089 0.001926 -0.003983 0.000332
# 2 -0.002164 0.017730 -0.002749 -0.005716 -0.003590 0.007852
# 3 -0.003089 -0.002749 0.007085 -0.000388 0.000838 -0.000286
# 4 0.001926 -0.005716 -0.000388 0.032477 0.003893 -0.005324
# 5 -0.003983 -0.003590 0.000838 0.003893 0.029315 -0.009897
# 6 0.000332 0.007852 -0.000286 -0.005324 -0.009897 0.029967
#
#
# Mechanical properties :
#
#
# Convention : Reuss Voigt Hill
#
# Bulk Modulus (GPa) = 47.07617 65.34867 56.21242
# Shear Modulus (GPa) = 32.87552 39.51212 36.19382
#
# Velocity S-wave (km/s) = 3.79004 4.15501 3.97672
# Velocity P-wave (km/s) = 6.30251 7.18135 6.75624
#
# Compressibility (1/GPa) = 0.02124217
#
# Stress axis : x y z
#
# Youngs Moduli (GPa) = 80.45009 56.40043 141.14152
#
# Poissons Ratio (x) = 0.12203 0.43598
# Poissons Ratio (y) = 0.17406 0.38802
# Poissons Ratio (z) = 0.24851 0.15505
#
# Static dielectric constant tensor:
#      x y z
#    x 1.966780 -0.023060 0.058350 
#    y -0.023060 1.976540 0.004860 
#    z 0.058350 0.004860 1.840430 
# 
# From -- ./inp_files/126454.got.cif
#   From: 2010.05.17/outbox.cif.g08.bks.cpg/sg2_64_cif.got.tgz:126454.got - 2010.06.03 11:33:40.
