data_PCOD9056376
_publ_section_title
;
Structure prediction by ZEFSAII (Michael W. Deem and Ramdas Pophale) SiO2 
 PCOD9056376
Probable space group: P -1
;
_chemical_formula_sum "Si O2"
_cell_formula_units_Z 12
_cell_length_a 12.820809
_cell_length_b 8.814728
_cell_length_c 12.712004
_cell_angle_alpha 91.079469
_cell_angle_beta 129.870859
_cell_angle_gamma 128.670286
_cell_volume 614.850369
_symmetry_space_group_name_H-M "P -1"
_symmetry_group_IT_number 2
_symmetry_cell_setting 'triclinic'
loop_
_space_group_symop_operation_xyz
x,y,z
-x,-y,-z
loop_
_atom_site_type_symbol
_atom_site_label
_atom_site_fract_x
_atom_site_fract_y
_atom_site_fract_z
Si Si1 0.947159 0.650075 0.641482
Si Si2 0.445642 0.130427 0.195969
Si Si3 0.992704 0.197510 0.932289
Si Si4 0.769637 0.351018 0.062366
Si Si5 0.584599 0.750000 0.046398
Si Si6 0.760848 0.682000 0.708444
O O1 0.717409 0.404333 0.417063
O O2 0.845946 0.633941 0.681759
O O3 0.083699 0.622794 0.763522
O O4 0.149689 0.955613 0.733804
O O5 0.244801 0.985372 0.152610
O O6 0.407442 0.201142 0.071062
O O7 0.392897 0.912469 0.117138
O O8 0.057062 0.393539 0.899523
O O9 0.934578 0.990496 0.828199
O O10 0.211379 0.362614 0.157405
O O11 0.606354 0.316174 0.021283
O O12 0.500000 0.500000 0.000000
O O13 0.500000 0.500000 0.500000
#
# Coordination Sequence:
#
# PCOD9056376 Si02
#       6
#     2   2   2   2   2   2
#     4  11  23  42  66  95 129 165 217 257 315 379
#     4  11  23  42  67  92 129 170 209 262 316 376
#     4  11  23  41  66  94 131 167 212 259 318 370
#     4  11  25  41  65  95 130 167 208 264 317 374
#     4  11  25  45  66  90 127 169 213 266 316 373
#     4  11  22  38  64  95 127 166 209 261 308 368
#
# _framework density 19.516943000000001
#
# number of rings (size 3 to 8) (size 9 to 14) (size 15 to 20)
#    0.000    1.000    5.000    3.500    2.333    5.333 
#    0.000    0.000    0.000    0.000    0.000    0.000 
#    0.000    0.000    0.000    0.000    0.000    0.000 
#
# Total GULP energy -67064.397293 kJ/mol
# GULP energy per Si atom -5588.699774 kJ/mol
# Density = 1.947252 g / cm^3
# Si number density = 19.516943 Si / 1000 Ang^3
#
#
#
# Elastic Constant Matrix: (Units=GPa)
#
#
# Indices 1 2 3 4 5 6 
#
# 1 73.3948 5.5541 22.7934 5.0153 4.8532 -3.4917
# 2 5.5541 108.6910 20.1513 21.8521 -3.8504 -0.6239
# 3 22.7934 20.1513 134.5058 9.4214 8.4968 -1.1991
# 4 5.0153 21.8521 9.4214 12.1654 -2.2602 2.1273
# 5 4.8532 -3.8504 8.4968 -2.2602 28.2661 5.3600
# 6 -3.4917 -0.6239 -1.1991 2.1273 5.3600 30.8927
#
#
#
# Elastic Compliance Matrix: (Units=1/GPa)
#
#
# Indices 1 2 3 4 5 6 
#
# 1 0.014991 0.001016 -0.001957 -0.007506 -0.002953 0.002668
# 2 0.001016 0.014624 -0.000417 -0.026899 -0.000656 0.002360
# 3 -0.001957 -0.000417 0.008418 -0.005675 -0.002893 0.000990
# 4 -0.007506 -0.026899 -0.005675 0.142900 0.013368 -0.013772
# 5 -0.002953 -0.000656 -0.002893 0.013368 0.039289 -0.008197
# 6 0.002668 0.002360 0.000990 -0.013772 -0.008197 0.035128
#
#
# Mechanical properties :
#
#
# Convention : Reuss Voigt Hill
#
# Bulk Modulus (GPa) = 28.31318 45.95436 37.13377
# Shear Modulus (GPa) = 18.52984 32.13771 25.33377
#
# Velocity S-wave (km/s) = 3.08461 4.06230 3.60674
# Velocity P-wave (km/s) = 5.21775 6.75278 6.03428
#
# Compressibility (1/GPa) = 0.03531924
#
# Stress axis : x y z
#
# Youngs Moduli (GPa) = 66.70777 68.38037 118.79846
#
# Poissons Ratio (x) = -0.06951 0.23243
# Poissons Ratio (y) = -0.06781 0.04949
# Poissons Ratio (z) = 0.13051 0.02848
#
# Static dielectric constant tensor:
#      x y z
#    x 1.693960 0.010240 0.008370 
#    y 0.010240 1.666260 0.011800 
#    z 0.008370 0.011800 1.697900 
# 
# From -- ./inp_files/22797.got.cif
#   From: 2010.05.17/outbox.cif.g08.bks.cpg/sg2_12_cif.got.tgz:22797.got - 2010.06.03 11:33:40.
