data_PCOD9056078
_publ_section_title
;
Structure prediction by ZEFSAII (Michael W. Deem and Ramdas Pophale) SiO2 
 PCOD9056078
Probable space group: P -1
;
_chemical_formula_sum "Si O2"
_cell_formula_units_Z 16
_cell_length_a 15.086900
_cell_length_b 9.666999
_cell_length_c 6.773973
_cell_angle_alpha 127.768519
_cell_angle_beta 65.694071
_cell_angle_gamma 130.636857
_cell_volume 592.505018
_symmetry_space_group_name_H-M "P -1"
_symmetry_group_IT_number 2
_symmetry_cell_setting 'triclinic'
loop_
_space_group_symop_operation_xyz
x,y,z
-x,-y,-z
loop_
_atom_site_type_symbol
_atom_site_label
_atom_site_fract_x
_atom_site_fract_y
_atom_site_fract_z
Si Si1 0.242345 0.056395 0.575609
Si Si2 0.783239 0.341715 0.671019
Si Si3 0.595216 0.073723 0.301953
Si Si4 0.287767 0.171114 0.141592
Si Si5 0.134708 0.184275 0.036466
Si Si6 0.478189 0.444342 0.741843
Si Si7 0.660552 0.373405 0.167270
Si Si8 0.861485 0.820805 0.472300
O O1 0.242946 0.130011 0.902574
O O2 0.384211 0.198330 0.573877
O O3 0.169214 0.804827 0.453137
O O4 0.228064 0.077125 0.345233
O O5 0.714863 0.250289 0.452108
O O6 0.851625 0.590967 0.807436
O O7 0.690524 0.276386 0.873861
O O8 0.583761 0.195595 0.239668
O O9 0.500000 0.000000 0.500000
O O10 0.628680 0.918424 0.044373
O O11 0.387159 0.417664 0.323982
O O12 0.163835 0.191250 0.266473
O O13 0.160249 0.154733 0.736589
O O14 0.000000 0.000000 0.000000
O O15 0.407496 0.535218 0.793901
O O16 0.500000 0.500000 0.000000
O O17 0.788753 0.564618 0.290714
O O18 0.000000 0.000000 0.500000
#
# Coordination Sequence:
#
# PCOD9056078 Si02
#       8
#     2   2   2   2   2   2   2   2
#     4  11  24  45  73 112 150 209 264 328 417 479
#     4  12  24  48  77 112 162 203 276 337 402 499
#     4  12  28  48  76 124 169 210 274 342 408 504
#     4  12  25  46  75 108 158 215 262 332 419 472
#     4  12  25  47  73 106 156 208 271 337 401 473
#     4  11  21  45  75 111 160 201 265 332 402 495
#     4  11  26  48  77 117 159 220 267 333 424 478
#     4  11  25  49  75 110 160 210 275 345 395 490
#
# _framework density 27.003988
#
# number of rings (size 3 to 8) (size 9 to 14) (size 15 to 20)
#    0.000    0.500    5.000    3.000    0.000    8.500 
#    2.250    1.250    0.000    0.000    0.000    0.000 
#    0.000    0.000    0.000    0.000    0.000    0.000 
#
# Total GULP energy -89255.581932 kJ/mol
# GULP energy per Si atom -5578.473871 kJ/mol
# Density = 2.694253 g / cm^3
# Si number density = 27.003988 Si / 1000 Ang^3
#
#
#
# Elastic Constant Matrix: (Units=GPa)
#
#
# Indices 1 2 3 4 5 6 
#
# 1 110.3786 82.5123 51.7871 20.3252 18.9427 -8.1385
# 2 82.5123 214.7084 71.9564 7.2295 -14.8395 -12.9762
# 3 51.7871 71.9564 187.6837 -10.9596 9.7165 -8.2823
# 4 20.3252 7.2295 -10.9596 75.2585 6.2197 10.3942
# 5 18.9427 -14.8395 9.7165 6.2197 59.6041 -10.0144
# 6 -8.1385 -12.9762 -8.2823 10.3942 -10.0144 62.3821
#
#
#
# Elastic Compliance Matrix: (Units=1/GPa)
#
#
# Indices 1 2 3 4 5 6 
#
# 1 0.015984 -0.005679 -0.002137 -0.003653 -0.005712 0.000312
# 2 -0.005679 0.007730 -0.001554 0.000034 0.004203 0.001330
# 3 -0.002137 -0.001554 0.006663 0.001805 -0.001013 -0.000181
# 4 -0.003653 0.000034 0.001805 0.015036 -0.001185 -0.002925
# 5 -0.005712 0.004203 -0.001013 -0.001185 0.020513 0.003485
# 6 0.000312 0.001330 -0.000181 -0.002925 0.003485 0.017370
#
#
# Mechanical properties :
#
#
# Convention : Reuss Voigt Hill
#
# Bulk Modulus (GPa) = 85.92608 102.80916 94.36762
# Shear Modulus (GPa) = 47.20731 59.88326 53.54528
#
# Velocity S-wave (km/s) = 4.18564 4.71422 4.45777
# Velocity P-wave (km/s) = 7.43292 8.23324 7.84330
#
# Compressibility (1/GPa) = 0.01163791
#
# Stress axis : x y z
#
# Youngs Moduli (GPa) = 62.56347 129.35943 150.07725
#
# Poissons Ratio (x) = 0.73467 0.32069
# Poissons Ratio (y) = 0.35532 0.23316
# Poissons Ratio (z) = 0.13369 0.20097
#
# Static dielectric constant tensor:
#      x y z
#    x 2.121070 -0.121940 0.012560 
#    y -0.121940 2.084950 -0.135950 
#    z 0.012560 -0.135950 2.475370 
# 
# From -- ./inp_files/118840.got.cif
#   From: 2010.05.17/outbox.cif.g08.bks.cpg/sg2_60_cif.got.tgz:118840.got - 2010.06.03 11:33:40.
