data_PCOD9056867
_publ_section_title
;
Structure prediction by ZEFSAII (Michael W. Deem and Ramdas Pophale) SiO2 
 PCOD9056867
Probable space group: P -1
;
_chemical_formula_sum "Si O2"
_cell_formula_units_Z 16
_cell_length_a 8.960514
_cell_length_b 14.668649
_cell_length_c 9.448137
_cell_angle_alpha 70.901525
_cell_angle_beta 73.072173
_cell_angle_gamma 39.569635
_cell_volume 745.968537
_symmetry_space_group_name_H-M "P -1"
_symmetry_group_IT_number 2
_symmetry_cell_setting 'triclinic'
loop_
_space_group_symop_operation_xyz
x,y,z
-x,-y,-z
loop_
_atom_site_type_symbol
_atom_site_label
_atom_site_fract_x
_atom_site_fract_y
_atom_site_fract_z
Si Si1 0.019951 0.794732 0.804508
Si Si2 0.889045 0.159827 0.935176
Si Si3 0.506836 0.696498 0.221683
Si Si4 0.257665 0.830060 0.523200
Si Si5 0.489625 0.919006 0.153864
Si Si6 0.992318 0.585198 0.839871
Si Si7 0.219009 0.130945 0.668585
Si Si8 0.610408 0.802406 0.621654
O O1 0.204660 0.758765 0.666061
O O2 0.996046 0.691370 0.848649
O O3 0.075838 0.804209 0.943261
O O4 0.760378 0.957765 0.762081
O O5 0.623681 0.283889 0.889822
O O6 0.018002 0.158419 0.774849
O O7 0.000000 0.000000 0.000000
O O8 0.355824 0.760485 0.375514
O O9 0.515403 0.806044 0.130169
O O10 0.765731 0.537022 0.251728
O O11 0.452146 0.807226 0.561298
O O12 0.000000 0.000000 0.500000
O O13 0.696617 0.837759 0.246815
O O14 0.500000 0.000000 0.000000
O O15 0.764233 0.676799 0.758653
O O16 0.000000 0.500000 0.000000
O O17 0.205716 0.209639 0.500817
O O18 0.426283 0.959771 0.665115
#
# Coordination Sequence:
#
# PCOD9056867 Si02
#       8
#     2   2   2   2   2   2   2   2
#     4  12  25  45  74 104 145 196 242 304 367 427
#     4  12  24  42  75 111 143 186 251 311 366 423
#     4  12  27  46  69 104 150 194 238 305 368 433
#     4  12  24  47  77 111 146 180 249 315 368 430
#     4  12  20  41  72 104 137 183 247 305 355 424
#     4  12  31  50  71 104 157 199 246 294 372 455
#     4  11  22  40  75 107 138 181 255 304 370 422
#     4  11  25  44  72 108 146 192 238 311 368 435
#
# _framework density 21.448625
#
# number of rings (size 3 to 8) (size 9 to 14) (size 15 to 20)
#    0.000    0.250    6.250    2.250    7.000    1.500 
#    0.000    0.000    0.000    0.000    0.000    0.000 
#    0.000    0.000    0.000    0.000    0.000    0.000 
#
# Total GULP energy -89439.281575 kJ/mol
# GULP energy per Si atom -5589.955098 kJ/mol
# Density = 2.139981 g / cm^3
# Si number density = 21.448625 Si / 1000 Ang^3
#
#
#
# Elastic Constant Matrix: (Units=GPa)
#
#
# Indices 1 2 3 4 5 6 
#
# 1 120.3933 27.9726 40.5233 -6.9591 3.2712 3.6723
# 2 27.9726 72.4958 20.9697 -3.3266 6.9784 1.6522
# 3 40.5233 20.9697 97.3066 -10.6161 -3.5668 -3.4946
# 4 -6.9591 -3.3266 -10.6161 32.4598 -3.4916 0.3142
# 5 3.2712 6.9784 -3.5668 -3.4916 42.8470 -2.0043
# 6 3.6723 1.6522 -3.4946 0.3142 -2.0043 20.8301
#
#
#
# Elastic Compliance Matrix: (Units=1/GPa)
#
#
# Indices 1 2 3 4 5 6 
#
# 1 0.010335 -0.002753 -0.003748 0.000654 -0.000708 -0.002310
# 2 -0.002753 0.015841 -0.002419 -0.000028 -0.002640 -0.001431
# 3 -0.003748 -0.002419 0.012922 0.003378 0.002180 0.003179
# 4 0.000654 -0.000028 0.003378 0.032357 0.002884 0.000243
# 5 -0.000708 -0.002640 0.002180 0.002884 0.024380 0.003002
# 6 -0.002310 -0.001431 0.003179 0.000243 0.003002 0.049347
#
#
# Mechanical properties :
#
#
# Convention : Reuss Voigt Hill
#
# Bulk Modulus (GPa) = 47.04039 52.12520 49.58279
# Shear Modulus (GPa) = 29.39329 32.60941 31.00135
#
# Velocity S-wave (km/s) = 3.70591 3.90340 3.80594
# Velocity P-wave (km/s) = 6.34752 6.68360 6.51772
#
# Compressibility (1/GPa) = 0.02125833
#
# Stress axis : x y z
#
# Youngs Moduli (GPa) = 96.76028 63.12685 77.38968
#
# Poissons Ratio (x) = 0.17377 0.29008
# Poissons Ratio (y) = 0.26635 0.18718
# Poissons Ratio (z) = 0.36268 0.15268
#
# Static dielectric constant tensor:
#      x y z
#    x 1.807890 -0.013240 0.004090 
#    y -0.013240 1.745410 -0.010440 
#    z 0.004090 -0.010440 1.733900 
# 
# From -- ./inp_files/206316.got.cif
#   From: 2010.05.17/outbox.cif.g08.bks.cpg/sg2_104_cif.got.tgz:206316.got - 2010.06.03 11:33:40.
