data_PCOD9056852
_publ_section_title
;
Structure prediction by ZEFSAII (Michael W. Deem and Ramdas Pophale) SiO2 
 PCOD9056852
Probable space group: P -1
;
_chemical_formula_sum "Si O2"
_cell_formula_units_Z 14
_cell_length_a 8.505349
_cell_length_b 7.974234
_cell_length_c 13.329927
_cell_angle_alpha 39.757691
_cell_angle_beta 114.407829
_cell_angle_gamma 109.817793
_cell_volume 526.170468
_symmetry_space_group_name_H-M "P -1"
_symmetry_group_IT_number 2
_symmetry_cell_setting 'triclinic'
loop_
_space_group_symop_operation_xyz
x,y,z
-x,-y,-z
loop_
_atom_site_type_symbol
_atom_site_label
_atom_site_fract_x
_atom_site_fract_y
_atom_site_fract_z
Si Si1 0.624370 0.349817 0.886409
Si Si2 0.896626 0.255195 0.633799
Si Si3 0.357112 0.780692 0.594993
Si Si4 0.225674 0.270594 0.512374
Si Si5 0.073731 0.761356 0.707917
Si Si6 0.539166 0.037977 0.816208
Si Si7 0.179960 0.276788 0.085673
O O1 0.449763 0.506065 0.747968
O O2 0.647866 0.203515 0.853851
O O3 0.755460 0.570955 0.866741
O O4 0.585542 0.142967 0.060812
O O5 0.766436 0.182512 0.546431
O O6 0.793261 0.425244 0.608852
O O7 0.000000 0.500000 0.500000
O O8 0.948512 0.978961 0.820173
O O9 0.235738 0.776690 0.663715
O O10 0.500000 0.000000 0.500000
O O11 0.416949 0.195478 0.634090
O O12 0.114050 0.249359 0.388875
O O13 0.109215 0.040039 0.644602
O O14 0.100303 0.501758 0.895560
O O15 0.654776 0.844331 0.870566
#
# Coordination Sequence:
#
# PCOD9056852 Si02
#       7
#     2   2   2   2   2   2   2
#     4  11  22  40  72 117 147 184 252 315 368 431
#     4  12  27  48  71 107 154 197 247 314 384 449
#     4  12  23  42  75 105 143 194 247 306 374 444
#     4  11  24  44  72 102 153 192 242 305 379 445
#     4  11  25  47  74 105 150 199 246 308 380 449
#     4  11  23  41  77 115 147 191 252 315 368 445
#     4  12  25  47  79 108 148 199 256 311 372 448
#
# _framework density 26.607346
#
# number of rings (size 3 to 8) (size 9 to 14) (size 15 to 20)
#    0.000    0.571    7.143    1.286    0.000    2.286 
#    0.000    0.714    6.286    0.000    0.000    0.000 
#    0.000    0.000    0.000    0.000    0.000    0.000 
#
# Total GULP energy -78177.104202 kJ/mol
# GULP energy per Si atom -5584.078872 kJ/mol
# Density = 2.654679 g / cm^3
# Si number density = 26.607346 Si / 1000 Ang^3
#
#
#
# Elastic Constant Matrix: (Units=GPa)
#
#
# Indices 1 2 3 4 5 6 
#
# 1 101.9249 65.1002 49.1213 6.8149 -21.7768 -7.3749
# 2 65.1002 158.2820 63.3903 -24.2779 -8.0682 3.6159
# 3 49.1213 63.3903 220.3616 -25.4744 1.0175 1.1961
# 4 6.8149 -24.2779 -25.4744 49.7284 3.0896 -1.0007
# 5 -21.7768 -8.0682 1.0175 3.0896 43.8393 4.8433
# 6 -7.3749 3.6159 1.1961 -1.0007 4.8433 33.2820
#
#
#
# Elastic Compliance Matrix: (Units=1/GPa)
#
#
# Indices 1 2 3 4 5 6 
#
# 1 0.018424 -0.007282 -0.002999 -0.008045 0.008054 0.003567
# 2 -0.007282 0.010437 -0.000687 0.005810 -0.001838 -0.002281
# 3 -0.002999 -0.000687 0.005779 0.003147 -0.001925 -0.000423
# 4 -0.008045 0.005810 0.003147 0.025932 -0.004710 -0.001062
# 5 0.008054 -0.001838 -0.001925 -0.004710 0.027074 -0.002028
# 6 0.003567 -0.002281 -0.000423 -0.001062 -0.002028 0.031363
#
#
# Mechanical properties :
#
#
# Convention : Reuss Voigt Hill
#
# Bulk Modulus (GPa) = 78.70257 92.86581 85.78419
# Shear Modulus (GPa) = 34.44033 45.56704 40.00368
#
# Velocity S-wave (km/s) = 3.60167 4.14282 3.88168
# Velocity P-wave (km/s) = 6.85124 7.60671 7.23884
#
# Compressibility (1/GPa) = 0.01270607
#
# Stress axis : x y z
#
# Youngs Moduli (GPa) = 54.27701 95.81013 173.03876
#
# Poissons Ratio (x) = 0.69764 0.51892
# Poissons Ratio (y) = 0.39522 0.11884
# Poissons Ratio (z) = 0.16277 0.06580
#
# Static dielectric constant tensor:
#      x y z
#    x 2.236500 -0.075720 -0.074180 
#    y -0.075720 2.181040 -0.056500 
#    z -0.074180 -0.056500 2.065370 
# 
# From -- ./inp_files/513908.got.cif
#   From: 2010.05.17/outbox.cif.g08.bks.cpg/sg2_257_cif.got.tgz:513908.got - 2010.06.03 11:33:40.
