data_PCOD9056830
_publ_section_title
;
Structure prediction by ZEFSAII (Michael W. Deem and Ramdas Pophale) SiO2 
 PCOD9056830
Probable space group: P -1
;
_chemical_formula_sum "Si O2"
_cell_formula_units_Z 12
_cell_length_a 12.136591
_cell_length_b 8.589404
_cell_length_c 9.153685
_cell_angle_alpha 65.334361
_cell_angle_beta 65.133035
_cell_angle_gamma 35.955166
_cell_volume 503.007833
_symmetry_space_group_name_H-M "P -1"
_symmetry_group_IT_number 2
_symmetry_cell_setting 'triclinic'
loop_
_space_group_symop_operation_xyz
x,y,z
-x,-y,-z
loop_
_atom_site_type_symbol
_atom_site_label
_atom_site_fract_x
_atom_site_fract_y
_atom_site_fract_z
Si Si1 0.710507 0.757721 0.050270
Si Si2 0.499333 0.912489 0.692133
Si Si3 0.652910 0.427377 0.655863
Si Si4 0.103370 0.390683 0.278018
Si Si5 0.959408 0.841515 0.375350
Si Si6 0.654007 0.461436 0.302647
O O1 0.747907 0.515526 0.145731
O O2 0.676934 0.867229 0.188438
O O3 0.863635 0.667034 0.889226
O O4 0.500000 0.000000 0.000000
O O5 0.536995 0.672681 0.734886
O O6 0.686734 0.790724 0.707485
O O7 0.500000 0.000000 0.500000
O O8 0.639266 0.514734 0.462867
O O9 0.553100 0.352540 0.723192
O O10 0.867646 0.214194 0.673131
O O11 0.038467 0.290094 0.436127
O O12 0.986710 0.682464 0.286777
O O13 0.772670 0.157835 0.345301
#
# Coordination Sequence:
#
# PCOD9056830 Si02
#       6
#     2   2   2   2   2   2
#     4  10  22  39  64  95 131 165 209 268 319 368
#     4  10  17  36  63  91 122 167 213 251 314 387
#     4  10  22  37  67  95 119 164 220 258 305 383
#     4   9  21  39  64  92 132 164 206 273 313 369
#     4  10  21  41  67  93 126 169 217 254 315 388
#     4  11  22  39  67  94 125 171 210 265 314 373
#
# _framework density 23.856489
#
# number of rings (size 3 to 8) (size 9 to 14) (size 15 to 20)
#    0.000    2.000    1.667    1.500    7.000    0.667 
#    0.000    8.333    0.000    0.000    0.000    0.000 
#    0.000    0.000    0.000    0.000    0.000    0.000 
#
# Total GULP energy -67103.172986 kJ/mol
# GULP energy per Si atom -5591.931082 kJ/mol
# Density = 2.380219 g / cm^3
# Si number density = 23.856489 Si / 1000 Ang^3
#
#
#
# Elastic Constant Matrix: (Units=GPa)
#
#
# Indices 1 2 3 4 5 6 
#
# 1 99.4926 19.2689 8.0778 1.8841 9.9373 -18.9382
# 2 19.2689 105.2749 43.3682 20.3446 3.7766 13.9977
# 3 8.0778 43.3682 90.8298 32.3693 12.0944 12.5368
# 4 1.8841 20.3446 32.3693 37.3449 3.8789 3.3863
# 5 9.9373 3.7766 12.0944 3.8789 30.1800 -0.8803
# 6 -18.9382 13.9977 12.5368 3.3863 -0.8803 17.6002
#
#
#
# Elastic Compliance Matrix: (Units=1/GPa)
#
#
# Indices 1 2 3 4 5 6 
#
# 1 0.015750 -0.005189 -0.002431 0.002465 -0.003232 0.022170
# 2 -0.005189 0.014310 -0.003407 -0.003467 0.001326 -0.013805
# 3 -0.002431 -0.003407 0.020144 -0.013844 -0.005412 -0.011862
# 4 0.002465 -0.003467 -0.013844 0.039821 0.000274 0.007623
# 5 -0.003232 0.001326 -0.005412 0.000274 0.036198 0.001080
# 6 0.022170 -0.013805 -0.011862 0.007623 0.001080 0.098689
#
#
# Mechanical properties :
#
#
# Convention : Reuss Voigt Hill
#
# Bulk Modulus (GPa) = 35.52444 48.55856 42.04150
# Shear Modulus (GPa) = 19.50461 32.01719 25.76090
#
# Velocity S-wave (km/s) = 2.86244 3.66741 3.28964
# Velocity P-wave (km/s) = 5.08409 6.19127 5.66479
#
# Compressibility (1/GPa) = 0.02814963
#
# Stress axis : x y z
#
# Youngs Moduli (GPa) = 63.49385 69.88014 49.64293
#
# Poissons Ratio (x) = 0.36264 0.12068
# Poissons Ratio (y) = 0.32950 0.16912
# Poissons Ratio (z) = 0.15435 0.23806
#
# Static dielectric constant tensor:
#      x y z
#    x 1.946030 -0.022970 0.022980 
#    y -0.022970 1.912170 0.022890 
#    z 0.022980 0.022890 1.922070 
# 
# From -- ./inp_files/155160.got.cif
#   From: 2010.05.17/outbox.cif.g08.bks.cpg/sg2_78_cif.got.tgz:155160.got - 2010.06.03 11:33:40.
