data_PCOD9056800
_publ_section_title
;
Structure prediction by ZEFSAII (Michael W. Deem and Ramdas Pophale) SiO2 
 PCOD9056800
Probable space group: P -1
;
_chemical_formula_sum "Si O2"
_cell_formula_units_Z 14
_cell_length_a 9.705634
_cell_length_b 18.177305
_cell_length_c 9.760302
_cell_angle_alpha 149.791164
_cell_angle_beta 53.181841
_cell_angle_gamma 124.557448
_cell_volume 688.363806
_symmetry_space_group_name_H-M "P -1"
_symmetry_group_IT_number 2
_symmetry_cell_setting 'triclinic'
loop_
_space_group_symop_operation_xyz
x,y,z
-x,-y,-z
loop_
_atom_site_type_symbol
_atom_site_label
_atom_site_fract_x
_atom_site_fract_y
_atom_site_fract_z
Si Si1 0.096758 0.744343 0.821817
Si Si2 0.727699 0.670297 0.316811
Si Si3 0.453498 0.862445 0.904382
Si Si4 0.452823 0.555502 0.769481
Si Si5 0.753088 0.540051 0.796773
Si Si6 0.990201 0.045896 0.419279
Si Si7 0.399448 0.887431 0.277642
O O1 0.253215 0.793048 0.912018
O O2 0.185284 0.623316 0.484461
O O3 0.924489 0.650412 0.830884
O O4 0.044365 0.906001 0.074451
O O5 0.565586 0.744824 0.588368
O O6 0.721068 0.538121 0.216820
O O7 0.883943 0.802438 0.434167
O O8 0.695541 0.601749 0.074957
O O9 0.491981 0.908559 0.109508
O O10 0.500000 0.000000 0.000000
O O11 0.500000 0.500000 0.500000
O O12 0.610818 0.546698 0.771098
O O13 0.415217 0.721996 0.046213
O O14 0.796260 0.075511 0.553111
O O15 0.000000 0.000000 0.500000
O O16 0.500000 0.000000 0.500000
#
# Coordination Sequence:
#
# PCOD9056800 Si02
#       7
#     2   2   2   2   2   2   2
#     4  11  22  40  70 101 136 171 239 291 334 392
#     4  12  24  43  75 102 132 184 241 281 340 415
#     4  12  23  42  71 104 134 179 233 285 339 413
#     4  12  26  45  66  99 152 178 222 289 362 407
#     4  11  24  42  71 105 130 184 239 286 336 414
#     4  12  23  46  72 100 136 185 236 284 340 417
#     4  12  27  46  70 102 142 187 222 286 358 406
#
# _framework density 20.338083000000001
#
# number of rings (size 3 to 8) (size 9 to 14) (size 15 to 20)
#    0.000    0.286    7.143    1.286    2.000    0.571 
#    0.000    2.143    0.000    0.000    0.000    0.000 
#    0.000    0.000    0.000    0.000    0.000    0.000 
#
# Total GULP energy -78113.146933 kJ/mol
# GULP energy per Si atom -5579.510495 kJ/mol
# Density = 2.029179 g / cm^3
# Si number density = 20.338083 Si / 1000 Ang^3
#
#
#
# Elastic Constant Matrix: (Units=GPa)
#
#
# Indices 1 2 3 4 5 6 
#
# 1 114.9167 65.7463 86.2203 -1.8568 -4.8049 12.3593
# 2 65.7463 138.3240 61.6818 17.4898 18.8885 -4.5506
# 3 86.2203 61.6818 200.6604 6.0388 1.5044 -14.1341
# 4 -1.8568 17.4898 6.0388 46.1299 -0.9556 -2.7048
# 5 -4.8049 18.8885 1.5044 -0.9556 36.0597 5.8009
# 6 12.3593 -4.5506 -14.1341 -2.7048 5.8009 28.3676
#
#
#
# Elastic Compliance Matrix: (Units=1/GPa)
#
#
# Indices 1 2 3 4 5 6 
#
# 1 0.023343 -0.010198 -0.008400 0.005100 0.011821 -0.017922
# 2 -0.010198 0.014067 0.000918 -0.005566 -0.010319 0.008736
# 3 -0.008400 0.000918 0.009003 -0.001416 -0.003439 0.008861
# 4 0.005100 -0.005566 -0.001416 0.024131 0.004692 -0.002479
# 5 0.011821 -0.010319 -0.003439 0.004692 0.037512 -0.015742
# 6 -0.017922 0.008736 0.008861 -0.002479 -0.015742 0.051859
#
#
# Mechanical properties :
#
#
# Convention : Reuss Voigt Hill
#
# Bulk Modulus (GPa) = 90.46641 97.91089 94.18865
# Shear Modulus (GPa) = 25.13077 38.12829 31.62953
#
# Velocity S-wave (km/s) = 3.51900 4.33451 3.94786
# Velocity P-wave (km/s) = 7.81594 8.56135 8.19712
#
# Compressibility (1/GPa) = 0.01105383
#
# Stress axis : x y z
#
# Youngs Moduli (GPa) = 42.83985 71.08612 111.07241
#
# Poissons Ratio (x) = 0.72493 0.93297
# Poissons Ratio (y) = 0.43688 -0.10195
# Poissons Ratio (z) = 0.35984 -0.06525
#
# Static dielectric constant tensor:
#      x y z
#    x 1.742570 -0.107520 -0.076650 
#    y -0.107520 2.211260 0.339450 
#    z -0.076650 0.339450 1.954540 
# 
# From -- ./inp_files/219000.got.cif
#   From: 2010.05.17/outbox.cif.g08.bks.cpg/sg2_110_cif.got.tgz:219000.got - 2010.06.03 11:33:40.
