data_PCOD9056795
_publ_section_title
;
Structure prediction by ZEFSAII (Michael W. Deem and Ramdas Pophale) SiO2 
 PCOD9056795
Probable space group: P -1
;
_chemical_formula_sum "Si O2"
_cell_formula_units_Z 16
_cell_length_a 12.240028
_cell_length_b 11.863415
_cell_length_c 11.959567
_cell_angle_alpha 109.452880
_cell_angle_beta 77.219088
_cell_angle_gamma 40.619929
_cell_volume 677.412026
_symmetry_space_group_name_H-M "P -1"
_symmetry_group_IT_number 2
_symmetry_cell_setting 'triclinic'
loop_
_space_group_symop_operation_xyz
x,y,z
-x,-y,-z
loop_
_atom_site_type_symbol
_atom_site_label
_atom_site_fract_x
_atom_site_fract_y
_atom_site_fract_z
Si Si1 0.882091 0.538183 0.940620
Si Si2 0.762217 0.509935 0.671133
Si Si3 0.468650 0.435342 0.882085
Si Si4 0.271842 0.050712 0.281860
Si Si5 0.138817 0.742664 0.851980
Si Si6 0.760422 0.297167 0.431565
Si Si7 0.798320 0.846302 0.929232
Si Si8 0.018870 0.801100 0.254199
O O1 0.865709 0.645751 0.877459
O O2 0.577990 0.799710 0.132250
O O3 0.079893 0.237625 0.763621
O O4 0.000000 0.500000 0.000000
O O5 0.707795 0.457449 0.577753
O O6 0.812819 0.391698 0.737436
O O7 0.025136 0.325634 0.507644
O O8 0.498206 0.841110 0.856379
O O9 0.412375 0.495163 0.780535
O O10 0.697410 0.119037 0.747109
O O11 0.500000 0.500000 0.000000
O O12 0.188045 0.656154 0.056714
O O13 0.197757 0.141733 0.200610
O O14 0.109641 0.777764 0.735462
O O15 0.992799 0.757182 0.911793
O O16 0.000000 0.000000 0.000000
O O17 0.500000 0.500000 0.500000
O O18 0.885385 0.058651 0.381322
#
# Coordination Sequence:
#
# PCOD9056795 Si02
#       8
#     2   2   2   2   2   2   2   2
#     4  11  26  49  78 103 144 197 249 305 363 442
#     4  12  26  45  75 111 150 193 241 308 370 442
#     4  11  22  40  69  99 141 191 242 292 366 431
#     4  11  24  46  69 109 142 193 244 295 369 440
#     4  12  24  42  72 105 145 194 242 305 369 437
#     4  12  27  43  70 115 154 189 245 308 373 440
#     4  12  24  49  75 106 147 190 248 301 367 438
#     4  11  25  47  69 104 149 196 241 300 373 427
#
# _framework density 23.619302999999999
#
# number of rings (size 3 to 8) (size 9 to 14) (size 15 to 20)
#    0.000    0.500    5.000    4.500    5.250    0.500 
#    0.000    0.625    0.000    0.000    0.000    0.000 
#    0.000    0.000    0.000    0.000    0.000    0.000 
#
# Total GULP energy -89112.335270 kJ/mol
# GULP energy per Si atom -5569.520954 kJ/mol
# Density = 2.356554 g / cm^3
# Si number density = 23.619303 Si / 1000 Ang^3
#
#
#
# Elastic Constant Matrix: (Units=GPa)
#
#
# Indices 1 2 3 4 5 6 
#
# 1 105.4219 22.9292 2.8520 -4.5109 -1.4320 -2.3059
# 2 22.9292 99.5747 -0.4944 -12.1464 7.6351 0.5840
# 3 2.8520 -0.4944 70.1915 -16.0375 -4.6319 10.9077
# 4 -4.5109 -12.1464 -16.0375 24.2063 -10.7421 12.0852
# 5 -1.4320 7.6351 -4.6319 -10.7421 33.6644 -2.9589
# 6 -2.3059 0.5840 10.9077 12.0852 -2.9589 46.5892
#
#
#
# Elastic Compliance Matrix: (Units=1/GPa)
#
#
# Indices 1 2 3 4 5 6 
#
# 1 0.010058 -0.002299 -0.000184 0.000960 0.001265 0.000401
# 2 -0.002299 0.011677 0.002723 0.008918 0.000193 -0.003199
# 3 -0.000184 0.002723 0.022878 0.026793 0.010043 -0.011712
# 4 0.000960 0.008918 0.026793 0.090083 0.027995 -0.027927
# 5 0.001265 0.000193 0.010043 0.027995 0.039410 -0.007050
# 6 0.000401 -0.003199 -0.011712 -0.027927 -0.007050 0.031063
#
#
# Mechanical properties :
#
#
# Convention : Reuss Voigt Hill
#
# Bulk Modulus (GPa) = 22.17697 36.19575 29.18636
# Shear Modulus (GPa) = 22.75611 37.55206 30.15409
#
# Velocity S-wave (km/s) = 3.10732 3.99167 3.57693
# Velocity P-wave (km/s) = 4.72056 6.05000 5.42615
#
# Compressibility (1/GPa) = 0.04509182
#
# Stress axis : x y z
#
# Youngs Moduli (GPa) = 99.42534 85.63491 43.71024
#
# Poissons Ratio (x) = 0.19690 0.00806
# Poissons Ratio (y) = 0.22861 -0.11903
# Poissons Ratio (z) = 0.01834 -0.23319
#
# Static dielectric constant tensor:
#      x y z
#    x 1.749150 -0.473890 0.841390 
#    y -0.473890 1.196380 1.458130 
#    z 0.841390 1.458130 -0.632460 
# 
# From -- ./inp_files/403436.got.cif
#   From: 2010.05.17/outbox.cif.g08.bks.cpg/sg2_202_cif.got.tgz:403436.got - 2010.06.03 11:33:40.
