data_PCOD9056674
_publ_section_title
;
Structure prediction by ZEFSAII (Michael W. Deem and Ramdas Pophale) SiO2 
 PCOD9056674
Probable space group: P -1
;
_chemical_formula_sum "Si O2"
_cell_formula_units_Z 16
_cell_length_a 11.737253
_cell_length_b 9.398995
_cell_length_c 10.137952
_cell_angle_alpha 136.050356
_cell_angle_beta 74.642057
_cell_angle_gamma 94.254413
_cell_volume 737.055878
_symmetry_space_group_name_H-M "P -1"
_symmetry_group_IT_number 2
_symmetry_cell_setting 'triclinic'
loop_
_space_group_symop_operation_xyz
x,y,z
-x,-y,-z
loop_
_atom_site_type_symbol
_atom_site_label
_atom_site_fract_x
_atom_site_fract_y
_atom_site_fract_z
Si Si1 0.452426 0.285740 0.398531
Si Si2 0.197003 0.723022 0.547560
Si Si3 0.693061 0.096824 0.109451
Si Si4 0.619859 0.749175 0.302507
Si Si5 0.973369 0.982598 0.650303
Si Si6 0.636924 0.202303 0.667838
Si Si7 0.242121 0.692313 0.032856
Si Si8 0.197828 0.283186 0.338552
O O1 0.500000 0.500000 0.500000
O O2 0.554328 0.102493 0.190810
O O3 0.435647 0.263019 0.543301
O O4 0.325077 0.289130 0.372692
O O5 0.250625 0.807803 0.718599
O O6 0.300894 0.663913 0.365909
O O7 0.147311 0.515065 0.462183
O O8 0.094553 0.896820 0.633370
O O9 0.699561 0.240880 0.074902
O O10 0.769613 0.875640 0.898917
O O11 0.506738 0.736327 0.234359
O O12 0.658026 0.973439 0.441126
O O13 0.724946 0.554341 0.123000
O O14 0.886037 0.818517 0.604249
O O15 0.897102 0.205035 0.864263
O O16 0.000000 0.000000 0.500000
O O17 0.700943 0.207141 0.791789
#
# Coordination Sequence:
#
# PCOD9056674 Si02
#       8
#     2   2   2   2   2   2   2   2
#     4  12  20  42  70 103 143 175 218 291 351 414
#     4  12  24  48  70  97 143 181 236 284 341 401
#     4  11  24  42  70 108 136 176 233 283 347 421
#     4  11  22  40  65  99 138 177 224 273 358 401
#     4  11  25  48  71 100 140 186 236 287 335 407
#     4  11  24  41  65  98 141 179 218 289 337 416
#     4  11  23  43  68  97 132 182 229 279 340 410
#     4  11  25  42  75 100 137 189 228 282 351 405
#
# _framework density 21.707989000000001
#
# number of rings (size 3 to 8) (size 9 to 14) (size 15 to 20)
#    0.000    0.750    5.000    2.625    0.000    3.000 
#    0.000    3.125    0.000    0.000    0.000    0.000 
#    0.000    0.000    0.000    0.000    0.000    0.000 
#
# Total GULP energy -89504.998858 kJ/mol
# GULP energy per Si atom -5594.062429 kJ/mol
# Density = 2.165858 g / cm^3
# Si number density = 21.707989 Si / 1000 Ang^3
#
#
#
# Elastic Constant Matrix: (Units=GPa)
#
#
# Indices 1 2 3 4 5 6 
#
# 1 80.3774 34.9813 33.5285 -6.5282 -10.1495 -6.4970
# 2 34.9813 91.3455 29.9005 -1.8785 -1.0947 -4.7751
# 3 33.5285 29.9005 63.5144 -9.1029 -3.4768 -13.7058
# 4 -6.5282 -1.8785 -9.1029 41.6206 -10.3188 -6.5573
# 5 -10.1495 -1.0947 -3.4768 -10.3188 35.3302 -1.4115
# 6 -6.4970 -4.7751 -13.7058 -6.5573 -1.4115 40.9408
#
#
#
# Elastic Compliance Matrix: (Units=1/GPa)
#
#
# Indices 1 2 3 4 5 6 
#
# 1 0.018129 -0.004638 -0.006570 0.002604 0.005207 0.000733
# 2 -0.004638 0.014186 -0.004817 -0.001784 -0.001930 -0.001046
# 3 -0.006570 -0.004817 0.024038 0.005754 0.002307 0.007444
# 4 0.002604 -0.001784 0.005754 0.029242 0.010086 0.007163
# 5 0.005207 -0.001930 0.002307 0.010086 0.033078 0.004129
# 6 0.000733 -0.001046 0.007444 0.007163 0.004129 0.028201
#
#
# Mechanical properties :
#
#
# Convention : Reuss Voigt Hill
#
# Bulk Modulus (GPa) = 41.14849 48.00644 44.57746
# Shear Modulus (GPa) = 26.73449 32.70011 29.71730
#
# Velocity S-wave (km/s) = 3.51315 3.88540 3.70396
# Velocity P-wave (km/s) = 5.95424 6.50316 6.23474
#
# Compressibility (1/GPa) = 0.02430223
#
# Stress axis : x y z
#
# Youngs Moduli (GPa) = 55.16143 70.49341 41.60112
#
# Poissons Ratio (x) = 0.32691 0.27333
# Poissons Ratio (y) = 0.25581 0.20040
# Poissons Ratio (z) = 0.36243 0.33958
#
# Static dielectric constant tensor:
#      x y z
#    x 1.818070 -0.007210 -0.015340 
#    y -0.007210 1.806740 0.048080 
#    z -0.015340 0.048080 1.789860 
# 
# From -- ./inp_files/245861.got.cif
#   From: 2010.05.17/outbox.cif.g08.bks.cpg/sg2_123_cif.got.tgz:245861.got - 2010.06.03 11:33:40.
