data_PCOD9056158
_publ_section_title
;
Structure prediction by ZEFSAII (Michael W. Deem and Ramdas Pophale) SiO2 
 PCOD9056158
Probable space group: P -1
;
_chemical_formula_sum "Si O2"
_cell_formula_units_Z 16
_cell_length_a 15.466807
_cell_length_b 9.399065
_cell_length_c 9.208353
_cell_angle_alpha 119.178108
_cell_angle_beta 39.575021
_cell_angle_gamma 121.333888
_cell_volume 719.148779
_symmetry_space_group_name_H-M "P -1"
_symmetry_group_IT_number 2
_symmetry_cell_setting 'triclinic'
loop_
_space_group_symop_operation_xyz
x,y,z
-x,-y,-z
loop_
_atom_site_type_symbol
_atom_site_label
_atom_site_fract_x
_atom_site_fract_y
_atom_site_fract_z
Si Si1 0.856494 0.555041 0.234200
Si Si2 0.064425 0.088488 0.810372
Si Si3 0.172465 0.972137 0.148992
Si Si4 0.534860 0.456908 0.595080
Si Si5 0.613163 0.376065 0.896162
Si Si6 0.857229 0.666574 0.614659
Si Si7 0.542366 0.853497 0.283442
Si Si8 0.150990 0.798568 0.390103
O O1 0.855332 0.714187 0.208564
O O2 0.695932 0.441192 0.374730
O O3 0.868373 0.589526 0.407191
O O4 0.000000 0.500000 0.000000
O O5 0.151617 0.966547 0.565208
O O6 0.933801 0.089323 0.874613
O O7 0.000000 0.000000 0.000000
O O8 0.136149 0.140921 0.335558
O O9 0.165843 0.845035 0.224421
O O10 0.324755 0.042161 0.923364
O O11 0.500000 0.500000 0.500000
O O12 0.437642 0.278776 0.686569
O O13 0.501964 0.592554 0.822875
O O14 0.711055 0.560360 0.817374
O O15 0.552031 0.267368 0.777923
O O16 0.725188 0.283704 0.769999
O O17 0.991778 0.680051 0.550492
O O18 0.500000 0.000000 0.500000
#
# Coordination Sequence:
#
# PCOD9056158 Si02
#       8
#     2   2   2   2   2   2   2   2
#     4  12  27  45  78 101 150 195 244 302 372 441
#     4  11  26  43  70 107 146 184 245 305 365 432
#     4  11  23  47  70  99 146 192 240 305 364 436
#     4  12  30  50  75 114 152 195 250 311 375 446
#     4  12  27  49  78 105 151 199 246 305 380 444
#     4  11  21  48  74 104 141 196 250 298 367 441
#     4  12  29  47  74 104 148 198 247 303 375 448
#     4  11  25  43  76 108 141 191 247 306 368 442
#
# _framework density 22.248525999999998
#
# number of rings (size 3 to 8) (size 9 to 14) (size 15 to 20)
#    0.000    0.500    5.000    2.250   10.500    0.500 
#    0.000    0.000    0.000    0.000    0.000    0.000 
#    0.000    0.000    0.000    0.000    0.000    0.000 
#
# Total GULP energy -89324.953021 kJ/mol
# GULP energy per Si atom -5582.809564 kJ/mol
# Density = 2.219789 g / cm^3
# Si number density = 22.248526 Si / 1000 Ang^3
#
#
#
# Elastic Constant Matrix: (Units=GPa)
#
#
# Indices 1 2 3 4 5 6 
#
# 1 79.3389 16.2225 40.3187 8.9180 3.2335 -17.5978
# 2 16.2225 66.7102 23.5469 -3.3929 8.3784 -2.1109
# 3 40.3187 23.5469 115.0193 -10.6442 2.4254 -4.6975
# 4 8.9180 -3.3929 -10.6442 34.7475 -3.8645 -5.9688
# 5 3.2335 8.3784 2.4254 -3.8645 38.0508 -8.4168
# 6 -17.5978 -2.1109 -4.6975 -5.9688 -8.4168 30.8762
#
#
#
# Elastic Compliance Matrix: (Units=1/GPa)
#
#
# Indices 1 2 3 4 5 6 
#
# 1 0.018797 -0.002456 -0.006243 -0.005392 0.000730 0.008752
# 2 -0.002456 0.016921 -0.002506 0.000870 -0.003586 -0.001434
# 3 -0.006243 -0.002506 0.011803 0.004907 0.000649 -0.000808
# 4 -0.005392 0.000870 0.004907 0.033176 0.004513 0.005376
# 5 0.000730 -0.003586 0.000649 0.004513 0.029454 0.009171
# 6 0.008752 -0.001434 -0.000808 0.005376 0.009171 0.040694
#
#
# Mechanical properties :
#
#
# Convention : Reuss Voigt Hill
#
# Bulk Modulus (GPa) = 39.82308 46.80497 43.31402
# Shear Modulus (GPa) = 27.52932 32.80025 30.16478
#
# Velocity S-wave (km/s) = 3.52142 3.84378 3.68613
# Velocity P-wave (km/s) = 5.87128 6.38612 6.13411
#
# Compressibility (1/GPa) = 0.02511107
#
# Stress axis : x y z
#
# Youngs Moduli (GPa) = 53.20130 59.09743 84.72487
#
# Poissons Ratio (x) = 0.14516 0.52894
# Poissons Ratio (y) = 0.13068 0.21228
# Poissons Ratio (z) = 0.33214 0.14807
#
# Static dielectric constant tensor:
#      x y z
#    x 1.788200 -0.025470 -0.135500 
#    y -0.025470 1.787270 -0.125730 
#    z -0.135500 -0.125730 1.583650 
# 
# From -- ./inp_files/299077.got.cif
#   From: 2010.05.17/outbox.cif.g08.bks.cpg/sg2_150_cif.got.tgz:299077.got - 2010.06.03 11:33:40.
