data_PCOD9056844
_publ_section_title
;
Structure prediction by ZEFSAII (Michael W. Deem and Ramdas Pophale) SiO2 
 PCOD9056844
Probable space group: P -1
;
_chemical_formula_sum "Si O2"
_cell_formula_units_Z 13
_cell_length_a 8.388620
_cell_length_b 8.850740
_cell_length_c 12.991783
_cell_angle_alpha 87.710974
_cell_angle_beta 46.895653
_cell_angle_gamma 111.638385
_cell_volume 590.969131
_symmetry_space_group_name_H-M "P -1"
_symmetry_group_IT_number 2
_symmetry_cell_setting 'triclinic'
loop_
_space_group_symop_operation_xyz
x,y,z
-x,-y,-z
loop_
_atom_site_type_symbol
_atom_site_label
_atom_site_fract_x
_atom_site_fract_y
_atom_site_fract_z
Si Si1 0.565446 0.754083 0.160449
Si Si2 0.500000 0.000000 0.500000
Si Si3 0.225511 0.838511 0.172779
Si Si4 0.587603 0.604938 0.848789
Si Si5 0.861627 0.060683 0.160698
Si Si6 0.952934 0.016375 0.400722
Si Si7 0.152878 0.676044 0.000111
O O1 0.331000 0.762771 0.215776
O O2 0.484814 0.550218 0.197368
O O3 0.666120 0.851362 0.222830
O O4 0.834780 0.868340 0.972036
O O5 0.248614 0.911586 0.689407
O O6 0.345627 0.058475 0.487425
O O7 0.060209 0.913546 0.290893
O O8 0.074068 0.695652 0.150541
O O9 0.500000 0.000000 0.000000
O O10 0.878540 0.769951 0.704525
O O11 0.422831 0.693131 0.900014
O O12 0.500000 0.500000 0.000000
O O13 0.833501 0.167331 0.076532
O O14 0.000000 0.000000 0.500000
O O15 0.000000 0.500000 0.000000
#
# Coordination Sequence:
#
# PCOD9056844 Si02
#       7
#     2   1   2   2   2   2   2
#     4  11  22  40  72 103 131 177 239 301 344 414
#     4  12  26  44  70  96 142 194 228 282 366 432
#     4  12  21  42  71  98 135 186 234 288 354 419
#     4  12  22  41  71 106 135 176 242 299 342 412
#     4  11  24  42  67 105 140 179 237 288 362 428
#     4  12  28  49  71 105 149 192 235 294 369 437
#     4  12  24  38  67 108 141 173 234 302 352 409
#
# _framework density 21.997765999999999
#
# number of rings (size 3 to 8) (size 9 to 14) (size 15 to 20)
#    0.000    0.308    6.154    3.692    2.154    0.000 
#    0.000    4.615    0.000    6.462    0.000    0.000 
#    0.000    0.000    0.000    0.000    0.000    0.000 
#
# Total GULP energy -72385.339794 kJ/mol
# GULP energy per Si atom -5568.103061 kJ/mol
# Density = 2.194770 g / cm^3
# Si number density = 21.997766 Si / 1000 Ang^3
#
#
#
# Elastic Constant Matrix: (Units=GPa)
#
#
# Indices 1 2 3 4 5 6 
#
# 1 124.7039 35.9114 28.8422 14.5037 -6.6074 11.0244
# 2 35.9114 145.5710 21.2616 5.5977 -15.0953 21.8969
# 3 28.8422 21.2616 51.2580 2.2353 -3.0604 13.8880
# 4 14.5037 5.5977 2.2353 10.7298 -5.8895 1.5465
# 5 -6.6074 -15.0953 -3.0604 -5.8895 22.9668 -0.4790
# 6 11.0244 21.8969 13.8880 1.5465 -0.4790 35.8659
#
#
#
# Elastic Compliance Matrix: (Units=1/GPa)
#
#
# Indices 1 2 3 4 5 6 
#
# 1 0.011268 -0.001733 -0.005178 -0.014546 -0.002314 0.000196
# 2 -0.001733 0.008601 -0.001193 0.001642 0.005328 -0.004256
# 3 -0.005178 -0.001193 0.024866 0.004661 0.002079 -0.007482
# 4 -0.014546 0.001642 0.004661 0.128168 0.030310 -0.003458
# 5 -0.002314 0.005328 0.002079 0.030310 0.054345 -0.003928
# 6 0.000196 -0.004256 -0.007482 -0.003458 -0.003928 0.033414
#
#
# Mechanical properties :
#
#
# Convention : Reuss Voigt Hill
#
# Bulk Modulus (GPa) = 35.05607 54.84036 44.94822
# Shear Modulus (GPa) = 17.45948 29.61367 23.53657
#
# Velocity S-wave (km/s) = 2.82031 3.67306 3.27456
# Velocity P-wave (km/s) = 5.15523 6.55535 5.89699
#
# Compressibility (1/GPa) = 0.02852573
#
# Stress axis : x y z
#
# Youngs Moduli (GPa) = 88.74994 116.26779 40.21634
#
# Poissons Ratio (x) = 0.20155 0.20824
# Poissons Ratio (y) = 0.15385 0.04796
# Poissons Ratio (z) = 0.45955 0.13866
#
# Static dielectric constant tensor:
#      x y z
#    x 1.896340 0.050310 0.030510 
#    y 0.050310 1.867060 0.037600 
#    z 0.030510 0.037600 1.787380 
# 
# From -- ./inp_files/490977.got.cif
#   From: 2010.05.17/outbox.cif.g08.bks.cpg/sg2_246_cif.got.tgz:490977.got - 2010.06.03 11:33:40.
