data_PCOD9056661
_publ_section_title
;
Structure prediction by ZEFSAII (Michael W. Deem and Ramdas Pophale) SiO2 
 PCOD9056661
Probable space group: P -1
;
_chemical_formula_sum "Si O2"
_cell_formula_units_Z 16
_cell_length_a 11.234093
_cell_length_b 7.186431
_cell_length_c 14.248409
_cell_angle_alpha 53.036198
_cell_angle_beta 57.480912
_cell_angle_gamma 84.323326
_cell_volume 730.789042
_symmetry_space_group_name_H-M "P -1"
_symmetry_group_IT_number 2
_symmetry_cell_setting 'triclinic'
loop_
_space_group_symop_operation_xyz
x,y,z
-x,-y,-z
loop_
_atom_site_type_symbol
_atom_site_label
_atom_site_fract_x
_atom_site_fract_y
_atom_site_fract_z
Si Si1 0.361788 0.993620 0.690979
Si Si2 0.294639 0.229983 0.150954
Si Si3 0.819311 0.029622 0.523404
Si Si4 0.891393 0.840553 0.175439
Si Si5 0.609549 0.198463 0.062046
Si Si6 0.351877 0.678674 0.610818
Si Si7 0.919416 0.617802 0.574185
Si Si8 0.177125 0.859428 0.154421
O O1 0.198898 0.010627 0.775592
O O2 0.477728 0.246249 0.521777
O O3 0.419120 0.928051 0.786103
O O4 0.356055 0.781433 0.682962
O O5 0.458017 0.203853 0.076077
O O6 0.247719 0.121430 0.307588
O O7 0.298431 0.509692 0.054560
O O8 0.193277 0.062367 0.164764
O O9 0.716850 0.154465 0.475639
O O10 0.142473 0.169356 0.498547
O O11 0.966328 0.242076 0.434719
O O12 0.009218 0.773810 0.212327
O O13 0.702906 0.064476 0.002628
O O14 0.000000 0.000000 0.000000
O O15 0.239957 0.400762 0.733231
O O16 0.000000 0.500000 0.500000
O O17 0.794050 0.377745 0.740149
#
# Coordination Sequence:
#
# PCOD9056661 Si02
#       8
#     2   2   2   2   2   2   2   2
#     4  11  26  47  72  97 136 192 234 282 339 410
#     4  11  24  42  69  99 132 175 219 282 346 404
#     4  11  22  40  65  94 134 169 217 277 333 403
#     4  12  27  45  68 103 140 180 231 290 342 406
#     4  11  24  45  66  98 137 174 227 284 338 411
#     4  11  26  47  69 101 135 187 237 281 342 407
#     4  11  23  38  62  98 132 173 214 271 347 401
#     4  12  24  42  66 101 135 174 226 281 350 409
#
# _framework density 21.894145000000002
#
# number of rings (size 3 to 8) (size 9 to 14) (size 15 to 20)
#    0.000    0.750    6.250    0.750    3.500    1.500 
#    0.000    1.250    0.000    0.000    0.000    0.000 
#    0.000    0.000    0.000    0.000    0.000    0.000 
#
# Total GULP energy -89412.439686 kJ/mol
# GULP energy per Si atom -5588.277480 kJ/mol
# Density = 2.184431 g / cm^3
# Si number density = 21.894145 Si / 1000 Ang^3
#
#
#
# Elastic Constant Matrix: (Units=GPa)
#
#
# Indices 1 2 3 4 5 6 
#
# 1 38.3418 5.4277 4.1441 7.6193 -7.5855 -4.9104
# 2 5.4277 90.4199 38.9501 11.4120 -6.0829 1.1420
# 3 4.1441 38.9501 108.3079 11.1558 -8.3817 4.4162
# 4 7.6193 11.4120 11.1558 37.4693 -0.6251 -6.5981
# 5 -7.5855 -6.0829 -8.3817 -0.6251 29.6530 -1.0183
# 6 -4.9104 1.1420 4.4162 -6.5981 -1.0183 36.9008
#
#
#
# Elastic Compliance Matrix: (Units=1/GPa)
#
#
# Indices 1 2 3 4 5 6 
#
# 1 0.029023 -0.000695 0.000095 -0.005037 0.007311 0.003173
# 2 -0.000695 0.013431 -0.004412 -0.002690 0.001259 -0.000426
# 3 0.000095 -0.004412 0.011284 -0.002271 0.002208 -0.001546
# 4 -0.005037 -0.002690 -0.002271 0.030063 -0.001676 0.005014
# 5 0.007311 0.001259 0.002208 -0.001676 0.036488 0.001377
# 6 0.003173 -0.000426 -0.001546 0.005014 0.001377 0.028655
#
#
# Mechanical properties :
#
#
# Convention : Reuss Voigt Hill
#
# Bulk Modulus (GPa) = 22.87618 37.12371 29.99994
# Shear Modulus (GPa) = 28.81184 33.37448 31.09316
#
# Velocity S-wave (km/s) = 3.63155 3.90854 3.77259
# Velocity P-wave (km/s) = 5.29674 6.11242 5.71914
#
# Compressibility (1/GPa) = 0.04371360
#
# Stress axis : x y z
#
# Youngs Moduli (GPa) = 34.45506 74.45305 88.62391
#
# Poissons Ratio (x) = 0.05178 -0.00841
# Poissons Ratio (y) = 0.02396 0.39098
# Poissons Ratio (z) = -0.00327 0.32847
#
# Static dielectric constant tensor:
#      x y z
#    x 1.809610 -0.028220 -0.021180 
#    y -0.028220 1.802290 0.036610 
#    z -0.021180 0.036610 1.886240 
# 
# From -- ./inp_files/514897.got.cif
#   From: 2010.05.17/outbox.cif.g08.bks.cpg/sg2_258_cif.got.tgz:514897.got - 2010.06.03 11:33:40.
