data_PCOD9056314
_publ_section_title
;
Structure prediction by ZEFSAII (Michael W. Deem and Ramdas Pophale) SiO2 
 PCOD9056314
Probable space group: P -1
;
_chemical_formula_sum "Si O2"
_cell_formula_units_Z 15
_cell_length_a 14.103713
_cell_length_b 17.172771
_cell_length_c 14.145768
_cell_angle_alpha 34.577125
_cell_angle_beta 45.241226
_cell_angle_gamma 21.942541
_cell_volume 697.285238
_symmetry_space_group_name_H-M "P -1"
_symmetry_group_IT_number 2
_symmetry_cell_setting 'triclinic'
loop_
_space_group_symop_operation_xyz
x,y,z
-x,-y,-z
loop_
_atom_site_type_symbol
_atom_site_label
_atom_site_fract_x
_atom_site_fract_y
_atom_site_fract_z
Si Si1 0.451160 0.847757 0.372483
Si Si2 0.500000 0.500000 0.500000
Si Si3 0.059374 0.549496 0.681235
Si Si4 0.289417 0.284140 0.112738
Si Si5 0.148058 0.686810 0.724269
Si Si6 0.959617 0.114296 0.194029
Si Si7 0.606015 0.180579 0.358287
Si Si8 0.216395 0.446443 0.200303
O O1 0.995011 0.489424 0.146211
O O2 0.160423 0.060303 0.334995
O O3 0.655188 0.642682 0.348700
O O4 0.525548 0.703559 0.560872
O O5 0.289371 0.639074 0.589280
O O6 0.250817 0.794161 0.319558
O O7 0.976099 0.514078 0.694302
O O8 0.561675 0.978678 0.769338
O O9 0.843230 0.860044 0.523196
O O10 0.382033 0.255156 0.180470
O O11 0.271947 0.427206 0.913906
O O12 0.154835 0.756066 0.750357
O O13 0.751823 0.191609 0.218170
O O14 0.945582 0.273305 0.992586
O O15 0.402556 0.310116 0.293528
#
# Coordination Sequence:
#
# PCOD9056314 Si02
#       8
#     2   1   2   2   2   2   2   2
#     4  11  22  37  65  96 130 167 216 258 329 374
#     4  12  26  40  66  90 132 166 214 260 332 368
#     4   9  22  39  65  98 124 170 213 260 324 371
#     4   8  21  40  61  93 125 168 206 270 309 377
#     4  11  24  42  63  93 131 167 216 268 313 392
#     4  11  25  43  66  93 128 175 212 267 319 384
#     4  11  22  42  64  96 132 168 215 266 313 380
#     4   9  21  45  64  93 132 166 215 269 313 377
#
# _framework density 21.512
#
# number of rings (size 3 to 8) (size 9 to 14) (size 15 to 20)
#    0.800    1.067    1.333    1.600    3.733    1.067 
#    0.000    0.000    0.000    4.000    0.000    0.000 
#    0.000    0.000    0.000    0.000    0.000    0.000 
#
# Total GULP energy -83507.350345 kJ/mol
# GULP energy per Si atom -5567.156690 kJ/mol
# Density = 2.146304 g / cm^3
# Si number density = 21.512000 Si / 1000 Ang^3
#
#
#
# Elastic Constant Matrix: (Units=GPa)
#
#
# Indices 1 2 3 4 5 6 
#
# 1 62.6103 -12.9966 -12.9048 -1.1377 1.8214 -6.2083
# 2 -12.9966 82.8829 3.3592 2.6646 -2.4884 -8.0917
# 3 -12.9048 3.3592 42.1492 3.5461 -7.9566 3.7195
# 4 -1.1377 2.6646 3.5461 20.5850 3.0866 0.5736
# 5 1.8214 -2.4884 -7.9566 3.0866 28.2904 -0.3329
# 6 -6.2083 -8.0917 3.7195 0.5736 -0.3329 15.7030
#
#
#
# Elastic Compliance Matrix: (Units=1/GPa)
#
#
# Indices 1 2 3 4 5 6 
#
# 1 0.018463 0.003518 0.004836 -0.000587 0.000639 0.008002
# 2 0.003518 0.013565 -0.000378 -0.001910 0.001169 0.008565
# 3 0.004836 -0.000378 0.027596 -0.005508 0.007965 -0.004449
# 4 -0.000587 -0.001910 -0.005508 0.050884 -0.007254 -0.001924
# 5 0.000639 0.001169 0.007965 -0.007254 0.038441 0.000048
# 6 0.008002 0.008565 -0.004449 -0.001924 0.000048 0.072385
#
#
# Mechanical properties :
#
#
# Convention : Reuss Voigt Hill
#
# Bulk Modulus (GPa) = 13.23150 15.83976 14.53563
# Shear Modulus (GPa) = 21.68506 26.92799 24.30652
#
# Velocity S-wave (km/s) = 3.17842 3.54187 3.36505
# Velocity P-wave (km/s) = 4.43101 4.90975 4.67651
#
# Compressibility (1/GPa) = 0.07557720
#
# Stress axis : x y z
#
# Youngs Moduli (GPa) = 54.16169 73.71922 36.23742
#
# Poissons Ratio (x) = -0.25938 -0.17526
# Poissons Ratio (y) = -0.19056 0.01371
# Poissons Ratio (z) = -0.26195 0.02788
#
# Static dielectric constant tensor:
#      x y z
#    x 1.861240 -0.019350 -0.044960 
#    y -0.019350 1.722290 0.027110 
#    z -0.044960 0.027110 1.775310 
# 
# From -- ./inp_files/534992.got.cif
#   From: 2010.05.17/outbox.cif.g08.bks.cpg/sg2_268_cif.got.tgz:534992.got - 2010.06.03 11:33:40.
