data_PCOD9056917
_publ_section_title
;
Structure prediction by ZEFSAII (Michael W. Deem and Ramdas Pophale) SiO2 
 PCOD9056917
Probable space group: P -1
;
_chemical_formula_sum "Si O2"
_cell_formula_units_Z 16
_cell_length_a 8.367411
_cell_length_b 8.744429
_cell_length_c 12.048667
_cell_angle_alpha 120.894200
_cell_angle_beta 59.794421
_cell_angle_gamma 103.179677
_cell_volume 653.238966
_symmetry_space_group_name_H-M "P -1"
_symmetry_group_IT_number 2
_symmetry_cell_setting 'triclinic'
loop_
_space_group_symop_operation_xyz
x,y,z
-x,-y,-z
loop_
_atom_site_type_symbol
_atom_site_label
_atom_site_fract_x
_atom_site_fract_y
_atom_site_fract_z
Si Si1 0.622316 0.013294 0.627140
Si Si2 0.272826 0.215624 0.881053
Si Si3 0.346316 0.411545 0.144854
Si Si4 0.267738 0.547375 0.896101
Si Si5 0.041886 0.886670 0.161253
Si Si6 0.651030 0.623387 0.432922
Si Si7 0.052322 0.740294 0.353260
Si Si8 0.638220 0.890207 0.827801
O O1 0.462157 0.166364 0.732344
O O2 0.822996 0.102520 0.577710
O O3 0.583461 0.830086 0.508987
O O4 0.597765 0.951589 0.740686
O O5 0.161596 0.387326 0.930784
O O6 0.133216 0.068052 0.837868
O O7 0.301833 0.259816 0.014694
O O8 0.559364 0.460751 0.080195
O O9 0.197317 0.571300 0.244461
O O10 0.362985 0.318249 0.224541
O O11 0.304214 0.480507 0.734971
O O12 0.185434 0.745656 0.000444
O O13 0.015147 0.803759 0.262765
O O14 0.152735 0.061416 0.205696
O O15 0.500000 0.500000 0.500000
O O16 0.852271 0.670419 0.436821
O O17 0.500000 0.000000 0.000000
#
# Coordination Sequence:
#
# PCOD9056917 Si02
#       8
#     2   2   2   2   2   2   2   2
#     4  11  25  46  69  97 138 186 229 266 342 415
#     4  12  22  39  70 105 131 169 230 285 336 398
#     4  12  22  39  72 103 132 175 220 284 345 391
#     4  12  22  42  67 100 136 172 226 276 337 397
#     4  11  23  40  72 103 135 173 225 284 342 395
#     4  12  28  46  68  96 141 184 224 284 337 402
#     4  11  23  47  72  99 131 181 233 278 334 411
#     4  11  22  41  65 100 141 175 212 283 343 398
#
# _framework density 24.493335999999999
#
# number of rings (size 3 to 8) (size 9 to 14) (size 15 to 20)
#    0.000    0.500    6.250    3.375    0.000    2.000 
#    0.000    2.500    0.000    0.000    0.000    0.000 
#    0.000    0.000    0.000    0.000    0.000    0.000 
#
# Total GULP energy -89279.436768 kJ/mol
# GULP energy per Si atom -5579.964798 kJ/mol
# Density = 2.443759 g / cm^3
# Si number density = 24.493336 Si / 1000 Ang^3
#
#
#
# Elastic Constant Matrix: (Units=GPa)
#
#
# Indices 1 2 3 4 5 6 
#
# 1 107.5429 18.9838 15.0899 3.6998 -1.8730 20.6178
# 2 18.9838 88.0659 18.0898 0.7909 -1.7607 16.8258
# 3 15.0899 18.0898 76.6672 7.9280 6.1268 0.4129
# 4 3.6998 0.7909 7.9280 35.4144 -1.8575 -4.0730
# 5 -1.8730 -1.7607 6.1268 -1.8575 37.6308 5.8193
# 6 20.6178 16.8258 0.4129 -4.0730 5.8193 33.8239
#
#
#
# Elastic Compliance Matrix: (Units=1/GPa)
#
#
# Indices 1 2 3 4 5 6 
#
# 1 0.011095 -0.000607 -0.002007 -0.001395 0.001852 -0.006923
# 2 -0.000607 0.013457 -0.003172 -0.000183 0.002139 -0.006676
# 3 -0.002007 -0.003172 0.014725 -0.002859 -0.003225 0.002832
# 4 -0.001395 -0.000183 -0.002859 0.029588 0.001177 0.004337
# 5 0.001852 0.002139 -0.003225 0.001177 0.028417 -0.006901
# 6 -0.006923 -0.006676 0.002832 0.004337 -0.006901 0.038781
#
#
# Mechanical properties :
#
#
# Convention : Reuss Voigt Hill
#
# Bulk Modulus (GPa) = 36.09408 41.84476 38.96942
# Shear Modulus (GPa) = 31.87364 36.04800 33.96082
#
# Velocity S-wave (km/s) = 3.61129 3.84050 3.72766
# Velocity P-wave (km/s) = 5.67070 6.06524 5.87129
#
# Compressibility (1/GPa) = 0.02770537
#
# Stress axis : x y z
#
# Youngs Moduli (GPa) = 90.13099 74.30849 67.91192
#
# Poissons Ratio (x) = 0.04511 0.13630
# Poissons Ratio (y) = 0.05472 0.21541
# Poissons Ratio (z) = 0.18089 0.23570
#
# Static dielectric constant tensor:
#      x y z
#    x 2.006640 0.089250 -0.033550 
#    y 0.089250 2.030300 -0.023760 
#    z -0.033550 -0.023760 2.014900 
# 
# From -- ./inp_files/383119.got.cif
#   From: 2010.05.17/outbox.cif.g08.bks.cpg/sg2_192_cif.got.tgz:383119.got - 2010.06.03 11:33:40.
