data_PCOD9056688
_publ_section_title
;
Structure prediction by ZEFSAII (Michael W. Deem and Ramdas Pophale) SiO2 
 PCOD9056688
Probable space group: P -1
;
_chemical_formula_sum "Si O2"
_cell_formula_units_Z 14
_cell_length_a 20.196943
_cell_length_b 8.012901
_cell_length_c 6.307384
_cell_angle_alpha 58.223831
_cell_angle_beta 42.524428
_cell_angle_gamma 68.636206
_cell_volume 586.020511
_symmetry_space_group_name_H-M "P -1"
_symmetry_group_IT_number 2
_symmetry_cell_setting 'triclinic'
loop_
_space_group_symop_operation_xyz
x,y,z
-x,-y,-z
loop_
_atom_site_type_symbol
_atom_site_label
_atom_site_fract_x
_atom_site_fract_y
_atom_site_fract_z
Si Si1 0.788193 0.264793 0.064300
Si Si2 0.600827 0.467398 0.406580
Si Si3 0.034902 0.788658 0.637970
Si Si4 0.155276 0.996580 0.528673
Si Si5 0.492979 0.862451 0.903194
Si Si6 0.907297 0.593818 0.761028
Si Si7 0.650193 0.883739 0.198787
O O1 0.680174 0.325814 0.207345
O O2 0.800115 0.068069 0.308894
O O3 0.870826 0.267767 0.686247
O O4 0.817795 0.439366 0.044893
O O5 0.500000 0.500000 0.500000
O O6 0.646665 0.680670 0.212426
O O7 0.562090 0.344119 0.782146
O O8 0.942471 0.647980 0.881172
O O9 0.073317 0.834926 0.751769
O O10 0.000000 0.000000 0.500000
O O11 0.112240 0.210509 0.460037
O O12 0.243012 0.014741 0.137145
O O13 0.601436 0.840389 0.569332
O O14 0.422842 0.972193 0.837032
O O15 0.500000 0.000000 0.000000
O O16 0.000000 0.500000 0.500000
#
# Coordination Sequence:
#
# PCOD9056688 Si02
#       7
#     2   2   2   2   2   2   2
#     4  11  23  41  68  93 132 175 215 267 332 384
#     4  12  24  43  67  97 135 176 225 273 328 389
#     4   9  22  41  65  97 128 164 218 269 320 398
#     4  11  22  40  66  94 130 168 213 265 329 386
#     4  11  24  43  66  92 127 175 220 268 330 380
#     4   9  20  41  64  94 128 164 211 267 324 388
#     4  11  24  41  65  94 130 171 220 270 321 397
#
# _framework density 23.889946999999999
#
# number of rings (size 3 to 8) (size 9 to 14) (size 15 to 20)
#    0.000    1.429    4.286    0.429    2.000    5.714 
#    2.571    4.286    0.000    0.000    0.000    0.000 
#    0.000    0.000    0.000    0.000    0.000    0.000 
#
# Total GULP energy -78195.622930 kJ/mol
# GULP energy per Si atom -5585.401638 kJ/mol
# Density = 2.383557 g / cm^3
# Si number density = 23.889947 Si / 1000 Ang^3
#
#
#
# Elastic Constant Matrix: (Units=GPa)
#
#
# Indices 1 2 3 4 5 6 
#
# 1 77.8030 35.8802 -2.0322 -0.2365 -15.9905 -20.6628
# 2 35.8802 87.8254 9.0146 -5.6644 -2.5817 -33.5470
# 3 -2.0322 9.0146 69.7874 3.9286 -12.4153 -17.0892
# 4 -0.2365 -5.6644 3.9286 43.9439 -5.8898 -12.6477
# 5 -15.9905 -2.5817 -12.4153 -5.8898 27.4927 -5.9558
# 6 -20.6628 -33.5470 -17.0892 -12.6477 -5.9558 51.1463
#
#
#
# Elastic Compliance Matrix: (Units=1/GPa)
#
#
# Indices 1 2 3 4 5 6 
#
# 1 0.022334 -0.004321 0.007409 0.005047 0.019654 0.012201
# 2 -0.004321 0.018417 0.000898 0.006414 0.003737 0.012655
# 3 0.007409 0.000898 0.020666 0.004617 0.017680 0.013688
# 4 0.005047 0.006414 0.004617 0.030239 0.015807 0.017107
# 5 0.019654 0.003737 0.017680 0.015807 0.065558 0.027841
# 6 0.012201 0.012655 0.013688 0.017107 0.027841 0.044827
#
#
# Mechanical properties :
#
#
# Convention : Reuss Voigt Hill
#
# Bulk Modulus (GPa) = 14.41180 35.68234 25.04707
# Shear Modulus (GPa) = 23.02022 37.35346 30.18684
#
# Velocity S-wave (km/s) = 3.10755 3.95848 3.55854
# Velocity P-wave (km/s) = 4.34988 5.98843 5.23368
#
# Compressibility (1/GPa) = 0.06938759
#
# Stress axis : x y z
#
# Youngs Moduli (GPa) = 44.77396 54.29788 48.38823
#
# Poissons Ratio (x) = 0.23465 -0.35849
# Poissons Ratio (y) = 0.19349 -0.04344
# Poissons Ratio (z) = -0.33172 -0.04875
#
# Static dielectric constant tensor:
#      x y z
#    x 1.990380 0.037290 -0.001690 
#    y 0.037290 1.931140 -0.010700 
#    z -0.001690 -0.010700 1.934730 
# 
# From -- ./inp_files/88426.got.cif
#   From: 2010.05.17/outbox.cif.g08.bks.cpg/sg2_45_cif.got.tgz:88426.got - 2010.06.03 11:33:40.
