data_PCOD9056692
_publ_section_title
;
Structure prediction by ZEFSAII (Michael W. Deem and Ramdas Pophale) SiO2 
 PCOD9056692
Probable space group: P -1
;
_chemical_formula_sum "Si O2"
_cell_formula_units_Z 16
_cell_length_a 11.229208
_cell_length_b 15.960941
_cell_length_c 14.913450
_cell_angle_alpha 152.835468
_cell_angle_beta 139.472744
_cell_angle_gamma 34.105800
_cell_volume 681.387523
_symmetry_space_group_name_H-M "P -1"
_symmetry_group_IT_number 2
_symmetry_cell_setting 'triclinic'
loop_
_space_group_symop_operation_xyz
x,y,z
-x,-y,-z
loop_
_atom_site_type_symbol
_atom_site_label
_atom_site_fract_x
_atom_site_fract_y
_atom_site_fract_z
Si Si1 0.524748 0.451438 0.273900
Si Si2 0.855468 0.085892 0.723429
Si Si3 0.977583 0.804896 0.842936
Si Si4 0.467337 0.467093 0.843491
Si Si5 0.034782 0.367180 0.155337
Si Si6 0.816832 0.090717 0.408699
Si Si7 0.636373 0.816343 0.974133
Si Si8 0.027694 0.268859 0.415616
O O1 0.467569 0.463458 0.146737
O O2 0.373235 0.678310 0.451187
O O3 0.483983 0.278626 0.132607
O O4 0.771702 0.380851 0.363022
O O5 0.609995 0.208240 0.667896
O O6 0.052839 0.921928 0.618854
O O7 0.878926 0.965603 0.714266
O O8 0.896158 0.282561 0.946724
O O9 0.213831 0.615754 0.825048
O O10 0.886289 0.742957 0.646283
O O11 0.855787 0.806407 0.865296
O O12 0.000000 0.000000 0.000000
O O13 0.500000 0.500000 0.000000
O O14 0.187439 0.363150 0.161334
O O15 0.928192 0.596477 0.358997
O O16 0.000000 0.000000 0.500000
O O17 0.737269 0.922802 0.194209
O O18 0.500000 0.000000 0.000000
#
# Coordination Sequence:
#
# PCOD9056692 Si02
#       8
#     2   2   2   2   2   2   2   2
#     4  11  24  44  69 100 133 178 223 276 337 397
#     4  11  22  43  66  94 136 173 216 278 340 394
#     4  11  22  41  70  94 130 180 223 280 334 392
#     4  11  22  42  70  93 133 177 219 271 336 403
#     4  11  22  40  66  96 130 170 227 271 335 395
#     4  11  23  42  66  99 140 177 224 276 341 403
#     4  11  25  42  69 100 136 176 228 281 334 405
#     4  11  23  40  70  97 130 175 227 277 333 399
#
# _framework density 23.481498999999999
#
# number of rings (size 3 to 8) (size 9 to 14) (size 15 to 20)
#    0.000    1.000    3.750    3.375    1.750    2.000 
#    2.250    0.625    2.750    0.000    0.000    0.000 
#    0.000    0.000    0.000    0.000    0.000    0.000 
#
# Total GULP energy -89225.948429 kJ/mol
# GULP energy per Si atom -5576.621777 kJ/mol
# Density = 2.342805 g / cm^3
# Si number density = 23.481499 Si / 1000 Ang^3
#
#
#
# Elastic Constant Matrix: (Units=GPa)
#
#
# Indices 1 2 3 4 5 6 
#
# 1 104.7273 22.7024 16.4920 9.1137 -13.3962 22.1188
# 2 22.7024 105.1602 9.0057 5.5151 -0.9573 5.8798
# 3 16.4920 9.0057 82.7680 -2.9139 -4.6271 0.5953
# 4 9.1137 5.5151 -2.9139 33.8990 3.4799 -9.2567
# 5 -13.3962 -0.9573 -4.6271 3.4799 31.5772 6.9933
# 6 22.1188 5.8798 0.5953 -9.2567 6.9933 39.8089
#
#
#
# Elastic Compliance Matrix: (Units=1/GPa)
#
#
# Indices 1 2 3 4 5 6 
#
# 1 0.014517 -0.001814 -0.002381 -0.007796 0.009088 -0.011172
# 2 -0.001814 0.010082 -0.000794 -0.001399 -0.000260 -0.000749
# 3 -0.002381 -0.000794 0.012722 0.002324 0.000184 0.001758
# 4 -0.007796 -0.001399 0.002324 0.037184 -0.010425 0.014981
# 5 0.009088 -0.000260 0.000184 -0.010425 0.039891 -0.014446
# 6 -0.011172 -0.000749 0.001758 0.014981 -0.014446 0.037433
#
#
# Mechanical properties :
#
#
# Convention : Reuss Voigt Hill
#
# Bulk Modulus (GPa) = 36.57225 43.22841 39.90033
# Shear Modulus (GPa) = 29.25302 37.35404 33.30353
#
# Velocity S-wave (km/s) = 3.53340 3.99279 3.77010
# Velocity P-wave (km/s) = 5.67938 6.30127 5.99839
#
# Compressibility (1/GPa) = 0.02734314
#
# Stress axis : x y z
#
# Youngs Moduli (GPa) = 68.88283 99.18934 78.60188
#
# Poissons Ratio (x) = 0.17992 0.18718
# Poissons Ratio (y) = 0.12494 0.06241
# Poissons Ratio (z) = 0.16404 0.07875
#
# Static dielectric constant tensor:
#      x y z
#    x 2.071640 -0.053010 -0.068750 
#    y -0.053010 1.883960 -0.005760 
#    z -0.068750 -0.005760 1.987050 
# 
# From -- ./inp_files/522677.got.cif
#   From: 2010.05.17/outbox.cif.g08.bks.cpg/sg2_262_cif.got.tgz:522677.got - 2010.06.03 11:33:40.
