data_PCOD9056794
_publ_section_title
;
Structure prediction by ZEFSAII (Michael W. Deem and Ramdas Pophale) SiO2 
 PCOD9056794
Probable space group: P -1
;
_chemical_formula_sum "Si O2"
_cell_formula_units_Z 16
_cell_length_a 11.812282
_cell_length_b 15.130648
_cell_length_c 9.538654
_cell_angle_alpha 109.208948
_cell_angle_beta 78.883641
_cell_angle_gamma 151.757139
_cell_volume 743.641618
_symmetry_space_group_name_H-M "P -1"
_symmetry_group_IT_number 2
_symmetry_cell_setting 'triclinic'
loop_
_space_group_symop_operation_xyz
x,y,z
-x,-y,-z
loop_
_atom_site_type_symbol
_atom_site_label
_atom_site_fract_x
_atom_site_fract_y
_atom_site_fract_z
Si Si1 0.848716 0.315064 0.351906
Si Si2 0.866622 0.666678 0.658683
Si Si3 0.147992 0.053754 0.870204
Si Si4 0.716520 0.040046 0.747869
Si Si5 0.839620 0.312750 0.027797
Si Si6 0.514406 0.786795 0.899494
Si Si7 0.790301 0.602931 0.331012
Si Si8 0.437944 0.404151 0.818776
O O1 0.920580 0.368963 0.198738
O O2 0.000000 0.500000 0.500000
O O3 0.934475 0.274154 0.359067
O O4 0.556938 0.129180 0.329117
O O5 0.733572 0.570013 0.490761
O O6 0.671482 0.519999 0.754962
O O7 0.995234 0.857962 0.748199
O O8 0.232982 0.182699 0.794519
O O9 0.377320 0.178521 0.968025
O O10 0.000000 0.000000 0.000000
O O11 0.920353 0.175141 0.650228
O O12 0.692460 0.932850 0.800590
O O13 0.820870 0.199720 0.900771
O O14 0.575285 0.173192 0.022735
O O15 0.000000 0.500000 0.000000
O O16 0.300663 0.564701 0.783472
O O17 0.651347 0.580861 0.260335
O O18 0.500000 0.500000 0.000000
#
# Coordination Sequence:
#
# PCOD9056794 Si02
#       8
#     2   2   2   2   2   2   2   2
#     4  11  26  47  71 107 151 185 235 294 354 429
#     4  12  27  46  71 105 146 184 236 293 361 418
#     4  12  24  42  71 105 135 180 237 295 351 415
#     4  11  24  44  71 102 144 188 239 291 351 424
#     4  11  22  40  69  99 134 185 236 286 344 417
#     4  11  22  41  68  98 137 182 235 289 348 416
#     4  12  26  46  70 102 142 189 234 292 359 424
#     4  12  26  46  75 102 137 185 239 299 349 419
#
# _framework density 21.515740000000001
#
# number of rings (size 3 to 8) (size 9 to 14) (size 15 to 20)
#    0.000    0.500    3.750    5.625    3.500    3.000 
#    0.000    0.000    0.000    0.000    0.000    0.000 
#    0.000    0.000    0.000    0.000    0.000    0.000 
#
# Total GULP energy -89477.545869 kJ/mol
# GULP energy per Si atom -5592.346617 kJ/mol
# Density = 2.146677 g / cm^3
# Si number density = 21.515740 Si / 1000 Ang^3
#
#
#
# Elastic Constant Matrix: (Units=GPa)
#
#
# Indices 1 2 3 4 5 6 
#
# 1 69.5076 -8.1909 14.4316 2.2071 4.8078 -9.3061
# 2 -8.1909 92.6171 -2.2197 -0.2365 -6.1366 -10.0344
# 3 14.4316 -2.2197 94.1840 6.8942 6.4618 6.3084
# 4 2.2071 -0.2365 6.8942 32.4764 -6.3147 -2.5625
# 5 4.8078 -6.1366 6.4618 -6.3147 33.9186 -1.5428
# 6 -9.3061 -10.0344 6.3084 -2.5625 -1.5428 34.5333
#
#
#
# Elastic Compliance Matrix: (Units=1/GPa)
#
#
# Indices 1 2 3 4 5 6 
#
# 1 0.015948 0.001830 -0.002640 -0.000341 -0.001252 0.005231
# 2 0.001830 0.011544 -0.000499 0.000830 0.002265 0.004101
# 3 -0.002640 -0.000499 0.011641 -0.003075 -0.002658 -0.003330
# 4 -0.000341 0.000830 -0.003075 0.033131 0.007111 0.003487
# 5 -0.001252 0.002265 -0.002658 0.007111 0.032026 0.002765
# 6 0.005231 0.004101 -0.003330 0.003487 0.002765 0.032549
#
#
# Mechanical properties :
#
#
# Convention : Reuss Voigt Hill
#
# Bulk Modulus (GPa) = 27.38657 29.37231 28.37944
# Shear Modulus (GPa) = 32.97521 37.00485 34.99003
#
# Velocity S-wave (km/s) = 3.91910 4.15166 4.03706
# Velocity P-wave (km/s) = 5.76502 6.05499 5.91178
#
# Compressibility (1/GPa) = 0.03651425
#
# Stress axis : x y z
#
# Youngs Moduli (GPa) = 62.70193 86.62822 85.90526
#
# Poissons Ratio (x) = -0.15853 0.22680
# Poissons Ratio (y) = -0.11475 0.04288
# Poissons Ratio (z) = 0.16554 0.04325
#
# Static dielectric constant tensor:
#      x y z
#    x 1.649250 0.097340 0.066280 
#    y 0.097340 1.845810 -0.062040 
#    z 0.066280 -0.062040 1.817730 
# 
# From -- ./inp_files/246070.got.cif
#   From: 2010.05.17/outbox.cif.g08.bks.cpg/sg2_124_cif.got.tgz:246070.got - 2010.06.03 11:33:40.
