data_PCOD9056091
_publ_section_title
;
Structure prediction by ZEFSAII (Michael W. Deem and Ramdas Pophale) SiO2 
 PCOD9056091
Probable space group: P -1
;
_chemical_formula_sum "Si O2"
_cell_formula_units_Z 12
_cell_length_a 12.093686
_cell_length_b 9.404790
_cell_length_c 9.584779
_cell_angle_alpha 60.783598
_cell_angle_beta 99.197171
_cell_angle_gamma 140.696290
_cell_volume 553.919405
_symmetry_space_group_name_H-M "P -1"
_symmetry_group_IT_number 2
_symmetry_cell_setting 'triclinic'
loop_
_space_group_symop_operation_xyz
x,y,z
-x,-y,-z
loop_
_atom_site_type_symbol
_atom_site_label
_atom_site_fract_x
_atom_site_fract_y
_atom_site_fract_z
Si Si1 0.673553 0.352962 0.505409
Si Si2 0.300097 0.946008 0.464748
Si Si3 0.963003 0.328256 0.198183
Si Si4 0.650345 0.640534 0.842417
Si Si5 0.390672 0.718149 0.170692
Si Si6 0.043403 0.027652 0.665297
O O1 0.747201 0.254392 0.555955
O O2 0.558220 0.235625 0.680444
O O3 0.829595 0.675580 0.396580
O O4 0.524461 0.199543 0.424753
O O5 0.165241 0.757242 0.660669
O O6 0.284069 0.111505 0.330303
O O7 0.168044 0.506279 0.211375
O O8 0.865750 0.043983 0.267576
O O9 0.000000 0.500000 0.000000
O O10 0.567687 0.404434 0.836650
O O11 0.500000 0.500000 0.000000
O O12 0.856850 0.805303 0.832731
O O13 0.500000 0.000000 0.000000
O O14 0.000000 0.000000 0.500000
#
# Coordination Sequence:
#
# PCOD9056091 Si02
#       6
#     2   2   2   2   2   2
#     4  11  23  40  65  91 130 172 214 267 322 385
#     4  11  24  41  62  98 130 169 220 269 320 380
#     4  11  23  41  66  96 129 168 222 266 323 389
#     4  11  23  41  66  96 129 168 222 266 323 389
#     4  11  22  39  62  93 130 173 215 263 325 386
#     4  11  21  46  65  90 128 171 214 264 324 383
#
# _framework density 21.663800999999999
#
# number of rings (size 3 to 8) (size 9 to 14) (size 15 to 20)
#    0.000    1.000    5.000    2.000    0.000   12.000 
#    0.000    1.667    0.000    0.000    0.000    0.000 
#    0.000    0.000    0.000    0.000    0.000    0.000 
#
# Total GULP energy -66930.254117 kJ/mol
# GULP energy per Si atom -5577.521176 kJ/mol
# Density = 2.161449 g / cm^3
# Si number density = 21.663801 Si / 1000 Ang^3
#
#
#
# Elastic Constant Matrix: (Units=GPa)
#
#
# Indices 1 2 3 4 5 6 
#
# 1 98.8678 39.3944 29.0846 3.8003 -12.2908 -43.0983
# 2 39.3944 109.0884 22.6883 -15.4953 -5.1075 -44.0719
# 3 29.0846 22.6883 110.1136 -17.3372 -16.2869 -30.0522
# 4 3.8003 -15.4953 -17.3372 28.3968 -4.1811 3.5119
# 5 -12.2908 -5.1075 -16.2869 -4.1811 48.2424 -3.6782
# 6 -43.0983 -44.0719 -30.0522 3.5119 -3.6782 57.3659
#
#
#
# Elastic Compliance Matrix: (Units=1/GPa)
#
#
# Indices 1 2 3 4 5 6 
#
# 1 0.016703 -0.001756 -0.001124 -0.004651 0.004138 0.011161
# 2 -0.001756 0.015412 0.002413 0.009242 0.003673 0.011455
# 3 -0.001124 0.002413 0.013394 0.009548 0.005915 0.007820
# 4 -0.004651 0.009242 0.009548 0.047057 0.007569 0.006213
# 5 0.004138 0.003673 0.005915 0.007569 0.025603 0.010208
# 6 0.011161 0.011455 0.007820 0.006213 0.010208 0.038988
#
#
# Mechanical properties :
#
#
# Convention : Reuss Voigt Hill
#
# Bulk Modulus (GPa) = 22.43433 55.60049 39.01741
# Shear Modulus (GPa) = 28.91016 41.92785 35.41901
#
# Velocity S-wave (km/s) = 3.65703 4.40408 4.04783
# Velocity P-wave (km/s) = 5.31131 7.18207 6.31633
#
# Compressibility (1/GPa) = 0.04457454
#
# Stress axis : x y z
#
# Youngs Moduli (GPa) = 59.86779 64.88600 74.66094
#
# Poissons Ratio (x) = 0.11394 0.08394
# Poissons Ratio (y) = 0.10513 -0.18016
# Poissons Ratio (z) = 0.06731 -0.15657
#
# Static dielectric constant tensor:
#      x y z
#    x 1.825230 0.028330 -0.043240 
#    y 0.028330 1.841970 0.027600 
#    z -0.043240 0.027600 1.747790 
# 
# From -- ./inp_files/154492.got.cif
#   From: 2010.05.17/outbox.cif.g08.bks.cpg/sg2_78_cif.got.tgz:154492.got - 2010.06.03 11:33:40.
