data_PCOD9056630
_publ_section_title
;
Structure prediction by ZEFSAII (Michael W. Deem and Ramdas Pophale) SiO2 
 PCOD9056630
Probable space group: P -1
;
_chemical_formula_sum "Si O2"
_cell_formula_units_Z 14
_cell_length_a 11.879748
_cell_length_b 10.894497
_cell_length_c 11.946059
_cell_angle_alpha 41.777544
_cell_angle_beta 40.487898
_cell_angle_gamma 41.562294
_cell_volume 607.405891
_symmetry_space_group_name_H-M "P -1"
_symmetry_group_IT_number 2
_symmetry_cell_setting 'triclinic'
loop_
_space_group_symop_operation_xyz
x,y,z
-x,-y,-z
loop_
_atom_site_type_symbol
_atom_site_label
_atom_site_fract_x
_atom_site_fract_y
_atom_site_fract_z
Si Si1 0.926828 0.126172 0.585203
Si Si2 0.260728 0.815433 0.674329
Si Si3 0.364249 0.181385 0.710228
Si Si4 0.773733 0.574349 0.134344
Si Si5 0.455141 0.824448 0.060378
Si Si6 0.024245 0.479187 0.631636
Si Si7 0.354712 0.552247 0.975250
O O1 0.712023 0.153724 0.743926
O O2 0.944760 0.336201 0.456080
O O3 0.000000 0.000000 0.500000
O O4 0.056626 0.985298 0.681692
O O5 0.431433 0.862965 0.466443
O O6 0.266388 0.615732 0.743100
O O7 0.287167 0.766505 0.818928
O O8 0.298331 0.359755 0.731367
O O9 0.201341 0.270516 0.677953
O O10 0.390154 0.988949 0.898665
O O11 0.650712 0.774218 0.016042
O O12 0.000000 0.500000 0.000000
O O13 0.514452 0.610617 0.101476
O O14 0.000000 0.500000 0.500000
O O15 0.830732 0.480536 0.828084
O O16 0.500000 0.500000 0.000000
#
# Coordination Sequence:
#
# PCOD9056630 Si02
#       7
#     2   2   2   2   2   2   2
#     4  12  25  45  70 103 139 178 226 282 338 402
#     4  11  24  40  63  96 131 175 224 277 334 399
#     4  12  23  41  65  96 133 176 222 276 336 402
#     4  11  22  40  63  94 133 176 221 277 338 399
#     4  11  24  42  67  99 133 175 222 279 338 401
#     4  12  26  46  71 101 135 180 229 280 339 404
#     4  11  24  46  68  95 135 180 227 281 337 403
#
# _framework density 23.048836999999999
#
# number of rings (size 3 to 8) (size 9 to 14) (size 15 to 20)
#    0.000    0.571    0.000   10.286    0.000    4.571 
#    0.000    5.714    0.000    0.000    0.000    0.000 
#    0.000    0.000    0.000    0.000    0.000    0.000 
#
# Total GULP energy -78262.938371 kJ/mol
# GULP energy per Si atom -5590.209884 kJ/mol
# Density = 2.299638 g / cm^3
# Si number density = 23.048837 Si / 1000 Ang^3
#
#
#
# Elastic Constant Matrix: (Units=GPa)
#
#
# Indices 1 2 3 4 5 6 
#
# 1 112.7468 30.8195 27.4145 -6.3100 18.3851 -35.9845
# 2 30.8195 87.2123 33.8695 2.0313 2.5959 -32.0082
# 3 27.4145 33.8695 101.3777 9.3589 -1.2763 -13.9634
# 4 -6.3100 2.0313 9.3589 49.4493 -12.6003 6.2955
# 5 18.3851 2.5959 -1.2763 -12.6003 47.4235 -4.3954
# 6 -35.9845 -32.0082 -13.9634 6.2955 -4.3954 42.6156
#
#
#
# Elastic Compliance Matrix: (Units=1/GPa)
#
#
# Indices 1 2 3 4 5 6 
#
# 1 0.013342 0.000011 -0.002246 -0.000275 -0.004368 0.010129
# 2 0.000011 0.017493 -0.004052 -0.001576 -0.000376 0.012015
# 3 -0.002246 -0.004052 0.011941 -0.002096 0.000798 -0.000635
# 4 -0.000275 -0.001576 -0.002096 0.022728 0.005724 -0.004870
# 5 -0.004368 -0.000376 0.000798 0.005724 0.024152 -0.002064
# 6 0.010129 0.012015 -0.000635 -0.004870 -0.002064 0.041341
#
#
# Mechanical properties :
#
#
# Convention : Reuss Voigt Hill
#
# Bulk Modulus (GPa) = 33.10913 53.94932 43.52922
# Shear Modulus (GPa) = 32.54404 41.84657 37.19530
#
# Velocity S-wave (km/s) = 3.76168 4.26556 4.02152
# Velocity P-wave (km/s) = 5.76741 6.90778 6.36319
#
# Compressibility (1/GPa) = 0.03020315
#
# Stress axis : x y z
#
# Youngs Moduli (GPa) = 74.95115 57.16423 83.74353
#
# Poissons Ratio (x) = -0.00064 0.18810
# Poissons Ratio (y) = -0.00084 0.33931
# Poissons Ratio (z) = 0.16835 0.23162
#
# Static dielectric constant tensor:
#      x y z
#    x 2.067570 -0.038380 0.136700 
#    y -0.038380 1.881630 -0.095380 
#    z 0.136700 -0.095380 1.938320 
# 
# From -- ./inp_files/427331.got.cif
#   From: 2010.05.17/outbox.cif.g08.bks.cpg/sg2_214_cif.got.tgz:427331.got - 2010.06.03 11:33:40.
