data_PCOD9056699
_publ_section_title
;
Structure prediction by ZEFSAII (Michael W. Deem and Ramdas Pophale) SiO2 
 PCOD9056699
Probable space group: P -1
;
_chemical_formula_sum "Si O2"
_cell_formula_units_Z 16
_cell_length_a 15.173210
_cell_length_b 9.387979
_cell_length_c 9.439671
_cell_angle_alpha 33.307974
_cell_angle_beta 104.396087
_cell_angle_gamma 117.549636
_cell_volume 627.853948
_symmetry_space_group_name_H-M "P -1"
_symmetry_group_IT_number 2
_symmetry_cell_setting 'triclinic'
loop_
_space_group_symop_operation_xyz
x,y,z
-x,-y,-z
loop_
_atom_site_type_symbol
_atom_site_label
_atom_site_fract_x
_atom_site_fract_y
_atom_site_fract_z
Si Si1 0.985144 0.347447 0.270029
Si Si2 0.329135 0.234061 0.695852
Si Si3 0.282449 0.627692 0.516557
Si Si4 0.522525 0.825670 0.780299
Si Si5 0.897661 0.848035 0.987797
Si Si6 0.633325 0.295836 0.925421
Si Si7 0.852931 0.236890 0.826368
Si Si8 0.145904 0.245967 0.269983
O O1 0.030412 0.548843 0.257273
O O2 0.075550 0.252688 0.364828
O O3 0.868866 0.084073 0.449870
O O4 0.000000 0.500000 0.000000
O O5 0.348707 0.457455 0.649662
O O6 0.361008 0.456471 0.390106
O O7 0.377264 0.011144 0.887933
O O8 0.207254 0.999340 0.876182
O O9 0.194191 0.453306 0.739208
O O10 0.217811 0.613691 0.361608
O O11 0.358765 0.959965 0.310701
O O12 0.500000 0.000000 0.500000
O O13 0.500000 0.500000 0.000000
O O14 0.454954 0.792640 0.919746
O O15 0.906726 0.791995 0.873814
O O16 0.854315 0.075898 0.816324
O O17 0.000000 0.000000 0.000000
O O18 0.743086 0.476758 0.901436
#
# Coordination Sequence:
#
# PCOD9056699 Si02
#       8
#     2   2   2   2   2   2   2   2
#     4  11  22  40  66  98 148 188 244 308 368 435
#     4  11  23  46  74 109 144 185 248 300 380 430
#     4  11  26  47  77 101 155 197 243 322 379 441
#     4  12  30  52  76 110 152 197 253 311 385 445
#     4  11  25  43  69 106 148 198 251 301 374 462
#     4  12  25  46  75 109 143 192 248 312 361 462
#     4  11  23  45  69 105 154 191 245 312 374 444
#     4  11  24  39  65 102 140 190 246 298 374 433
#
# _framework density 25.483633999999999
#
# number of rings (size 3 to 8) (size 9 to 14) (size 15 to 20)
#    0.000    0.750    2.500    3.750    5.250    8.000 
#    0.000    0.000    0.000    0.000    0.000    0.000 
#    0.000    0.000    0.000    0.000    0.000    0.000 
#
# Total GULP energy -89382.477704 kJ/mol
# GULP energy per Si atom -5586.404857 kJ/mol
# Density = 2.542563 g / cm^3
# Si number density = 25.483634 Si / 1000 Ang^3
#
#
#
# Elastic Constant Matrix: (Units=GPa)
#
#
# Indices 1 2 3 4 5 6 
#
# 1 74.7492 31.4552 40.6307 -11.6573 -10.7353 -18.7536
# 2 31.4552 128.6049 49.5078 -19.8588 -5.9889 -5.0302
# 3 40.6307 49.5078 154.3967 -5.4307 -3.1302 -16.8133
# 4 -11.6573 -19.8588 -5.4307 51.5557 -2.2590 -4.9761
# 5 -10.7353 -5.9889 -3.1302 -2.2590 47.0171 -3.2734
# 6 -18.7536 -5.0302 -16.8133 -4.9761 -3.2734 45.5873
#
#
#
# Elastic Compliance Matrix: (Units=1/GPa)
#
#
# Indices 1 2 3 4 5 6 
#
# 1 0.019238 -0.002322 -0.003300 0.004004 0.004571 0.007206
# 2 -0.002322 0.009758 -0.002444 0.002966 0.000664 -0.000409
# 3 -0.003300 -0.002444 0.008236 -0.000715 -0.000460 0.001299
# 4 0.004004 0.002966 -0.000715 0.021896 0.002595 0.004287
# 5 0.004571 0.000664 -0.000460 0.002595 0.022749 0.003701
# 6 0.007206 -0.000409 0.001299 0.004287 0.003701 0.026068
#
#
# Mechanical properties :
#
#
# Convention : Reuss Voigt Hill
#
# Bulk Modulus (GPa) = 47.39647 66.77089 57.08368
# Shear Modulus (GPa) = 38.13602 44.57583 41.35592
#
# Velocity S-wave (km/s) = 3.87265 4.18687 4.03282
# Velocity P-wave (km/s) = 6.21576 7.04497 6.64332
#
# Compressibility (1/GPa) = 0.02109862
#
# Stress axis : x y z
#
# Youngs Moduli (GPa) = 51.98174 102.48412 121.41798
#
# Poissons Ratio (x) = 0.23797 0.40065
# Poissons Ratio (y) = 0.12070 0.29680
# Poissons Ratio (z) = 0.17153 0.25052
#
# Static dielectric constant tensor:
#      x y z
#    x 2.224430 -0.115740 0.189960 
#    y -0.115740 2.099890 -0.085180 
#    z 0.189960 -0.085180 2.203570 
# 
# From -- ./inp_files/328340.got.cif
#   From: 2010.05.17/outbox.cif.g08.bks.cpg/sg2_165_cif.got.tgz:328340.got - 2010.06.03 11:33:40.
