data_PCOD9056585
_publ_section_title
;
Structure prediction by ZEFSAII (Michael W. Deem and Ramdas Pophale) SiO2 
 PCOD9056585
Probable space group: P -1
;
_chemical_formula_sum "Si O2"
_cell_formula_units_Z 14
_cell_length_a 15.302189
_cell_length_b 9.760129
_cell_length_c 9.931287
_cell_angle_alpha 138.955933
_cell_angle_beta 69.126489
_cell_angle_gamma 135.970049
_cell_volume 618.200310
_symmetry_space_group_name_H-M "P -1"
_symmetry_group_IT_number 2
_symmetry_cell_setting 'triclinic'
loop_
_space_group_symop_operation_xyz
x,y,z
-x,-y,-z
loop_
_atom_site_type_symbol
_atom_site_label
_atom_site_fract_x
_atom_site_fract_y
_atom_site_fract_z
Si Si1 0.239085 0.297141 0.254973
Si Si2 0.501226 0.528751 0.858322
Si Si3 0.130502 0.006013 0.823974
Si Si4 0.255366 0.888434 0.361406
Si Si5 0.320698 0.591762 0.952437
Si Si6 0.828457 0.394032 0.528401
Si Si7 0.856620 0.877231 0.520979
O O1 0.362628 0.344752 0.188204
O O2 0.280481 0.609821 0.456882
O O3 0.171319 0.149979 0.326094
O O4 0.135159 0.103992 0.043510
O O5 0.465478 0.710490 0.978903
O O6 0.379877 0.199227 0.606101
O O7 0.500000 0.500000 0.000000
O O8 0.193556 0.876508 0.708084
O O9 0.978460 0.714584 0.634988
O O10 0.219655 0.294543 0.889159
O O11 0.170454 0.624459 0.324751
O O12 0.162277 0.920383 0.376858
O O13 0.312206 0.816574 0.169194
O O14 0.260306 0.450716 0.733378
O O15 0.000000 0.000000 0.500000
#
# Coordination Sequence:
#
# PCOD9056585 Si02
#       7
#     2   2   2   2   2   2   2
#     4  12  25  41  69 101 133 177 224 280 334 390
#     4  11  22  44  69 102 137 169 232 281 324 398
#     4  11  22  40  66  99 130 172 228 283 327 392
#     4  11  24  43  71  97 133 189 216 272 348 391
#     4  11  23  45  66  97 140 180 218 280 335 398
#     4  11  22  39  69  97 131 173 232 276 336 394
#     4  11  27  46  64 100 141 176 222 278 338 403
#
# _framework density 22.646381999999999
#
# number of rings (size 3 to 8) (size 9 to 14) (size 15 to 20)
#    0.000    0.857    5.714    1.286    4.000    7.429 
#    0.000    1.429    0.000    0.000    0.000    0.000 
#    0.000    0.000    0.000    0.000    0.000    0.000 
#
# Total GULP energy -78261.102073 kJ/mol
# GULP energy per Si atom -5590.078719 kJ/mol
# Density = 2.259484 g / cm^3
# Si number density = 22.646382 Si / 1000 Ang^3
#
#
#
# Elastic Constant Matrix: (Units=GPa)
#
#
# Indices 1 2 3 4 5 6 
#
# 1 176.9039 36.5755 36.5516 -9.0688 -29.3978 17.2863
# 2 36.5755 83.8579 17.9377 -25.4165 2.2893 8.8057
# 3 36.5516 17.9377 90.3980 -15.3172 -15.8285 8.9363
# 4 -9.0688 -25.4165 -15.3172 36.0523 0.0714 -4.5229
# 5 -29.3978 2.2893 -15.8285 0.0714 47.9618 -6.5953
# 6 17.2863 8.8057 8.9363 -4.5229 -6.5953 30.0607
#
#
#
# Elastic Compliance Matrix: (Units=1/GPa)
#
#
# Indices 1 2 3 4 5 6 
#
# 1 0.007449 -0.003171 -0.001725 -0.001379 0.003847 -0.002205
# 2 -0.003171 0.016980 -0.000651 0.010643 -0.003270 -0.002073
# 3 -0.001725 -0.000651 0.013365 0.004603 0.003185 -0.001399
# 4 -0.001379 0.010643 0.004603 0.037096 0.000382 0.001972
# 5 0.003847 -0.003270 0.003185 0.000382 0.024870 0.003313
# 6 -0.002205 -0.002073 -0.001399 0.001972 0.003313 0.036581
#
#
# Mechanical properties :
#
#
# Convention : Reuss Voigt Hill
#
# Bulk Modulus (GPa) = 37.45483 59.25436 48.35460
# Shear Modulus (GPa) = 31.98246 40.15462 36.06854
#
# Velocity S-wave (km/s) = 3.76207 4.21540 3.99517
# Velocity P-wave (km/s) = 5.95364 7.06503 6.53301
#
# Compressibility (1/GPa) = 0.02669882
#
# Stress axis : x y z
#
# Youngs Moduli (GPa) = 134.24838 58.89216 74.82302
#
# Poissons Ratio (x) = 0.18677 0.12905
# Poissons Ratio (y) = 0.42576 0.04874
# Poissons Ratio (z) = 0.23154 0.03836
#
# Static dielectric constant tensor:
#      x y z
#    x 1.892320 0.027330 -0.022200 
#    y 0.027330 1.836820 0.009740 
#    z -0.022200 0.009740 1.858360 
# 
# From -- ./inp_files/293438.got.cif
#   From: 2010.05.17/outbox.cif.g08.bks.cpg/sg2_147_cif.got.tgz:293438.got - 2010.06.03 11:33:40.
