data_PCOD9056298
_publ_section_title
;
Structure prediction by ZEFSAII (Michael W. Deem and Ramdas Pophale) SiO2 
 PCOD9056298
Probable space group: P -1
;
_chemical_formula_sum "Si O2"
_cell_formula_units_Z 14
_cell_length_a 8.608343
_cell_length_b 11.172928
_cell_length_c 11.251955
_cell_angle_alpha 128.825971
_cell_angle_beta 40.244282
_cell_angle_gamma 126.066608
_cell_volume 531.477132
_symmetry_space_group_name_H-M "P -1"
_symmetry_group_IT_number 2
_symmetry_cell_setting 'triclinic'
loop_
_space_group_symop_operation_xyz
x,y,z
-x,-y,-z
loop_
_atom_site_type_symbol
_atom_site_label
_atom_site_fract_x
_atom_site_fract_y
_atom_site_fract_z
Si Si1 0.151236 0.178026 0.545811
Si Si2 0.399650 0.869792 0.873704
Si Si3 0.156027 0.271154 0.858300
Si Si4 0.265403 0.122948 0.949768
Si Si5 0.242618 0.681951 0.239715
Si Si6 0.357589 0.511097 0.286549
Si Si7 0.084025 0.761117 0.611268
O O1 0.383133 0.210136 0.343427
O O2 0.213141 0.188033 0.653833
O O3 0.985621 0.306850 0.700515
O O4 0.000000 0.000000 0.500000
O O5 0.348495 0.969157 0.850151
O O6 0.139847 0.752821 0.981760
O O7 0.500000 0.000000 0.000000
O O8 0.231303 0.183770 0.875792
O O9 0.347084 0.441251 0.851959
O O10 0.501114 0.257895 0.938352
O O11 0.018036 0.126725 0.170881
O O12 0.262974 0.535683 0.220891
O O13 0.217931 0.811385 0.439694
O O14 0.173303 0.358811 0.347881
O O15 0.259638 0.655199 0.497955
#
# Coordination Sequence:
#
# PCOD9056298 Si02
#       7
#     2   2   2   2   2   2   2
#     4  12  23  41  60  82 131 167 192 244 301 367
#     4  12  24  40  60  89 124 169 198 238 308 365
#     4  11  25  38  58  95 123 152 210 249 297 353
#     4  11  22  37  63  94 118 156 206 248 297 360
#     4   9  19  38  61  89 115 158 199 238 302 361
#     4   8  20  42  63  93 115 151 208 251 304 350
#     4   9  19  40  68  88 117 156 198 255 307 348
#
# _framework density 26.341677000000001
#
# number of rings (size 3 to 8) (size 9 to 14) (size 15 to 20)
#    0.857    0.857    2.857    1.286    2.000    2.857 
#    0.000    0.714    0.000    6.857    0.000    0.000 
#    0.000    0.000    0.000    0.000    0.000    0.000 
#
# Total GULP energy -78148.833040 kJ/mol
# GULP energy per Si atom -5582.059503 kJ/mol
# Density = 2.628172 g / cm^3
# Si number density = 26.341677 Si / 1000 Ang^3
#
#
#
# Elastic Constant Matrix: (Units=GPa)
#
#
# Indices 1 2 3 4 5 6 
#
# 1 94.6384 25.1609 39.8872 9.2936 -14.9095 15.1306
# 2 25.1609 99.0923 3.9550 -24.4942 -15.4869 37.1391
# 3 39.8872 3.9550 123.2634 -29.9621 -15.8120 11.3080
# 4 9.2936 -24.4942 -29.9621 38.5016 15.8427 -17.9629
# 5 -14.9095 -15.4869 -15.8120 15.8427 41.4144 -6.9846
# 6 15.1306 37.1391 11.3080 -17.9629 -6.9846 43.6845
#
#
#
# Elastic Compliance Matrix: (Units=1/GPa)
#
#
# Indices 1 2 3 4 5 6 
#
# 1 0.023371 -0.007638 -0.012038 -0.027987 0.010259 -0.008353
# 2 -0.007638 0.018636 0.006163 0.014551 -0.000493 -0.008889
# 3 -0.012038 0.006163 0.016569 0.022931 -0.003894 0.003448
# 4 -0.027987 0.014551 0.022931 0.078443 -0.022506 0.020044
# 5 0.010259 -0.000493 -0.003894 -0.022506 0.033769 -0.005981
# 6 -0.008353 -0.008889 0.003448 0.020044 -0.005981 0.039735
#
#
# Mechanical properties :
#
#
# Convention : Reuss Voigt Hill
#
# Bulk Modulus (GPa) = 31.69594 50.55560 41.12577
# Shear Modulus (GPa) = 20.15595 41.25285 30.70440
#
# Velocity S-wave (km/s) = 2.76918 3.96165 3.41782
# Velocity P-wave (km/s) = 4.72051 6.33720 5.58764
#
# Compressibility (1/GPa) = 0.03154978
#
# Stress axis : x y z
#
# Youngs Moduli (GPa) = 42.78841 53.65855 60.35517
#
# Poissons Ratio (x) = 0.40982 0.72657
# Poissons Ratio (y) = 0.32680 -0.37196
# Poissons Ratio (z) = 0.51509 -0.33069
#
# Static dielectric constant tensor:
#      x y z
#    x 2.107930 0.047250 0.010410 
#    y 0.047250 2.129250 0.114550 
#    z 0.010410 0.114550 2.135840 
# 
# From -- ./inp_files/311943.got.cif
#   From: 2010.05.17/outbox.cif.g08.bks.cpg/sg2_156_cif.got.tgz:311943.got - 2010.06.03 11:33:40.
