data_PCOD9056786
_publ_section_title
;
Structure prediction by ZEFSAII (Michael W. Deem and Ramdas Pophale) SiO2 
 PCOD9056786
Probable space group: P -1
;
_chemical_formula_sum "Si O2"
_cell_formula_units_Z 16
_cell_length_a 17.403842
_cell_length_b 10.680789
_cell_length_c 10.386295
_cell_angle_alpha 68.077745
_cell_angle_beta 129.844770
_cell_angle_gamma 150.470663
_cell_volume 638.271787
_symmetry_space_group_name_H-M "P -1"
_symmetry_group_IT_number 2
_symmetry_cell_setting 'triclinic'
loop_
_space_group_symop_operation_xyz
x,y,z
-x,-y,-z
loop_
_atom_site_type_symbol
_atom_site_label
_atom_site_fract_x
_atom_site_fract_y
_atom_site_fract_z
Si Si1 0.093262 0.173145 0.903257
Si Si2 0.322115 0.485757 0.677777
Si Si3 0.765917 0.156993 0.400873
Si Si4 0.232252 0.065611 0.993956
Si Si5 0.132463 0.006923 0.508297
Si Si6 0.308746 0.680223 0.070582
Si Si7 0.774792 0.450134 0.674527
Si Si8 0.864440 0.259762 0.759779
O O1 0.236877 0.228201 0.971519
O O2 0.223306 0.462800 0.966552
O O3 0.892972 0.965127 0.673959
O O4 0.000000 0.000000 0.000000
O O5 0.544316 0.725342 0.897150
O O6 0.120383 0.306507 0.604875
O O7 0.363010 0.634167 0.544483
O O8 0.245499 0.251370 0.626032
O O9 0.764622 0.123741 0.564604
O O10 0.000000 0.500000 0.500000
O O11 0.756352 0.004600 0.373413
O O12 0.563063 0.007842 0.202816
O O13 0.180844 0.918341 0.124988
O O14 0.021087 0.793787 0.785773
O O15 0.287008 0.599133 0.225527
O O16 0.127106 0.579133 0.906449
O O17 0.780256 0.297979 0.713814
#
# Coordination Sequence:
#
# PCOD9056786 Si02
#       8
#     2   2   2   2   2   2   2   2
#     4  12  20  42  71  96 131 168 212 267 324 379
#     4  11  24  43  67  94 132 169 212 269 324 379
#     4  12  26  44  65  94 132 177 213 260 326 384
#     4  11  22  40  69  97 124 171 213 263 331 377
#     4  11  24  45  63  96 134 166 218 267 315 391
#     4  11  23  42  69  95 131 167 214 271 316 382
#     4  11  23  42  66  99 128 167 216 267 321 382
#     4  11  24  42  65  97 132 163 223 267 314 389
#
# _framework density 25.067692000000001
#
# number of rings (size 3 to 8) (size 9 to 14) (size 15 to 20)
#    0.000    0.750    5.000    3.750    0.000    6.000 
#    4.500    3.750    0.000    0.000    0.000    0.000 
#    0.000    0.000    0.000    0.000    0.000    0.000 
#
# Total GULP energy -89668.821256 kJ/mol
# GULP energy per Si atom -5604.301329 kJ/mol
# Density = 2.501064 g / cm^3
# Si number density = 25.067692 Si / 1000 Ang^3
#
#
#
# Elastic Constant Matrix: (Units=GPa)
#
#
# Indices 1 2 3 4 5 6 
#
# 1 75.5059 12.6656 6.8990 0.8906 2.0288 -15.1533
# 2 12.6656 58.9492 19.7057 11.6713 -1.0234 -3.6109
# 3 6.8990 19.7057 108.0994 23.7152 26.4722 12.8145
# 4 0.8906 11.6713 23.7152 43.5064 7.2280 5.9655
# 5 2.0288 -1.0234 26.4722 7.2280 30.5466 -3.1248
# 6 -15.1533 -3.6109 12.8145 5.9655 -3.1248 29.6773
#
#
#
# Elastic Compliance Matrix: (Units=1/GPa)
#
#
# Indices 1 2 3 4 5 6 
#
# 1 0.015480 -0.002075 -0.001993 -0.000124 0.001549 0.008700
# 2 -0.002075 0.020345 -0.004781 -0.004600 0.006572 0.005097
# 3 -0.001993 -0.004781 0.015387 -0.003610 -0.013422 -0.008931
# 4 -0.000124 -0.004600 -0.003610 0.027552 -0.004052 -0.005029
# 5 0.001549 0.006572 -0.013422 -0.004052 0.046787 0.013127
# 6 0.008700 0.005097 -0.008931 -0.005029 0.013127 0.045008
#
#
# Mechanical properties :
#
#
# Convention : Reuss Voigt Hill
#
# Bulk Modulus (GPa) = 29.83878 35.67723 32.75801
# Shear Modulus (GPa) = 25.07160 34.29831 29.68496
#
# Velocity S-wave (km/s) = 3.16596 3.70297 3.44494
# Velocity P-wave (km/s) = 5.02926 5.70490 5.37770
#
# Compressibility (1/GPa) = 0.03351343
#
# Stress axis : x y z
#
# Youngs Moduli (GPa) = 64.59875 49.15242 64.99046
#
# Poissons Ratio (x) = 0.10201 0.12953
# Poissons Ratio (y) = 0.13407 0.31070
# Poissons Ratio (z) = 0.12875 0.23499
#
# Static dielectric constant tensor:
#      x y z
#    x 1.951090 0.065710 -0.007620 
#    y 0.065710 2.037350 0.001740 
#    z -0.007620 0.001740 1.958480 
# 
# From -- ./inp_files/432355.got.cif
#   From: 2010.05.17/outbox.cif.g08.bks.cpg/sg2_217_cif.got.tgz:432355.got - 2010.06.03 11:33:40.
