data_PCOD9056251
_publ_section_title
;
Structure prediction by ZEFSAII (Michael W. Deem and Ramdas Pophale) SiO2 
 PCOD9056251
Probable space group: P -1
;
_chemical_formula_sum "Si O2"
_cell_formula_units_Z 16
_cell_length_a 12.120857
_cell_length_b 14.142119
_cell_length_c 8.818728
_cell_angle_alpha 69.529654
_cell_angle_beta 125.059547
_cell_angle_gamma 66.864844
_cell_volume 733.576024
_symmetry_space_group_name_H-M "P -1"
_symmetry_group_IT_number 2
_symmetry_cell_setting 'triclinic'
loop_
_space_group_symop_operation_xyz
x,y,z
-x,-y,-z
loop_
_atom_site_type_symbol
_atom_site_label
_atom_site_fract_x
_atom_site_fract_y
_atom_site_fract_z
Si Si1 0.952291 0.875501 0.238368
Si Si2 0.350429 0.438211 0.840469
Si Si3 0.473055 0.857155 0.738530
Si Si4 0.952992 0.662113 0.234698
Si Si5 0.831613 0.609962 0.672020
Si Si6 0.397040 0.804737 0.377153
Si Si7 0.575986 0.399665 0.310678
Si Si8 0.272385 0.111051 0.675958
O O1 0.858424 0.883953 0.314514
O O2 0.937506 0.792057 0.151451
O O3 0.200663 0.756541 0.509728
O O4 0.813607 0.045564 0.965376
O O5 0.102018 0.556160 0.559376
O O6 0.419331 0.482253 0.747315
O O7 0.495064 0.255992 0.059549
O O8 0.388688 0.470334 0.013832
O O9 0.404871 0.854912 0.521303
O O10 0.321820 0.025537 0.604929
O O11 0.713482 0.761835 0.975296
O O12 0.099017 0.519869 0.310669
O O13 0.596026 0.731043 0.482404
O O14 0.832649 0.720202 0.536976
O O15 0.000000 0.500000 0.000000
O O16 0.423959 0.669947 0.503598
O O17 0.500000 0.000000 0.000000
#
# Coordination Sequence:
#
# PCOD9056251 Si02
#       8
#     2   2   2   2   2   2   2   2
#     4  11  24  42  69  91 129 171 218 262 315 390
#     4   9  20  37  63  94 121 159 216 265 310 376
#     4  11  22  38  66  95 131 165 208 262 327 388
#     4  11  22  36  65  96 126 165 206 261 328 381
#     4  12  26  38  63 100 136 165 209 267 326 386
#     4  11  23  43  64  92 132 173 210 266 316 385
#     4   9  21  41  66  89 123 175 216 259 319 373
#     4  12  24  41  64  99 130 167 211 266 326 385
#
# _framework density 21.810963999999998
#
# number of rings (size 3 to 8) (size 9 to 14) (size 15 to 20)
#    0.000    1.250    3.750    1.500    5.250    2.000 
#    0.000    5.000    5.500    0.000    0.000    0.000 
#    0.000    0.000    0.000    0.000    0.000    0.000 
#
# Total GULP energy -89349.714369 kJ/mol
# GULP energy per Si atom -5584.357148 kJ/mol
# Density = 2.176132 g / cm^3
# Si number density = 21.810964 Si / 1000 Ang^3
#
#
#
# Elastic Constant Matrix: (Units=GPa)
#
#
# Indices 1 2 3 4 5 6 
#
# 1 81.4803 11.5164 9.9495 4.7460 -15.8141 -5.6416
# 2 11.5164 85.9677 -11.2635 -10.8764 -6.4150 -10.7983
# 3 9.9495 -11.2635 85.7902 4.6039 -10.1700 -8.9716
# 4 4.7460 -10.8764 4.6039 16.5856 10.6026 -2.2067
# 5 -15.8141 -6.4150 -10.1700 10.6026 39.6608 -8.0900
# 6 -5.6416 -10.7983 -8.9716 -2.2067 -8.0900 25.1501
#
#
#
# Elastic Compliance Matrix: (Units=1/GPa)
#
#
# Indices 1 2 3 4 5 6 
#
# 1 0.015505 -0.002173 0.000232 -0.011673 0.009994 0.004818
# 2 -0.002173 0.014586 0.002612 0.009770 0.001171 0.007941
# 3 0.000232 0.002612 0.013986 -0.005833 0.007292 0.007996
# 4 -0.011673 0.009770 -0.005833 0.089948 -0.029013 -0.001945
# 5 0.009994 0.001171 0.007292 -0.029013 0.042365 0.016427
# 6 0.004818 0.007941 0.007996 -0.001945 0.016427 0.052218
#
#
# Mechanical properties :
#
#
# Convention : Reuss Voigt Hill
#
# Bulk Modulus (GPa) = 22.01707 30.40477 26.21092
# Shear Modulus (GPa) = 20.62657 32.48168 26.55413
#
# Velocity S-wave (km/s) = 3.07856 3.86325 3.49301
# Velocity P-wave (km/s) = 4.77002 5.81979 5.32086
#
# Compressibility (1/GPa) = 0.04541930
#
# Stress axis : x y z
#
# Youngs Moduli (GPa) = 64.49567 68.55668 71.49986
#
# Poissons Ratio (x) = 0.14895 -0.01656
# Poissons Ratio (y) = 0.14013 -0.18675
# Poissons Ratio (z) = -0.01494 -0.17907
#
# Static dielectric constant tensor:
#      x y z
#    x 1.831510 0.013860 -0.033990 
#    y 0.013860 1.835760 0.034550 
#    z -0.033990 0.034550 1.804200 
# 
# From -- ./inp_files/272669.got.cif
#   From: 2010.05.17/outbox.cif.g08.bks.cpg/sg2_137_cif.got.tgz:272669.got - 2010.06.03 11:33:40.
