data_PCOD9056981
_publ_section_title
;
Structure prediction by ZEFSAII (Michael W. Deem and Ramdas Pophale) SiO2 
 PCOD9056981
Probable space group: P -1
;
_chemical_formula_sum "Si O2"
_cell_formula_units_Z 16
_cell_length_a 22.701433
_cell_length_b 6.598603
_cell_length_c 8.896201
_cell_angle_alpha 77.850889
_cell_angle_beta 50.334487
_cell_angle_gamma 51.412209
_cell_volume 761.853288
_symmetry_space_group_name_H-M "P -1"
_symmetry_group_IT_number 2
_symmetry_cell_setting 'triclinic'
loop_
_space_group_symop_operation_xyz
x,y,z
-x,-y,-z
loop_
_atom_site_type_symbol
_atom_site_label
_atom_site_fract_x
_atom_site_fract_y
_atom_site_fract_z
Si Si1 0.576926 0.368333 0.532147
Si Si2 0.588708 0.989617 0.798503
Si Si3 0.972510 0.502685 0.872723
Si Si4 0.071606 0.708912 0.510499
Si Si5 0.737109 0.874137 0.147953
Si Si6 0.250120 0.113859 0.214930
Si Si7 0.851081 0.095694 0.418636
Si Si8 0.680434 0.573644 0.441449
O O1 0.500000 0.500000 0.500000
O O2 0.594548 0.562568 0.541225
O O3 0.549271 0.255537 0.725402
O O4 0.681695 0.111177 0.325252
O O5 0.661190 0.947323 0.818053
O O6 0.651825 0.744366 0.613677
O O7 0.500000 0.000000 0.000000
O O8 0.003920 0.646842 0.701176
O O9 0.042280 0.190989 0.753896
O O10 0.855498 0.664949 0.019249
O O11 0.000000 0.500000 0.000000
O O12 0.156680 0.441954 0.315702
O O13 0.128961 0.736356 0.541588
O O14 0.000000 0.000000 0.500000
O O15 0.695077 0.717193 0.266381
O O16 0.717468 0.981209 0.993843
O O17 0.209214 0.975281 0.379873
O O18 0.783867 0.272863 0.357206
#
# Coordination Sequence:
#
# PCOD9056981 Si02
#       8
#     2   2   2   2   2   2   2   2
#     4  11  27  47  68  97 132 170 218 274 330 392
#     4  11  26  45  71  97 130 170 221 273 329 392
#     4  11  24  40  64  96 134 174 223 267 316 391
#     4  11  23  40  64  94 135 174 217 264 323 380
#     4  11  26  42  66 100 136 169 219 274 324 386
#     4  11  24  43  65 100 135 170 218 274 324 389
#     4  11  22  41  67  92 132 177 216 264 322 388
#     4  11  24  45  69  95 132 175 212 268 334 388
#
# _framework density 21.001418999999999
#
# number of rings (size 3 to 8) (size 9 to 14) (size 15 to 20)
#    0.000    1.000    2.500    3.000    7.000   10.500 
#    0.000    0.000    0.000    0.000    0.000    0.000 
#    0.000    0.000    0.000    0.000    0.000    0.000 
#
# Total GULP energy -89542.178329 kJ/mol
# GULP energy per Si atom -5596.386146 kJ/mol
# Density = 2.095362 g / cm^3
# Si number density = 21.001419 Si / 1000 Ang^3
#
#
#
# Elastic Constant Matrix: (Units=GPa)
#
#
# Indices 1 2 3 4 5 6 
#
# 1 83.3594 -11.9741 -1.2110 -3.1284 -9.1359 1.5000
# 2 -11.9741 41.2636 -9.2560 -5.5178 -6.0902 1.4871
# 3 -1.2110 -9.2560 73.8347 -4.9230 -7.3718 1.8897
# 4 -3.1284 -5.5178 -4.9230 13.8353 -3.0057 2.6785
# 5 -9.1359 -6.0902 -7.3718 -3.0057 35.3099 -2.0352
# 6 1.5000 1.4871 1.8897 2.6785 -2.0352 39.5278
#
#
#
# Elastic Compliance Matrix: (Units=1/GPa)
#
#
# Indices 1 2 3 4 5 6 
#
# 1 0.013915 0.006490 0.002181 0.007985 0.005790 -0.001119
# 2 0.006490 0.031656 0.006401 0.019019 0.009949 -0.002520
# 3 0.002181 0.006401 0.015667 0.010147 0.005718 -0.001466
# 4 0.007985 0.019019 0.010147 0.089800 0.014715 -0.006831
# 5 0.005790 0.009949 0.005718 0.014715 0.033975 -0.000115
# 6 -0.001119 -0.002520 -0.001466 -0.006831 -0.000115 0.025963
#
#
# Mechanical properties :
#
#
# Convention : Reuss Voigt Hill
#
# Bulk Modulus (GPa) = 10.94326 17.06395 14.00360
# Shear Modulus (GPa) = 23.66393 32.46118 28.06256
#
# Velocity S-wave (km/s) = 3.36039 3.93576 3.65940
# Velocity P-wave (km/s) = 4.50315 5.36623 4.95352
#
# Compressibility (1/GPa) = 0.09138043
#
# Stress axis : x y z
#
# Youngs Moduli (GPa) = 71.86727 31.58964 63.82865
#
# Poissons Ratio (x) = -0.20501 -0.13921
# Poissons Ratio (y) = -0.46640 -0.40856
# Poissons Ratio (z) = -0.15674 -0.20220
#
# Static dielectric constant tensor:
#      x y z
#    x 1.670840 0.112790 -0.060420 
#    y 0.112790 1.501670 0.159620 
#    z -0.060420 0.159620 1.663690 
# 
# From -- ./inp_files/37964.got.cif
#   From: 2010.05.17/outbox.cif.g08.bks.cpg/sg2_19_cif.got.tgz:37964.got - 2010.06.03 11:33:40.
