data_PCOD9056473
_publ_section_title
;
Structure prediction by ZEFSAII (Michael W. Deem and Ramdas Pophale) SiO2 
 PCOD9056473
Probable space group: P -1
;
_chemical_formula_sum "Si O2"
_cell_formula_units_Z 16
_cell_length_a 10.728586
_cell_length_b 13.790981
_cell_length_c 8.650025
_cell_angle_alpha 115.483118
_cell_angle_beta 40.165878
_cell_angle_gamma 96.559557
_cell_volume 692.752869
_symmetry_space_group_name_H-M "P -1"
_symmetry_group_IT_number 2
_symmetry_cell_setting 'triclinic'
loop_
_space_group_symop_operation_xyz
x,y,z
-x,-y,-z
loop_
_atom_site_type_symbol
_atom_site_label
_atom_site_fract_x
_atom_site_fract_y
_atom_site_fract_z
Si Si1 0.005459 0.194626 0.460207
Si Si2 0.615809 0.370339 0.369111
Si Si3 0.416474 0.701259 0.962072
Si Si4 0.629387 0.519177 0.035031
Si Si5 0.553434 0.868284 0.417339
Si Si6 0.221526 0.325243 0.171585
Si Si7 0.120903 0.963077 0.021894
Si Si8 0.939618 0.794129 0.227694
O O1 0.771027 0.196909 0.709156
O O2 0.032250 0.291877 0.388221
O O3 0.085467 0.207694 0.565104
O O4 0.132680 0.073445 0.175064
O O5 0.500000 0.500000 0.500000
O O6 0.519936 0.384753 0.640713
O O7 0.562212 0.291810 0.236282
O O8 0.867528 0.320156 0.092160
O O9 0.317910 0.601526 0.010437
O O10 0.635043 0.668426 0.815641
O O11 0.500000 0.500000 0.000000
O O12 0.804058 0.564246 0.836029
O O13 0.342466 0.873700 0.699341
O O14 0.735865 0.821029 0.337731
O O15 0.500000 0.000000 0.500000
O O16 0.631622 0.783691 0.140953
O O17 0.011580 0.899903 0.191605
O O18 0.000000 0.000000 0.000000
#
# Coordination Sequence:
#
# PCOD9056473 Si02
#       8
#     2   2   2   2   2   2   2   2
#     4  11  24  39  60  95 126 172 219 265 324 392
#     4   9  19  42  69  95 127 166 216 266 324 390
#     4   9  21  40  65  91 127 169 217 266 326 384
#     4   9  19  37  65  95 121 168 210 264 324 380
#     4  12  24  42  63  98 131 169 221 268 325 386
#     4  11  22  39  63  90 132 171 214 273 319 383
#     4  12  23  42  65  89 133 177 220 273 324 381
#     4  11  25  42  66  96 130 174 219 269 329 389
#
# _framework density 23.096259
#
# number of rings (size 3 to 8) (size 9 to 14) (size 15 to 20)
#    0.000    1.500    2.500    1.875    0.000    7.000 
#    0.000    2.500    0.000   18.750    0.000    0.000 
#    0.000    0.000    0.000    0.000    0.000    0.000 
#
# Total GULP energy -89311.325204 kJ/mol
# GULP energy per Si atom -5581.957825 kJ/mol
# Density = 2.304369 g / cm^3
# Si number density = 23.096259 Si / 1000 Ang^3
#
#
#
# Elastic Constant Matrix: (Units=GPa)
#
#
# Indices 1 2 3 4 5 6 
#
# 1 96.6877 4.2828 28.1324 -5.0146 -1.9200 -17.3343
# 2 4.2828 103.0010 20.2422 -7.0232 11.9109 -10.8535
# 3 28.1324 20.2422 122.8421 -6.3063 19.8798 -0.0808
# 4 -5.0146 -7.0232 -6.3063 35.5030 -9.7156 -2.8886
# 5 -1.9200 11.9109 19.8798 -9.7156 41.3863 -1.4996
# 6 -17.3343 -10.8535 -0.0808 -2.8886 -1.4996 28.8633
#
#
#
# Elastic Compliance Matrix: (Units=1/GPa)
#
#
# Indices 1 2 3 4 5 6 
#
# 1 0.013073 0.000900 -0.003474 0.002935 0.003018 0.008630
# 2 0.000900 0.010808 -0.001615 0.001902 -0.001676 0.004703
# 3 -0.003474 -0.001615 0.009933 -0.000576 -0.004711 -0.002968
# 4 0.002935 0.001902 -0.000576 0.031382 0.007450 0.006004
# 5 0.003018 -0.001676 -0.004711 0.007450 0.028921 0.003417
# 6 0.008630 0.004703 -0.002968 0.006004 0.003417 0.042368
#
#
# Mechanical properties :
#
#
# Convention : Reuss Voigt Hill
#
# Bulk Modulus (GPa) = 39.31611 47.53839 43.42725
# Shear Modulus (GPa) = 32.60686 39.14207 35.87447
#
# Velocity S-wave (km/s) = 3.76144 4.12118 3.94542
# Velocity P-wave (km/s) = 5.99369 6.57822 6.29274
#
# Compressibility (1/GPa) = 0.02543486
#
# Stress axis : x y z
#
# Youngs Moduli (GPa) = 76.49330 92.52651 100.67376
#
# Poissons Ratio (x) = -0.08325 0.34976
# Poissons Ratio (y) = -0.06882 0.16259
# Poissons Ratio (z) = 0.26575 0.14943
#
# Static dielectric constant tensor:
#      x y z
#    x 1.860420 -0.041860 -0.001520 
#    y -0.041860 1.989920 -0.011400 
#    z -0.001520 -0.011400 1.914980 
# 
# From -- ./inp_files/273971.got.cif
#   From: 2010.05.17/outbox.cif.g08.bks.cpg/sg2_137_cif.got.tgz:273971.got - 2010.06.03 11:33:40.
