data_PCOD9056838
_publ_section_title
;
Structure prediction by ZEFSAII (Michael W. Deem and Ramdas Pophale) SiO2 
 PCOD9056838
Probable space group: P -1
;
_chemical_formula_sum "Si O2"
_cell_formula_units_Z 14
_cell_length_a 12.560291
_cell_length_b 17.358323
_cell_length_c 11.505201
_cell_angle_alpha 27.358612
_cell_angle_beta 36.877075
_cell_angle_gamma 30.412702
_cell_volume 577.300146
_symmetry_space_group_name_H-M "P -1"
_symmetry_group_IT_number 2
_symmetry_cell_setting 'triclinic'
loop_
_space_group_symop_operation_xyz
x,y,z
-x,-y,-z
loop_
_atom_site_type_symbol
_atom_site_label
_atom_site_fract_x
_atom_site_fract_y
_atom_site_fract_z
Si Si1 0.630929 0.544971 0.413485
Si Si2 0.729229 0.608028 0.000511
Si Si3 0.012822 0.137654 0.398823
Si Si4 0.753885 0.566515 0.630818
Si Si5 0.595192 0.280897 0.063990
Si Si6 0.051590 0.165526 0.576389
Si Si7 0.470314 0.872566 0.288781
O O1 0.500000 0.500000 0.500000
O O2 0.471874 0.707732 0.426740
O O3 0.831873 0.361159 0.551953
O O4 0.716129 0.625434 0.129543
O O5 0.515242 0.675346 0.025312
O O6 0.816871 0.736783 0.703146
O O7 0.891610 0.368556 0.158166
O O8 0.956898 0.125093 0.597103
O O9 0.265552 0.016547 0.348118
O O10 0.000000 0.000000 0.500000
O O11 0.607166 0.654315 0.758888
O O12 0.656076 0.748294 0.382102
O O13 0.000000 0.500000 0.500000
O O14 0.695301 0.406765 0.852129
O O15 0.787707 0.045196 0.219669
O O16 0.500000 0.000000 0.000000
#
# Coordination Sequence:
#
# PCOD9056838 Si02
#       7
#     2   2   2   2   2   2   2
#     4  11  24  42  66 102 142 178 237 299 350 424
#     4  11  24  45  70 101 141 193 239 296 364 436
#     4  11  22  40  71  99 136 188 243 287 354 427
#     4  11  27  46  73 108 147 186 245 307 362 425
#     4  11  25  49  73 103 147 195 242 294 364 449
#     4  11  23  45  69 100 139 196 236 288 372 428
#     4  12  24  43  68 104 137 176 238 299 350 420
#
# _framework density 24.250817000000001
#
# number of rings (size 3 to 8) (size 9 to 14) (size 15 to 20)
#    0.000    0.857    1.429    7.286    6.000    1.143 
#    0.000    1.429    0.000    0.000    0.000    0.000 
#    0.000    0.000    0.000    0.000    0.000    0.000 
#
# Total GULP energy -78138.010800 kJ/mol
# GULP energy per Si atom -5581.286486 kJ/mol
# Density = 2.419562 g / cm^3
# Si number density = 24.250817 Si / 1000 Ang^3
#
#
#
# Elastic Constant Matrix: (Units=GPa)
#
#
# Indices 1 2 3 4 5 6 
#
# 1 109.6448 48.5635 28.2290 -15.4713 7.6868 -20.8612
# 2 48.5635 147.4788 52.7009 -19.0171 2.5154 -18.5444
# 3 28.2290 52.7009 78.4602 -16.8531 8.0565 -27.1958
# 4 -15.4713 -19.0171 -16.8531 52.0357 -12.2300 7.0764
# 5 7.6868 2.5154 8.0565 -12.2300 46.3243 -3.2985
# 6 -20.8612 -18.5444 -27.1958 7.0764 -3.2985 61.6334
#
#
#
# Elastic Compliance Matrix: (Units=1/GPa)
#
#
# Indices 1 2 3 4 5 6 
#
# 1 0.011371 -0.002923 -0.000893 0.001464 -0.001019 0.002352
# 2 -0.002923 0.009812 -0.005594 0.001271 0.001219 -0.000586
# 3 -0.000893 -0.005594 0.019811 0.002822 -0.001797 0.006336
# 4 0.001464 0.001271 0.002822 0.022242 0.005058 -0.000160
# 5 -0.001019 0.001219 -0.001797 0.005058 0.023330 -0.000103
# 6 0.002352 -0.000586 0.006336 -0.000160 -0.000103 0.019653
#
#
# Mechanical properties :
#
#
# Convention : Reuss Voigt Hill
#
# Bulk Modulus (GPa) = 45.10061 66.06340 55.58201
# Shear Modulus (GPa) = 37.75574 45.73803 41.74689
#
# Velocity S-wave (km/s) = 3.95002 4.34757 4.15355
# Velocity P-wave (km/s) = 6.28024 7.24587 6.78027
#
# Compressibility (1/GPa) = 0.02217265
#
# Stress axis : x y z
#
# Youngs Moduli (GPa) = 87.94644 101.92036 50.47694
#
# Poissons Ratio (x) = 0.29793 0.04508
# Poissons Ratio (y) = 0.25708 0.28237
# Poissons Ratio (z) = 0.07855 0.57014
#
# Static dielectric constant tensor:
#      x y z
#    x 1.989380 0.026920 -0.067900 
#    y 0.026920 2.036900 0.092110 
#    z -0.067900 0.092110 2.035500 
# 
# From -- ./inp_files/189508.got.cif
#   From: 2010.05.17/outbox.cif.g08.bks.cpg/sg2_95_cif.got.tgz:189508.got - 2010.06.03 11:33:40.
