data_PCOD9056781
_publ_section_title
;
Structure prediction by ZEFSAII (Michael W. Deem and Ramdas Pophale) SiO2 
 PCOD9056781
Probable space group: P -1
;
_chemical_formula_sum "Si O2"
_cell_formula_units_Z 12
_cell_length_a 5.148963
_cell_length_b 16.738591
_cell_length_c 10.417369
_cell_angle_alpha 33.836777
_cell_angle_beta 109.362931
_cell_angle_gamma 109.113361
_cell_volume 469.342505
_symmetry_space_group_name_H-M "P -1"
_symmetry_group_IT_number 2
_symmetry_cell_setting 'triclinic'
loop_
_space_group_symop_operation_xyz
x,y,z
-x,-y,-z
loop_
_atom_site_type_symbol
_atom_site_label
_atom_site_fract_x
_atom_site_fract_y
_atom_site_fract_z
Si Si1 0.962075 0.378593 0.268410
Si Si2 0.185538 0.261491 0.006230
Si Si3 0.649950 0.071863 0.255422
Si Si4 0.240983 0.387072 0.578407
Si Si5 0.307372 0.061459 0.987176
Si Si6 0.333004 0.246404 0.314310
O O1 0.071851 0.415944 0.381860
O O2 0.148842 0.260872 0.391437
O O3 0.643617 0.312097 0.306038
O O4 0.000000 0.500000 0.000000
O O5 0.487927 0.198269 0.123102
O O6 0.222685 0.331907 0.059178
O O7 0.917168 0.145200 0.128332
O O8 0.117750 0.355026 0.745373
O O9 0.717363 0.919178 0.526843
O O10 0.406357 0.006746 0.210531
O O11 0.500000 0.500000 0.500000
O O12 0.344065 0.232353 0.768621
O O13 0.500000 0.000000 0.000000
O O14 0.000000 0.000000 0.000000
#
# Coordination Sequence:
#
# PCOD9056781 Si02
#       6
#     2   2   2   2   2   2
#     4  12  27  47  69  99 138 189 241 295 354 424
#     4  11  24  43  70 106 143 183 232 292 355 426
#     4  11  22  40  69 106 139 182 235 291 354 426
#     4  11  26  48  74 107 146 191 240 297 360 428
#     4  11  22  42  67 101 140 181 228 287 350 416
#     4  12  24  46  72 101 140 188 236 294 356 424
#
# _framework density 25.567682999999999
#
# number of rings (size 3 to 8) (size 9 to 14) (size 15 to 20)
#    0.000    0.667    0.000    8.500    0.000    4.000 
#    0.000   10.833    0.000    0.000    0.000    0.000 
#    0.000    0.000    0.000    0.000    0.000    0.000 
#
# Total GULP energy -67021.938712 kJ/mol
# GULP energy per Si atom -5585.161559 kJ/mol
# Density = 2.550949 g / cm^3
# Si number density = 25.567683 Si / 1000 Ang^3
#
#
#
# Elastic Constant Matrix: (Units=GPa)
#
#
# Indices 1 2 3 4 5 6 
#
# 1 143.2047 62.7609 37.7478 5.2989 -14.5566 23.2853
# 2 62.7609 179.5219 66.4693 36.3554 -16.0171 26.0005
# 3 37.7478 66.4693 169.2787 16.0533 -15.1790 18.7941
# 4 5.2989 36.3554 16.0533 59.7660 -4.5885 -11.6317
# 5 -14.5566 -16.0171 -15.1790 -4.5885 35.1071 -4.8628
# 6 23.2853 26.0005 18.7941 -11.6317 -4.8628 55.2001
#
#
#
# Elastic Compliance Matrix: (Units=1/GPa)
#
#
# Indices 1 2 3 4 5 6 
#
# 1 0.008745 -0.002494 -0.000634 0.000683 0.002030 -0.001976
# 2 -0.002494 0.008800 -0.001935 -0.005207 0.000987 -0.003445
# 3 -0.000634 -0.001935 0.007179 -0.000818 0.001673 -0.001291
# 4 0.000683 -0.005207 -0.000818 0.021544 0.001354 0.007102
# 5 0.002030 0.000987 0.001673 0.001354 0.030830 0.001111
# 6 -0.001976 -0.003445 -0.001291 0.007102 0.001111 0.022606
#
#
# Mechanical properties :
#
#
# Convention : Reuss Voigt Hill
#
# Bulk Modulus (GPa) = 68.49633 91.77349 80.13491
# Shear Modulus (GPa) = 43.59339 51.68314 47.63826
#
# Velocity S-wave (km/s) = 4.13367 4.50090 4.32119
# Velocity P-wave (km/s) = 7.04495 7.93619 7.50381
#
# Compressibility (1/GPa) = 0.01459932
#
# Stress axis : x y z
#
# Youngs Moduli (GPa) = 114.34585 113.63941 139.28758
#
# Poissons Ratio (x) = 0.28337 0.08837
# Poissons Ratio (y) = 0.28513 0.26946
# Poissons Ratio (z) = 0.07255 0.21985
#
# Static dielectric constant tensor:
#      x y z
#    x 1.917240 -0.032750 -0.002990 
#    y -0.032750 1.941700 0.047320 
#    z -0.002990 0.047320 2.058430 
# 
# From -- ./inp_files/370315.got.cif
#   From: 2010.05.17/outbox.cif.g08.bks.cpg/sg2_186_cif.got.tgz:370315.got - 2010.06.03 11:33:40.
