data_PCOD9056733
_publ_section_title
;
Structure prediction by ZEFSAII (Michael W. Deem and Ramdas Pophale) SiO2 
 PCOD9056733
Probable space group: P -1
;
_chemical_formula_sum "Si O2"
_cell_formula_units_Z 14
_cell_length_a 6.468593
_cell_length_b 16.847941
_cell_length_c 4.972458
_cell_angle_alpha 101.302595
_cell_angle_beta 106.212282
_cell_angle_gamma 92.109439
_cell_volume 507.852687
_symmetry_space_group_name_H-M "P -1"
_symmetry_group_IT_number 2
_symmetry_cell_setting 'triclinic'
loop_
_space_group_symop_operation_xyz
x,y,z
-x,-y,-z
loop_
_atom_site_type_symbol
_atom_site_label
_atom_site_fract_x
_atom_site_fract_y
_atom_site_fract_z
Si Si1 0.192473 0.587451 0.586828
Si Si2 0.500000 0.500000 0.000000
Si Si3 0.569935 0.243795 0.339556
Si Si4 0.118338 0.199307 0.834722
Si Si5 0.081542 0.387166 0.975319
Si Si6 0.500000 0.000000 0.000000
Si Si7 0.799724 0.111517 0.072971
Si Si8 0.584802 0.878660 0.439420
O O1 0.360242 0.664092 0.627649
O O2 0.014303 0.610068 0.755633
O O3 0.083307 0.569529 0.248283
O O4 0.322944 0.519685 0.720697
O O5 0.681136 0.571172 0.977571
O O6 0.536838 0.211843 0.609379
O O7 0.341584 0.218439 0.097054
O O8 0.757447 0.192071 0.268133
O O9 0.057795 0.290766 0.822068
O O10 0.180637 0.145139 0.568537
O O11 0.955157 0.140874 0.913077
O O12 0.226432 0.970373 0.826209
O O13 0.436696 0.066848 0.275395
O O14 0.547353 0.084760 0.830942
#
# Coordination Sequence:
#
# PCOD9056733 Si02
#       8
#     2   1   2   2   2   1   2   2
#     4  12  28  48  76 108 149 192 244 299 366 435
#     4  12  28  52  76 112 154 184 244 300 372 438
#     4  11  22  40  67  98 134 186 244 290 357 431
#     4  11  22  40  67  99 133 182 247 282 358 429
#     4  12  28  48  76 110 145 197 239 306 361 435
#     4   8  20  42  60  90 142 178 226 308 366 418
#     4   9  20  41  61  90 131 177 227 290 353 428
#     4   9  22  39  64  93 132 183 229 296 357 424
#
# _framework density 27.567052
#
# number of rings (size 3 to 8) (size 9 to 14) (size 15 to 20)
#    0.857    0.571    2.857    1.714    4.000    4.571 
#    0.000    0.714    0.000    0.000    0.000    0.000 
#    0.000    0.000    0.000    0.000    0.000    0.000 
#
# Total GULP energy -77997.642721 kJ/mol
# GULP energy per Si atom -5571.260194 kJ/mol
# Density = 2.750431 g / cm^3
# Si number density = 27.567052 Si / 1000 Ang^3
#
#
#
# Elastic Constant Matrix: (Units=GPa)
#
#
# Indices 1 2 3 4 5 6 
#
# 1 130.7965 65.2801 38.9760 0.8614 -25.7812 48.5346
# 2 65.2801 167.4947 38.1642 -19.5319 -6.5434 34.5430
# 3 38.9760 38.1642 119.9114 -4.0009 -19.2676 3.5111
# 4 0.8614 -19.5319 -4.0009 44.8138 3.2686 8.3440
# 5 -25.7812 -6.5434 -19.2676 3.2686 55.9749 -12.8172
# 6 48.5346 34.5430 3.5111 8.3440 -12.8172 69.8838
#
#
#
# Elastic Compliance Matrix: (Units=1/GPa)
#
#
# Indices 1 2 3 4 5 6 
#
# 1 0.013120 -0.003101 -0.002578 -0.000818 0.003296 -0.006747
# 2 -0.003101 0.008620 -0.001821 0.004336 -0.001963 -0.002893
# 3 -0.002578 -0.001821 0.010098 -0.000555 0.002738 0.002752
# 4 -0.000818 0.004336 -0.000555 0.025310 -0.002698 -0.005064
# 5 0.003296 -0.001963 0.002738 -0.002698 0.020871 0.002694
# 6 -0.006747 -0.002893 0.002752 -0.005064 0.002694 0.021386
#
#
# Mechanical properties :
#
#
# Convention : Reuss Voigt Hill
#
# Bulk Modulus (GPa) = 59.39313 78.11590 68.75451
# Shear Modulus (GPa) = 41.66052 52.51999 47.09026
#
# Velocity S-wave (km/s) = 3.89169 4.36956 4.13753
# Velocity P-wave (km/s) = 6.46416 7.33864 6.91524
#
# Compressibility (1/GPa) = 0.01683697
#
# Stress axis : x y z
#
# Youngs Moduli (GPa) = 76.21806 116.01489 99.03004
#
# Poissons Ratio (x) = 0.35980 0.25527
# Poissons Ratio (y) = 0.23638 0.18037
# Poissons Ratio (z) = 0.19647 0.21131
#
# Static dielectric constant tensor:
#      x y z
#    x 2.291910 0.000230 0.086780 
#    y 0.000230 2.182810 -0.035870 
#    z 0.086780 -0.035870 2.225850 
# 
# From -- ./inp_files/8186.got.cif
#   From: 2010.05.17/outbox.cif.g08.bks.cpg/sg2_5_cif.got.tgz:8186.got - 2010.06.03 11:33:40.
