data_PCOD9056068
_publ_section_title
;
Structure prediction by ZEFSAII (Michael W. Deem and Ramdas Pophale) SiO2 
 PCOD9056068
Probable space group: P -1
;
_chemical_formula_sum "Si O2"
_cell_formula_units_Z 14
_cell_length_a 9.636210
_cell_length_b 8.343006
_cell_length_c 10.736134
_cell_angle_alpha 118.590298
_cell_angle_beta 120.049482
_cell_angle_gamma 45.156837
_cell_volume 518.556956
_symmetry_space_group_name_H-M "P -1"
_symmetry_group_IT_number 2
_symmetry_cell_setting 'triclinic'
loop_
_space_group_symop_operation_xyz
x,y,z
-x,-y,-z
loop_
_atom_site_type_symbol
_atom_site_label
_atom_site_fract_x
_atom_site_fract_y
_atom_site_fract_z
Si Si1 0.718252 0.535029 0.281239
Si Si2 0.656561 0.057421 0.094325
Si Si3 0.237337 0.086158 0.643014
Si Si4 0.684993 0.735926 0.608079
Si Si5 0.656404 0.408312 0.883588
Si Si6 0.890080 0.952431 0.672260
Si Si7 0.041541 0.345365 0.081153
O O1 0.784555 0.684790 0.313985
O O2 0.690038 0.595348 0.440665
O O3 0.504790 0.630326 0.156202
O O4 0.892817 0.259060 0.255263
O O5 0.787219 0.944452 0.236071
O O6 0.800527 0.923330 0.990355
O O7 0.508227 0.332059 0.140967
O O8 0.500000 0.000000 0.000000
O O9 0.101229 0.071529 0.480197
O O10 0.468516 0.879984 0.630181
O O11 0.738842 0.895545 0.630568
O O12 0.847396 0.614546 0.748024
O O13 0.827229 0.397352 0.033051
O O14 0.792551 0.206349 0.769429
O O15 0.000000 0.500000 0.000000
#
# Coordination Sequence:
#
# PCOD9056068 Si02
#       7
#     2   2   2   2   2   2   2
#     4  11  24  45  77 108 136 178 240 296 346 403
#     4  12  26  46  70 100 142 194 231 276 356 425
#     4  11  21  46  76 102 145 182 231 290 351 418
#     4  11  21  45  74 105 140 187 228 284 355 419
#     4  12  25  49  70 105 144 179 240 294 341 414
#     4  11  24  43  74 108 138 181 234 293 353 403
#     4  12  27  46  71  99 142 191 233 276 353 424
#
# _framework density 26.997997999999999
#
# number of rings (size 3 to 8) (size 9 to 14) (size 15 to 20)
#    0.000    0.571    5.714    3.429    4.000    1.143 
#    2.571    5.000    0.000    0.000    0.000    0.000 
#    0.000    0.000    0.000    0.000    0.000    0.000 
#
# Total GULP energy -78488.035400 kJ/mol
# GULP energy per Si atom -5606.288243 kJ/mol
# Density = 2.693655 g / cm^3
# Si number density = 26.997998 Si / 1000 Ang^3
#
#
#
# Elastic Constant Matrix: (Units=GPa)
#
#
# Indices 1 2 3 4 5 6 
#
# 1 99.5401 33.3871 25.9656 -9.0372 12.8516 -32.2411
# 2 33.3871 179.6322 54.6877 5.6797 -7.1154 -25.0817
# 3 25.9656 54.6877 161.9799 -24.6075 1.6540 2.4134
# 4 -9.0372 5.6797 -24.6075 56.7697 -2.5144 0.6667
# 5 12.8516 -7.1154 1.6540 -2.5144 46.4892 -9.6189
# 6 -32.2411 -25.0817 2.4134 0.6667 -9.6189 43.9503
#
#
#
# Elastic Compliance Matrix: (Units=1/GPa)
#
#
# Indices 1 2 3 4 5 6 
#
# 1 0.014350 -0.000840 -0.001940 0.001327 -0.001946 0.009708
# 2 -0.000840 0.007286 -0.002713 -0.001990 0.002206 0.004204
# 3 -0.001940 -0.002713 0.007983 0.003433 -0.000726 -0.003621
# 4 0.001327 -0.001990 0.003433 0.019527 0.000135 -0.000617
# 5 -0.001946 0.002206 -0.000726 0.000135 0.023454 0.005002
# 6 0.009708 0.004204 -0.003621 -0.000617 0.005002 0.033577
#
#
# Mechanical properties :
#
#
# Convention : Reuss Voigt Hill
#
# Bulk Modulus (GPa) = 53.66445 74.35923 64.01184
# Shear Modulus (GPa) = 40.52691 51.24928 45.88810
#
# Velocity S-wave (km/s) = 3.87862 4.36163 4.12720
# Velocity P-wave (km/s) = 6.32286 7.27787 6.81711
#
# Compressibility (1/GPa) = 0.01863431
#
# Stress axis : x y z
#
# Youngs Moduli (GPa) = 69.68521 137.24428 125.25940
#
# Poissons Ratio (x) = 0.11531 0.24298
# Poissons Ratio (y) = 0.05855 0.33981
# Poissons Ratio (z) = 0.13518 0.37232
#
# Static dielectric constant tensor:
#      x y z
#    x 2.149550 0.009040 -0.018240 
#    y 0.009040 2.082610 0.039810 
#    z -0.018240 0.039810 2.170600 
# 
# From -- ./inp_files/419782.got.cif
#   From: 2010.05.17/outbox.cif.g08.bks.cpg/sg2_210_cif.got.tgz:419782.got - 2010.06.03 11:33:40.
