data_PCOD9056819
_publ_section_title
;
Structure prediction by ZEFSAII (Michael W. Deem and Ramdas Pophale) SiO2 
 PCOD9056819
Probable space group: P -1
;
_chemical_formula_sum "Si O2"
_cell_formula_units_Z 16
_cell_length_a 7.954279
_cell_length_b 19.831671
_cell_length_c 8.672643
_cell_angle_alpha 42.171642
_cell_angle_beta 72.113346
_cell_angle_gamma 55.994121
_cell_volume 747.087257
_symmetry_space_group_name_H-M "P -1"
_symmetry_group_IT_number 2
_symmetry_cell_setting 'triclinic'
loop_
_space_group_symop_operation_xyz
x,y,z
-x,-y,-z
loop_
_atom_site_type_symbol
_atom_site_label
_atom_site_fract_x
_atom_site_fract_y
_atom_site_fract_z
Si Si1 0.837123 0.512725 0.302114
Si Si2 0.091921 0.329293 0.190909
Si Si3 0.287762 0.632416 0.616462
Si Si4 0.254974 0.020505 0.193186
Si Si5 0.689705 0.625386 0.474475
Si Si6 0.307990 0.176886 0.690551
Si Si7 0.742317 0.909561 0.592329
Si Si8 0.054101 0.905255 0.275388
O O1 0.753021 0.428865 0.414247
O O2 0.704472 0.599062 0.332304
O O3 0.074590 0.446526 0.407344
O O4 0.841983 0.580905 0.033703
O O5 0.183863 0.268851 0.433184
O O6 0.192064 0.225250 0.214160
O O7 0.846666 0.380755 0.187476
O O8 0.527420 0.590564 0.642625
O O9 0.177788 0.773804 0.398138
O O10 0.502393 0.936789 0.250283
O O11 0.179468 0.933084 0.316648
O O12 0.185343 0.069980 0.298793
O O13 0.193006 0.126408 0.910284
O O14 0.618520 0.757819 0.322431
O O15 0.853837 0.927162 0.385955
O O16 0.500000 0.000000 0.500000
O O17 0.000000 0.000000 0.000000
#
# Coordination Sequence:
#
# PCOD9056819 Si02
#       8
#     2   2   2   2   2   2   2   2
#     4  11  25  44  68  94 134 170 222 280 326 387
#     4  11  23  44  65  98 132 173 217 274 330 391
#     4  11  23  43  68  94 132 172 221 268 327 395
#     4  11  22  41  66  97 132 175 216 271 328 400
#     4  11  24  44  68  96 127 175 225 268 332 393
#     4  11  22  40  70  94 132 175 217 268 338 393
#     4  11  23  40  66  98 134 170 216 270 329 395
#     4  11  25  41  66 100 133 175 219 271 330 396
#
# _framework density 21.416508
#
# number of rings (size 3 to 8) (size 9 to 14) (size 15 to 20)
#    0.000    1.000    3.750    3.375    1.750    1.500 
#    0.000    0.000    0.000    0.000    0.000    0.000 
#    0.000    0.000    0.000    0.000    0.000    0.000 
#
# Total GULP energy -89316.037856 kJ/mol
# GULP energy per Si atom -5582.252366 kJ/mol
# Density = 2.136776 g / cm^3
# Si number density = 21.416508 Si / 1000 Ang^3
#
#
#
# Elastic Constant Matrix: (Units=GPa)
#
#
# Indices 1 2 3 4 5 6 
#
# 1 104.1759 33.0146 21.8314 -6.4435 -24.1948 18.8746
# 2 33.0146 128.3670 25.8599 0.9759 -9.0600 33.0321
# 3 21.8314 25.8599 95.6022 -2.4066 -13.1445 11.4496
# 4 -6.4435 0.9759 -2.4066 16.1495 7.6221 -10.8584
# 5 -24.1948 -9.0600 -13.1445 7.6221 29.7494 -1.9084
# 6 18.8746 33.0321 11.4496 -10.8584 -1.9084 48.1037
#
#
#
# Elastic Compliance Matrix: (Units=1/GPa)
#
#
# Indices 1 2 3 4 5 6 
#
# 1 0.013215 -0.001425 -0.000775 -0.002428 0.010326 -0.004161
# 2 -0.001425 0.010890 -0.001390 -0.008596 0.003207 -0.008402
# 3 -0.000775 -0.001390 0.011800 -0.001786 0.004503 -0.001774
# 4 -0.002428 -0.008596 -0.001786 0.092252 -0.027284 0.027022
# 5 0.010326 0.003207 0.004503 -0.027284 0.051235 -0.011452
# 6 -0.004161 -0.008402 -0.001774 0.027022 -0.011452 0.034258
#
#
# Mechanical properties :
#
#
# Convention : Reuss Voigt Hill
#
# Bulk Modulus (GPa) = 34.81203 54.39522 44.60362
# Shear Modulus (GPa) = 21.70096 35.29646 28.49871
#
# Velocity S-wave (km/s) = 3.18666 4.06408 3.65182
# Velocity P-wave (km/s) = 5.46167 6.89030 6.21715
#
# Compressibility (1/GPa) = 0.02872570
#
# Stress axis : x y z
#
# Youngs Moduli (GPa) = 75.67107 91.82588 84.74780
#
# Poissons Ratio (x) = 0.13081 0.06572
# Poissons Ratio (y) = 0.10780 0.11777
# Poissons Ratio (z) = 0.05868 0.12760
#
# Static dielectric constant tensor:
#      x y z
#    x 1.845340 -0.000130 0.010600 
#    y -0.000130 1.801760 -0.020700 
#    z 0.010600 -0.020700 1.782740 
# 
# From -- ./inp_files/222990.got.cif
#   From: 2010.05.17/outbox.cif.g08.bks.cpg/sg2_112_cif.got.tgz:222990.got - 2010.06.03 11:33:40.
