data_PCOD9056977
_publ_section_title
;
Structure prediction by ZEFSAII (Michael W. Deem and Ramdas Pophale) SiO2 
 PCOD9056977
Probable space group: P -1
;
_chemical_formula_sum "Si O2"
_cell_formula_units_Z 14
_cell_length_a 17.888924
_cell_length_b 10.874030
_cell_length_c 9.760814
_cell_angle_alpha 136.766392
_cell_angle_beta 150.971577
_cell_angle_gamma 47.257229
_cell_volume 626.117389
_symmetry_space_group_name_H-M "P -1"
_symmetry_group_IT_number 2
_symmetry_cell_setting 'triclinic'
loop_
_space_group_symop_operation_xyz
x,y,z
-x,-y,-z
loop_
_atom_site_type_symbol
_atom_site_label
_atom_site_fract_x
_atom_site_fract_y
_atom_site_fract_z
Si Si1 0.348405 0.694291 0.571003
Si Si2 0.302708 0.122681 0.164751
Si Si3 0.785782 0.223930 0.143632
Si Si4 0.135776 0.075148 0.587189
Si Si5 0.618797 0.206683 0.600699
Si Si6 0.825446 0.517323 0.677716
Si Si7 0.626742 0.865353 0.184909
O O1 0.379564 0.683874 0.449872
O O2 0.278049 0.534346 0.402083
O O3 0.219003 0.870217 0.531210
O O4 0.512381 0.723593 0.928901
O O5 0.452323 0.175055 0.368179
O O6 0.239906 0.276986 0.296561
O O7 0.169934 0.121346 0.835374
O O8 0.323962 0.920833 0.094307
O O9 0.804069 0.378968 0.408847
O O10 0.954704 0.111447 0.300548
O O11 0.716023 0.289812 0.940358
O O12 0.231522 0.194099 0.736941
O O13 0.685373 0.998622 0.498722
O O14 0.000000 0.500000 0.000000
O O15 0.500000 0.000000 0.000000
#
# Coordination Sequence:
#
# PCOD9056977 Si02
#       7
#     2   2   2   2   2   2   2
#     4  10  19  39  65  92 117 159 208 249 291 371
#     4  12  21  40  65  88 120 166 204 242 301 362
#     4  12  24  39  62  93 127 158 195 261 302 349
#     4  10  17  36  64  87 117 157 207 240 293 357
#     4  10  21  39  63  92 124 157 201 251 311 349
#     4  12  25  38  64  92 119 160 213 243 293 371
#     4   8  15  33  63  87 111 154 204 238 284 369
#
# _framework density 22.360023000000002
#
# number of rings (size 3 to 8) (size 9 to 14) (size 15 to 20)
#    0.000    1.714    7.143    1.714    0.000    3.429 
#    0.000    0.714    3.143    0.000    0.000    0.000 
#    0.000    0.000    0.000    0.000    0.000    0.000 
#
# Total GULP energy -78166.731037 kJ/mol
# GULP energy per Si atom -5583.337931 kJ/mol
# Density = 2.230913 g / cm^3
# Si number density = 22.360023 Si / 1000 Ang^3
#
#
#
# Elastic Constant Matrix: (Units=GPa)
#
#
# Indices 1 2 3 4 5 6 
#
# 1 86.0462 22.3166 38.6547 13.7038 0.7699 -5.4835
# 2 22.3166 65.7702 19.5652 22.3233 -17.1303 -14.0258
# 3 38.6547 19.5652 92.9370 15.9816 -20.1440 6.4698
# 4 13.7038 22.3233 15.9816 17.1919 -3.7109 0.8654
# 5 0.7699 -17.1303 -20.1440 -3.7109 34.9413 8.8898
# 6 -5.4835 -14.0258 6.4698 0.8654 8.8898 18.0522
#
#
#
# Elastic Compliance Matrix: (Units=1/GPa)
#
#
# Indices 1 2 3 4 5 6 
#
# 1 0.018222 -0.000127 -0.009310 -0.008669 -0.010391 0.014306
# 2 -0.000127 0.042926 -0.000265 -0.055609 0.006644 0.032802
# 3 -0.009310 -0.000265 0.020539 -0.007045 0.015693 -0.017785
# 4 -0.008669 -0.055609 -0.007045 0.145573 -0.003290 -0.048672
# 5 -0.010391 0.006644 0.015693 -0.003290 0.047654 -0.026929
# 6 0.014306 0.032802 -0.017785 -0.048672 -0.026929 0.107195
#
#
# Mechanical properties :
#
#
# Convention : Reuss Voigt Hill
#
# Bulk Modulus (GPa) = 16.05550 45.09179 30.57365
# Shear Modulus (GPa) = 11.84063 24.98486 18.41275
#
# Velocity S-wave (km/s) = 2.30368 3.34636 2.87273
# Velocity P-wave (km/s) = 3.77783 5.92798 4.97056
#
# Compressibility (1/GPa) = 0.06228395
#
# Stress axis : x y z
#
# Youngs Moduli (GPa) = 54.87849 23.29572 48.68781
#
# Poissons Ratio (x) = 0.00296 0.45327
# Poissons Ratio (y) = 0.00696 0.01291
# Poissons Ratio (z) = 0.51091 0.00618
#
# Static dielectric constant tensor:
#      x y z
#    x 1.851340 0.039450 0.000770 
#    y 0.039450 1.952840 0.054790 
#    z 0.000770 0.054790 1.829780 
# 
# From -- ./inp_files/333853.got.cif
#   From: 2010.05.17/outbox.cif.g08.bks.cpg/sg2_167_cif.got.tgz:333853.got - 2010.06.03 11:33:40.
