data_PCOD9056457
_publ_section_title
;
Structure prediction by ZEFSAII (Michael W. Deem and Ramdas Pophale) SiO2 
 PCOD9056457
Probable space group: P -1
;
_chemical_formula_sum "Si O2"
_cell_formula_units_Z 16
_cell_length_a 12.043947
_cell_length_b 14.029926
_cell_length_c 13.027578
_cell_angle_alpha 66.401370
_cell_angle_beta 88.983503
_cell_angle_gamma 146.729810
_cell_volume 789.102490
_symmetry_space_group_name_H-M "P -1"
_symmetry_group_IT_number 2
_symmetry_cell_setting 'triclinic'
loop_
_space_group_symop_operation_xyz
x,y,z
-x,-y,-z
loop_
_atom_site_type_symbol
_atom_site_label
_atom_site_fract_x
_atom_site_fract_y
_atom_site_fract_z
Si Si1 0.969984 0.659230 0.554546
Si Si2 0.525130 0.406804 0.330839
Si Si3 0.550925 0.250972 0.234637
Si Si4 0.914500 0.702028 0.901808
Si Si5 0.503925 0.234996 0.577866
Si Si6 0.766793 0.306301 0.380142
Si Si7 0.317263 0.449997 0.238540
Si Si8 0.919796 0.050784 0.991886
O O1 0.987991 0.559262 0.645209
O O2 0.701947 0.438411 0.580551
O O3 0.931650 0.707492 0.627144
O O4 0.261143 0.935292 0.369311
O O5 0.465123 0.277477 0.293235
O O6 0.424348 0.267329 0.497344
O O7 0.397652 0.409976 0.307384
O O8 0.870432 0.711750 0.193614
O O9 0.777677 0.381426 0.242945
O O10 0.708189 0.430485 0.055389
O O11 0.762119 0.633787 0.842748
O O12 0.220138 0.934537 0.751239
O O13 0.988173 0.829838 0.948621
O O14 0.681732 0.313007 0.467487
O O15 0.500000 0.000000 0.500000
O O16 0.584392 0.759856 0.106502
O O17 0.000000 0.000000 0.000000
#
# Coordination Sequence:
#
# PCOD9056457 Si02
#       8
#     2   2   2   2   2   2   2   2
#     4  11  22  39  62  91 120 161 202 247 303 362
#     4   9  21  39  59  85 124 162 199 247 297 361
#     4   9  21  39  61  88 119 159 202 245 303 358
#     4  11  22  39  62  90 122 160 201 252 297 356
#     4  11  22  39  63  90 121 158 205 250 297 357
#     4   9  19  41  64  84 119 159 200 248 303 362
#     4  11  22  39  61  90 124 162 204 246 301 353
#     4   9  20  39  56  87 122 157 198 252 296 351
#
# _framework density 20.276201
#
# number of rings (size 3 to 8) (size 9 to 14) (size 15 to 20)
#    0.000    2.000    1.250    2.625    1.750    7.000 
#    2.250    6.250    0.000    0.000    0.000    0.000 
#    0.000    0.000    0.000    0.000    0.000    0.000 
#
# Total GULP energy -89220.907466 kJ/mol
# GULP energy per Si atom -5576.306717 kJ/mol
# Density = 2.023005 g / cm^3
# Si number density = 20.276201 Si / 1000 Ang^3
#
#
#
# Elastic Constant Matrix: (Units=GPa)
#
#
# Indices 1 2 3 4 5 6 
#
# 1 82.3295 2.2816 27.0880 13.0657 15.3273 14.2051
# 2 2.2816 68.2757 22.7137 3.6494 -0.5417 5.5315
# 3 27.0880 22.7137 113.2440 -5.8022 9.0817 22.2038
# 4 13.0657 3.6494 -5.8022 31.8723 2.8321 3.7020
# 5 15.3273 -0.5417 9.0817 2.8321 13.2248 -2.4841
# 6 14.2051 5.5315 22.2038 3.7020 -2.4841 22.1924
#
#
#
# Elastic Compliance Matrix: (Units=1/GPa)
#
#
# Indices 1 2 3 4 5 6 
#
# 1 0.020123 0.000656 -0.000262 -0.004431 -0.024953 -0.014836
# 2 0.000656 0.016080 -0.003876 -0.003149 0.003299 0.000344
# 3 -0.000262 -0.003876 0.014155 0.006170 -0.013829 -0.015606
# 4 -0.004431 -0.003149 0.006170 0.036585 -0.008877 -0.009648
# 5 -0.024953 0.003299 -0.013829 -0.008877 0.124406 0.044392
# 6 -0.014836 0.000344 -0.015606 -0.009648 0.044392 0.076663
#
#
# Mechanical properties :
#
#
# Convention : Reuss Voigt Hill
#
# Bulk Modulus (GPa) = 23.04427 40.89065 31.96746
# Shear Modulus (GPa) = 16.15811 27.57563 21.86687
#
# Velocity S-wave (km/s) = 2.82601 3.69182 3.28754
# Velocity P-wave (km/s) = 4.69449 6.19543 5.49643
#
# Compressibility (1/GPa) = 0.04339474
#
# Stress axis : x y z
#
# Youngs Moduli (GPa) = 49.69481 62.18724 70.64395
#
# Poissons Ratio (x) = -0.04076 0.01851
# Poissons Ratio (y) = -0.03258 0.27378
# Poissons Ratio (z) = 0.01302 0.24101
#
# Static dielectric constant tensor:
#      x y z
#    x 1.746450 0.011030 -0.007160 
#    y 0.011030 1.758900 -0.026690 
#    z -0.007160 -0.026690 1.772950 
# 
# From -- ./inp_files/349857.got.cif
#   From: 2010.05.17/outbox.cif.g08.bks.cpg/sg2_175_cif.got.tgz:349857.got - 2010.06.03 11:33:40.
