data_PCOD9056956
_publ_section_title
;
Structure prediction by ZEFSAII (Michael W. Deem and Ramdas Pophale) SiO2 
 PCOD9056956
Probable space group: P -1
;
_chemical_formula_sum "Si O2"
_cell_formula_units_Z 16
_cell_length_a 8.231497
_cell_length_b 21.094264
_cell_length_c 12.383120
_cell_angle_alpha 142.775911
_cell_angle_beta 113.511183
_cell_angle_gamma 40.745917
_cell_volume 726.449799
_symmetry_space_group_name_H-M "P -1"
_symmetry_group_IT_number 2
_symmetry_cell_setting 'triclinic'
loop_
_space_group_symop_operation_xyz
x,y,z
-x,-y,-z
loop_
_atom_site_type_symbol
_atom_site_label
_atom_site_fract_x
_atom_site_fract_y
_atom_site_fract_z
Si Si1 0.746576 0.802701 0.833603
Si Si2 0.971058 0.310533 0.645514
Si Si3 0.587971 0.117889 0.557396
Si Si4 0.456388 0.415918 0.944455
Si Si5 0.273063 0.521588 0.426038
Si Si6 0.665303 0.139981 0.059668
Si Si7 0.869601 0.985160 0.687824
Si Si8 0.980040 0.159161 0.886681
O O1 0.548584 0.803190 0.828422
O O2 0.984617 0.657321 0.610082
O O3 0.916053 0.787959 0.950819
O O4 0.500000 0.000000 0.000000
O O5 0.309663 0.176943 0.547500
O O6 0.832104 0.404276 0.621643
O O7 0.915283 0.214517 0.527884
O O8 0.861123 0.430850 0.880135
O O9 0.523865 0.269752 0.715462
O O10 0.689148 0.067492 0.640483
O O11 0.834553 0.956394 0.326728
O O12 0.661792 0.328174 0.984937
O O13 0.500000 0.500000 0.000000
O O14 0.500000 0.500000 0.500000
O O15 0.478485 0.324206 0.215598
O O16 0.697318 0.050387 0.842427
O O17 0.000000 0.000000 0.000000
O O18 0.992710 0.046162 0.807149
#
# Coordination Sequence:
#
# PCOD9056956 Si02
#       8
#     2   2   2   2   2   2   2   2
#     4  12  25  44  68  97 129 171 220 273 329 392
#     4  12  24  40  66  97 128 168 215 271 327 388
#     4  11  23  41  63  94 130 170 215 264 324 394
#     4  11  23  40  62  93 129 168 211 265 322 385
#     4  12  25  45  67  97 133 172 222 276 329 392
#     4  12  26  45  69  97 131 174 220 273 333 393
#     4  11  22  41  66  94 129 172 215 267 329 391
#     4  11  23  42  65  91 127 171 216 261 321 395
#
# _framework density 22.024920000000002
#
# number of rings (size 3 to 8) (size 9 to 14) (size 15 to 20)
#    0.000    0.500    0.000   11.625    0.000    2.000 
#    0.000    5.000    0.000    0.000    0.000    0.000 
#    0.000    0.000    0.000    0.000    0.000    0.000 
#
# Total GULP energy -89398.802000 kJ/mol
# GULP energy per Si atom -5587.425125 kJ/mol
# Density = 2.197479 g / cm^3
# Si number density = 22.024920 Si / 1000 Ang^3
#
#
#
# Elastic Constant Matrix: (Units=GPa)
#
#
# Indices 1 2 3 4 5 6 
#
# 1 90.1020 38.3958 18.6917 3.8530 -12.2883 3.3301
# 2 38.3958 92.1877 28.6018 5.2645 5.0247 15.8959
# 3 18.6917 28.6018 118.5327 0.4010 -16.2342 6.3936
# 4 3.8530 5.2645 0.4010 34.3917 6.2175 1.7258
# 5 -12.2883 5.0247 -16.2342 6.2175 47.3363 5.9401
# 6 3.3301 15.8959 6.3936 1.7258 5.9401 31.3310
#
#
#
# Elastic Compliance Matrix: (Units=1/GPa)
#
#
# Indices 1 2 3 4 5 6 
#
# 1 0.014446 -0.006269 -0.000204 -0.001503 0.004426 0.000931
# 2 -0.006269 0.015627 -0.002929 -0.000733 -0.003445 -0.005971
# 3 -0.000204 -0.002929 0.009759 -0.000268 0.003789 -0.001187
# 4 -0.001503 -0.000733 -0.000268 0.030157 -0.004334 -0.000253
# 5 0.004426 -0.003445 0.003789 -0.004334 0.025011 -0.003999
# 6 0.000931 -0.005971 -0.001187 -0.000253 -0.003999 0.035862
#
#
# Mechanical properties :
#
#
# Convention : Reuss Voigt Hill
#
# Bulk Modulus (GPa) = 47.55923 52.46679 50.01301
# Shear Modulus (GPa) = 31.91305 36.95399 34.43352
#
# Velocity S-wave (km/s) = 3.81064 4.10057 3.95826
# Velocity P-wave (km/s) = 6.40325 6.80389 6.60660
#
# Compressibility (1/GPa) = 0.02102641
#
# Stress axis : x y z
#
# Youngs Moduli (GPa) = 69.22339 63.99364 102.46470
#
# Poissons Ratio (x) = 0.40119 0.02092
# Poissons Ratio (y) = 0.43398 0.30016
# Poissons Ratio (z) = 0.01413 0.18746
#
# Static dielectric constant tensor:
#      x y z
#    x 1.965980 0.039550 0.005510 
#    y 0.039550 1.800790 -0.069010 
#    z 0.005510 -0.069010 1.660350 
# 
# From -- ./inp_files/242990.got.cif
#   From: 2010.05.17/outbox.cif.g08.bks.cpg/sg2_122_cif.got.tgz:242990.got - 2010.06.03 11:33:40.
