data_PCOD9056300
_publ_section_title
;
Structure prediction by ZEFSAII (Michael W. Deem and Ramdas Pophale) SiO2 
 PCOD9056300
Probable space group: P -1
;
_chemical_formula_sum "Si O2"
_cell_formula_units_Z 16
_cell_length_a 11.890670
_cell_length_b 14.965781
_cell_length_c 9.810384
_cell_angle_alpha 137.971038
_cell_angle_beta 69.122549
_cell_angle_gamma 132.872720
_cell_volume 816.127594
_symmetry_space_group_name_H-M "P -1"
_symmetry_group_IT_number 2
_symmetry_cell_setting 'triclinic'
loop_
_space_group_symop_operation_xyz
x,y,z
-x,-y,-z
loop_
_atom_site_type_symbol
_atom_site_label
_atom_site_fract_x
_atom_site_fract_y
_atom_site_fract_z
Si Si1 0.883537 0.579167 0.219554
Si Si2 0.457831 0.778326 0.151459
Si Si3 0.360122 0.998145 0.106292
Si Si4 0.757101 0.922340 0.010570
Si Si5 0.526719 0.134438 0.448556
Si Si6 0.110342 0.268855 0.338142
Si Si7 0.033033 0.644624 0.958240
Si Si8 0.848077 0.470179 0.584842
O O1 0.872755 0.683809 0.456716
O O2 0.992644 0.690879 0.167574
O O3 0.708247 0.405185 0.042135
O O4 0.966053 0.511329 0.179759
O O5 0.466416 0.785267 0.319632
O O6 0.466597 0.940363 0.285381
O O7 0.615516 0.826666 0.074315
O O8 0.312244 0.058744 0.073131
O O9 0.418744 0.113498 0.350039
O O10 0.203645 0.801706 0.997023
O O11 0.500000 0.000000 0.000000
O O12 0.807621 0.809069 0.826052
O O13 0.920669 0.116811 0.209344
O O14 0.704072 0.266513 0.456140
O O15 0.188331 0.446576 0.418693
O O16 0.902125 0.578808 0.825255
O O17 0.000000 0.500000 0.500000
#
# Coordination Sequence:
#
# PCOD9056300 Si02
#       8
#     2   2   2   2   2   2   2   2
#     4  11  23  39  62  96 130 163 206 256 320 366
#     4  11  23  41  60  95 132 163 204 257 318 371
#     4  12  22  41  65  97 125 163 213 259 309 368
#     4  11  25  45  64  91 127 167 211 257 315 374
#     4  11  24  37  65  96 127 162 205 261 315 366
#     4  11  26  43  66  91 125 170 209 258 315 372
#     4  11  22  37  63  96 128 160 206 266 306 369
#     4  12  21  39  64  95 123 164 212 258 306 366
#
# _framework density 19.604778
#
# number of rings (size 3 to 8) (size 9 to 14) (size 15 to 20)
#    0.000    0.750    6.250    1.500    3.500    0.500 
#    0.000    2.500    0.000    0.000    0.000    0.000 
#    0.000    0.000    0.000    0.000    0.000    0.000 
#
# Total GULP energy -89427.167181 kJ/mol
# GULP energy per Si atom -5589.197949 kJ/mol
# Density = 1.956016 g / cm^3
# Si number density = 19.604778 Si / 1000 Ang^3
#
#
#
# Elastic Constant Matrix: (Units=GPa)
#
#
# Indices 1 2 3 4 5 6 
#
# 1 79.1727 30.9697 35.0343 -10.6382 7.3067 4.1065
# 2 30.9697 112.8995 32.9698 -18.2044 3.8647 8.5634
# 3 35.0343 32.9698 112.4167 -25.0305 14.7909 -0.3986
# 4 -10.6382 -18.2044 -25.0305 31.1643 -0.0543 3.8363
# 5 7.3067 3.8647 14.7909 -0.0543 30.9905 -2.6325
# 6 4.1065 8.5634 -0.3986 3.8363 -2.6325 23.6938
#
#
#
# Elastic Compliance Matrix: (Units=1/GPa)
#
#
# Indices 1 2 3 4 5 6 
#
# 1 0.015772 -0.002879 -0.003601 0.001069 -0.001820 -0.002129
# 2 -0.002879 0.011177 -0.001183 0.005143 -0.000520 -0.004451
# 3 -0.003601 -0.001183 0.012957 0.008563 -0.005232 -0.000698
# 4 0.001069 0.005143 0.008563 0.043504 -0.005718 -0.009579
# 5 -0.001820 -0.000520 -0.005232 -0.005718 0.035700 0.005307
# 6 -0.002129 -0.004451 -0.000698 -0.009579 0.005307 0.046312
#
#
# Mechanical properties :
#
#
# Convention : Reuss Voigt Hill
#
# Bulk Modulus (GPa) = 40.68232 55.82628 48.25430
# Shear Modulus (GPa) = 26.46305 30.87073 28.66689
#
# Velocity S-wave (km/s) = 3.67798 3.97250 3.82807
# Velocity P-wave (km/s) = 6.23162 7.04121 6.64875
#
# Compressibility (1/GPa) = 0.02458071
#
# Stress axis : x y z
#
# Youngs Moduli (GPa) = 63.40259 89.46664 77.17593
#
# Poissons Ratio (x) = 0.25755 0.27792
# Poissons Ratio (y) = 0.18252 0.09132
# Poissons Ratio (z) = 0.22832 0.10586
#
# Static dielectric constant tensor:
#      x y z
#    x 1.669230 0.008160 0.039720 
#    y 0.008160 1.695010 -0.001850 
#    z 0.039720 -0.001850 1.734200 
# 
# From -- ./inp_files/189439.got.cif
#   From: 2010.05.17/outbox.cif.g08.bks.cpg/sg2_95_cif.got.tgz:189439.got - 2010.06.03 11:33:40.
