data_PCOD9056920
_publ_section_title
;
Structure prediction by ZEFSAII (Michael W. Deem and Ramdas Pophale) SiO2 
 PCOD9056920
Probable space group: P -1
;
_chemical_formula_sum "Si O2"
_cell_formula_units_Z 16
_cell_length_a 14.210911
_cell_length_b 9.394970
_cell_length_c 11.660419
_cell_angle_alpha 50.287972
_cell_angle_beta 148.332942
_cell_angle_gamma 132.409958
_cell_volume 594.914527
_symmetry_space_group_name_H-M "P -1"
_symmetry_group_IT_number 2
_symmetry_cell_setting 'triclinic'
loop_
_space_group_symop_operation_xyz
x,y,z
-x,-y,-z
loop_
_atom_site_type_symbol
_atom_site_label
_atom_site_fract_x
_atom_site_fract_y
_atom_site_fract_z
Si Si1 0.118015 0.857289 0.230512
Si Si2 0.615383 0.858380 0.800642
Si Si3 0.370745 0.803726 0.199263
Si Si4 0.779003 0.813022 0.527898
Si Si5 0.827267 0.568879 0.925814
Si Si6 0.900599 0.236621 0.472601
Si Si7 0.410677 0.560674 0.584814
Si Si8 0.284721 0.468123 0.830502
O O1 0.141719 0.831082 0.402845
O O2 0.312662 0.993796 0.305433
O O3 0.006720 0.661893 0.145167
O O4 0.000000 0.000000 0.000000
O O5 0.427047 0.689602 0.648717
O O6 0.751729 0.729870 0.032060
O O7 0.626377 0.987214 0.858990
O O8 0.572208 0.825671 0.341017
O O9 0.205531 0.656760 0.026985
O O10 0.361071 0.673635 0.369022
O O11 0.847163 0.712331 0.760623
O O12 0.731233 0.657671 0.455403
O O13 0.894741 0.036931 0.507581
O O14 0.624798 0.561711 0.775118
O O15 0.107738 0.396850 0.597528
O O16 0.251504 0.650753 0.767950
O O17 0.500000 0.500000 0.000000
#
# Coordination Sequence:
#
# PCOD9056920 Si02
#       8
#     2   2   2   2   2   2   2   2
#     4  12  19  35  63  92 119 157 208 260 306 368
#     4  12  21  35  58  90 121 162 204 260 309 361
#     4   9  19  29  51  88 129 156 195 254 316 364
#     4   9  16  33  56  83 117 161 203 247 307 373
#     4   9  16  31  51  85 122 159 195 247 314 373
#     4  11  22  41  65  92 122 167 209 254 314 368
#     4   9  17  30  54  84 118 154 203 253 304 368
#     4  11  25  41  62  89 127 168 210 252 306 380
#
# _framework density 26.894621000000001
#
# number of rings (size 3 to 8) (size 9 to 14) (size 15 to 20)
#    0.000    1.750    3.750    3.375    0.000    1.500 
#    0.000    0.625    0.000    4.500    0.000    0.000 
#    0.000    0.000    0.000    0.000    0.000    0.000 
#
# Total GULP energy -89454.100188 kJ/mol
# GULP energy per Si atom -5590.881262 kJ/mol
# Density = 2.683341 g / cm^3
# Si number density = 26.894621 Si / 1000 Ang^3
#
#
#
# Elastic Constant Matrix: (Units=GPa)
#
#
# Indices 1 2 3 4 5 6 
#
# 1 67.6325 33.0613 24.8987 1.4232 13.2803 -3.4888
# 2 33.0613 198.8443 55.1161 28.5796 -13.3660 -28.4397
# 3 24.8987 55.1161 91.7159 17.6532 4.6154 -5.7423
# 4 1.4232 28.5796 17.6532 63.1238 0.0317 -9.5492
# 5 13.2803 -13.3660 4.6154 0.0317 34.1892 11.9247
# 6 -3.4888 -28.4397 -5.7423 -9.5492 11.9247 47.9419
#
#
#
# Elastic Compliance Matrix: (Units=1/GPa)
#
#
# Indices 1 2 3 4 5 6 
#
# 1 0.019205 -0.002897 -0.003315 0.002096 -0.008806 0.001890
# 2 -0.002897 0.007278 -0.003236 -0.001957 0.003557 0.002444
# 3 -0.003315 -0.003236 0.014289 -0.002535 -0.001721 -0.000526
# 4 0.002096 -0.001957 -0.002535 0.017813 -0.002226 0.002790
# 5 -0.008806 0.003557 -0.001721 -0.002226 0.037239 -0.008443
# 6 0.001890 0.002444 -0.000526 0.002790 -0.008443 0.025039
#
#
# Mechanical properties :
#
#
# Convention : Reuss Voigt Hill
#
# Bulk Modulus (GPa) = 45.71262 64.92720 55.31991
# Shear Modulus (GPa) = 34.00180 45.39209 39.69695
#
# Velocity S-wave (km/s) = 3.55950 4.11271 3.84607
# Velocity P-wave (km/s) = 5.82471 6.83712 6.35112
#
# Compressibility (1/GPa) = 0.02187580
#
# Stress axis : x y z
#
# Youngs Moduli (GPa) = 52.07010 137.40530 69.98174
#
# Poissons Ratio (x) = 0.39811 0.23196
# Poissons Ratio (y) = 0.15086 0.22648
# Poissons Ratio (z) = 0.17259 0.44468
#
# Static dielectric constant tensor:
#      x y z
#    x 2.154150 -0.036210 0.038880 
#    y -0.036210 2.168210 0.004430 
#    z 0.038880 0.004430 2.176390 
# 
# From -- ./inp_files/527440.got.cif
#   From: 2010.05.17/outbox.cif.g08.bks.cpg/sg2_264_cif.got.tgz:527440.got - 2010.06.03 11:33:40.
