data_PCOD9056309
_publ_section_title
;
Structure prediction by ZEFSAII (Michael W. Deem and Ramdas Pophale) SiO2 
 PCOD9056309
Probable space group: P -1
;
_chemical_formula_sum "Si O2"
_cell_formula_units_Z 12
_cell_length_a 12.074096
_cell_length_b 15.778444
_cell_length_c 5.468118
_cell_angle_alpha 106.312441
_cell_angle_beta 122.195249
_cell_angle_gamma 36.202506
_cell_volume 496.986907
_symmetry_space_group_name_H-M "P -1"
_symmetry_group_IT_number 2
_symmetry_cell_setting 'triclinic'
loop_
_space_group_symop_operation_xyz
x,y,z
-x,-y,-z
loop_
_atom_site_type_symbol
_atom_site_label
_atom_site_fract_x
_atom_site_fract_y
_atom_site_fract_z
Si Si1 0.319154 0.839631 0.359922
Si Si2 0.787111 0.012709 0.154183
Si Si3 0.526776 0.540254 0.313617
Si Si4 0.031916 0.256726 0.696191
Si Si5 0.357219 0.137964 0.628214
Si Si6 0.802787 0.663678 0.784693
O O1 0.204078 0.928247 0.552260
O O2 0.361360 0.713288 0.265953
O O3 0.567487 0.744968 0.602075
O O4 0.214992 0.938551 0.071641
O O5 0.970403 0.835924 0.249818
O O6 0.553775 0.083882 0.953357
O O7 0.500000 0.500000 0.500000
O O8 0.785383 0.428035 0.517576
O O9 0.500000 0.500000 0.000000
O O10 0.178426 0.167729 0.553367
O O11 0.176434 0.252525 0.995292
O O12 0.200862 0.302533 0.473350
O O13 0.500000 0.000000 0.500000
O O14 0.000000 0.500000 0.000000
#
# Coordination Sequence:
#
# PCOD9056309 Si02
#       6
#     2   2   2   2   2   2
#     4  11  24  45  70 105 144 175 233 294 350 420
#     4  11  23  40  71 110 143 178 218 287 365 433
#     4  12  30  52  73  97 139 195 249 295 338 401
#     4  12  24  43  71 104 145 186 229 284 359 419
#     4  11  22  37  65 107 154 175 218 274 367 438
#     4  11  22  37  65 107 142 178 223 284 361 434
#
# _framework density 24.145506999999998
#
# number of rings (size 3 to 8) (size 9 to 14) (size 15 to 20)
#    0.000    0.667    5.000    3.500    2.333    2.000 
#    0.000    5.000    0.000    0.000    0.000    0.000 
#    0.000    0.000    0.000    0.000    0.000    0.000 
#
# Total GULP energy -67076.277968 kJ/mol
# GULP energy per Si atom -5589.689831 kJ/mol
# Density = 2.409055 g / cm^3
# Si number density = 24.145507 Si / 1000 Ang^3
#
#
#
# Elastic Constant Matrix: (Units=GPa)
#
#
# Indices 1 2 3 4 5 6 
#
# 1 115.4295 46.4441 27.0695 -0.2591 -15.1995 -7.1789
# 2 46.4441 143.7040 44.7294 7.9811 -27.0367 32.5843
# 3 27.0695 44.7294 92.3766 13.3006 -10.6379 0.4781
# 4 -0.2591 7.9811 13.3006 57.4217 5.7483 0.4068
# 5 -15.1995 -27.0367 -10.6379 5.7483 35.9653 -8.5040
# 6 -7.1789 32.5843 0.4781 0.4068 -8.5040 43.1158
#
#
#
# Elastic Compliance Matrix: (Units=1/GPa)
#
#
# Indices 1 2 3 4 5 6 
#
# 1 0.011245 -0.004068 -0.001144 0.000587 0.002552 0.005457
# 2 -0.004068 0.012577 -0.004159 -0.001189 0.004512 -0.009235
# 3 -0.001144 -0.004159 0.013751 -0.002800 0.001650 0.003152
# 4 0.000587 -0.001189 -0.002800 0.018679 -0.004466 -0.000030
# 5 0.002552 0.004512 0.001650 -0.004466 0.034380 0.003820
# 6 0.005457 -0.009235 0.003152 -0.000030 0.003820 0.031800
#
#
# Mechanical properties :
#
#
# Convention : Reuss Voigt Hill
#
# Bulk Modulus (GPa) = 53.10542 65.33290 59.21916
# Shear Modulus (GPa) = 33.90922 42.85171 38.38046
#
# Velocity S-wave (km/s) = 3.75156 4.21732 3.99124
# Velocity P-wave (km/s) = 6.38805 7.12960 6.76899
#
# Compressibility (1/GPa) = 0.01883047
#
# Stress axis : x y z
#
# Youngs Moduli (GPa) = 88.92613 79.51011 72.72039
#
# Poissons Ratio (x) = 0.32345 0.08322
# Poissons Ratio (y) = 0.36175 0.30246
# Poissons Ratio (z) = 0.10176 0.33070
#
# Static dielectric constant tensor:
#      x y z
#    x 2.075230 0.003250 -0.127560 
#    y 0.003250 1.907620 0.041570 
#    z -0.127560 0.041570 2.045740 
# 
# From -- ./inp_files/24504.got.cif
#   From: 2010.05.17/outbox.cif.g08.bks.cpg/sg2_13_cif.got.tgz:24504.got - 2010.06.03 11:33:40.
