data_PCOD9056553
_publ_section_title
;
Structure prediction by ZEFSAII (Michael W. Deem and Ramdas Pophale) SiO2 
 PCOD9056553
Probable space group: P -1
;
_chemical_formula_sum "Si O2"
_cell_formula_units_Z 14
_cell_length_a 13.186398
_cell_length_b 4.941754
_cell_length_c 15.929006
_cell_angle_alpha 76.668467
_cell_angle_beta 40.919942
_cell_angle_gamma 58.827671
_cell_volume 557.347640
_symmetry_space_group_name_H-M "P -1"
_symmetry_group_IT_number 2
_symmetry_cell_setting 'triclinic'
loop_
_space_group_symop_operation_xyz
x,y,z
-x,-y,-z
loop_
_atom_site_type_symbol
_atom_site_label
_atom_site_fract_x
_atom_site_fract_y
_atom_site_fract_z
Si Si1 0.742191 0.444106 0.576794
Si Si2 0.890179 0.198351 0.668145
Si Si3 0.461827 0.746492 0.080884
Si Si4 0.288029 0.255525 0.593074
Si Si5 0.382189 0.446711 0.822663
Si Si6 0.156304 0.138390 0.957463
Si Si7 0.953674 0.012219 0.239734
O O1 0.786308 0.488780 0.642766
O O2 0.728225 0.706712 0.500680
O O3 0.565003 0.418868 0.677179
O O4 0.916878 0.090225 0.467181
O O5 0.747599 0.080974 0.770751
O O6 0.929093 0.228849 0.738586
O O7 0.587299 0.577482 0.094763
O O8 0.500000 0.500000 0.000000
O O9 0.500000 0.000000 0.000000
O O10 0.203323 0.624543 0.654256
O O11 0.500000 0.000000 0.500000
O O12 0.156903 0.139835 0.717849
O O13 0.331776 0.179371 0.850986
O O14 0.216365 0.823397 0.883695
O O15 0.000000 0.500000 0.000000
O O16 0.081742 0.068489 0.094423
#
# Coordination Sequence:
#
# PCOD9056553 Si02
#       7
#     2   2   2   2   2   2   2
#     4   9  22  41  69  99 136 178 217 273 335 400
#     4   9  20  42  66 100 136 172 220 269 335 398
#     4  11  22  39  68 100 137 174 217 276 334 407
#     4  11  25  42  68  93 131 170 221 274 323 397
#     4  11  24  43  66  99 134 176 225 278 338 401
#     4  12  27  44  69  95 134 181 231 284 336 396
#     4  11  24  43  66  96 127 174 218 273 332 389
#
# _framework density 25.118974000000001
#
# number of rings (size 3 to 8) (size 9 to 14) (size 15 to 20)
#    0.000    1.429    0.000    4.286    4.000    6.286 
#    0.000    8.571    0.000    0.000    0.000    0.000 
#    0.000    0.000    0.000    0.000    0.000    0.000 
#
# Total GULP energy -78347.992237 kJ/mol
# GULP energy per Si atom -5596.285160 kJ/mol
# Density = 2.506180 g / cm^3
# Si number density = 25.118974 Si / 1000 Ang^3
#
#
#
# Elastic Constant Matrix: (Units=GPa)
#
#
# Indices 1 2 3 4 5 6 
#
# 1 46.8408 29.7960 12.2388 -17.4925 -11.9661 -6.1629
# 2 29.7960 104.7929 47.9182 -13.8289 -11.1615 -2.5533
# 3 12.2388 47.9182 132.8202 -13.2838 -14.7104 -14.0316
# 4 -17.4925 -13.8289 -13.2838 43.4733 -9.0120 -1.6416
# 5 -11.9661 -11.1615 -14.7104 -9.0120 38.0981 -4.8521
# 6 -6.1629 -2.5533 -14.0316 -1.6416 -4.8521 53.4746
#
#
#
# Elastic Compliance Matrix: (Units=1/GPa)
#
#
# Indices 1 2 3 4 5 6 
#
# 1 0.036535 -0.008043 0.003602 0.016667 0.015302 0.006672
# 2 -0.008043 0.013728 -0.004467 -0.000398 -0.000515 -0.001503
# 3 0.003602 -0.004467 0.010192 0.004359 0.005233 0.003485
# 4 0.016667 -0.000398 0.004359 0.034363 0.015633 0.005519
# 5 0.015302 -0.000515 0.005233 0.015633 0.037513 0.006996
# 6 0.006672 -0.001503 0.003485 0.005519 0.006996 0.021116
#
#
# Mechanical properties :
#
#
# Convention : Reuss Voigt Hill
#
# Bulk Modulus (GPa) = 23.45304 51.59553 37.52429
# Shear Modulus (GPa) = 26.95725 39.97593 33.46659
#
# Velocity S-wave (km/s) = 3.27950 3.99364 3.65406
# Velocity P-wave (km/s) = 4.86798 6.46921 5.72485
#
# Compressibility (1/GPa) = 0.04263840
#
# Stress axis : x y z
#
# Youngs Moduli (GPa) = 27.37081 72.84178 98.11187
#
# Poissons Ratio (x) = 0.58589 -0.35337
# Poissons Ratio (y) = 0.22015 0.43829
# Poissons Ratio (z) = -0.09858 0.32540
#
# Static dielectric constant tensor:
#      x y z
#    x 2.005460 -0.058770 0.042570 
#    y -0.058770 1.929850 0.050560 
#    z 0.042570 0.050560 1.960880 
# 
# From -- ./inp_files/68096.got.cif
#   From: 2010.05.17/outbox.cif.g08.bks.cpg/sg2_35_cif.got.tgz:68096.got - 2010.06.03 11:33:40.
