data_PCOD9056649
_publ_section_title
;
Structure prediction by ZEFSAII (Michael W. Deem and Ramdas Pophale) SiO2 
 PCOD9056649
Probable space group: P -1
;
_chemical_formula_sum "Si O2"
_cell_formula_units_Z 12
_cell_length_a 8.281907
_cell_length_b 10.068263
_cell_length_c 8.700965
_cell_angle_alpha 107.004112
_cell_angle_beta 108.170756
_cell_angle_gamma 45.835613
_cell_volume 491.480073
_symmetry_space_group_name_H-M "P -1"
_symmetry_group_IT_number 2
_symmetry_cell_setting 'triclinic'
loop_
_space_group_symop_operation_xyz
x,y,z
-x,-y,-z
loop_
_atom_site_type_symbol
_atom_site_label
_atom_site_fract_x
_atom_site_fract_y
_atom_site_fract_z
Si Si1 0.482948 0.728635 0.760193
Si Si2 0.954611 0.453143 0.308040
Si Si3 0.985730 0.928418 0.132890
Si Si4 0.225990 0.249559 0.900086
Si Si5 0.419987 0.087927 0.340103
Si Si6 0.528549 0.421777 0.807881
O O1 0.532644 0.775173 0.630959
O O2 0.551899 0.534405 0.734718
O O3 0.215381 0.888325 0.771333
O O4 0.629122 0.737024 0.932684
O O5 0.937598 0.567798 0.195686
O O6 0.704450 0.528895 0.267884
O O7 0.000000 0.500000 0.500000
O O8 0.149683 0.228848 0.278843
O O9 0.910389 0.805421 0.082378
O O10 0.246699 0.791634 0.216357
O O11 0.000000 0.000000 0.000000
O O12 0.421455 0.078407 0.790228
O O13 0.500000 0.000000 0.500000
O O14 0.500000 0.500000 0.000000
#
# Coordination Sequence:
#
# PCOD9056649 Si02
#       6
#     2   2   2   2   2   2
#     4  11  25  43  73 108 136 181 235 295 340 411
#     4  12  26  47  72  98 145 188 230 286 354 419
#     4  11  22  40  65 106 143 168 224 299 341 396
#     4  11  24  43  74 106 135 187 234 283 353 407
#     4  11  24  45  72 100 138 188 233 278 351 424
#     4  12  25  41  70 108 136 183 235 289 348 405
#
# _framework density 24.416045
#
# number of rings (size 3 to 8) (size 9 to 14) (size 15 to 20)
#    0.000    0.667    5.000    3.000    4.667    2.667 
#    0.000    4.167    0.000    0.000    0.000    0.000 
#    0.000    0.000    0.000    0.000    0.000    0.000 
#
# Total GULP energy -67229.000281 kJ/mol
# GULP energy per Si atom -5602.416690 kJ/mol
# Density = 2.436047 g / cm^3
# Si number density = 24.416045 Si / 1000 Ang^3
#
#
#
# Elastic Constant Matrix: (Units=GPa)
#
#
# Indices 1 2 3 4 5 6 
#
# 1 158.5175 51.5073 66.2489 -30.4583 -12.6412 -7.8331
# 2 51.5073 173.6290 54.5406 -49.5123 -6.5496 -26.1041
# 3 66.2489 54.5406 127.2473 -30.9496 -10.2192 -4.0185
# 4 -30.4583 -49.5123 -30.9496 46.1095 5.9627 -10.0291
# 5 -12.6412 -6.5496 -10.2192 5.9627 44.6924 -19.5196
# 6 -7.8331 -26.1041 -4.0185 -10.0291 -19.5196 64.4890
#
#
#
# Elastic Compliance Matrix: (Units=1/GPa)
#
#
# Indices 1 2 3 4 5 6 
#
# 1 0.008703 -0.000163 -0.003396 0.003451 0.002046 0.001936
# 2 -0.000163 0.010634 -0.001213 0.011636 0.002663 0.006825
# 3 -0.003396 -0.001213 0.011250 0.004017 0.001247 0.000799
# 4 0.003451 0.011636 0.004017 0.041496 0.003724 0.012960
# 5 0.002046 0.002663 0.001247 0.003724 0.027655 0.010354
# 6 0.001936 0.006825 0.000799 0.012960 0.010354 0.023703
#
#
# Mechanical properties :
#
#
# Convention : Reuss Voigt Hill
#
# Bulk Modulus (GPa) = 47.52669 89.33193 68.42931
# Shear Modulus (GPa) = 35.71488 50.19798 42.95643
#
# Velocity S-wave (km/s) = 3.82876 4.53917 4.19901
# Velocity P-wave (km/s) = 6.24928 8.00868 7.18305
#
# Compressibility (1/GPa) = 0.02104081
#
# Stress axis : x y z
#
# Youngs Moduli (GPa) = 114.90843 94.04179 88.89273
#
# Poissons Ratio (x) = 0.01529 0.30192
# Poissons Ratio (y) = 0.01868 0.10787
# Poissons Ratio (z) = 0.39028 0.11412
#
# Static dielectric constant tensor:
#      x y z
#    x 1.976720 0.002470 0.019910 
#    y 0.002470 1.969630 -0.000890 
#    z 0.019910 -0.000890 1.995680 
# 
# From -- ./inp_files/180513.got.cif
#   From: 2010.05.17/outbox.cif.g08.bks.cpg/sg2_91_cif.got.tgz:180513.got - 2010.06.03 11:33:40.
