data_PCOD9056494
_publ_section_title
;
Structure prediction by ZEFSAII (Michael W. Deem and Ramdas Pophale) SiO2 
 PCOD9056494
Probable space group: P -1
;
_chemical_formula_sum "Si O2"
_cell_formula_units_Z 16
_cell_length_a 8.763714
_cell_length_b 16.002753
_cell_length_c 12.034722
_cell_angle_alpha 57.758866
_cell_angle_beta 35.531171
_cell_angle_gamma 76.489158
_cell_volume 757.445897
_symmetry_space_group_name_H-M "P -1"
_symmetry_group_IT_number 2
_symmetry_cell_setting 'triclinic'
loop_
_space_group_symop_operation_xyz
x,y,z
-x,-y,-z
loop_
_atom_site_type_symbol
_atom_site_label
_atom_site_fract_x
_atom_site_fract_y
_atom_site_fract_z
Si Si1 0.338079 0.265978 0.377975
Si Si2 0.969428 0.077069 0.227162
Si Si3 0.749958 0.379037 0.230592
Si Si4 0.798805 0.710753 0.950856
Si Si5 0.785753 0.596578 0.805687
Si Si6 0.382973 0.590974 0.479267
Si Si7 0.394575 0.873997 0.781599
Si Si8 0.081253 0.938888 0.096779
O O1 0.536115 0.364404 0.267778
O O2 0.135178 0.305035 0.398927
O O3 0.531648 0.229067 0.207346
O O4 0.181612 0.164960 0.624058
O O5 0.844409 0.128587 0.165869
O O6 0.685982 0.979154 0.509510
O O7 0.165649 0.025336 0.085786
O O8 0.122632 0.162521 0.172158
O O9 0.575789 0.346927 0.471765
O O10 0.000000 0.500000 0.000000
O O11 0.913960 0.302238 0.170040
O O12 0.551388 0.653307 0.227925
O O13 0.741172 0.648498 0.911646
O O14 0.043954 0.557332 0.686295
O O15 0.500000 0.500000 0.000000
O O16 0.500000 0.500000 0.500000
O O17 0.293106 0.892451 0.949663
O O18 0.000000 0.000000 0.000000
#
# Coordination Sequence:
#
# PCOD9056494 Si02
#       8
#     2   2   2   2   2   2   2   2
#     4  11  22  40  65  96 134 179 222 276 347 401
#     4   9  18  34  60  96 128 165 224 275 330 392
#     4  11  22  39  64  96 133 172 228 285 332 400
#     4  11  23  41  66  95 133 177 226 279 341 402
#     4  11  28  47  65  95 145 184 224 281 346 411
#     4  11  25  43  68  98 127 177 233 281 339 400
#     4   9  18  35  61  95 131 170 213 277 336 393
#     4   9  20  34  60 101 135 167 223 282 333 405
#
# _framework density 21.123621
#
# number of rings (size 3 to 8) (size 9 to 14) (size 15 to 20)
#    0.000    1.750    2.500    2.250    3.500    2.500 
#    0.000    2.500    0.000    4.500    0.000    0.000 
#    0.000    0.000    0.000    0.000    0.000    0.000 
#
# Total GULP energy -89227.222256 kJ/mol
# GULP energy per Si atom -5576.701391 kJ/mol
# Density = 2.107554 g / cm^3
# Si number density = 21.123621 Si / 1000 Ang^3
#
#
#
# Elastic Constant Matrix: (Units=GPa)
#
#
# Indices 1 2 3 4 5 6 
#
# 1 80.7531 41.5678 34.5305 3.7841 -1.3057 7.0706
# 2 41.5678 123.1220 47.4763 19.6803 -11.7108 25.3573
# 3 34.5305 47.4763 80.9769 19.8936 12.7264 14.3536
# 4 3.7841 19.6803 19.8936 42.3733 -1.5287 1.2117
# 5 -1.3057 -11.7108 12.7264 -1.5287 16.4272 -0.3114
# 6 7.0706 25.3573 14.3536 1.2117 -0.3114 36.6743
#
#
#
# Elastic Compliance Matrix: (Units=1/GPa)
#
#
# Indices 1 2 3 4 5 6 
#
# 1 0.016982 -0.003463 -0.007174 0.003581 0.004807 0.001851
# 2 -0.003463 0.016306 -0.009228 -0.002082 0.018176 -0.006772
# 3 -0.007174 -0.009228 0.028459 -0.009427 -0.030137 -0.003319
# 4 0.003581 -0.002082 -0.009427 0.028891 0.008859 0.003560
# 5 0.004807 0.018176 -0.030137 0.008859 0.098365 -0.001157
# 6 0.001851 -0.006772 -0.003319 0.003560 -0.001157 0.032764
#
#
# Mechanical properties :
#
#
# Convention : Reuss Voigt Hill
#
# Bulk Modulus (GPa) = 45.42079 59.11123 52.26601
# Shear Modulus (GPa) = 18.59871 29.84677 24.22274
#
# Velocity S-wave (km/s) = 2.97049 3.76301 3.38999
# Velocity P-wave (km/s) = 5.77184 6.85015 6.33398
#
# Compressibility (1/GPa) = 0.02201635
#
# Stress axis : x y z
#
# Youngs Moduli (GPa) = 58.88684 61.32749 35.13778
#
# Poissons Ratio (x) = 0.21239 0.25209
# Poissons Ratio (y) = 0.20394 0.32425
# Poissons Ratio (z) = 0.42247 0.56593
#
# Static dielectric constant tensor:
#      x y z
#    x 1.781730 -0.014550 0.024220 
#    y -0.014550 1.813300 -0.013020 
#    z 0.024220 -0.013020 1.778350 
# 
# From -- ./inp_files/397151.got.cif
#   From: 2010.05.17/outbox.cif.g08.bks.cpg/sg2_199_cif.got.tgz:397151.got - 2010.06.03 11:33:40.
