data_PCOD9056042
_publ_section_title
;
Structure prediction by ZEFSAII (Michael W. Deem and Ramdas Pophale) SiO2 
 PCOD9056042
Probable space group: P -1
;
_chemical_formula_sum "Si O2"
_cell_formula_units_Z 16
_cell_length_a 6.008892
_cell_length_b 8.792471
_cell_length_c 20.087274
_cell_angle_alpha 121.837384
_cell_angle_beta 130.161488
_cell_angle_gamma 84.216989
_cell_volume 640.455898
_symmetry_space_group_name_H-M "P -1"
_symmetry_group_IT_number 2
_symmetry_cell_setting 'triclinic'
loop_
_space_group_symop_operation_xyz
x,y,z
-x,-y,-z
loop_
_atom_site_type_symbol
_atom_site_label
_atom_site_fract_x
_atom_site_fract_y
_atom_site_fract_z
Si Si1 0.159945 0.961523 0.089323
Si Si2 0.465250 0.682102 0.366761
Si Si3 0.729932 0.362111 0.298253
Si Si4 0.797565 0.570195 0.231116
Si Si5 0.536322 0.345990 0.920626
Si Si6 0.905464 0.039696 0.777154
Si Si7 0.799017 0.753656 0.572715
Si Si8 0.267161 0.068068 0.639421
O O1 0.220149 0.760510 0.048575
O O2 0.988121 0.968700 0.128045
O O3 0.488775 0.142517 0.205796
O O4 0.000000 0.000000 0.000000
O O5 0.589751 0.515220 0.333104
O O6 0.491691 0.695132 0.454748
O O7 0.655639 0.885637 0.413645
O O8 0.107292 0.608412 0.256814
O O9 0.774178 0.401803 0.237678
O O10 0.047277 0.394569 0.406958
O O11 0.480058 0.548171 0.126949
O O12 0.862783 0.767447 0.328721
O O13 0.202711 0.171461 0.823511
O O14 0.500000 0.500000 0.000000
O O15 0.617010 0.111181 0.744815
O O16 0.770747 0.855398 0.659909
O O17 0.050545 0.882928 0.595802
#
# Coordination Sequence:
#
# PCOD9056042 Si02
#       8
#     2   2   2   2   2   2   2   2
#     4  12  29  50  74 107 140 192 237 294 369 426
#     4  11  26  41  72 105 141 193 236 295 354 419
#     4  11  26  45  68  99 150 183 239 297 350 428
#     4  11  24  45  65 107 142 180 244 292 353 426
#     4  12  27  47  75 106 139 185 243 300 360 424
#     4  12  23  46  76  96 144 181 231 296 352 419
#     4  12  24  45  70 104 142 190 241 287 360 424
#     4  11  21  45  70  98 144 180 237 292 353 412
#
# _framework density 24.982203999999999
#
# number of rings (size 3 to 8) (size 9 to 14) (size 15 to 20)
#    0.000    0.500    6.250    0.750    5.250    5.500 
#    0.000    0.000    0.000    0.000    0.000    0.000 
#    0.000    0.000    0.000    0.000    0.000    0.000 
#
# Total GULP energy -89307.323151 kJ/mol
# GULP energy per Si atom -5581.707697 kJ/mol
# Density = 2.492534 g / cm^3
# Si number density = 24.982204 Si / 1000 Ang^3
#
#
#
# Elastic Constant Matrix: (Units=GPa)
#
#
# Indices 1 2 3 4 5 6 
#
# 1 68.4618 40.6218 11.2159 -9.1719 -9.2378 -4.3133
# 2 40.6218 135.1071 36.6153 -35.4913 -8.6815 -1.5626
# 3 11.2159 36.6153 78.6208 -27.1625 -26.7029 -5.5686
# 4 -9.1719 -35.4913 -27.1625 53.3561 8.1452 -3.0095
# 5 -9.2378 -8.6815 -26.7029 8.1452 41.1365 -2.9727
# 6 -4.3133 -1.5626 -5.5686 -3.0095 -2.9727 50.7336
#
#
#
# Elastic Compliance Matrix: (Units=1/GPa)
#
#
# Indices 1 2 3 4 5 6 
#
# 1 0.018380 -0.005747 0.001383 -0.000476 0.004033 0.001746
# 2 -0.005747 0.011244 -0.003432 0.005056 -0.002172 -0.000346
# 3 0.001383 -0.003432 0.020820 0.006918 0.011978 0.003409
# 4 -0.000476 0.005056 0.006918 0.025597 0.000558 0.002426
# 5 0.004033 -0.002172 0.011978 0.000558 0.032677 0.003539
# 6 0.001746 -0.000346 0.003409 0.002426 0.003539 0.020574
#
#
# Mechanical properties :
#
#
# Convention : Reuss Voigt Hill
#
# Bulk Modulus (GPa) = 28.69170 51.01063 39.85117
# Shear Modulus (GPa) = 31.94852 41.96100 36.95476
#
# Velocity S-wave (km/s) = 3.57998 4.10278 3.85027
# Velocity P-wave (km/s) = 5.34772 6.55033 5.97934
#
# Compressibility (1/GPa) = 0.03485329
#
# Stress axis : x y z
#
# Youngs Moduli (GPa) = 54.40571 88.93433 48.03087
#
# Poissons Ratio (x) = 0.51110 -0.06644
# Poissons Ratio (y) = 0.31267 0.16484
# Poissons Ratio (z) = -0.07526 0.30522
#
# Static dielectric constant tensor:
#      x y z
#    x 2.074220 0.041750 -0.033850 
#    y 0.041750 1.991810 -0.015450 
#    z -0.033850 -0.015450 2.085340 
# 
# From -- ./inp_files/85015.got.cif
#   From: 2010.05.17/outbox.cif.g08.bks.cpg/sg2_43_cif.got.tgz:85015.got - 2010.06.03 11:33:40.
