data_PCOD9056780
_publ_section_title
;
Structure prediction by ZEFSAII (Michael W. Deem and Ramdas Pophale) SiO2 
 PCOD9056780
Probable space group: P -1
;
_chemical_formula_sum "Si O2"
_cell_formula_units_Z 16
_cell_length_a 11.553370
_cell_length_b 17.432207
_cell_length_c 5.139042
_cell_angle_alpha 119.904107
_cell_angle_beta 127.574162
_cell_angle_gamma 54.614188
_cell_volume 651.615013
_symmetry_space_group_name_H-M "P -1"
_symmetry_group_IT_number 2
_symmetry_cell_setting 'triclinic'
loop_
_space_group_symop_operation_xyz
x,y,z
-x,-y,-z
loop_
_atom_site_type_symbol
_atom_site_label
_atom_site_fract_x
_atom_site_fract_y
_atom_site_fract_z
Si Si1 0.336857 0.772121 0.511812
Si Si2 0.405405 0.256850 0.820371
Si Si3 0.611214 0.047345 0.611842
Si Si4 0.036963 0.816187 0.453485
Si Si5 0.196639 0.980482 0.646160
Si Si6 0.950239 0.730461 0.678989
Si Si7 0.092732 0.514500 0.398857
Si Si8 0.543750 0.592085 0.194414
O O1 0.224077 0.873509 0.401908
O O2 0.394672 0.676081 0.266614
O O3 0.227333 0.769652 0.601188
O O4 0.502636 0.774887 0.835682
O O5 0.505865 0.161846 0.628746
O O6 0.223555 0.271493 0.591119
O O7 0.429917 0.353218 0.933974
O O8 0.683147 0.999513 0.355636
O O9 0.500000 0.000000 0.500000
O O10 0.743828 0.029158 0.990669
O O11 0.975976 0.800497 0.621586
O O12 0.966464 0.929582 0.479080
O O13 0.973819 0.764091 0.055613
O O14 0.075317 0.623885 0.594148
O O15 0.277410 0.443341 0.503579
O O16 0.000000 0.500000 0.500000
O O17 0.000000 0.500000 0.000000
O O18 0.500000 0.500000 0.000000
#
# Coordination Sequence:
#
# PCOD9056780 Si02
#       8
#     2   2   2   2   2   2   2   2
#     4  11  27  47  72 105 151 188 246 298 363 436
#     4  11  25  46  71 106 147 191 237 304 363 429
#     4  11  22  40  69 105 146 185 240 290 358 429
#     4  12  27  46  75 108 148 193 242 295 363 436
#     4  11  23  43  68 104 142 194 233 293 357 431
#     4  12  27  48  74 108 148 186 246 301 360 436
#     4  12  26  49  77 106 143 192 244 300 366 428
#     4  12  27  48  75 105 146 194 244 304 368 430
#
# _framework density 24.554376999999999
#
# number of rings (size 3 to 8) (size 9 to 14) (size 15 to 20)
#    0.000    0.500    2.500    5.250    5.250    1.500 
#    0.000    3.125    0.000    0.000    0.000    0.000 
#    0.000    0.000    0.000    0.000    0.000    0.000 
#
# Total GULP energy -89491.370485 kJ/mol
# GULP energy per Si atom -5593.210655 kJ/mol
# Density = 2.449849 g / cm^3
# Si number density = 24.554377 Si / 1000 Ang^3
#
#
#
# Elastic Constant Matrix: (Units=GPa)
#
#
# Indices 1 2 3 4 5 6 
#
# 1 106.8356 20.8858 33.4520 -14.5144 11.4869 -10.1175
# 2 20.8858 154.0430 22.2540 0.8742 8.0053 -8.6882
# 3 33.4520 22.2540 104.3254 -9.5386 9.3976 3.9079
# 4 -14.5144 0.8742 -9.5386 37.1356 0.2488 1.3279
# 5 11.4869 8.0053 9.3976 0.2488 40.6453 -0.0363
# 6 -10.1175 -8.6882 3.9079 1.3279 -0.0363 43.0361
#
#
#
# Elastic Compliance Matrix: (Units=1/GPa)
#
#
# Indices 1 2 3 4 5 6 
#
# 1 0.011492 -0.000862 -0.003053 0.003648 -0.002392 0.002690
# 2 -0.000862 0.006912 -0.001253 -0.000864 -0.000822 0.001333
# 3 -0.003053 -0.001253 0.011207 0.001798 -0.001494 -0.002045
# 4 0.003648 -0.000864 0.001798 0.028859 -0.001453 -0.000372
# 5 -0.002392 -0.000822 -0.001494 -0.001453 0.025795 -0.000526
# 6 0.002690 0.001333 -0.002045 -0.000372 -0.000526 0.024335
#
#
# Mechanical properties :
#
#
# Convention : Reuss Voigt Hill
#
# Bulk Modulus (GPa) = 51.87727 57.59862 54.73795
# Shear Modulus (GPa) = 39.88478 43.40421 41.64450
#
# Velocity S-wave (km/s) = 4.03469 4.20894 4.12273
# Velocity P-wave (km/s) = 6.54815 6.86503 6.70847
#
# Compressibility (1/GPa) = 0.01927626
#
# Stress axis : x y z
#
# Youngs Moduli (GPa) = 87.01635 144.66932 89.22819
#
# Poissons Ratio (x) = 0.12467 0.27241
# Poissons Ratio (y) = 0.07499 0.11180
# Poissons Ratio (z) = 0.26565 0.18127
#
# Static dielectric constant tensor:
#      x y z
#    x 2.045930 0.051030 0.002630 
#    y 0.051030 1.989490 0.000820 
#    z 0.002630 0.000820 1.964210 
# 
# From -- ./inp_files/81641.got.cif
#   From: 2010.05.17/outbox.cif.g08.bks.cpg/sg2_41_cif.got.tgz:81641.got - 2010.06.03 11:33:40.
