data_PCOD9057662
_publ_section_title
;
Structure prediction by ZEFSAII (Michael W. Deem and Ramdas Pophale) SiO2 
 PCOD9057662
Probable space group: P -1
;
_chemical_formula_sum "Si O2"
_cell_formula_units_Z 16
_cell_length_a 6.673433
_cell_length_b 25.366102
_cell_length_c 15.880896
_cell_angle_alpha 16.990376
_cell_angle_beta 108.184033
_cell_angle_gamma 107.778201
_cell_volume 746.090938
_symmetry_space_group_name_H-M "P -1"
_symmetry_group_IT_number 2
_symmetry_cell_setting 'triclinic'
loop_
_space_group_symop_operation_xyz
x,y,z
-x,-y,-z
loop_
_atom_site_type_symbol
_atom_site_label
_atom_site_fract_x
_atom_site_fract_y
_atom_site_fract_z
Si Si1 0.652374 0.009036 0.927930
Si Si2 0.082645 0.544713 0.076239
Si Si3 0.821970 0.099967 0.376686
Si Si4 0.006614 0.723506 0.388157
Si Si5 0.706133 0.572546 0.869962
Si Si6 0.032462 0.291998 0.795051
Si Si7 0.445502 0.129674 0.174784
Si Si8 0.675988 0.991562 0.259298
O O1 0.775637 0.200312 0.659531
O O2 0.513451 0.967438 0.892063
O O3 0.500000 0.000000 0.000000
O O4 0.829651 0.861366 0.182705
O O5 0.281631 0.487388 0.134260
O O6 0.054553 0.460005 0.293287
O O7 0.076995 0.756499 0.765913
O O8 0.890938 0.483410 0.084753
O O9 0.652503 0.205740 0.135234
O O10 0.692191 0.961760 0.629644
O O11 0.000000 0.000000 0.500000
O O12 0.006309 0.719714 0.292872
O O13 0.733361 0.788835 0.550191
O O14 0.500000 0.500000 0.000000
O O15 0.000000 0.500000 0.500000
O O16 0.865434 0.142939 0.041874
O O17 0.272897 0.243160 0.927696
O O18 0.563631 0.998555 0.325049
#
# Coordination Sequence:
#
# PCOD9057662 Si02
#       8
#     2   2   2   2   2   2   2   2
#     4  11  22  43  67  99 133 183 221 279 346 409
#     4  11  25  42  67 101 137 174 223 289 343 413
#     4  11  25  47  73  99 136 181 235 287 350 409
#     4  11  25  42  67 101 141 174 233 282 341 419
#     4  11  24  44  70 103 135 173 227 289 354 407
#     4  12  28  46  68 102 144 189 234 283 342 415
#     4  11  25  46  71 100 133 184 235 286 342 415
#     4  12  24  45  73  98 140 182 232 287 354 408
#
# _framework density 21.445107
#
# number of rings (size 3 to 8) (size 9 to 14) (size 15 to 20)
#    0.000    0.750    2.500    4.500    5.250    4.500 
#    2.250    0.000    0.000    0.000    0.000    0.000 
#    0.000    0.000    0.000    0.000    0.000    0.000 
#
# Total GULP energy -89285.178959 kJ/mol
# GULP energy per Si atom -5580.323685 kJ/mol
# Density = 2.139630 g / cm^3
# Si number density = 21.445107 Si / 1000 Ang^3
#
#
#
# Elastic Constant Matrix: (Units=GPa)
#
#
# Indices 1 2 3 4 5 6 
#
# 1 124.8632 49.0927 39.0568 -4.3326 -13.7803 -15.3605
# 2 49.0927 71.5281 4.2729 -8.5486 -7.9759 -7.8863
# 3 39.0568 4.2729 76.1905 -16.2278 -9.9428 -8.5155
# 4 -4.3326 -8.5486 -16.2278 37.4059 0.7168 9.9837
# 5 -13.7803 -7.9759 -9.9428 0.7168 29.0642 4.3899
# 6 -15.3605 -7.8863 -8.5155 9.9837 4.3899 54.5930
#
#
#
# Elastic Compliance Matrix: (Units=1/GPa)
#
#
# Indices 1 2 3 4 5 6 
#
# 1 0.014293 -0.009483 -0.007271 -0.004277 0.001463 0.002182
# 2 -0.009483 0.021216 0.005339 0.006040 0.003021 -0.000118
# 3 -0.007271 0.005339 0.018913 0.008564 0.004312 -0.000237
# 4 -0.004277 0.006040 0.008564 0.032666 0.002535 -0.005173
# 5 0.001463 0.003021 0.004312 0.002535 0.037640 -0.001970
# 6 0.002182 -0.000118 -0.000237 -0.005173 -0.001970 0.019981
#
#
# Mechanical properties :
#
#
# Convention : Reuss Voigt Hill
#
# Bulk Modulus (GPa) = 31.65402 50.82516 41.23959
# Shear Modulus (GPa) = 28.07879 36.22325 32.15102
#
# Velocity S-wave (km/s) = 3.62240 4.11434 3.87618
# Velocity P-wave (km/s) = 5.68227 6.80603 6.26938
#
# Compressibility (1/GPa) = 0.03159156
#
# Stress axis : x y z
#
# Youngs Moduli (GPa) = 69.96386 47.13449 52.87321
#
# Poissons Ratio (x) = 0.44698 0.38445
# Poissons Ratio (y) = 0.66347 -0.28228
# Poissons Ratio (z) = 0.50872 -0.25165
#
# Static dielectric constant tensor:
#      x y z
#    x 1.879210 -0.001290 0.002300 
#    y -0.001290 1.806350 0.011240 
#    z 0.002300 0.011240 1.796570 
# 
# From -- ./inp_files/70141.got.cif
#   From: 2010.05.17/outbox.cif.g08.bks.cpg/sg2_36_cif.got.tgz:70141.got - 2010.06.03 11:33:40.
