data_PCOD9057124
_publ_section_title
;
Structure prediction by ZEFSAII (Michael W. Deem and Ramdas Pophale) SiO2 
 PCOD9057124
Probable space group: P -1
;
_chemical_formula_sum "Si O2"
_cell_formula_units_Z 16
_cell_length_a 8.511980
_cell_length_b 17.482725
_cell_length_c 8.533137
_cell_angle_alpha 36.483665
_cell_angle_beta 117.025204
_cell_angle_gamma 123.949365
_cell_volume 626.290472
_symmetry_space_group_name_H-M "P -1"
_symmetry_group_IT_number 2
_symmetry_cell_setting 'triclinic'
loop_
_space_group_symop_operation_xyz
x,y,z
-x,-y,-z
loop_
_atom_site_type_symbol
_atom_site_label
_atom_site_fract_x
_atom_site_fract_y
_atom_site_fract_z
Si Si1 0.130514 0.061219 0.108941
Si Si2 0.756999 0.308321 0.262537
Si Si3 0.838186 0.735525 0.945609
Si Si4 0.794745 0.145728 0.275411
Si Si5 0.202186 0.419464 0.314448
Si Si6 0.213542 0.529504 0.490001
Si Si7 0.572430 0.786040 0.238780
Si Si8 0.590204 0.886647 0.408952
O O1 0.089760 0.175677 0.008177
O O2 0.131497 0.943725 0.422757
O O3 0.338405 0.136920 0.006260
O O4 0.000000 0.000000 0.000000
O O5 0.700611 0.227330 0.206555
O O6 0.625162 0.208743 0.495022
O O7 0.977747 0.337442 0.335469
O O8 0.741290 0.457086 0.989789
O O9 0.712285 0.805734 0.680646
O O10 0.020720 0.752643 0.895948
O O11 0.727180 0.577756 0.201508
O O12 0.659248 0.035236 0.276221
O O13 0.228942 0.485615 0.390624
O O14 0.315682 0.318925 0.511892
O O15 0.354234 0.686512 0.309601
O O16 0.000000 0.500000 0.500000
O O17 0.622327 0.891997 0.230428
#
# Coordination Sequence:
#
# PCOD9057124 Si02
#       8
#     2   2   2   2   2   2   2   2
#     4  11  22  41  71 100 137 179 228 280 334 415
#     4  11  24  43  69 100 141 178 225 287 345 406
#     4  11  23  43  69  97 137 181 231 278 338 408
#     4  11  24  43  69 100 138 184 230 280 342 410
#     4  11  24  43  70 100 137 179 227 284 346 408
#     4  12  26  43  68 102 142 176 229 292 343 402
#     4  12  25  45  73 102 139 184 230 281 350 404
#     4  11  24  43  67 101 136 181 235 275 339 414
#
# _framework density 25.547249999999998
#
# number of rings (size 3 to 8) (size 9 to 14) (size 15 to 20)
#    0.000    0.750    1.250    7.500    3.500    4.000 
#    2.250    0.625    0.000    0.000    0.000    0.000 
#    0.000    0.000    0.000    0.000    0.000    0.000 
#
# Total GULP energy -89809.420500 kJ/mol
# GULP energy per Si atom -5613.088781 kJ/mol
# Density = 2.548910 g / cm^3
# Si number density = 25.547250 Si / 1000 Ang^3
#
#
#
# Elastic Constant Matrix: (Units=GPa)
#
#
# Indices 1 2 3 4 5 6 
#
# 1 80.7995 11.9308 5.5446 4.2989 -8.4563 4.9053
# 2 11.9308 110.7150 6.8229 12.0210 -9.0153 -4.1424
# 3 5.5446 6.8229 102.8988 -6.9418 -20.8977 5.5740
# 4 4.2989 12.0210 -6.9418 29.3130 -3.2014 -10.3413
# 5 -8.4563 -9.0153 -20.8977 -3.2014 45.9575 2.3442
# 6 4.9053 -4.1424 5.5740 -10.3413 2.3442 46.9227
#
#
#
# Elastic Compliance Matrix: (Units=1/GPa)
#
#
# Indices 1 2 3 4 5 6 
#
# 1 0.012990 -0.001077 -0.000244 -0.001993 0.002029 -0.001965
# 2 -0.001077 0.009697 -0.000614 -0.003785 0.001153 0.000150
# 3 -0.000244 -0.000614 0.011077 0.003152 0.005137 -0.000906
# 4 -0.001993 -0.003785 0.003152 0.039876 0.002686 0.008154
# 5 0.002029 0.001153 0.005137 0.002686 0.024952 -0.001375
# 6 -0.001965 0.000150 -0.000906 0.008154 -0.001375 0.023504
#
#
# Mechanical properties :
#
#
# Convention : Reuss Voigt Hill
#
# Bulk Modulus (GPa) = 33.45250 38.11219 35.78235
# Shear Modulus (GPa) = 36.78367 42.44630 39.61499
#
# Velocity S-wave (km/s) = 3.79862 4.08055 3.94211
# Velocity P-wave (km/s) = 5.68878 6.09523 5.89551
#
# Compressibility (1/GPa) = 0.02989313
#
# Stress axis : x y z
#
# Youngs Moduli (GPa) = 76.98392 103.12921 90.27472
#
# Poissons Ratio (x) = 0.11103 0.02207
# Poissons Ratio (y) = 0.08288 0.05544
# Poissons Ratio (z) = 0.01882 0.06334
#
# Static dielectric constant tensor:
#      x y z
#    x 1.983880 0.031570 0.046290 
#    y 0.031570 2.014250 0.018680 
#    z 0.046290 0.018680 1.982090 
# 
# From -- ./inp_files/216534.got.cif
#   From: 2010.05.17/outbox.cif.g08.bks.cpg/sg2_109_cif.got.tgz:216534.got - 2010.06.03 11:33:40.
