data_PCOD9057133
_publ_section_title
;
Structure prediction by ZEFSAII (Michael W. Deem and Ramdas Pophale) SiO2 
 PCOD9057133
Probable space group: P -1
;
_chemical_formula_sum "Si O2"
_cell_formula_units_Z 14
_cell_length_a 8.938393
_cell_length_b 8.477363
_cell_length_c 21.180628
_cell_angle_alpha 48.199968
_cell_angle_beta 33.557999
_cell_angle_gamma 60.117234
_cell_volume 654.966260
_symmetry_space_group_name_H-M "P -1"
_symmetry_group_IT_number 2
_symmetry_cell_setting 'triclinic'
loop_
_space_group_symop_operation_xyz
x,y,z
-x,-y,-z
loop_
_atom_site_type_symbol
_atom_site_label
_atom_site_fract_x
_atom_site_fract_y
_atom_site_fract_z
Si Si1 0.452226 0.336230 0.617359
Si Si2 0.308953 0.982930 0.919375
Si Si3 0.262630 0.187661 0.276810
Si Si4 0.828467 0.345637 0.837638
Si Si5 0.761580 0.321627 0.717624
Si Si6 0.671741 0.932543 0.583559
Si Si7 0.269935 0.339326 0.463853
O O1 0.500000 0.500000 0.500000
O O2 0.588922 0.468531 0.593414
O O3 0.134339 0.296460 0.753197
O O4 0.559643 0.130269 0.604700
O O5 0.499747 0.912342 0.815466
O O6 0.469450 0.205521 0.828650
O O7 0.330849 0.813816 0.013529
O O8 0.000000 0.000000 0.000000
O O9 0.200300 0.405560 0.208161
O O10 0.356111 0.232542 0.304214
O O11 0.982503 0.025490 0.428803
O O12 0.769183 0.313334 0.792510
O O13 0.822482 0.544367 0.597990
O O14 0.021308 0.219505 0.625149
O O15 0.551944 0.824947 0.589141
#
# Coordination Sequence:
#
# PCOD9057133 Si02
#       7
#     2   2   2   2   2   2   2
#     4  12  24  42  68 105 142 175 220 284 342 395
#     4  12  26  45  69  94 139 185 226 279 348 400
#     4  11  22  42  68 101 128 181 230 276 341 400
#     4  12  24  45  68  99 140 177 228 281 330 415
#     4  11  22  42  68 101 128 181 230 276 341 400
#     4  11  22  41  71 102 140 172 226 282 341 406
#     4  11  22  41  71 102 140 172 226 282 341 406
#
# _framework density 21.375146000000001
#
# number of rings (size 3 to 8) (size 9 to 14) (size 15 to 20)
#    0.000    0.571    5.714    3.429    4.000    0.571 
#    2.571    0.714    0.000    0.000    0.000    0.000 
#    0.000    0.000    0.000    0.000    0.000    0.000 
#
# Total GULP energy -78011.148992 kJ/mol
# GULP energy per Si atom -5572.224928 kJ/mol
# Density = 2.132650 g / cm^3
# Si number density = 21.375146 Si / 1000 Ang^3
#
#
#
# Elastic Constant Matrix: (Units=GPa)
#
#
# Indices 1 2 3 4 5 6 
#
# 1 110.4442 45.9383 36.5420 10.6241 9.1930 17.5786
# 2 45.9383 104.8750 28.7636 26.8802 0.8026 10.9571
# 3 36.5420 28.7636 104.0245 5.5568 9.7594 -4.8202
# 4 10.6241 26.8802 5.5568 40.8481 -8.7236 12.7169
# 5 9.1930 0.8026 9.7594 -8.7236 52.2032 -4.1474
# 6 17.5786 10.9571 -4.8202 12.7169 -4.1474 35.7885
#
#
#
# Elastic Compliance Matrix: (Units=1/GPa)
#
#
# Indices 1 2 3 4 5 6 
#
# 1 0.013111 -0.004505 -0.003571 0.001625 -0.001803 -0.006328
# 2 -0.004505 0.014016 -0.001804 -0.008043 -0.000390 0.000491
# 3 -0.003571 -0.001804 0.011743 -0.001055 -0.001389 0.004102
# 4 0.001625 -0.008043 -0.001055 0.033601 0.004867 -0.009854
# 5 -0.001803 -0.000390 -0.001389 0.004867 0.020670 0.001484
# 6 -0.006328 0.000491 0.004102 -0.009854 0.001484 0.035125
#
#
# Mechanical properties :
#
#
# Convention : Reuss Voigt Hill
#
# Bulk Modulus (GPa) = 52.32839 60.20352 56.26596
# Shear Modulus (GPa) = 32.38407 39.64126 36.01266
#
# Velocity S-wave (km/s) = 3.89657 4.31112 4.10907
# Velocity P-wave (km/s) = 6.69167 7.28061 6.99234
#
# Compressibility (1/GPa) = 0.01911009
#
# Stress axis : x y z
#
# Youngs Moduli (GPa) = 76.27467 71.34511 85.15667
#
# Poissons Ratio (x) = 0.32142 0.30406
# Poissons Ratio (y) = 0.34363 0.15363
# Poissons Ratio (z) = 0.27235 0.12871
#
# Static dielectric constant tensor:
#      x y z
#    x 1.810830 -0.025440 0.022950 
#    y -0.025440 1.991410 0.071340 
#    z 0.022950 0.071340 1.775260 
# 
# From -- ./inp_files/328524.got.cif
#   From: 2010.05.17/outbox.cif.g08.bks.cpg/sg2_165_cif.got.tgz:328524.got - 2010.06.03 11:33:40.
