data_PCOD9057817
_publ_section_title
;
Structure prediction by ZEFSAII (Michael W. Deem and Ramdas Pophale) SiO2 
 PCOD9057817
Probable space group: P -1
;
_chemical_formula_sum "Si O2"
_cell_formula_units_Z 16
_cell_length_a 16.820439
_cell_length_b 9.145918
_cell_length_c 20.390967
_cell_angle_alpha 140.106597
_cell_angle_beta 160.536021
_cell_angle_gamma 45.452867
_cell_volume 666.863681
_symmetry_space_group_name_H-M "P -1"
_symmetry_group_IT_number 2
_symmetry_cell_setting 'triclinic'
loop_
_space_group_symop_operation_xyz
x,y,z
-x,-y,-z
loop_
_atom_site_type_symbol
_atom_site_label
_atom_site_fract_x
_atom_site_fract_y
_atom_site_fract_z
Si Si1 0.151663 0.926528 0.394232
Si Si2 0.305415 0.242610 0.814853
Si Si3 0.903562 0.217204 0.965522
Si Si4 0.712132 0.488214 0.714723
Si Si5 0.077481 0.593046 0.333835
Si Si6 0.243178 0.398351 0.675623
Si Si7 0.586500 0.891964 0.962792
Si Si8 0.498249 0.422896 0.669101
O O1 0.198596 0.762652 0.314187
O O2 0.217116 0.777446 0.457022
O O3 0.283042 0.181153 0.586290
O O4 0.868040 0.952176 0.189744
O O5 0.210838 0.304047 0.691833
O O6 0.421224 0.005615 0.821071
O O7 0.092341 0.262984 0.706351
O O8 0.525448 0.419625 0.073623
O O9 0.082287 0.315809 0.080374
O O10 0.934007 0.417232 0.112247
O O11 0.631607 0.209814 0.724987
O O12 0.000000 0.000000 0.000000
O O13 0.500000 0.500000 0.500000
O O14 0.631320 0.504422 0.732304
O O15 0.224690 0.429804 0.437027
O O16 0.000000 0.500000 0.500000
O O17 0.533403 0.622256 0.819407
O O18 0.500000 0.000000 0.000000
#
# Coordination Sequence:
#
# PCOD9057817 Si02
#       8
#     2   2   2   2   2   2   2   2
#     4  11  22  43  71  97 137 179 231 289 337 407
#     4  11  25  43  67 103 139 182 230 283 356 419
#     4  11  25  46  69 101 146 179 236 296 353 412
#     4  11  23  47  72 102 136 183 244 286 341 426
#     4  11  24  46  69 102 135 183 239 284 346 422
#     4  11  25  44  64  99 145 180 227 288 354 411
#     4  12  23  41  77 104 134 181 238 286 347 418
#     4  12  24  45  78 103 139 192 238 290 354 417
#
# _framework density 23.992912
#
# number of rings (size 3 to 8) (size 9 to 14) (size 15 to 20)
#    0.000    0.750    7.500    1.125    1.750    3.500 
#    4.500    0.000    0.000    0.000    0.000    0.000 
#    0.000    0.000    0.000    0.000    0.000    0.000 
#
# Total GULP energy -89475.547466 kJ/mol
# GULP energy per Si atom -5592.221717 kJ/mol
# Density = 2.393830 g / cm^3
# Si number density = 23.992912 Si / 1000 Ang^3
#
#
#
# Elastic Constant Matrix: (Units=GPa)
#
#
# Indices 1 2 3 4 5 6 
#
# 1 82.2437 19.6978 1.9553 -8.1137 -11.3588 -23.8279
# 2 19.6978 140.0314 28.3052 -35.6754 -7.0742 1.7417
# 3 1.9553 28.3052 86.1058 -36.8611 -15.8700 4.5097
# 4 -8.1137 -35.6754 -36.8611 56.4631 2.5862 -6.9749
# 5 -11.3588 -7.0742 -15.8700 2.5862 28.6381 -8.5762
# 6 -23.8279 1.7417 4.5097 -6.9749 -8.5762 33.4711
#
#
#
# Elastic Compliance Matrix: (Units=1/GPa)
#
#
# Indices 1 2 3 4 5 6 
#
# 1 0.021165 -0.001635 0.004972 0.006995 0.016125 0.020072
# 2 -0.001635 0.008762 -0.000658 0.004797 0.000605 -0.000377
# 3 0.004972 -0.000658 0.019552 0.013330 0.013598 0.007201
# 4 0.006995 0.004797 0.013330 0.031447 0.012291 0.012637
# 5 0.016125 0.000605 0.013598 0.012291 0.055819 0.026480
# 6 0.020072 -0.000377 0.007201 0.012637 0.026480 0.052633
#
#
# Mechanical properties :
#
#
# Convention : Reuss Voigt Hill
#
# Bulk Modulus (GPa) = 18.23593 45.36638 31.80116
# Shear Modulus (GPa) = 24.71585 40.94264 32.82924
#
# Velocity S-wave (km/s) = 3.21305 4.13540 3.70305
# Velocity P-wave (km/s) = 4.62406 6.46153 5.61842
#
# Compressibility (1/GPa) = 0.05483679
#
# Stress axis : x y z
#
# Youngs Moduli (GPa) = 47.24801 114.13328 51.14440
#
# Poissons Ratio (x) = 0.18662 -0.25430
# Poissons Ratio (y) = 0.07726 0.03367
# Poissons Ratio (z) = -0.23493 0.07513
#
# Static dielectric constant tensor:
#      x y z
#    x 1.930260 0.016910 -0.004330 
#    y 0.016910 1.936010 -0.012250 
#    z -0.004330 -0.012250 1.955830 
# 
# From -- ./inp_files/599782.got.cif
#   From: 2010.05.17/outbox.cif.g08.bks.cpg/sg2_300_cif.got.tgz:599782.got - 2010.06.03 11:33:40.
