data_PCOD9057409
_publ_section_title
;
Structure prediction by ZEFSAII (Michael W. Deem and Ramdas Pophale) SiO2 
 PCOD9057409
Probable space group: P -1
;
_chemical_formula_sum "Si O2"
_cell_formula_units_Z 16
_cell_length_a 18.223504
_cell_length_b 17.941252
_cell_length_c 8.944170
_cell_angle_alpha 143.080199
_cell_angle_beta 30.492966
_cell_angle_gamma 151.440579
_cell_volume 698.363391
_symmetry_space_group_name_H-M "P -1"
_symmetry_group_IT_number 2
_symmetry_cell_setting 'triclinic'
loop_
_space_group_symop_operation_xyz
x,y,z
-x,-y,-z
loop_
_atom_site_type_symbol
_atom_site_label
_atom_site_fract_x
_atom_site_fract_y
_atom_site_fract_z
Si Si1 0.745143 0.674106 0.238019
Si Si2 0.740722 0.534072 0.648087
Si Si3 0.325689 0.795286 0.148821
Si Si4 0.981300 0.596940 0.568150
Si Si5 0.666848 0.777958 0.145050
Si Si6 0.282688 0.984325 0.300975
Si Si7 0.319882 0.505739 0.656453
Si Si8 0.022323 0.033048 0.336266
O O1 0.540317 0.607843 0.453545
O O2 0.758432 0.644577 0.342698
O O3 0.895630 0.852524 0.212395
O O4 0.804191 0.578818 0.905866
O O5 0.909751 0.547779 0.444241
O O6 0.545875 0.362156 0.748504
O O7 0.741752 0.538952 0.475419
O O8 0.734588 0.678919 0.929035
O O9 0.180975 0.770775 0.485132
O O10 0.285586 0.851568 0.159631
O O11 0.547716 0.918239 0.958417
O O12 0.275616 0.623255 0.966325
O O13 0.000000 0.500000 0.500000
O O14 0.684597 0.896801 0.429965
O O15 0.786131 0.869848 0.934235
O O16 0.093649 0.911618 0.431895
O O17 0.000000 0.000000 0.500000
#
# Coordination Sequence:
#
# PCOD9057409 Si02
#       8
#     2   2   2   2   2   2   2   2
#     4  11  23  43  69  97 133 171 224 269 330 388
#     4  11  23  41  67  98 130 167 229 271 320 389
#     4  11  23  43  68  93 133 175 215 263 334 388
#     4  12  25  42  63  97 134 174 214 266 332 390
#     4  11  22  42  69  98 123 173 222 275 319 383
#     4  11  23  43  68  93 132 174 218 267 327 397
#     4  11  22  44  72  97 129 177 218 279 322 387
#     4  12  24  40  65 101 133 168 217 273 330 385
#
# _framework density 22.910708
#
# number of rings (size 3 to 8) (size 9 to 14) (size 15 to 20)
#    0.000    0.750    3.750    4.875    0.000    2.500 
#    2.250    0.000    0.000    3.750    0.000    0.000 
#    0.000    0.000    0.000    0.000    0.000    0.000 
#
# Total GULP energy -89265.930533 kJ/mol
# GULP energy per Si atom -5579.120658 kJ/mol
# Density = 2.285856 g / cm^3
# Si number density = 22.910708 Si / 1000 Ang^3
#
#
#
# Elastic Constant Matrix: (Units=GPa)
#
#
# Indices 1 2 3 4 5 6 
#
# 1 114.4541 31.8361 38.0336 -9.0214 -9.8701 -6.2477
# 2 31.8361 107.8985 25.8897 -32.0998 3.1631 -17.9025
# 3 38.0336 25.8897 72.6020 -22.7022 -10.5064 0.6100
# 4 -9.0214 -32.0998 -22.7022 45.3402 -13.6646 4.3985
# 5 -9.8701 3.1631 -10.5064 -13.6646 40.4341 2.3874
# 6 -6.2477 -17.9025 0.6100 4.3985 2.3874 33.6241
#
#
#
# Elastic Compliance Matrix: (Units=1/GPa)
#
#
# Indices 1 2 3 4 5 6 
#
# 1 0.011231 -0.002463 -0.005619 -0.002235 0.000652 0.001123
# 2 -0.002463 0.013614 -0.000937 0.008296 0.000558 0.005683
# 3 -0.005619 -0.000937 0.022289 0.012489 0.008963 -0.004218
# 4 -0.002235 0.008296 0.012489 0.038552 0.015218 -0.002348
# 5 0.000652 0.000558 0.008963 0.015218 0.032558 -0.004047
# 6 0.001123 0.005683 -0.004218 -0.002348 -0.004047 0.033646
#
#
# Mechanical properties :
#
#
# Convention : Reuss Voigt Hill
#
# Bulk Modulus (GPa) = 34.36932 54.05260 44.21096
# Shear Modulus (GPa) = 27.83526 37.15937 32.49731
#
# Velocity S-wave (km/s) = 3.48939 4.03168 3.77030
# Velocity P-wave (km/s) = 5.59182 6.73175 6.18809
#
# Compressibility (1/GPa) = 0.02909572
#
# Stress axis : x y z
#
# Youngs Moduli (GPa) = 89.03985 73.45214 44.86429
#
# Poissons Ratio (x) = 0.18093 0.25209
# Poissons Ratio (y) = 0.21932 0.04205
# Poissons Ratio (z) = 0.50032 0.06884
#
# Static dielectric constant tensor:
#      x y z
#    x 1.983370 0.006170 0.073930 
#    y 0.006170 1.861140 0.007350 
#    z 0.073930 0.007350 1.989020 
# 
# From -- ./inp_files/336792.got.cif
#   From: 2010.05.17/outbox.cif.g08.bks.cpg/sg2_169_cif.got.tgz:336792.got - 2010.06.03 11:33:40.
