data_PCOD9057940
_publ_section_title
;
Structure prediction by ZEFSAII (Michael W. Deem and Ramdas Pophale) SiO2 
 PCOD9057940
Probable space group: P -1
;
_chemical_formula_sum "Si O2"
_cell_formula_units_Z 16
_cell_length_a 15.226057
_cell_length_b 13.764446
_cell_length_c 12.169125
_cell_angle_alpha 35.669383
_cell_angle_beta 44.079462
_cell_angle_gamma 27.560843
_cell_volume 688.072694
_symmetry_space_group_name_H-M "P -1"
_symmetry_group_IT_number 2
_symmetry_cell_setting 'triclinic'
loop_
_space_group_symop_operation_xyz
x,y,z
-x,-y,-z
loop_
_atom_site_type_symbol
_atom_site_label
_atom_site_fract_x
_atom_site_fract_y
_atom_site_fract_z
Si Si1 0.204174 0.337518 0.162597
Si Si2 0.145775 0.934897 0.013780
Si Si3 0.499951 0.561323 0.757801
Si Si4 0.145600 0.759954 0.812209
Si Si5 0.104176 0.354263 0.652393
Si Si6 0.501808 0.926705 0.441721
Si Si7 0.076605 0.123234 0.368691
Si Si8 0.310795 0.663540 0.445024
O O1 0.046336 0.493464 0.255999
O O2 0.397719 0.127639 0.252354
O O3 0.157006 0.223903 0.235177
O O4 0.178787 0.540291 0.939916
O O5 0.039255 0.040413 0.129996
O O6 0.338655 0.643027 0.113341
O O7 0.185919 0.088007 0.812883
O O8 0.000000 0.000000 0.000000
O O9 0.325882 0.607246 0.870270
O O10 0.417622 0.825326 0.608447
O O11 0.603321 0.446870 0.651294
O O12 0.148830 0.911223 0.586170
O O13 0.275322 0.308151 0.567792
O O14 0.000000 0.500000 0.500000
O O15 0.500000 0.000000 0.500000
O O16 0.178368 0.957315 0.318241
O O17 0.847466 0.324313 0.396866
O O18 0.500000 0.500000 0.500000
#
# Coordination Sequence:
#
# PCOD9057940 Si02
#       8
#     2   2   2   2   2   2   2   2
#     4  11  24  44  65  99 133 178 227 275 341 399
#     4  11  26  40  63  97 130 180 231 267 338 402
#     4  12  24  43  71  95 141 178 222 290 339 397
#     4  11  24  43  68  98 136 177 225 282 333 405
#     4  11  23  40  61  89 133 176 224 277 325 399
#     4  12  24  38  64  96 132 181 226 272 338 398
#     4  11  23  44  74  97 136 174 226 284 339 408
#     4  11  22  43  76 103 126 181 228 274 353 403
#
# _framework density 23.253357999999999
#
# number of rings (size 3 to 8) (size 9 to 14) (size 15 to 20)
#    0.000    0.750    5.000    2.250    5.250    0.500 
#    0.000    3.125    2.750    0.000    0.000    0.000 
#    0.000    0.000    0.000    0.000    0.000    0.000 
#
# Total GULP energy -89462.368655 kJ/mol
# GULP energy per Si atom -5591.398041 kJ/mol
# Density = 2.320043 g / cm^3
# Si number density = 23.253358 Si / 1000 Ang^3
#
#
#
# Elastic Constant Matrix: (Units=GPa)
#
#
# Indices 1 2 3 4 5 6 
#
# 1 114.8464 17.8844 24.8162 -4.1624 -12.2359 -4.7588
# 2 17.8844 86.8720 2.8146 3.3189 10.4734 -15.2381
# 3 24.8162 2.8146 88.6353 -15.3158 -15.2512 7.0859
# 4 -4.1624 3.3189 -15.3158 28.8693 0.2153 -0.1514
# 5 -12.2359 10.4734 -15.2512 0.2153 40.8777 -2.6256
# 6 -4.7588 -15.2381 7.0859 -0.1514 -2.6256 54.7966
#
#
#
# Elastic Compliance Matrix: (Units=1/GPa)
#
#
# Indices 1 2 3 4 5 6 
#
# 1 0.009858 -0.002191 -0.002187 0.000496 0.002736 0.000662
# 2 -0.002191 0.013212 -0.001237 -0.002441 -0.004269 0.003433
# 3 -0.002187 -0.001237 0.014189 0.007307 0.004781 -0.002119
# 4 0.000496 -0.002441 0.007307 0.038837 0.003211 -0.001320
# 5 0.002736 -0.004269 0.004781 0.003211 0.028130 -0.000211
# 6 0.000662 0.003433 -0.002119 -0.001320 -0.000211 0.019522
#
#
# Mechanical properties :
#
#
# Convention : Reuss Voigt Hill
#
# Bulk Modulus (GPa) = 38.41879 42.37602 40.39740
# Shear Modulus (GPa) = 34.80594 41.23129 38.01861
#
# Velocity S-wave (km/s) = 3.87306 4.21543 4.04787
# Velocity P-wave (km/s) = 6.04637 6.47737 6.26557
#
# Compressibility (1/GPa) = 0.02602893
#
# Stress axis : x y z
#
# Youngs Moduli (GPa) = 101.44043 75.68610 70.47923
#
# Poissons Ratio (x) = 0.16585 0.15413
# Poissons Ratio (y) = 0.22229 0.08717
# Poissons Ratio (z) = 0.22183 0.09361
#
# Static dielectric constant tensor:
#      x y z
#    x 1.558170 0.024320 -0.110120 
#    y 0.024320 1.884370 0.054250 
#    z -0.110120 0.054250 1.922340 
# 
# From -- ./inp_files/521927.got.cif
#   From: 2010.05.17/outbox.cif.g08.bks.cpg/sg2_261_cif.got.tgz:521927.got - 2010.06.03 11:33:40.
