data_PCOD9057696
_publ_section_title
;
Structure prediction by ZEFSAII (Michael W. Deem and Ramdas Pophale) SiO2 
 PCOD9057696
Probable space group: P -1
;
_chemical_formula_sum "Si O2"
_cell_formula_units_Z 15
_cell_length_a 25.327125
_cell_length_b 9.275058
_cell_length_c 15.784938
_cell_angle_alpha 39.696952
_cell_angle_beta 160.729424
_cell_angle_gamma 147.378790
_cell_volume 652.830461
_symmetry_space_group_name_H-M "P -1"
_symmetry_group_IT_number 2
_symmetry_cell_setting 'triclinic'
loop_
_space_group_symop_operation_xyz
x,y,z
-x,-y,-z
loop_
_atom_site_type_symbol
_atom_site_label
_atom_site_fract_x
_atom_site_fract_y
_atom_site_fract_z
Si Si1 0.500000 0.500000 0.500000
Si Si2 0.554087 0.091199 0.800063
Si Si3 0.397544 0.087837 0.870350
Si Si4 0.878356 0.381654 0.785031
Si Si5 0.480902 0.642376 0.761820
Si Si6 0.656510 0.775600 0.787552
Si Si7 0.092137 0.827512 0.239333
Si Si8 0.019441 0.742029 0.365224
O O1 0.533376 0.560775 0.626146
O O2 0.354290 0.607877 0.229222
O O3 0.563310 0.884690 0.844696
O O4 0.329433 0.011172 0.505267
O O5 0.632967 0.073297 0.017109
O O6 0.516595 0.403279 0.934203
O O7 0.205121 0.006253 0.566994
O O8 0.500000 0.000000 0.000000
O O9 0.745866 0.491736 0.516219
O O10 0.974219 0.389829 0.837940
O O11 0.739662 0.064571 0.740531
O O12 0.000000 0.500000 0.000000
O O13 0.547262 0.749280 0.719435
O O14 0.833614 0.751671 0.089207
O O15 0.055140 0.734233 0.322580
O O16 0.000000 0.000000 0.000000
O O17 0.000000 0.500000 0.500000
#
# Coordination Sequence:
#
# PCOD9057696 Si02
#       8
#     1   2   2   2   2   2   2   2
#     4  12  22  42  70 102 138 174 246 280 356 404
#     4  11  24  43  68 103 135 186 232 291 351 424
#     4  12  24  45  74  99 135 195 235 291 357 428
#     4  11  24  44  69 101 142 188 232 292 359 420
#     4  11  25  44  68 100 145 180 238 290 359 424
#     4  12  25  44  67 106 141 185 234 298 354 420
#     4  11  22  43  68  98 135 181 236 288 343 413
#     4  12  25  44  68 105 142 178 245 296 352 422
#
# _framework density 22.976869000000001
#
# number of rings (size 3 to 8) (size 9 to 14) (size 15 to 20)
#    0.000    0.533    5.333    4.000    0.000    1.067 
#    2.400    0.667    0.000    0.000    0.000    0.000 
#    0.000    0.000    0.000    0.000    0.000    0.000 
#
# Total GULP energy -83648.575765 kJ/mol
# GULP energy per Si atom -5576.571718 kJ/mol
# Density = 2.292457 g / cm^3
# Si number density = 22.976869 Si / 1000 Ang^3
#
#
#
# Elastic Constant Matrix: (Units=GPa)
#
#
# Indices 1 2 3 4 5 6 
#
# 1 198.6023 44.9567 75.8879 6.8111 -5.0410 -35.8621
# 2 44.9567 76.9183 12.8027 -21.7640 -1.7078 -25.6298
# 3 75.8879 12.8027 88.1171 -17.3836 -15.5552 -15.4316
# 4 6.8111 -21.7640 -17.3836 37.5866 -10.1212 -4.5927
# 5 -5.0410 -1.7078 -15.5552 -10.1212 45.6491 0.7093
# 6 -35.8621 -25.6298 -15.4316 -4.5927 0.7093 46.1997
#
#
#
# Elastic Compliance Matrix: (Units=1/GPa)
#
#
# Indices 1 2 3 4 5 6 
#
# 1 0.013941 -0.012445 -0.016326 -0.020092 -0.008891 -0.003397
# 2 -0.012445 0.034311 0.018918 0.037057 0.014274 0.019158
# 3 -0.016326 0.018918 0.035658 0.037149 0.019088 0.013133
# 4 -0.020092 0.037057 0.037149 0.079764 0.029125 0.024852
# 5 -0.008891 0.014274 0.019088 0.029125 0.034269 0.009762
# 6 -0.003397 0.019158 0.013133 0.024852 0.009762 0.036344
#
#
# Mechanical properties :
#
#
# Convention : Reuss Voigt Hill
#
# Bulk Modulus (GPa) = 15.57517 70.10358 42.83937
# Shear Modulus (GPa) = 18.15581 41.21978 29.68780
#
# Velocity S-wave (km/s) = 2.81406 4.24012 3.59844
# Velocity P-wave (km/s) = 4.16556 7.38568 5.99584
#
# Compressibility (1/GPa) = 0.06420477
#
# Stress axis : x y z
#
# Youngs Moduli (GPa) = 71.73309 29.14477 28.04403
#
# Poissons Ratio (x) = 0.36270 0.45784
# Poissons Ratio (y) = 0.89270 -0.53053
# Poissons Ratio (z) = 1.17110 -0.55136
#
# Static dielectric constant tensor:
#      x y z
#    x 1.768720 -0.177790 -0.010240 
#    y -0.177790 1.357890 -0.116290 
#    z -0.010240 -0.116290 1.867300 
# 
# From -- ./inp_files/542499.got.cif
#   From: 2010.05.17/outbox.cif.g08.bks.cpg/sg2_272_cif.got.tgz:542499.got - 2010.06.03 11:33:40.
