data_PCOD9057224
_publ_section_title
;
Structure prediction by ZEFSAII (Michael W. Deem and Ramdas Pophale) SiO2 
 PCOD9057224
Probable space group: P -1
;
_chemical_formula_sum "Si O2"
_cell_formula_units_Z 16
_cell_length_a 9.101880
_cell_length_b 11.943033
_cell_length_c 10.989694
_cell_angle_alpha 146.154384
_cell_angle_beta 75.276880
_cell_angle_gamma 94.330275
_cell_volume 622.792655
_symmetry_space_group_name_H-M "P -1"
_symmetry_group_IT_number 2
_symmetry_cell_setting 'triclinic'
loop_
_space_group_symop_operation_xyz
x,y,z
-x,-y,-z
loop_
_atom_site_type_symbol
_atom_site_label
_atom_site_fract_x
_atom_site_fract_y
_atom_site_fract_z
Si Si1 0.695967 0.291458 0.066059
Si Si2 0.799094 0.084109 0.299597
Si Si3 0.151336 0.059091 0.459246
Si Si4 0.326558 0.019367 0.009994
Si Si5 0.712218 0.654391 0.134612
Si Si6 0.055618 0.292755 0.431533
Si Si7 0.433075 0.510462 0.193354
Si Si8 0.016829 0.373954 0.088695
O O1 0.514802 0.418320 0.218719
O O2 0.833471 0.409029 0.133812
O O3 0.731580 0.151493 0.052273
O O4 0.729520 0.140013 0.805393
O O5 0.696488 0.270887 0.571976
O O6 0.931096 0.182322 0.301459
O O7 0.689424 0.027039 0.168687
O O8 0.895618 0.870806 0.148892
O O9 0.251933 0.163587 0.625291
O O10 0.093060 0.196845 0.474502
O O11 0.000000 0.000000 0.500000
O O12 0.213899 0.236599 0.272530
O O13 0.500000 0.000000 0.000000
O O14 0.587629 0.557468 0.142126
O O15 0.632208 0.658651 0.020291
O O16 0.887691 0.532049 0.947407
O O17 0.975888 0.529467 0.693068
#
# Coordination Sequence:
#
# PCOD9057224 Si02
#       8
#     2   2   2   2   2   2   2   2
#     4  11  26  47  70 111 144 192 249 308 365 442
#     4  12  26  51  73 105 149 195 246 307 360 445
#     4  11  22  41  75 107 149 193 247 300 363 441
#     4  11  28  49  76 107 146 189 244 316 377 421
#     4  11  25  45  70 111 151 200 234 301 368 439
#     4  11  25  48  73 110 145 193 249 299 363 450
#     4  11  28  45  71 111 157 189 248 302 370 440
#     4  12  25  46  78 106 148 196 249 293 368 445
#
# _framework density 25.690733000000002
#
# number of rings (size 3 to 8) (size 9 to 14) (size 15 to 20)
#    0.000    0.750    5.000    1.125    8.750    5.000 
#    0.000    0.000    0.000    0.000    0.000    0.000 
#    0.000    0.000    0.000    0.000    0.000    0.000 
#
# Total GULP energy -89420.824042 kJ/mol
# GULP energy per Si atom -5588.801503 kJ/mol
# Density = 2.563226 g / cm^3
# Si number density = 25.690733 Si / 1000 Ang^3
#
#
#
# Elastic Constant Matrix: (Units=GPa)
#
#
# Indices 1 2 3 4 5 6 
#
# 1 164.3163 31.3861 30.6773 1.4410 20.9695 6.2432
# 2 31.3861 57.7307 24.7427 1.6881 0.4900 1.8791
# 3 30.6773 24.7427 93.9413 14.5259 15.5629 -3.5649
# 4 1.4410 1.6881 14.5259 23.3472 -4.9696 -5.2272
# 5 20.9695 0.4900 15.5629 -4.9696 55.2638 1.5824
# 6 6.2432 1.8791 -3.5649 -5.2272 1.5824 44.2499
#
#
#
# Elastic Compliance Matrix: (Units=1/GPa)
#
#
# Indices 1 2 3 4 5 6 
#
# 1 0.007291 -0.003450 -0.001063 -0.000261 -0.002434 -0.000912
# 2 -0.003450 0.021440 -0.005409 0.002493 0.002886 -0.000668
# 3 -0.001063 -0.005409 0.014662 -0.009499 -0.004549 0.000601
# 4 -0.000261 0.002493 -0.009499 0.051224 0.007216 0.004959
# 5 -0.002434 0.002886 -0.004549 0.007216 0.020924 -0.000041
# 6 -0.000912 -0.000668 0.000601 0.004959 -0.000041 0.023392
#
#
# Mechanical properties :
#
#
# Convention : Reuss Voigt Hill
#
# Bulk Modulus (GPa) = 42.46621 54.40008 48.43314
# Shear Modulus (GPa) = 30.00712 39.85102 34.92907
#
# Velocity S-wave (km/s) = 3.42133 3.94278 3.69127
# Velocity P-wave (km/s) = 5.67212 6.47675 6.08774
#
# Compressibility (1/GPa) = 0.02354813
#
# Stress axis : x y z
#
# Youngs Moduli (GPa) = 137.15816 46.64136 68.20299
#
# Poissons Ratio (x) = 0.16092 0.07251
# Poissons Ratio (y) = 0.47322 0.36892
# Poissons Ratio (z) = 0.14582 0.25229
#
# Static dielectric constant tensor:
#      x y z
#    x 2.003830 -0.047090 0.004110 
#    y -0.047090 2.181950 0.031620 
#    z 0.004110 0.031620 2.035010 
# 
# From -- ./inp_files/399929.got.cif
#   From: 2010.05.17/outbox.cif.g08.bks.cpg/sg2_200_cif.got.tgz:399929.got - 2010.06.03 11:33:40.
