data_PCOD9057593
_publ_section_title
;
Structure prediction by ZEFSAII (Michael W. Deem and Ramdas Pophale) SiO2 
 PCOD9057593
Probable space group: P -1
;
_chemical_formula_sum "Si O2"
_cell_formula_units_Z 12
_cell_length_a 13.080985
_cell_length_b 7.225619
_cell_length_c 8.385806
_cell_angle_alpha 118.676797
_cell_angle_beta 132.726129
_cell_angle_gamma 87.202410
_cell_volume 461.332248
_symmetry_space_group_name_H-M "P -1"
_symmetry_group_IT_number 2
_symmetry_cell_setting 'triclinic'
loop_
_space_group_symop_operation_xyz
x,y,z
-x,-y,-z
loop_
_atom_site_type_symbol
_atom_site_label
_atom_site_fract_x
_atom_site_fract_y
_atom_site_fract_z
Si Si1 0.467931 0.562728 0.170247
Si Si2 0.108606 0.714655 0.479548
Si Si3 0.838950 0.628015 0.396811
Si Si4 0.398233 0.092835 0.036768
Si Si5 0.972536 0.155135 0.871353
Si Si6 0.743778 0.951372 0.795343
O O1 0.598865 0.805755 0.467207
O O2 0.500000 0.500000 0.000000
O O3 0.291542 0.507628 0.929171
O O4 0.471372 0.370118 0.216692
O O5 0.183378 0.544562 0.548084
O O6 0.036493 0.691565 0.221142
O O7 0.993430 0.690864 0.488623
O O8 0.237114 0.979792 0.727923
O O9 0.869715 0.879853 0.604463
O O10 0.342203 0.011849 0.124053
O O11 0.500000 0.000000 0.000000
O O12 0.876007 0.170081 0.931147
O O13 0.146059 0.176470 0.087853
#
# Coordination Sequence:
#
# PCOD9057593 Si02
#       6
#     2   2   2   2   2   2
#     4  12  23  45  74 104 146 195 236 300 363 426
#     4  11  23  43  73 109 134 199 240 286 369 425
#     4  11  22  42  79 101 145 191 241 293 356 438
#     4  12  25  43  72 105 149 191 238 301 362 428
#     4  11  22  47  78 101 150 186 236 304 360 428
#     4  11  25  44  75 109 144 188 246 295 362 430
#
# _framework density 26.011624000000001
#
# number of rings (size 3 to 8) (size 9 to 14) (size 15 to 20)
#    0.000    0.667    5.000    3.000    0.000    0.000 
#    0.000   10.833    7.333    0.000    0.000    0.000 
#    0.000    0.000    0.000    0.000    0.000    0.000 
#
# Total GULP energy -67038.832360 kJ/mol
# GULP energy per Si atom -5586.569363 kJ/mol
# Density = 2.595242 g / cm^3
# Si number density = 26.011624 Si / 1000 Ang^3
#
#
#
# Elastic Constant Matrix: (Units=GPa)
#
#
# Indices 1 2 3 4 5 6 
#
# 1 164.3216 30.0392 27.1425 -7.1541 -7.9302 19.4051
# 2 30.0392 96.4751 18.4191 -18.1783 -9.0968 26.2912
# 3 27.1425 18.4191 136.0354 -12.7103 3.8060 -10.4017
# 4 -7.1541 -18.1783 -12.7103 36.2186 6.5808 -4.6614
# 5 -7.9302 -9.0968 3.8060 6.5808 52.9056 -4.4428
# 6 19.4051 26.2912 -10.4017 -4.6614 -4.4428 25.4736
#
#
#
# Elastic Compliance Matrix: (Units=1/GPa)
#
#
# Indices 1 2 3 4 5 6 
#
# 1 0.007162 -0.000243 -0.001891 -0.000258 0.000704 -0.005902
# 2 -0.000243 0.016772 -0.003122 0.004860 0.001012 -0.017335
# 3 -0.001891 -0.003122 0.009081 0.002553 -0.001065 0.008653
# 4 -0.000258 0.004860 0.002553 0.031664 -0.003203 0.001460
# 5 0.000704 0.001012 -0.001065 -0.003203 0.019727 0.000839
# 6 -0.005902 -0.017335 0.008653 0.001460 0.000839 0.065590
#
#
# Mechanical properties :
#
#
# Convention : Reuss Voigt Hill
#
# Bulk Modulus (GPa) = 44.43908 60.89263 52.66586
# Shear Modulus (GPa) = 29.76020 44.33498 37.04759
#
# Velocity S-wave (km/s) = 3.38614 4.13295 3.77805
# Velocity P-wave (km/s) = 5.69292 6.79968 6.27077
#
# Compressibility (1/GPa) = 0.02250271
#
# Stress axis : x y z
#
# Youngs Moduli (GPa) = 139.62291 59.62249 110.11881
#
# Poissons Ratio (x) = 0.01448 0.20827
# Poissons Ratio (y) = 0.03391 0.34382
# Poissons Ratio (z) = 0.26407 0.18615
#
# Static dielectric constant tensor:
#      x y z
#    x 2.230910 -0.124740 0.075030 
#    y -0.124740 2.163390 -0.032760 
#    z 0.075030 -0.032760 2.132340 
# 
# From -- ./inp_files/296507.got.cif
#   From: 2010.05.17/outbox.cif.g08.bks.cpg/sg2_149_cif.got.tgz:296507.got - 2010.06.03 11:33:40.
