data_PCOD9057931
_publ_section_title
;
Structure prediction by ZEFSAII (Michael W. Deem and Ramdas Pophale) SiO2 
 PCOD9057931
Probable space group: P -1
;
_chemical_formula_sum "Si O2"
_cell_formula_units_Z 16
_cell_length_a 23.570290
_cell_length_b 15.485653
_cell_length_c 9.639077
_cell_angle_alpha 136.899675
_cell_angle_beta 45.838857
_cell_angle_gamma 160.584489
_cell_volume 798.614861
_symmetry_space_group_name_H-M "P -1"
_symmetry_group_IT_number 2
_symmetry_cell_setting 'triclinic'
loop_
_space_group_symop_operation_xyz
x,y,z
-x,-y,-z
loop_
_atom_site_type_symbol
_atom_site_label
_atom_site_fract_x
_atom_site_fract_y
_atom_site_fract_z
Si Si1 0.816770 0.974957 0.067813
Si Si2 0.083588 0.485884 0.386039
Si Si3 0.548976 0.725340 0.430882
Si Si4 0.828148 0.040000 0.517296
Si Si5 0.511659 0.914932 0.569231
Si Si6 0.196570 0.242988 0.951652
Si Si7 0.719746 0.882633 0.818901
Si Si8 0.510851 0.844184 0.164188
O O1 0.675320 0.866267 0.252779
O O2 0.766364 0.768129 0.974233
O O3 0.813257 0.984850 0.922846
O O4 0.999046 0.268330 0.167029
O O5 0.000000 0.500000 0.500000
O O6 0.285164 0.779550 0.392905
O O7 0.002718 0.332396 0.491610
O O8 0.675003 0.910925 0.566316
O O9 0.459558 0.728907 0.543840
O O10 0.421034 0.427731 0.320800
O O11 0.782525 0.838652 0.292705
O O12 0.831600 0.041067 0.676252
O O13 0.489082 0.839261 0.359759
O O14 0.431709 0.941398 0.748325
O O15 0.328174 0.542023 0.059833
O O16 0.000000 0.000000 0.000000
O O17 0.632160 0.895774 0.996833
#
# Coordination Sequence:
#
# PCOD9057931 Si02
#       8
#     2   2   2   2   2   2   2   2
#     4  10  19  32  60  87 106 158 198 235 280 341
#     4  10  17  37  58  78 113 154 202 231 278 354
#     4  10  18  35  59  81 113 153 199 233 280 348
#     4  10  22  34  62  87 113 155 195 243 293 341
#     4  11  21  35  59  89 112 154 198 244 279 342
#     4  10  20  39  60  87 114 152 199 245 285 344
#     4  12  20  37  59  92 119 146 197 247 293 345
#     4  11  21  33  58  89 120 145 192 248 292 332
#
# _framework density 20.034690000000001
#
# number of rings (size 3 to 8) (size 9 to 14) (size 15 to 20)
#    0.000    1.750    6.250    3.000    0.000    0.000 
#    0.000    3.750    0.000    0.000    0.000    0.000 
#    0.000    0.000    0.000    0.000    0.000    0.000 
#
# Total GULP energy -89300.850014 kJ/mol
# GULP energy per Si atom -5581.303126 kJ/mol
# Density = 1.998909 g / cm^3
# Si number density = 20.034690 Si / 1000 Ang^3
#
#
#
# Elastic Constant Matrix: (Units=GPa)
#
#
# Indices 1 2 3 4 5 6 
#
# 1 88.1432 0.3939 34.0514 -9.5948 -9.3795 -21.3471
# 2 0.3939 37.2355 19.0526 2.3463 1.2333 -5.4726
# 3 34.0514 19.0526 52.5585 -5.5941 5.2832 -17.0428
# 4 -9.5948 2.3463 -5.5941 15.9625 -18.4740 -1.0563
# 5 -9.3795 1.2333 5.2832 -18.4740 44.2313 3.9077
# 6 -21.3471 -5.4726 -17.0428 -1.0563 3.9077 26.1237
#
#
#
# Elastic Compliance Matrix: (Units=1/GPa)
#
#
# Indices 1 2 3 4 5 6 
#
# 1 0.024445 0.005129 -0.012481 0.032354 0.019040 0.011368
# 2 0.005129 0.036575 -0.017386 -0.011460 -0.002682 0.000448
# 3 -0.012481 -0.017386 0.038194 0.000418 -0.007630 0.012234
# 4 0.032354 -0.011460 0.000418 0.177055 0.079349 0.019600
# 5 0.019040 -0.002682 -0.007630 0.079349 0.060403 0.004192
# 6 0.011368 0.000448 0.012234 0.019600 0.004192 0.055809
#
#
# Mechanical properties :
#
#
# Convention : Reuss Voigt Hill
#
# Bulk Modulus (GPa) = 20.10574 31.65923 25.88249
# Shear Modulus (GPa) = 10.90426 25.55945 18.23186
#
# Velocity S-wave (km/s) = 2.33549 3.57565 3.01992
# Velocity P-wave (km/s) = 4.16292 5.73442 5.01066
#
# Compressibility (1/GPa) = 0.04973704
#
# Stress axis : x y z
#
# Youngs Moduli (GPa) = 40.90844 27.34125 26.18246
#
# Poissons Ratio (x) = -0.14023 0.32678
# Poissons Ratio (y) = -0.20982 0.45521
# Poissons Ratio (z) = 0.51057 0.47536
#
# Static dielectric constant tensor:
#      x y z
#    x 1.765220 -0.016080 -0.038570 
#    y -0.016080 1.715340 0.030700 
#    z -0.038570 0.030700 1.711400 
# 
# From -- ./inp_files/354583.got.cif
#   From: 2010.05.17/outbox.cif.g08.bks.cpg/sg2_178_cif.got.tgz:354583.got - 2010.06.03 11:33:40.
