data_PCOD9057809
_publ_section_title
;
Structure prediction by ZEFSAII (Michael W. Deem and Ramdas Pophale) SiO2 
 PCOD9057809
Probable space group: P -1
;
_chemical_formula_sum "Si O2"
_cell_formula_units_Z 12
_cell_length_a 8.140473
_cell_length_b 8.363943
_cell_length_c 8.547978
_cell_angle_alpha 124.611377
_cell_angle_beta 74.697206
_cell_angle_gamma 89.680422
_cell_volume 453.068873
_symmetry_space_group_name_H-M "P -1"
_symmetry_group_IT_number 2
_symmetry_cell_setting 'triclinic'
loop_
_space_group_symop_operation_xyz
x,y,z
-x,-y,-z
loop_
_atom_site_type_symbol
_atom_site_label
_atom_site_fract_x
_atom_site_fract_y
_atom_site_fract_z
Si Si1 0.037001 0.305146 0.278311
Si Si2 0.525061 0.693134 0.510054
Si Si3 0.266880 0.302440 0.947504
Si Si4 0.654888 0.077462 0.768608
Si Si5 0.782383 0.385512 0.090724
Si Si6 0.164252 0.940872 0.608371
O O1 0.908502 0.336957 0.178591
O O2 0.991482 0.137677 0.311384
O O3 0.000000 0.500000 0.500000
O O4 0.219453 0.276322 0.127509
O O5 0.500000 0.500000 0.500000
O O6 0.651692 0.587317 0.285380
O O7 0.339547 0.804131 0.557276
O O8 0.611837 0.858112 0.665004
O O9 0.472999 0.218276 0.839512
O O10 0.184090 0.528116 0.041875
O O11 0.169307 0.158207 0.791672
O O12 0.800077 0.068811 0.590894
O O13 0.704299 0.191550 0.970440
#
# Coordination Sequence:
#
# PCOD9057809 Si02
#       6
#     2   2   2   2   2   2
#     4  12  28  46  65 101 148 184 228 288 354 407
#     4  11  22  43  71 107 139 176 237 287 336 407
#     4  11  23  46  71 104 141 183 229 286 346 415
#     4  11  24  44  78 103 137 182 236 286 341 408
#     4  12  24  45  73 103 137 186 235 282 344 417
#     4  11  22  46  70 104 139 183 230 286 344 414
#
# _framework density 26.486041
#
# number of rings (size 3 to 8) (size 9 to 14) (size 15 to 20)
#    0.000    0.667    5.000    3.500    2.333    0.667 
#    6.000    1.667    0.000    0.000    0.000    0.000 
#    0.000    0.000    0.000    0.000    0.000    0.000 
#
# Total GULP energy -67200.058939 kJ/mol
# GULP energy per Si atom -5600.004912 kJ/mol
# Density = 2.642576 g / cm^3
# Si number density = 26.486041 Si / 1000 Ang^3
#
#
#
# Elastic Constant Matrix: (Units=GPa)
#
#
# Indices 1 2 3 4 5 6 
#
# 1 75.8569 50.1927 52.0723 2.8945 7.5664 -9.5340
# 2 50.1927 172.1546 45.2802 5.4336 14.6098 2.8284
# 3 52.0723 45.2802 146.9492 17.3637 18.9709 1.4728
# 4 2.8945 5.4336 17.3637 56.4139 13.8912 -1.0061
# 5 7.5664 14.6098 18.9709 13.8912 53.4211 -0.3467
# 6 -9.5340 2.8284 1.4728 -1.0061 -0.3467 37.6628
#
#
#
# Elastic Compliance Matrix: (Units=1/GPa)
#
#
# Indices 1 2 3 4 5 6 
#
# 1 0.021358 -0.004713 -0.006366 0.001375 0.000206 0.006048
# 2 -0.004713 0.007431 -0.000438 -0.000074 -0.001201 -0.001747
# 3 -0.006366 -0.000438 0.009718 -0.002198 -0.001871 -0.002034
# 4 0.001375 -0.000074 -0.002198 0.019450 -0.004446 0.000918
# 5 0.000206 -0.001201 -0.001871 -0.004446 0.020841 0.000289
# 6 0.006048 -0.001747 -0.002034 0.000918 0.000289 0.028320
#
#
# Mechanical properties :
#
#
# Convention : Reuss Voigt Hill
#
# Bulk Modulus (GPa) = 64.63093 76.67235 70.65164
# Shear Modulus (GPa) = 36.95219 45.99394 41.47307
#
# Velocity S-wave (km/s) = 3.73923 4.17170 3.96137
# Velocity P-wave (km/s) = 6.56486 7.22600 6.90335
#
# Compressibility (1/GPa) = 0.01547247
#
# Stress axis : x y z
#
# Youngs Moduli (GPa) = 46.82056 134.56939 102.90683
#
# Poissons Ratio (x) = 0.63423 0.65508
# Poissons Ratio (y) = 0.22067 0.04511
# Poissons Ratio (z) = 0.29805 0.05899
#
# Static dielectric constant tensor:
#      x y z
#    x 2.112640 0.090530 -0.098420 
#    y 0.090530 2.339390 -0.316660 
#    z -0.098420 -0.316660 2.273880 
# 
# From -- ./inp_files/149645.got.cif
#   From: 2010.05.17/outbox.cif.g08.bks.cpg/sg2_75_cif.got.tgz:149645.got - 2010.06.03 11:33:40.
