data_PCOD9057911
_publ_section_title
;
Structure prediction by ZEFSAII (Michael W. Deem and Ramdas Pophale) SiO2 
 PCOD9057911
Probable space group: P -1
;
_chemical_formula_sum "Si O2"
_cell_formula_units_Z 16
_cell_length_a 10.981546
_cell_length_b 7.800327
_cell_length_c 18.489662
_cell_angle_alpha 147.786567
_cell_angle_beta 53.889977
_cell_angle_gamma 117.696874
_cell_volume 679.986107
_symmetry_space_group_name_H-M "P -1"
_symmetry_group_IT_number 2
_symmetry_cell_setting 'triclinic'
loop_
_space_group_symop_operation_xyz
x,y,z
-x,-y,-z
loop_
_atom_site_type_symbol
_atom_site_label
_atom_site_fract_x
_atom_site_fract_y
_atom_site_fract_z
Si Si1 0.332355 0.669072 0.109930
Si Si2 0.413523 0.455644 0.622633
Si Si3 0.866288 0.777028 0.158230
Si Si4 0.703542 0.874071 0.859422
Si Si5 0.578508 0.470275 0.193794
Si Si6 0.030346 0.644238 0.618587
Si Si7 0.693377 0.789776 0.571828
Si Si8 0.840818 0.964914 0.079684
O O1 0.220940 0.384782 0.037774
O O2 0.321602 0.907202 0.127828
O O3 0.302518 0.878721 0.267484
O O4 0.500000 0.500000 0.000000
O O5 0.448094 0.364078 0.660366
O O6 0.560855 0.599784 0.588389
O O7 0.349503 0.216676 0.500488
O O8 0.286787 0.749411 0.786393
O O9 0.696543 0.676059 0.185051
O O10 0.903293 0.007008 0.292590
O O11 0.872080 0.992107 0.162988
O O12 0.000000 0.500000 0.000000
O O13 0.582858 0.607585 0.807950
O O14 0.872087 0.718784 0.741310
O O15 0.668361 0.112612 0.024608
O O16 0.149272 0.408369 0.535686
O O17 0.000000 0.500000 0.500000
O O18 0.000000 0.000000 0.000000
#
# Coordination Sequence:
#
# PCOD9057911 Si02
#       8
#     2   2   2   2   2   2   2   2
#     4  12  22  45  74 102 133 189 237 289 354 424
#     4  11  23  45  70 103 143 186 237 292 358 420
#     4  12  24  43  69 105 137 186 238 289 352 422
#     4  11  23  41  72 112 139 183 237 298 356 421
#     4  11  22  43  74 104 145 182 242 294 347 427
#     4  12  23  44  70 101 149 189 232 297 365 416
#     4  11  24  43  73 100 145 193 234 291 362 424
#     4  12  25  43  71 103 136 181 236 299 353 418
#
# _framework density 23.529892
#
# number of rings (size 3 to 8) (size 9 to 14) (size 15 to 20)
#    0.000    0.500    7.500    0.750    0.000    0.000 
#    0.000    4.375    0.000    0.000    0.000    0.000 
#    0.000    0.000    0.000    0.000    0.000    0.000 
#
# Total GULP energy -89502.375078 kJ/mol
# GULP energy per Si atom -5593.898442 kJ/mol
# Density = 2.347634 g / cm^3
# Si number density = 23.529892 Si / 1000 Ang^3
#
#
#
# Elastic Constant Matrix: (Units=GPa)
#
#
# Indices 1 2 3 4 5 6 
#
# 1 114.1531 39.6330 77.7762 -10.8667 5.6230 25.8546
# 2 39.6330 87.6800 29.6401 -18.4230 4.7809 29.8818
# 3 77.7762 29.6401 165.1445 0.9239 21.3591 13.7002
# 4 -10.8667 -18.4230 0.9239 34.9675 4.4371 1.7147
# 5 5.6230 4.7809 21.3591 4.4371 65.2974 -14.0617
# 6 25.8546 29.8818 13.7002 1.7147 -14.0617 44.9034
#
#
#
# Elastic Compliance Matrix: (Units=1/GPa)
#
#
# Indices 1 2 3 4 5 6 
#
# 1 0.015672 -0.001763 -0.006469 0.004518 -0.000766 -0.006289
# 2 -0.001763 0.019866 -0.001048 0.011218 -0.004690 -0.013783
# 3 -0.006469 -0.001048 0.009494 -0.002596 -0.002086 0.000972
# 4 0.004518 0.011218 -0.002596 0.037298 -0.005576 -0.012445
# 5 -0.000766 -0.004690 -0.002086 -0.005576 0.019018 0.010367
# 6 -0.006289 -0.013783 0.000972 -0.012445 0.010367 0.038488
#
#
# Mechanical properties :
#
#
# Convention : Reuss Voigt Hill
#
# Bulk Modulus (GPa) = 37.77538 73.45291 55.61414
# Shear Modulus (GPa) = 29.90072 43.69555 36.79814
#
# Velocity S-wave (km/s) = 3.56863 4.31399 3.95889
# Velocity P-wave (km/s) = 5.75059 7.48991 6.67712
#
# Compressibility (1/GPa) = 0.02647227
#
# Stress axis : x y z
#
# Youngs Moduli (GPa) = 63.80838 50.33688 105.33266
#
# Poissons Ratio (x) = 0.08873 0.68139
# Poissons Ratio (y) = 0.11248 0.11040
# Poissons Ratio (z) = 0.41277 0.05276
#
# Static dielectric constant tensor:
#      x y z
#    x 1.862230 -0.029110 0.030320 
#    y -0.029110 1.911980 0.043400 
#    z 0.030320 0.043400 1.944220 
# 
# From -- ./inp_files/593874.got.cif
#   From: 2010.05.17/outbox.cif.g08.bks.cpg/sg2_297_cif.got.tgz:593874.got - 2010.06.03 11:33:40.
