data_PCOD9057233
_publ_section_title
;
Structure prediction by ZEFSAII (Michael W. Deem and Ramdas Pophale) SiO2 
 PCOD9057233
Probable space group: P -1
;
_chemical_formula_sum "Si O2"
_cell_formula_units_Z 14
_cell_length_a 9.437875
_cell_length_b 9.410830
_cell_length_c 21.828612
_cell_angle_alpha 43.552264
_cell_angle_beta 30.178674
_cell_angle_gamma 48.208990
_cell_volume 667.058707
_symmetry_space_group_name_H-M "P -1"
_symmetry_group_IT_number 2
_symmetry_cell_setting 'triclinic'
loop_
_space_group_symop_operation_xyz
x,y,z
-x,-y,-z
loop_
_atom_site_type_symbol
_atom_site_label
_atom_site_fract_x
_atom_site_fract_y
_atom_site_fract_z
Si Si1 0.741288 0.133169 0.893661
Si Si2 0.276459 0.044458 0.919906
Si Si3 0.646564 0.803372 0.348547
Si Si4 0.420157 0.538243 0.862061
Si Si5 0.152358 0.524525 0.844364
Si Si6 0.680815 0.899127 0.713068
Si Si7 0.232215 0.617324 0.643080
O O1 0.682038 0.361253 0.817005
O O2 0.080607 0.073978 0.779184
O O3 0.500000 0.000000 0.000000
O O4 0.686175 0.128208 0.988041
O O5 0.224915 0.273664 0.895784
O O6 0.547995 0.024871 0.781495
O O7 0.000000 0.000000 0.000000
O O8 0.520479 0.707527 0.486165
O O9 0.750302 0.610710 0.324052
O O10 0.388373 0.943604 0.366930
O O11 0.345243 0.607265 0.799338
O O12 0.486257 0.720620 0.824308
O O13 0.162619 0.436067 0.022081
O O14 0.187956 0.598683 0.738511
O O15 0.978300 0.773449 0.659668
#
# Coordination Sequence:
#
# PCOD9057233 Si02
#       7
#     2   2   2   2   2   2   2
#     4  12  23  41  66  98 133 170 216 271 337 383
#     4  12  21  37  66  95 131 167 212 284 322 375
#     4  11  24  43  68  98 134 172 221 273 319 392
#     4  11  24  38  68  96 135 170 217 275 333 384
#     4  11  22  42  60  99 134 170 216 273 327 387
#     4  12  23  42  69  98 128 172 224 272 326 384
#     4  11  24  44  70  92 134 180 220 262 327 397
#
# _framework density 20.987658
#
# number of rings (size 3 to 8) (size 9 to 14) (size 15 to 20)
#    0.000    0.571    7.143    1.286    2.000    1.143 
#    0.000    1.429    3.143    0.000    0.000    0.000 
#    0.000    0.000    0.000    0.000    0.000    0.000 
#
# Total GULP energy -78131.545459 kJ/mol
# GULP energy per Si atom -5580.824676 kJ/mol
# Density = 2.093989 g / cm^3
# Si number density = 20.987658 Si / 1000 Ang^3
#
#
#
# Elastic Constant Matrix: (Units=GPa)
#
#
# Indices 1 2 3 4 5 6 
#
# 1 118.3448 15.8829 52.8531 9.9654 12.7845 -14.5903
# 2 15.8829 83.7162 -3.2236 11.2261 -4.5522 -17.6098
# 3 52.8531 -3.2236 82.4240 -4.8122 19.4932 -6.0495
# 4 9.9654 11.2261 -4.8122 18.9132 -0.2246 -0.5347
# 5 12.7845 -4.5522 19.4932 -0.2246 27.5043 -4.9789
# 6 -14.5903 -17.6098 -6.0495 -0.5347 -4.9789 31.9365
#
#
#
# Elastic Compliance Matrix: (Units=1/GPa)
#
#
# Indices 1 2 3 4 5 6 
#
# 1 0.013946 -0.000901 -0.009368 -0.009075 0.000667 0.004052
# 2 -0.000901 0.015263 0.000333 -0.008208 0.004196 0.008584
# 3 -0.009368 0.000333 0.021171 0.009951 -0.010804 -0.001604
# 4 -0.009075 -0.008208 0.009951 0.064818 -0.004832 -0.006454
# 5 0.000667 0.004196 -0.010804 -0.004832 0.045739 0.007622
# 6 0.004052 0.008584 -0.001604 -0.006454 0.007622 0.038673
#
#
# Mechanical properties :
#
#
# Convention : Reuss Voigt Hill
#
# Bulk Modulus (GPa) = 32.77755 46.16773 39.47264
# Shear Modulus (GPa) = 21.77191 30.26899 26.02045
#
# Velocity S-wave (km/s) = 3.22431 3.80179 3.52490
# Velocity P-wave (km/s) = 5.43259 6.42781 5.95104
#
# Compressibility (1/GPa) = 0.03050868
#
# Stress axis : x y z
#
# Youngs Moduli (GPa) = 71.70321 65.51610 47.23407
#
# Poissons Ratio (x) = 0.05904 0.44251
# Poissons Ratio (y) = 0.06462 -0.01575
# Poissons Ratio (z) = 0.67174 -0.02184
#
# Static dielectric constant tensor:
#      x y z
#    x 1.773910 -0.036240 -0.027830 
#    y -0.036240 1.765950 -0.007150 
#    z -0.027830 -0.007150 1.747370 
# 
# From -- ./inp_files/185555.got.cif
#   From: 2010.05.17/outbox.cif.g08.bks.cpg/sg2_93_cif.got.tgz:185555.got - 2010.06.03 11:33:40.
