data_PCOD9057213
_publ_section_title
;
Structure prediction by ZEFSAII (Michael W. Deem and Ramdas Pophale) SiO2 
 PCOD9057213
Probable space group: P -1
;
_chemical_formula_sum "Si O2"
_cell_formula_units_Z 16
_cell_length_a 9.899527
_cell_length_b 28.372101
_cell_length_c 13.704427
_cell_angle_alpha 159.094619
_cell_angle_beta 131.117667
_cell_angle_gamma 37.898985
_cell_volume 786.176327
_symmetry_space_group_name_H-M "P -1"
_symmetry_group_IT_number 2
_symmetry_cell_setting 'triclinic'
loop_
_space_group_symop_operation_xyz
x,y,z
-x,-y,-z
loop_
_atom_site_type_symbol
_atom_site_label
_atom_site_fract_x
_atom_site_fract_y
_atom_site_fract_z
Si Si1 0.992096 0.191184 0.811757
Si Si2 0.624875 0.025212 0.259681
Si Si3 0.531124 0.645061 0.067670
Si Si4 0.485740 0.655223 0.833139
Si Si5 0.651821 0.723383 0.686968
Si Si6 0.017858 0.988000 0.711417
Si Si7 0.140564 0.404505 0.246242
Si Si8 0.350439 0.629936 0.272662
O O1 0.723792 0.297854 0.919339
O O2 0.055982 0.039034 0.479744
O O3 0.158719 0.108854 0.824040
O O4 0.038265 0.305910 0.001442
O O5 0.471013 0.210755 0.600751
O O6 0.755245 0.028355 0.235106
O O7 0.524491 0.926238 0.006834
O O8 0.542952 0.639658 0.945894
O O9 0.699037 0.463949 0.855905
O O10 0.500000 0.500000 0.500000
O O11 0.679644 0.646816 0.851686
O O12 0.220645 0.828625 0.014814
O O13 0.721104 0.655841 0.701273
O O14 0.504358 0.672766 0.477185
O O15 0.908539 0.607380 0.531949
O O16 0.115723 0.817359 0.488371
O O17 0.500000 0.500000 0.000000
#
# Coordination Sequence:
#
# PCOD9057213 Si02
#       8
#     2   2   2   2   2   2   2   2
#     4  10  17  36  65  90 118 157 207 264 299 355
#     4  10  18  34  63  89 122 153 206 273 293 347
#     4  11  20  39  62  93 123 158 211 255 303 364
#     4  12  24  38  62  95 124 163 206 261 317 354
#     4  10  21  38  61  94 122 159 212 259 303 364
#     4  11  21  37  60  96 124 159 209 248 308 379
#     4  10  21  37  63  91 126 157 206 263 310 357
#     4  12  22  38  66  92 125 168 207 247 308 378
#
# _framework density 20.351669000000001
#
# number of rings (size 3 to 8) (size 9 to 14) (size 15 to 20)
#    0.000    1.250    6.250    2.250    1.750    1.000 
#    0.000    2.500    0.000    4.500    0.000    0.000 
#    0.000    0.000    0.000    0.000    0.000    0.000 
#
# Total GULP energy -89300.673075 kJ/mol
# GULP energy per Si atom -5581.292067 kJ/mol
# Density = 2.030535 g / cm^3
# Si number density = 20.351669 Si / 1000 Ang^3
#
#
#
# Elastic Constant Matrix: (Units=GPa)
#
#
# Indices 1 2 3 4 5 6 
#
# 1 104.4655 12.9548 56.3285 -0.5351 -4.8547 11.8914
# 2 12.9548 43.8836 33.6489 -2.1249 0.4415 12.9390
# 3 56.3285 33.6489 149.2306 1.7996 14.0597 6.6851
# 4 -0.5351 -2.1249 1.7996 43.2791 -3.1111 12.7403
# 5 -4.8547 0.4415 14.0597 -3.1111 32.4119 2.7449
# 6 11.8914 12.9390 6.6851 12.7403 2.7449 16.4536
#
#
#
# Elastic Compliance Matrix: (Units=1/GPa)
#
#
# Indices 1 2 3 4 5 6 
#
# 1 0.015577 0.007977 -0.007555 0.007951 0.008126 -0.021973
# 2 0.007977 0.047415 -0.012647 0.020270 0.012700 -0.055727
# 3 -0.007555 -0.012647 0.012524 -0.006865 -0.008495 0.017050
# 4 0.007951 0.020270 -0.006865 0.040841 0.012264 -0.052567
# 5 0.008126 0.012700 -0.008495 0.012264 0.039168 -0.028439
# 6 -0.021973 -0.055727 0.017050 -0.052567 -0.028439 0.159001
#
#
# Mechanical properties :
#
#
# Convention : Reuss Voigt Hill
#
# Bulk Modulus (GPa) = 19.58295 55.93823 37.76059
# Shear Modulus (GPa) = 14.04508 31.40543 22.72525
#
# Velocity S-wave (km/s) = 2.62986 3.93254 3.34522
# Velocity P-wave (km/s) = 4.34336 6.94012 5.78922
#
# Compressibility (1/GPa) = 0.05106482
#
# Stress axis : x y z
#
# Youngs Moduli (GPa) = 64.19819 21.09050 79.84796
#
# Poissons Ratio (x) = -0.16823 0.60328
# Poissons Ratio (y) = -0.51209 1.00981
# Poissons Ratio (z) = 0.48504 0.26672
#
# Static dielectric constant tensor:
#      x y z
#    x 1.732710 0.045360 0.038430 
#    y 0.045360 1.773910 0.015600 
#    z 0.038430 0.015600 1.792200 
# 
# From -- ./inp_files/509165.got.cif
#   From: 2010.05.17/outbox.cif.g08.bks.cpg/sg2_255_cif.got.tgz:509165.got - 2010.06.03 11:33:40.
