data_PCOD9057414
_publ_section_title
;
Structure prediction by ZEFSAII (Michael W. Deem and Ramdas Pophale) SiO2 
 PCOD9057414
Probable space group: P -1
;
_chemical_formula_sum "Si O2"
_cell_formula_units_Z 14
_cell_length_a 16.477872
_cell_length_b 9.875728
_cell_length_c 16.373027
_cell_angle_alpha 150.184344
_cell_angle_beta 26.498861
_cell_angle_gamma 136.948687
_cell_volume 578.387206
_symmetry_space_group_name_H-M "P -1"
_symmetry_group_IT_number 2
_symmetry_cell_setting 'triclinic'
loop_
_space_group_symop_operation_xyz
x,y,z
-x,-y,-z
loop_
_atom_site_type_symbol
_atom_site_label
_atom_site_fract_x
_atom_site_fract_y
_atom_site_fract_z
Si Si1 0.867501 0.961816 0.674880
Si Si2 0.978427 0.661121 0.747167
Si Si3 0.510248 0.129979 0.166541
Si Si4 0.127795 0.300018 0.677440
Si Si5 0.603796 0.712529 0.420572
Si Si6 0.137098 0.177005 0.884404
Si Si7 0.621735 0.737453 0.007328
O O1 0.905209 0.637795 0.490028
O O2 0.000000 0.000000 0.500000
O O3 0.965712 0.125697 0.740124
O O4 0.648110 0.095800 0.946276
O O5 0.869312 0.788273 0.994400
O O6 0.830435 0.633090 0.796274
O O7 0.109307 0.876494 0.723455
O O8 0.291045 0.152690 0.390981
O O9 0.527115 0.431964 0.344956
O O10 0.604987 0.871215 0.002594
O O11 0.226546 0.317049 0.683487
O O12 0.034730 0.595580 0.877719
O O13 0.680681 0.753236 0.283054
O O14 0.463514 0.992025 0.719581
O O15 0.500000 0.500000 0.000000
#
# Coordination Sequence:
#
# PCOD9057414 Si02
#       7
#     2   2   2   2   2   2   2
#     4  12  25  45  64 100 132 174 226 272 336 398
#     4  11  24  42  63  95 141 169 223 275 336 401
#     4  11  24  42  71  98 131 179 219 278 332 385
#     4  11  22  43  69  97 132 171 228 274 324 404
#     4  11  22  42  69  99 129 176 228 269 329 399
#     4  11  23  41  67  99 131 181 216 279 339 387
#     4  11  25  44  66 101 136 175 226 276 334 400
#
# _framework density 24.205238000000001
#
# number of rings (size 3 to 8) (size 9 to 14) (size 15 to 20)
#    0.000    0.857    2.857    5.571    4.000    1.714 
#    0.000    2.857    0.000    0.000    0.000    0.000 
#    0.000    0.000    0.000    0.000    0.000    0.000 
#
# Total GULP energy -78335.080227 kJ/mol
# GULP energy per Si atom -5595.362873 kJ/mol
# Density = 2.415015 g / cm^3
# Si number density = 24.205238 Si / 1000 Ang^3
#
#
#
# Elastic Constant Matrix: (Units=GPa)
#
#
# Indices 1 2 3 4 5 6 
#
# 1 21.0969 19.7941 4.1094 -3.2324 -10.4339 0.3166
# 2 19.7941 153.0129 30.2725 15.1557 2.1445 13.8250
# 3 4.1094 30.2725 98.1930 0.9533 0.0419 -3.3502
# 4 -3.2324 15.1557 0.9533 56.8133 -8.1820 -1.7576
# 5 -10.4339 2.1445 0.0419 -8.1820 29.8940 -6.4590
# 6 0.3166 13.8250 -3.3502 -1.7576 -6.4590 43.5239
#
#
#
# Elastic Compliance Matrix: (Units=1/GPa)
#
#
# Indices 1 2 3 4 5 6 
#
# 1 0.077639 -0.012781 0.000860 0.012918 0.033506 0.009055
# 2 -0.012781 0.009635 -0.002540 -0.004446 -0.007323 -0.004429
# 3 0.000860 -0.002540 0.010986 0.000753 0.001070 0.001835
# 4 0.012918 -0.004446 0.000753 0.021289 0.011506 0.003943
# 5 0.033506 -0.007323 0.001070 0.011506 0.051023 0.010201
# 6 0.009055 -0.004429 0.001835 0.003943 0.010201 0.026131
#
#
# Mechanical properties :
#
#
# Convention : Reuss Voigt Hill
#
# Bulk Modulus (GPa) = 14.42209 42.29498 28.35853
# Shear Modulus (GPa) = 20.10146 40.58805 30.34475
#
# Velocity S-wave (km/s) = 2.88490 4.09935 3.54452
# Velocity P-wave (km/s) = 4.13135 6.31804 5.33787
#
# Compressibility (1/GPa) = 0.06933809
#
# Stress axis : x y z
#
# Youngs Moduli (GPa) = 12.88005 103.79295 91.02488
#
# Poissons Ratio (x) = 1.32659 -0.07832
# Poissons Ratio (y) = 0.16462 0.23122
# Poissons Ratio (z) = -0.01108 0.26366
#
# Static dielectric constant tensor:
#      x y z
#    x 2.023260 0.017530 0.070200 
#    y 0.017530 1.907910 -0.050960 
#    z 0.070200 -0.050960 1.973530 
# 
# From -- ./inp_files/239887.got.cif
#   From: 2010.05.17/outbox.cif.g08.bks.cpg/sg2_120_cif.got.tgz:239887.got - 2010.06.03 11:33:40.
