data_PCOD9057939
_publ_section_title
;
Structure prediction by ZEFSAII (Michael W. Deem and Ramdas Pophale) SiO2 
 PCOD9057939
Probable space group: P -1
;
_chemical_formula_sum "Si O2"
_cell_formula_units_Z 16
_cell_length_a 20.855424
_cell_length_b 16.926077
_cell_length_c 8.631024
_cell_angle_alpha 143.611145
_cell_angle_beta 35.651106
_cell_angle_gamma 159.797512
_cell_volume 599.477868
_symmetry_space_group_name_H-M "P -1"
_symmetry_group_IT_number 2
_symmetry_cell_setting 'triclinic'
loop_
_space_group_symop_operation_xyz
x,y,z
-x,-y,-z
loop_
_atom_site_type_symbol
_atom_site_label
_atom_site_fract_x
_atom_site_fract_y
_atom_site_fract_z
Si Si1 0.118375 0.962867 0.319170
Si Si2 0.827021 0.278182 0.606236
Si Si3 0.732797 0.548291 0.937222
Si Si4 0.182951 0.774442 0.109645
Si Si5 0.272854 0.521407 0.821978
Si Si6 0.089688 0.037335 0.044759
Si Si7 0.460152 0.873426 0.530333
Si Si8 0.415555 0.412072 0.220261
O O1 0.184255 0.907956 0.213042
O O2 0.948880 0.738696 0.188812
O O3 0.013912 0.967658 0.637808
O O4 0.280097 0.199009 0.275879
O O5 0.837743 0.217946 0.656636
O O6 0.000000 0.500000 0.500000
O O7 0.671272 0.042541 0.439490
O O8 0.733507 0.326486 0.923294
O O9 0.677522 0.380998 0.658486
O O10 0.649144 0.439848 0.100833
O O11 0.960587 0.775480 0.888223
O O12 0.624877 0.568975 0.110918
O O13 0.358260 0.857904 0.837863
O O14 0.000000 0.500000 0.000000
O O15 0.390005 0.545344 0.508580
O O16 0.310612 0.261265 0.027075
O O17 0.000000 0.000000 0.000000
O O18 0.500000 0.000000 0.500000
#
# Coordination Sequence:
#
# PCOD9057939 Si02
#       8
#     2   2   2   2   2   2   2   2
#     4  11  23  45  73 104 141 187 247 302 372 451
#     4  12  28  49  76 108 151 203 252 316 383 448
#     4  12  25  43  76 105 151 191 248 305 378 451
#     4  12  27  47  74 109 148 200 251 310 383 450
#     4  11  22  43  76 102 145 188 247 308 369 447
#     4  11  26  44  70 106 147 190 242 307 369 444
#     4  12  27  46  71 112 150 198 255 310 375 461
#     4  11  24  46  73 110 138 194 250 302 384 442
#
# _framework density 26.689890999999999
#
# number of rings (size 3 to 8) (size 9 to 14) (size 15 to 20)
#    0.000    0.500    5.000    3.000    3.500    1.500 
#    0.000    0.000    0.000    0.000    0.000    0.000 
#    0.000    0.000    0.000    0.000    0.000    0.000 
#
# Total GULP energy -89503.483017 kJ/mol
# GULP energy per Si atom -5593.967689 kJ/mol
# Density = 2.662914 g / cm^3
# Si number density = 26.689891 Si / 1000 Ang^3
#
#
#
# Elastic Constant Matrix: (Units=GPa)
#
#
# Indices 1 2 3 4 5 6 
#
# 1 150.0968 12.0829 24.8355 -7.6942 39.6749 13.2392
# 2 12.0829 133.6106 29.2918 4.5668 12.5962 47.3197
# 3 24.8355 29.2918 132.1566 5.9254 5.7639 16.4438
# 4 -7.6942 4.5668 5.9254 38.9379 1.4648 4.9045
# 5 39.6749 12.5962 5.7639 1.4648 48.0601 4.1337
# 6 13.2392 47.3197 16.4438 4.9045 4.1337 45.6974
#
#
#
# Elastic Compliance Matrix: (Units=1/GPa)
#
#
# Indices 1 2 3 4 5 6 
#
# 1 0.009183 0.001135 -0.001399 0.002546 -0.007537 -0.002924
# 2 0.001135 0.012324 -0.001299 0.000653 -0.002963 -0.012425
# 3 -0.001399 -0.001299 0.008290 -0.001264 0.000639 -0.001155
# 4 0.002546 0.000653 -0.001264 0.026854 -0.002630 -0.003603
# 5 -0.007537 -0.002963 0.000639 -0.002630 0.027567 0.002810
# 6 -0.002924 -0.012425 -0.001155 -0.003603 0.002810 0.036145
#
#
# Mechanical properties :
#
#
# Convention : Reuss Voigt Hill
#
# Bulk Modulus (GPa) = 37.49236 60.92051 49.20643
# Shear Modulus (GPa) = 37.77046 49.84934 43.80990
#
# Velocity S-wave (km/s) = 3.76594 4.32641 4.05587
# Velocity P-wave (km/s) = 5.74349 6.91606 6.35687
#
# Compressibility (1/GPa) = 0.02667210
#
# Stress axis : x y z
#
# Youngs Moduli (GPa) = 108.89602 81.14230 120.62581
#
# Poissons Ratio (x) = -0.09213 0.16875
# Poissons Ratio (y) = -0.12364 0.15669
# Poissons Ratio (z) = 0.15234 0.10540
#
# Static dielectric constant tensor:
#      x y z
#    x 2.151540 0.067310 -0.129200 
#    y 0.067310 2.480060 0.002610 
#    z -0.129200 0.002610 2.065290 
# 
# From -- ./inp_files/348930.got.cif
#   From: 2010.05.17/outbox.cif.g08.bks.cpg/sg2_175_cif.got.tgz:348930.got - 2010.06.03 11:33:40.
