data_PCOD9057203
_publ_section_title
;
Structure prediction by ZEFSAII (Michael W. Deem and Ramdas Pophale) SiO2 
 PCOD9057203
Probable space group: P -1
;
_chemical_formula_sum "Si O2"
_cell_formula_units_Z 15
_cell_length_a 14.422723
_cell_length_b 8.743172
_cell_length_c 10.896826
_cell_angle_alpha 95.149826
_cell_angle_beta 152.502752
_cell_angle_gamma 92.836243
_cell_volume 606.452702
_symmetry_space_group_name_H-M "P -1"
_symmetry_group_IT_number 2
_symmetry_cell_setting 'triclinic'
loop_
_space_group_symop_operation_xyz
x,y,z
-x,-y,-z
loop_
_atom_site_type_symbol
_atom_site_label
_atom_site_fract_x
_atom_site_fract_y
_atom_site_fract_z
Si Si1 0.059332 0.921220 0.942997
Si Si2 0.157240 0.673031 0.539462
Si Si3 0.796628 0.566785 0.618699
Si Si4 0.474575 0.298356 0.872619
Si Si5 0.303132 0.965980 0.572906
Si Si6 0.500000 0.500000 0.500000
Si Si7 0.170929 0.172260 0.737508
Si Si8 0.434461 0.152077 0.290709
O O1 0.978709 0.731757 0.843250
O O2 0.910636 0.983825 0.678459
O O3 0.000000 0.000000 0.000000
O O4 0.293559 0.995752 0.181192
O O5 0.123155 0.563916 0.370729
O O6 0.290815 0.848854 0.663454
O O7 0.953218 0.701124 0.360646
O O8 0.301412 0.616414 0.801638
O O9 0.610961 0.599461 0.318509
O O10 0.693232 0.522173 0.626002
O O11 0.311744 0.239252 0.788981
O O12 0.481209 0.133040 0.803638
O O13 0.346950 0.873757 0.497573
O O14 0.437269 0.305371 0.386051
O O15 0.320640 0.164706 0.027645
O O16 0.000000 0.000000 0.500000
#
# Coordination Sequence:
#
# PCOD9057203 Si02
#       8
#     2   2   2   2   2   1   2   2
#     4  11  24  47  68  97 143 180 233 292 334 410
#     4  12  22  41  71 105 137 182 231 283 356 416
#     4  11  25  45  67 105 144 181 230 294 351 406
#     4  11  23  42  67 102 144 177 227 294 344 421
#     4  11  22  41  73 102 132 187 238 275 348 422
#     4  12  24  46  72  96 144 186 234 288 346 404
#     4  12  22  40  73 103 139 181 230 288 348 420
#     4  12  24  44  72 105 135 190 236 281 350 420
#
# _framework density 24.734000000000002
#
# number of rings (size 3 to 8) (size 9 to 14) (size 15 to 20)
#    0.000    0.533    6.667    2.400    0.000    1.067 
#    2.400    4.667    0.000    0.000    0.000    0.000 
#    0.000    0.000    0.000    0.000    0.000    0.000 
#
# Total GULP energy -83773.679313 kJ/mol
# GULP energy per Si atom -5584.911954 kJ/mol
# Density = 2.467770 g / cm^3
# Si number density = 24.734000 Si / 1000 Ang^3
#
#
#
# Elastic Constant Matrix: (Units=GPa)
#
#
# Indices 1 2 3 4 5 6 
#
# 1 111.7120 37.1024 12.0475 -4.7400 16.6930 -28.9122
# 2 37.1024 95.8647 27.9577 28.6515 7.6114 -26.1187
# 3 12.0475 27.9577 53.1366 -4.8696 8.2124 0.0728
# 4 -4.7400 28.6515 -4.8696 22.1419 -2.5202 -5.4017
# 5 16.6930 7.6114 8.2124 -2.5202 36.1975 5.9466
# 6 -28.9122 -26.1187 0.0728 -5.4017 5.9466 56.3580
#
#
#
# Elastic Compliance Matrix: (Units=1/GPa)
#
#
# Indices 1 2 3 4 5 6 
#
# 1 0.015145 -0.011792 0.005411 0.020275 -0.005106 0.004780
# 2 -0.011792 0.044419 -0.025969 -0.064001 -0.003920 0.008850
# 3 0.005411 -0.025969 0.035231 0.041086 -0.001308 -0.005229
# 4 0.020275 -0.064001 0.041086 0.140424 0.005622 -0.006447
# 5 -0.005106 -0.003920 -0.001308 0.005622 0.032700 -0.007346
# 6 0.004780 0.008850 -0.005229 -0.006447 -0.007346 0.024461
#
#
# Mechanical properties :
#
#
# Convention : Reuss Voigt Hill
#
# Bulk Modulus (GPa) = 33.22762 46.10317 39.66539
# Shear Modulus (GPa) = 13.61984 35.17985 24.39985
#
# Velocity S-wave (km/s) = 2.34914 3.77547 3.14425
# Velocity P-wave (km/s) = 4.56302 6.13886 5.40864
#
# Compressibility (1/GPa) = 0.03009545
#
# Stress axis : x y z
#
# Youngs Moduli (GPa) = 66.03012 22.51272 28.38425
#
# Poissons Ratio (x) = 0.26546 -0.15359
# Poissons Ratio (y) = 0.77860 0.73712
# Poissons Ratio (z) = -0.35730 0.58464
#
# Static dielectric constant tensor:
#      x y z
#    x 1.919500 0.011800 -0.060840 
#    y 0.011800 1.964350 -0.035320 
#    z -0.060840 -0.035320 2.027810 
# 
# From -- ./inp_files/447717.got.cif
#   From: 2010.05.17/outbox.cif.g08.bks.cpg/sg2_224_cif.got.tgz:447717.got - 2010.06.03 11:33:40.
