data_PCOD9057345
_publ_section_title
;
Structure prediction by ZEFSAII (Michael W. Deem and Ramdas Pophale) SiO2 
 PCOD9057345
Probable space group: P -1
;
_chemical_formula_sum "Si O2"
_cell_formula_units_Z 16
_cell_length_a 10.871441
_cell_length_b 14.393735
_cell_length_c 8.312149
_cell_angle_alpha 62.568659
_cell_angle_beta 104.416704
_cell_angle_gamma 54.953093
_cell_volume 668.677036
_symmetry_space_group_name_H-M "P -1"
_symmetry_group_IT_number 2
_symmetry_cell_setting 'triclinic'
loop_
_space_group_symop_operation_xyz
x,y,z
-x,-y,-z
loop_
_atom_site_type_symbol
_atom_site_label
_atom_site_fract_x
_atom_site_fract_y
_atom_site_fract_z
Si Si1 0.156208 0.231428 0.143363
Si Si2 0.131789 0.114338 0.767515
Si Si3 0.562371 0.646491 0.932182
Si Si4 0.139263 0.514586 0.533685
Si Si5 0.711486 0.600916 0.675125
Si Si6 0.157709 0.835169 0.566803
Si Si7 0.421240 0.966039 0.710538
Si Si8 0.755068 0.041331 0.750348
O O1 0.347446 0.144308 0.163724
O O2 0.252813 0.150934 0.416298
O O3 0.115225 0.139215 0.146698
O O4 0.967479 0.439370 0.905475
O O5 0.031383 0.280684 0.684548
O O6 0.965641 0.183345 0.525039
O O7 0.348897 0.001332 0.840281
O O8 0.173766 0.001598 0.007681
O O9 0.671700 0.562728 0.859801
O O10 0.380435 0.678760 0.858013
O O11 0.427606 0.844932 0.734971
O O12 0.720785 0.559310 0.201438
O O13 0.284838 0.431330 0.487873
O O14 0.000000 0.500000 0.500000
O O15 0.500633 0.812684 0.446476
O O16 0.207489 0.875442 0.396274
O O17 0.000000 0.000000 0.500000
#
# Coordination Sequence:
#
# PCOD9057345 Si02
#       8
#     2   2   2   2   2   2   2   2
#     4  11  22  42  68 105 143 192 246 297 381 442
#     4  12  25  46  72 106 152 200 251 309 375 443
#     4  11  24  46  72 107 146 193 250 307 371 442
#     4  12  28  45  72 113 152 199 249 310 381 446
#     4  11  24  45  70 105 152 190 242 308 370 448
#     4  11  23  47  76 103 143 202 253 305 375 445
#     4  11  23  41  70 106 141 196 248 300 373 451
#     4  11  24  45  70 107 143 191 248 308 371 444
#
# _framework density 23.927844
#
# number of rings (size 3 to 8) (size 9 to 14) (size 15 to 20)
#    0.000    0.750    5.000    2.625    1.750    3.000 
#    0.000    3.750    0.000    0.000    0.000    0.000 
#    0.000    0.000    0.000    0.000    0.000    0.000 
#
# Total GULP energy -89259.625813 kJ/mol
# GULP energy per Si atom -5578.726613 kJ/mol
# Density = 2.387338 g / cm^3
# Si number density = 23.927844 Si / 1000 Ang^3
#
#
#
# Elastic Constant Matrix: (Units=GPa)
#
#
# Indices 1 2 3 4 5 6 
#
# 1 62.4403 26.7208 32.6925 -2.0333 5.6735 -11.8124
# 2 26.7208 118.1959 22.6249 -1.5216 -7.5649 -25.2115
# 3 32.6925 22.6249 126.6879 14.8311 11.7038 -3.3177
# 4 -2.0333 -1.5216 14.8311 41.3935 -2.4771 -7.7507
# 5 5.6735 -7.5649 11.7038 -2.4771 28.2081 3.5676
# 6 -11.8124 -25.2115 -3.3177 -7.7507 3.5676 47.2043
#
#
#
# Elastic Compliance Matrix: (Units=1/GPa)
#
#
# Indices 1 2 3 4 5 6 
#
# 1 0.021061 -0.003146 -0.004838 0.003209 -0.003300 0.004026
# 2 -0.003146 0.010777 -0.001555 0.001938 0.003719 0.004896
# 3 -0.004838 -0.001555 0.010262 -0.004535 -0.003876 -0.001772
# 4 0.003209 0.001938 -0.004535 0.027292 0.003427 0.005742
# 5 -0.003300 0.003719 -0.003876 0.003427 0.039212 -0.001513
# 6 0.004026 0.004896 -0.001772 0.005742 -0.001513 0.025740
#
#
# Mechanical properties :
#
#
# Convention : Reuss Voigt Hill
#
# Bulk Modulus (GPa) = 43.43867 52.37783 47.90825
# Shear Modulus (GPa) = 31.03714 38.38025 34.70870
#
# Velocity S-wave (km/s) = 3.60545 4.00934 3.81275
# Velocity P-wave (km/s) = 5.96036 6.58563 6.28078
#
# Compressibility (1/GPa) = 0.02302096
#
# Stress axis : x y z
#
# Youngs Moduli (GPa) = 47.48121 92.79151 97.44387
#
# Poissons Ratio (x) = 0.29194 0.47147
# Poissons Ratio (y) = 0.14939 0.15152
# Poissons Ratio (z) = 0.22973 0.14429
#
# Static dielectric constant tensor:
#      x y z
#    x 1.944750 0.028010 0.003000 
#    y 0.028010 1.922480 0.041340 
#    z 0.003000 0.041340 2.027700 
# 
# From -- ./inp_files/272606.got.cif
#   From: 2010.05.17/outbox.cif.g08.bks.cpg/sg2_137_cif.got.tgz:272606.got - 2010.06.03 11:33:40.
