data_PCOD9057836
_publ_section_title
;
Structure prediction by ZEFSAII (Michael W. Deem and Ramdas Pophale) SiO2 
 PCOD9057836
Probable space group: P -1
;
_chemical_formula_sum "Si O2"
_cell_formula_units_Z 16
_cell_length_a 15.709117
_cell_length_b 9.076860
_cell_length_c 11.772797
_cell_angle_alpha 101.693687
_cell_angle_beta 110.854157
_cell_angle_gamma 26.288032
_cell_volume 666.664740
_symmetry_space_group_name_H-M "P -1"
_symmetry_group_IT_number 2
_symmetry_cell_setting 'triclinic'
loop_
_space_group_symop_operation_xyz
x,y,z
-x,-y,-z
loop_
_atom_site_type_symbol
_atom_site_label
_atom_site_fract_x
_atom_site_fract_y
_atom_site_fract_z
Si Si1 0.067158 0.073772 0.027930
Si Si2 0.376199 0.117188 0.116229
Si Si3 0.822633 0.609422 0.711906
Si Si4 0.680695 0.928735 0.244986
Si Si5 0.246451 0.013986 0.923130
Si Si6 0.408416 0.864385 0.506000
Si Si7 0.906916 0.879423 0.700041
Si Si8 0.102121 0.826163 0.399817
O O1 0.147142 0.012637 0.177814
O O2 0.219344 0.905867 0.971781
O O3 0.845284 0.484036 0.964376
O O4 0.000000 0.000000 0.000000
O O5 0.369406 0.123393 0.250871
O O6 0.548143 0.984263 0.143486
O O7 0.372880 0.953005 0.043028
O O8 0.930080 0.291599 0.683436
O O9 0.002755 0.424394 0.843051
O O10 0.731719 0.812746 0.585693
O O11 0.662426 0.098814 0.178510
O O12 0.913474 0.512143 0.295141
O O13 0.609839 0.078105 0.360105
O O14 0.647232 0.527477 0.529788
O O15 0.298723 0.871128 0.423308
O O16 0.981481 0.924342 0.687707
O O17 0.000000 0.000000 0.500000
#
# Coordination Sequence:
#
# PCOD9057836 Si02
#       8
#     2   2   2   2   2   2   2   2
#     4  11  24  46  72 100 146 189 236 295 361 417
#     4  11  22  43  72 104 141 183 240 294 347 412
#     4  11  22  45  73 101 137 187 238 290 353 421
#     4  12  25  41  75 105 147 184 247 293 346 427
#     4  11  23  43  73 106 136 185 243 288 345 429
#     4  12  25  47  71 103 140 191 237 295 356 425
#     4  12  25  46  70 104 143 187 233 295 361 419
#     4  12  28  45  68 104 146 181 234 296 365 425
#
# _framework density 24.000071999999999
#
# number of rings (size 3 to 8) (size 9 to 14) (size 15 to 20)
#    0.000    0.500    3.750    6.000    3.500    0.000 
#    0.000    0.625    0.000    0.000    0.000    0.000 
#    0.000    0.000    0.000    0.000    0.000    0.000 
#
# Total GULP energy -89463.307375 kJ/mol
# GULP energy per Si atom -5591.456711 kJ/mol
# Density = 2.394545 g / cm^3
# Si number density = 24.000072 Si / 1000 Ang^3
#
#
#
# Elastic Constant Matrix: (Units=GPa)
#
#
# Indices 1 2 3 4 5 6 
#
# 1 166.3958 35.6437 67.1432 10.9268 -19.9980 -5.6250
# 2 35.6437 68.1477 43.8427 13.0836 -6.7920 -7.9279
# 3 67.1432 43.8427 138.5481 20.3263 -14.2400 -14.3289
# 4 10.9268 13.0836 20.3263 27.0886 -8.5122 -5.4225
# 5 -19.9980 -6.7920 -14.2400 -8.5122 60.5102 -5.5487
# 6 -5.6250 -7.9279 -14.3289 -5.4225 -5.5487 40.5752
#
#
#
# Elastic Compliance Matrix: (Units=1/GPa)
#
#
# Indices 1 2 3 4 5 6 
#
# 1 0.007861 -0.002100 -0.003075 0.000678 0.001726 -0.000080
# 2 -0.002100 0.019696 -0.004328 -0.005188 -0.000111 0.001320
# 3 -0.003075 -0.004328 0.010996 -0.004280 0.000679 0.002132
# 4 0.000678 -0.005188 -0.004280 0.044900 0.005345 0.004300
# 5 0.001726 -0.000111 0.000679 0.005345 0.018333 0.003679
# 6 -0.000080 0.001320 0.002132 0.004300 0.003679 0.026723
#
#
# Mechanical properties :
#
#
# Convention : Reuss Voigt Hill
#
# Bulk Modulus (GPa) = 51.16479 74.03897 62.60188
# Shear Modulus (GPa) = 32.46077 40.73228 36.59652
#
# Velocity S-wave (km/s) = 3.68166 4.12415 3.90917
# Velocity P-wave (km/s) = 6.27995 7.32083 6.82027
#
# Compressibility (1/GPa) = 0.01954469
#
# Stress axis : x y z
#
# Youngs Moduli (GPa) = 127.21275 50.77183 90.94375
#
# Poissons Ratio (x) = 0.10665 0.27966
# Poissons Ratio (y) = 0.26721 0.39364
# Poissons Ratio (z) = 0.39119 0.21976
#
# Static dielectric constant tensor:
#      x y z
#    x 2.047220 0.009760 0.000870 
#    y 0.009760 1.918450 0.012070 
#    z 0.000870 0.012070 1.897270 
# 
# From -- ./inp_files/447663.got.cif
#   From: 2010.05.17/outbox.cif.g08.bks.cpg/sg2_224_cif.got.tgz:447663.got - 2010.06.03 11:33:40.
