data_PCOD9057875
_publ_section_title
;
Structure prediction by ZEFSAII (Michael W. Deem and Ramdas Pophale) SiO2 
 PCOD9057875
Probable space group: P -1
;
_chemical_formula_sum "Si O2"
_cell_formula_units_Z 16
_cell_length_a 9.210194
_cell_length_b 12.526430
_cell_length_c 11.583607
_cell_angle_alpha 132.992060
_cell_angle_beta 124.235963
_cell_angle_gamma 49.084261
_cell_volume 722.233592
_symmetry_space_group_name_H-M "P -1"
_symmetry_group_IT_number 2
_symmetry_cell_setting 'triclinic'
loop_
_space_group_symop_operation_xyz
x,y,z
-x,-y,-z
loop_
_atom_site_type_symbol
_atom_site_label
_atom_site_fract_x
_atom_site_fract_y
_atom_site_fract_z
Si Si1 0.281506 0.299104 0.943544
Si Si2 0.991179 0.913160 0.050400
Si Si3 0.326346 0.368532 0.610063
Si Si4 0.930494 0.649956 0.702884
Si Si5 0.666200 0.023361 0.165302
Si Si6 0.600810 0.339004 0.505462
Si Si7 0.110534 0.540257 0.251717
Si Si8 0.555646 0.307016 0.887146
O O1 0.482088 0.267676 0.946229
O O2 0.104849 0.407027 0.857510
O O3 0.259212 0.136485 0.838986
O O4 0.251436 0.399698 0.122699
O O5 0.214206 0.805259 0.111869
O O6 0.839852 0.020483 0.159144
O O7 0.905554 0.789669 0.882054
O O8 0.000000 0.000000 0.000000
O O9 0.207127 0.292147 0.427375
O O10 0.490591 0.369994 0.600460
O O11 0.428427 0.282623 0.709787
O O12 0.157356 0.550941 0.694903
O O13 0.882434 0.524802 0.663963
O O14 0.590328 0.187215 0.326630
O O15 0.500000 0.000000 0.000000
O O16 0.500000 0.500000 0.500000
O O17 0.819036 0.319568 0.610738
O O18 0.500000 0.500000 0.000000
#
# Coordination Sequence:
#
# PCOD9057875 Si02
#       8
#     2   2   2   2   2   2   2   2
#     4  11  24  44  72 103 144 190 234 302 364 428
#     4  12  27  46  73 107 145 193 246 301 368 437
#     4  11  24  41  72 101 143 180 240 294 356 429
#     4  11  22  45  71 106 141 189 239 296 364 435
#     4  12  27  48  71 103 148 187 241 306 368 431
#     4  12  26  43  71 103 135 189 243 296 355 435
#     4  11  22  43  73 103 140 187 245 289 362 435
#     4  12  24  46  74 109 145 193 246 296 360 443
#
# _framework density 22.153497999999999
#
# number of rings (size 3 to 8) (size 9 to 14) (size 15 to 20)
#    0.000    0.500    5.000    3.000    5.250    0.500 
#    0.000    1.250    0.000    0.000    0.000    0.000 
#    0.000    0.000    0.000    0.000    0.000    0.000 
#
# Total GULP energy -89501.840267 kJ/mol
# GULP energy per Si atom -5593.865017 kJ/mol
# Density = 2.210308 g / cm^3
# Si number density = 22.153498 Si / 1000 Ang^3
#
#
#
# Elastic Constant Matrix: (Units=GPa)
#
#
# Indices 1 2 3 4 5 6 
#
# 1 133.8556 20.2162 13.2572 3.8438 -19.1201 3.9144
# 2 20.2162 63.8607 17.9307 -11.8829 -4.8419 -0.9924
# 3 13.2572 17.9307 89.6264 -6.1647 -1.7150 -5.4703
# 4 3.8438 -11.8829 -6.1647 34.3012 -1.7764 8.0730
# 5 -19.1201 -4.8419 -1.7150 -1.7764 37.6781 -4.5206
# 6 3.9144 -0.9924 -5.4703 8.0730 -4.5206 31.5516
#
#
#
# Elastic Compliance Matrix: (Units=1/GPa)
#
#
# Indices 1 2 3 4 5 6 
#
# 1 0.008539 -0.002500 -0.000824 -0.001703 0.003859 -0.000292
# 2 -0.002500 0.018557 -0.002941 0.006502 0.001155 -0.001114
# 3 -0.000824 -0.002941 0.012038 0.000791 0.000017 0.001897
# 4 -0.001703 0.006502 0.000791 0.033647 0.000638 -0.007965
# 5 0.003859 0.001155 0.000017 0.000638 0.029106 0.003567
# 6 -0.000292 -0.001114 0.001897 -0.007965 0.003567 0.034573
#
#
# Mechanical properties :
#
#
# Convention : Reuss Voigt Hill
#
# Bulk Modulus (GPa) = 37.59075 43.35009 40.47042
# Shear Modulus (GPa) = 31.67401 36.43540 34.05471
#
# Velocity S-wave (km/s) = 3.78531 4.05986 3.92499
# Velocity P-wave (km/s) = 6.00915 6.44881 6.23286
#
# Compressibility (1/GPa) = 0.02660229
#
# Stress axis : x y z
#
# Youngs Moduli (GPa) = 117.11495 53.88908 83.06864
#
# Poissons Ratio (x) = 0.13475 0.06844
# Poissons Ratio (y) = 0.29284 0.24433
# Poissons Ratio (z) = 0.09649 0.15850
#
# Static dielectric constant tensor:
#      x y z
#    x 2.134280 0.166050 0.014010 
#    y 0.166050 1.967950 -0.039160 
#    z 0.014010 -0.039160 1.826670 
# 
# From -- ./inp_files/393189.got.cif
#   From: 2010.05.17/outbox.cif.g08.bks.cpg/sg2_197_cif.got.tgz:393189.got - 2010.06.03 11:33:40.
