data_PCOD9057992
_publ_section_title
;
Structure prediction by ZEFSAII (Michael W. Deem and Ramdas Pophale) SiO2 
 PCOD9057992
Probable space group: P -1
;
_chemical_formula_sum "Si O2"
_cell_formula_units_Z 16
_cell_length_a 10.155078
_cell_length_b 14.914243
_cell_length_c 11.560717
_cell_angle_alpha 57.439735
_cell_angle_beta 113.577444
_cell_angle_gamma 64.958781
_cell_volume 761.149879
_symmetry_space_group_name_H-M "P -1"
_symmetry_group_IT_number 2
_symmetry_cell_setting 'triclinic'
loop_
_space_group_symop_operation_xyz
x,y,z
-x,-y,-z
loop_
_atom_site_type_symbol
_atom_site_label
_atom_site_fract_x
_atom_site_fract_y
_atom_site_fract_z
Si Si1 0.025668 0.840078 0.500399
Si Si2 0.693376 0.556068 0.653895
Si Si3 0.899274 0.160241 0.220384
Si Si4 0.472447 0.854780 0.550251
Si Si5 0.752827 0.585953 0.398422
Si Si6 0.589360 0.459443 0.351231
Si Si7 0.532761 0.065268 0.067202
Si Si8 0.720320 0.821730 0.862205
O O1 0.122997 0.765116 0.716740
O O2 0.249171 0.695346 0.586087
O O3 0.892209 0.037550 0.320985
O O4 0.808042 0.893312 0.343644
O O5 0.597649 0.687186 0.634136
O O6 0.712830 0.611346 0.504423
O O7 0.496379 0.578146 0.561664
O O8 0.979287 0.341557 0.930387
O O9 0.672979 0.335683 0.936954
O O10 0.182883 0.006864 0.378920
O O11 0.633597 0.780990 0.773561
O O12 0.447658 0.975796 0.379446
O O13 0.747426 0.464263 0.448865
O O14 0.000000 0.500000 0.500000
O O15 0.521386 0.788576 0.113564
O O16 0.337176 0.168199 0.032074
O O17 0.500000 0.000000 0.000000
#
# Coordination Sequence:
#
# PCOD9057992 Si02
#       8
#     2   2   2   2   2   2   2   2
#     4  11  24  43  70  99 137 181 227 283 344 410
#     4  12  25  45  70 102 139 184 228 286 347 408
#     4  11  22  44  68 100 140 175 229 284 341 413
#     4  11  23  44  68 104 136 180 230 281 349 413
#     4  12  26  47  67 100 141 182 236 282 339 422
#     4  12  25  45  70 105 136 181 230 287 353 409
#     4  12  24  45  70 101 138 185 233 283 344 410
#     4  11  24  44  70 100 142 178 229 290 339 412
#
# _framework density 21.020827000000001
#
# number of rings (size 3 to 8) (size 9 to 14) (size 15 to 20)
#    0.000    0.500    6.250    2.625    0.000    0.000 
#    2.250    1.250    0.000    0.000    0.000    0.000 
#    0.000    0.000    0.000    0.000    0.000    0.000 
#
# Total GULP energy -89433.154803 kJ/mol
# GULP energy per Si atom -5589.572175 kJ/mol
# Density = 2.097298 g / cm^3
# Si number density = 21.020827 Si / 1000 Ang^3
#
#
#
# Elastic Constant Matrix: (Units=GPa)
#
#
# Indices 1 2 3 4 5 6 
#
# 1 113.1576 56.8256 16.9082 9.5246 16.1213 -4.8798
# 2 56.8256 140.5843 14.2849 12.6654 7.1086 -4.4343
# 3 16.9082 14.2849 33.5110 5.5661 10.0892 -4.6944
# 4 9.5246 12.6654 5.5661 30.9717 -0.7758 5.7205
# 5 16.1213 7.1086 10.0892 -0.7758 34.2168 -2.3374
# 6 -4.8798 -4.4343 -4.6944 5.7205 -2.3374 34.6420
#
#
#
# Elastic Compliance Matrix: (Units=1/GPa)
#
#
# Indices 1 2 3 4 5 6 
#
# 1 0.012125 -0.004240 -0.002692 -0.001764 -0.004022 0.000820
# 2 -0.004240 0.009181 -0.001430 -0.002329 0.000514 0.000804
# 3 -0.002692 -0.001430 0.036191 -0.006195 -0.008921 0.004763
# 4 -0.001764 -0.002329 -0.006195 0.036303 0.003476 -0.007146
# 5 -0.004022 0.000514 -0.008921 0.003476 0.033723 -0.000008
# 6 0.000820 0.000804 0.004763 -0.007146 -0.000008 0.030910
#
#
# Mechanical properties :
#
#
# Convention : Reuss Voigt Hill
#
# Bulk Modulus (GPa) = 24.52490 51.47671 38.00081
# Shear Modulus (GPa) = 26.49048 33.24835 29.86942
#
# Velocity S-wave (km/s) = 3.55378 3.98136 3.77363
# Velocity P-wave (km/s) = 5.34148 6.75844 6.09130
#
# Compressibility (1/GPa) = 0.04077488
#
# Stress axis : x y z
#
# Youngs Moduli (GPa) = 82.47187 108.91645 27.63140
#
# Poissons Ratio (x) = 0.46175 0.07438
# Poissons Ratio (y) = 0.34964 0.03951
# Poissons Ratio (z) = 0.22200 0.15574
#
# Static dielectric constant tensor:
#      x y z
#    x 1.793930 0.024850 -0.001230 
#    y 0.024850 1.739230 0.010660 
#    z -0.001230 0.010660 1.743180 
# 
# From -- ./inp_files/398619.got.cif
#   From: 2010.05.17/outbox.cif.g08.bks.cpg/sg2_200_cif.got.tgz:398619.got - 2010.06.03 11:33:40.
