data_PCOD9057290
_publ_section_title
;
Structure prediction by ZEFSAII (Michael W. Deem and Ramdas Pophale) SiO2 
 PCOD9057290
Probable space group: P -1
;
_chemical_formula_sum "Si O2"
_cell_formula_units_Z 16
_cell_length_a 9.302076
_cell_length_b 22.111929
_cell_length_c 9.999475
_cell_angle_alpha 55.828946
_cell_angle_beta 126.561039
_cell_angle_gamma 151.979970
_cell_volume 772.591356
_symmetry_space_group_name_H-M "P -1"
_symmetry_group_IT_number 2
_symmetry_cell_setting 'triclinic'
loop_
_space_group_symop_operation_xyz
x,y,z
-x,-y,-z
loop_
_atom_site_type_symbol
_atom_site_label
_atom_site_fract_x
_atom_site_fract_y
_atom_site_fract_z
Si Si1 0.732179 0.445635 0.512589
Si Si2 0.141870 0.337797 0.694653
Si Si3 0.198711 0.756476 0.657383
Si Si4 0.809999 0.850564 0.491760
Si Si5 0.841092 0.907695 0.731740
Si Si6 0.211151 0.521398 0.185719
Si Si7 0.801771 0.106861 0.937329
Si Si8 0.600864 0.045096 0.345883
O O1 0.744865 0.538970 0.382678
O O2 0.416234 0.292048 0.497682
O O3 0.792472 0.453578 0.693758
O O4 0.000000 0.500000 0.500000
O O5 0.434007 0.380155 0.783775
O O6 0.928324 0.261252 0.536623
O O7 0.940903 0.235179 0.832432
O O8 0.556582 0.848629 0.727358
O O9 0.191929 0.812929 0.700444
O O10 0.967188 0.614920 0.742913
O O11 0.713084 0.848791 0.584205
O O12 0.167570 0.940384 0.592243
O O13 0.863625 0.936586 0.313869
O O14 0.946331 0.866408 0.902498
O O15 0.000000 0.500000 0.000000
O O16 0.681804 0.041734 0.805489
O O17 0.500000 0.000000 0.000000
O O18 0.500000 0.000000 0.500000
#
# Coordination Sequence:
#
# PCOD9057290 Si02
#       8
#     2   2   2   2   2   2   2   2
#     4  11  25  42  71  97 130 179 227 268 325 411
#     4  11  23  45  69  95 135 179 221 270 336 403
#     4  11  22  42  68  97 130 173 224 263 337 390
#     4  11  22  42  66  94 130 173 224 259 339 390
#     4  11  24  40  67  97 134 172 212 285 324 393
#     4  11  24  44  68  97 138 175 216 278 333 396
#     4  12  26  43  67  99 137 173 222 277 342 381
#     4  12  22  41  67  97 126 172 215 273 321 404
#
# _framework density 20.709526
#
# number of rings (size 3 to 8) (size 9 to 14) (size 15 to 20)
#    0.000    0.750    3.750    5.250    3.500    1.500 
#    0.000    1.250    0.000    0.000    0.000    0.000 
#    0.000    0.000    0.000    0.000    0.000    0.000 
#
# Total GULP energy -89327.603909 kJ/mol
# GULP energy per Si atom -5582.975244 kJ/mol
# Density = 2.066239 g / cm^3
# Si number density = 20.709526 Si / 1000 Ang^3
#
#
#
# Elastic Constant Matrix: (Units=GPa)
#
#
# Indices 1 2 3 4 5 6 
#
# 1 84.3256 5.9322 19.2071 6.5983 2.5712 4.0850
# 2 5.9322 104.8298 37.0285 -9.4224 0.9543 -14.8324
# 3 19.2071 37.0285 95.6737 -11.7064 13.0155 6.9036
# 4 6.5983 -9.4224 -11.7064 27.5178 2.4583 -0.5975
# 5 2.5712 0.9543 13.0155 2.4583 31.0058 1.4387
# 6 4.0850 -14.8324 6.9036 -0.5975 1.4387 39.5703
#
#
#
# Elastic Compliance Matrix: (Units=1/GPa)
#
#
# Indices 1 2 3 4 5 6 
#
# 1 0.012965 -0.000189 -0.003107 -0.004573 0.000642 -0.000959
# 2 -0.000189 0.012282 -0.005034 0.002109 0.001329 0.005485
# 3 -0.003107 -0.005034 0.014841 0.005796 -0.006098 -0.003846
# 4 -0.004573 0.002109 0.005796 0.041133 -0.005430 0.001070
# 5 0.000642 0.001329 -0.006098 -0.005430 0.035142 0.000136
# 6 -0.000959 0.005485 -0.003846 0.001070 0.000136 0.028109
#
#
# Mechanical properties :
#
#
# Convention : Reuss Voigt Hill
#
# Bulk Modulus (GPa) = 42.68625 45.46274 44.07449
# Shear Modulus (GPa) = 29.59639 34.46286 32.02963
#
# Velocity S-wave (km/s) = 3.78447 4.08377 3.93697
# Velocity P-wave (km/s) = 6.30499 6.65105 6.48033
#
# Compressibility (1/GPa) = 0.02342675
#
# Stress axis : x y z
#
# Youngs Moduli (GPa) = 77.13298 81.42255 67.38256
#
# Poissons Ratio (x) = 0.01536 0.20939
# Poissons Ratio (y) = 0.01455 0.33920
# Poissons Ratio (z) = 0.23969 0.40987
#
# Static dielectric constant tensor:
#      x y z
#    x 1.836250 0.051810 0.201150 
#    y 0.051810 1.844370 0.104420 
#    z 0.201150 0.104420 2.185750 
# 
# From -- ./inp_files/223488.got.cif
#   From: 2010.05.17/outbox.cif.g08.bks.cpg/sg2_112_cif.got.tgz:223488.got - 2010.06.03 11:33:40.
