data_PCOD9057080
_publ_section_title
;
Structure prediction by ZEFSAII (Michael W. Deem and Ramdas Pophale) SiO2 
 PCOD9057080
Probable space group: P -1
;
_chemical_formula_sum "Si O2"
_cell_formula_units_Z 16
_cell_length_a 11.449640
_cell_length_b 13.113879
_cell_length_c 9.227687
_cell_angle_alpha 46.744355
_cell_angle_beta 58.887769
_cell_angle_gamma 42.002274
_cell_volume 675.160401
_symmetry_space_group_name_H-M "P -1"
_symmetry_group_IT_number 2
_symmetry_cell_setting 'triclinic'
loop_
_space_group_symop_operation_xyz
x,y,z
-x,-y,-z
loop_
_atom_site_type_symbol
_atom_site_label
_atom_site_fract_x
_atom_site_fract_y
_atom_site_fract_z
Si Si1 0.301810 0.799749 0.155787
Si Si2 0.879175 0.373046 0.562178
Si Si3 0.583063 0.736961 0.547231
Si Si4 0.036005 0.639163 0.821178
Si Si5 0.638884 0.533516 0.003465
Si Si6 0.753672 0.160301 0.247636
Si Si7 0.767961 0.899587 0.263033
Si Si8 0.893432 0.986516 0.704152
O O1 0.183108 0.743760 0.243701
O O2 0.478491 0.661407 0.091291
O O3 0.279654 0.820836 0.322858
O O4 0.241745 0.999180 0.971669
O O5 0.719534 0.576694 0.506637
O O6 0.929100 0.350532 0.381285
O O7 0.049956 0.292117 0.629194
O O8 0.382866 0.818481 0.568840
O O9 0.617789 0.880183 0.381605
O O10 0.632673 0.648684 0.763791
O O11 0.198554 0.564363 0.895453
O O12 0.886201 0.834857 0.794218
O O13 0.000000 0.500000 0.000000
O O14 0.658734 0.368307 0.078550
O O15 0.953125 0.081441 0.209643
O O16 0.752763 0.034101 0.258329
O O17 0.000000 0.000000 0.500000
#
# Coordination Sequence:
#
# PCOD9057080 Si02
#       8
#     2   2   2   2   2   2   2   2
#     4  12  24  42  67  97 133 169 230 262 334 389
#     4  12  25  44  69  96 136 178 220 275 329 401
#     4  12  25  42  65 103 138 170 222 274 340 384
#     4  11  26  47  69  97 134 175 223 272 336 393
#     4  11  25  44  70  98 135 179 217 274 329 402
#     4  11  22  41  69  93 133 175 216 273 324 396
#     4  12  25  40  66 102 136 171 220 280 330 385
#     4  11  24  44  68  95 129 180 224 270 327 399
#
# _framework density 23.698072
#
# number of rings (size 3 to 8) (size 9 to 14) (size 15 to 20)
#    0.000    0.500    5.000    3.000    5.250    1.500 
#    0.000    0.625    0.000    0.000    0.000    0.000 
#    0.000    0.000    0.000    0.000    0.000    0.000 
#
# Total GULP energy -89230.995549 kJ/mol
# GULP energy per Si atom -5576.937222 kJ/mol
# Density = 2.364413 g / cm^3
# Si number density = 23.698072 Si / 1000 Ang^3
#
#
#
# Elastic Constant Matrix: (Units=GPa)
#
#
# Indices 1 2 3 4 5 6 
#
# 1 21.5018 0.5642 21.9922 -5.5719 -16.4818 2.0707
# 2 0.5642 134.9798 -11.5847 9.8405 -15.5635 7.1919
# 3 21.9922 -11.5847 71.0028 -13.6827 -31.9823 2.5540
# 4 -5.5719 9.8405 -13.6827 40.0892 10.6451 -8.0399
# 5 -16.4818 -15.5635 -31.9823 10.6451 40.0666 -8.3455
# 6 2.0707 7.1919 2.5540 -8.0399 -8.3455 25.8235
#
#
#
# Elastic Compliance Matrix: (Units=1/GPa)
#
#
# Indices 1 2 3 4 5 6 
#
# 1 0.077047 0.000699 -0.014372 0.000503 0.020759 0.001914
# 2 0.000699 0.008918 0.004103 -0.002977 0.007517 -0.001443
# 3 -0.014372 0.004103 0.027570 0.002432 0.017836 0.003804
# 4 0.000503 -0.002977 0.002432 0.029572 -0.005181 0.008081
# 5 0.020759 0.007517 0.017836 -0.005181 0.054193 0.010378
# 6 0.001914 -0.001443 0.003804 0.008081 0.010378 0.044467
#
#
# Mechanical properties :
#
#
# Convention : Reuss Voigt Hill
#
# Bulk Modulus (GPa) = 10.59349 27.71420 19.15384
# Shear Modulus (GPa) = 17.10148 35.63002 26.36575
#
# Velocity S-wave (km/s) = 2.68925 3.88170 3.33914
# Velocity P-wave (km/s) = 3.75801 5.64006 4.79233
#
# Compressibility (1/GPa) = 0.09439760
#
# Stress axis : x y z
#
# Youngs Moduli (GPa) = 12.97902 112.12740 36.27072
#
# Poissons Ratio (x) = -0.07842 0.52127
# Poissons Ratio (y) = -0.00908 -0.14881
# Poissons Ratio (z) = 0.18653 -0.46003
#
# Static dielectric constant tensor:
#      x y z
#    x 1.943950 0.041090 0.103060 
#    y 0.041090 2.016060 0.110900 
#    z 0.103060 0.110900 2.097660 
# 
# From -- ./inp_files/261491.got.cif
#   From: 2010.05.17/outbox.cif.g08.bks.cpg/sg2_131_cif.got.tgz:261491.got - 2010.06.03 11:33:40.
