data_PCOD9057386
_publ_section_title
;
Structure prediction by ZEFSAII (Michael W. Deem and Ramdas Pophale) SiO2 
 PCOD9057386
Probable space group: P -1
;
_chemical_formula_sum "Si O2"
_cell_formula_units_Z 14
_cell_length_a 8.191363
_cell_length_b 10.952379
_cell_length_c 10.962712
_cell_angle_alpha 63.728756
_cell_angle_beta 70.383665
_cell_angle_gamma 40.609124
_cell_volume 574.043726
_symmetry_space_group_name_H-M "P -1"
_symmetry_group_IT_number 2
_symmetry_cell_setting 'triclinic'
loop_
_space_group_symop_operation_xyz
x,y,z
-x,-y,-z
loop_
_atom_site_type_symbol
_atom_site_label
_atom_site_fract_x
_atom_site_fract_y
_atom_site_fract_z
Si Si1 0.613117 0.748659 0.263943
Si Si2 0.872436 0.374247 0.236613
Si Si3 0.254155 0.547923 0.032275
Si Si4 0.592104 0.847913 0.815081
Si Si5 0.096911 0.586867 0.324666
Si Si6 0.630788 0.247552 0.457498
Si Si7 0.743592 0.946444 0.412671
O O1 0.708989 0.604090 0.192844
O O2 0.422219 0.769903 0.384472
O O3 0.862021 0.622112 0.341799
O O4 0.508825 0.960405 0.172327
O O5 0.732713 0.337809 0.363138
O O6 0.152807 0.240911 0.271840
O O7 0.892924 0.326265 0.109114
O O8 0.319272 0.351831 0.078930
O O9 0.127956 0.632627 0.160024
O O10 0.500000 0.500000 0.000000
O O11 0.368007 0.941932 0.738093
O O12 0.370062 0.381676 0.385785
O O13 0.993982 0.729975 0.402004
O O14 0.803060 0.036459 0.445406
O O15 0.500000 0.000000 0.500000
#
# Coordination Sequence:
#
# PCOD9057386 Si02
#       7
#     2   2   2   2   2   2   2
#     4  11  25  42  68 105 131 181 222 272 356 395
#     4  12  26  44  67  98 143 182 217 281 342 401
#     4  12  24  49  71  96 135 180 238 277 329 405
#     4  11  24  43  68  99 138 174 224 280 334 401
#     4  11  23  41  74  98 132 180 227 280 332 395
#     4  12  23  43  69 104 139 174 228 280 336 409
#     4  11  22  42  69 104 132 177 227 276 337 397
#
# _framework density 24.388387999999999
#
# number of rings (size 3 to 8) (size 9 to 14) (size 15 to 20)
#    0.000    0.571    7.143    1.286    2.000    2.286 
#    2.571    3.571    0.000    0.000    0.000    0.000 
#    0.000    0.000    0.000    0.000    0.000    0.000 
#
# Total GULP energy -78189.927505 kJ/mol
# GULP energy per Si atom -5584.994822 kJ/mol
# Density = 2.433288 g / cm^3
# Si number density = 24.388388 Si / 1000 Ang^3
#
#
#
# Elastic Constant Matrix: (Units=GPa)
#
#
# Indices 1 2 3 4 5 6 
#
# 1 85.6227 32.6736 25.0191 1.3361 -25.1386 7.7763
# 2 32.6736 138.4216 31.7479 23.4932 -6.8980 24.2107
# 3 25.0191 31.7479 73.2367 14.2424 -5.2330 -1.0843
# 4 1.3361 23.4932 14.2424 29.4611 7.9385 8.7386
# 5 -25.1386 -6.8980 -5.2330 7.9385 39.5272 2.2972
# 6 7.7763 24.2107 -1.0843 8.7386 2.2972 37.6003
#
#
#
# Elastic Compliance Matrix: (Units=1/GPa)
#
#
# Indices 1 2 3 4 5 6 
#
# 1 0.016926 -0.002183 -0.004476 0.001464 0.009680 -0.003156
# 2 -0.002183 0.010247 -0.002538 -0.005779 0.001513 -0.004969
# 3 -0.004476 -0.002538 0.017945 -0.008017 0.000411 0.004915
# 4 0.001464 -0.005779 -0.008017 0.047238 -0.010209 -0.007167
# 5 0.009680 0.001513 0.000411 -0.010209 0.033979 -0.002668
# 6 -0.003156 -0.004969 0.004915 -0.007167 -0.002668 0.032418
#
#
# Mechanical properties :
#
#
# Convention : Reuss Voigt Hill
#
# Bulk Modulus (GPa) = 37.41871 52.90690 45.16281
# Shear Modulus (GPa) = 26.87388 35.17375 31.02381
#
# Velocity S-wave (km/s) = 3.32311 3.80179 3.57048
# Velocity P-wave (km/s) = 5.48637 6.40407 5.96290
#
# Compressibility (1/GPa) = 0.02672460
#
# Stress axis : x y z
#
# Youngs Moduli (GPa) = 59.08134 97.58895 55.72673
#
# Poissons Ratio (x) = 0.21302 0.24942
# Poissons Ratio (y) = 0.12897 0.14143
# Poissons Ratio (z) = 0.26443 0.24767
#
# Static dielectric constant tensor:
#      x y z
#    x 1.919110 0.021520 0.035290 
#    y 0.021520 1.974280 -0.021320 
#    z 0.035290 -0.021320 2.001650 
# 
# From -- ./inp_files/281554.got.cif
#   From: 2010.05.17/outbox.cif.g08.bks.cpg/sg2_141_cif.got.tgz:281554.got - 2010.06.03 11:33:40.
