data_PCOD9057227
_publ_section_title
;
Structure prediction by ZEFSAII (Michael W. Deem and Ramdas Pophale) SiO2 
 PCOD9057227
Probable space group: P -1
;
_chemical_formula_sum "Si O2"
_cell_formula_units_Z 14
_cell_length_a 7.950615
_cell_length_b 11.154321
_cell_length_c 18.330977
_cell_angle_alpha 145.885088
_cell_angle_beta 137.463439
_cell_angle_gamma 42.192987
_cell_volume 578.541983
_symmetry_space_group_name_H-M "P -1"
_symmetry_group_IT_number 2
_symmetry_cell_setting 'triclinic'
loop_
_space_group_symop_operation_xyz
x,y,z
-x,-y,-z
loop_
_atom_site_type_symbol
_atom_site_label
_atom_site_fract_x
_atom_site_fract_y
_atom_site_fract_z
Si Si1 0.430197 0.300228 0.418651
Si Si2 0.890635 0.412338 0.244364
Si Si3 0.274117 0.205368 0.071623
Si Si4 0.000000 0.500000 0.000000
Si Si5 0.702041 0.915859 0.410424
Si Si6 0.000000 0.000000 0.000000
Si Si7 0.710477 0.385912 0.336685
Si Si8 0.151006 0.932398 0.311016
O O1 0.500000 0.500000 0.500000
O O2 0.295201 0.416184 0.509699
O O3 0.199566 0.248187 0.272948
O O4 0.662498 0.074724 0.406290
O O5 0.881207 0.651083 0.329068
O O6 0.758808 0.443623 0.297968
O O7 0.779290 0.262894 0.082328
O O8 0.118398 0.105086 0.025921
O O9 0.429225 0.351620 0.233651
O O10 0.077000 0.349783 0.021966
O O11 0.500000 0.000000 0.000000
O O12 0.077128 0.708962 0.169306
O O13 0.414093 0.905315 0.334564
O O14 0.793709 0.018447 0.562695
O O15 0.922949 0.152570 0.316199
#
# Coordination Sequence:
#
# PCOD9057227 Si02
#       8
#     2   2   2   1   2   1   2   2
#     4  12  26  45  70 106 149 192 250 318 386 452
#     4  12  24  46  75 104 146 196 253 314 378 455
#     4  12  25  48  76 105 153 198 250 310 389 455
#     4  12  24  44  76 112 150 200 252 312 380 470
#     4  11  24  43  73 108 142 194 255 315 372 459
#     4  12  28  50  74 112 154 202 254 318 384 460
#     4  12  22  48  78 103 145 200 246 312 387 450
#     4  11  22  41  76 111 140 191 258 306 380 459
#
# _framework density 24.19876
#
# number of rings (size 3 to 8) (size 9 to 14) (size 15 to 20)
#    0.000    0.286    5.714    4.714    0.000    0.571 
#    2.571    1.429    0.000    0.000    0.000    0.000 
#    0.000    0.000    0.000    0.000    0.000    0.000 
#
# Total GULP energy -77950.996105 kJ/mol
# GULP energy per Si atom -5567.928293 kJ/mol
# Density = 2.414368 g / cm^3
# Si number density = 24.198760 Si / 1000 Ang^3
#
#
#
# Elastic Constant Matrix: (Units=GPa)
#
#
# Indices 1 2 3 4 5 6 
#
# 1 120.9906 55.6402 -2.7101 10.2709 8.5959 36.0818
# 2 55.6402 138.8701 40.3449 10.2655 17.0248 46.0853
# 3 -2.7101 40.3449 69.0874 34.0507 2.3376 13.4925
# 4 10.2709 10.2655 34.0507 37.3049 0.1367 11.3921
# 5 8.5959 17.0248 2.3376 0.1367 34.5046 15.3590
# 6 36.0818 46.0853 13.4925 11.3921 15.3590 34.9100
#
#
#
# Elastic Compliance Matrix: (Units=1/GPa)
#
#
# Indices 1 2 3 4 5 6 
#
# 1 0.014250 -0.004322 0.008802 -0.007297 0.003091 -0.011404
# 2 -0.004322 0.018657 -0.015028 0.016002 0.001915 -0.020419
# 3 0.008802 -0.015028 0.040779 -0.037856 -0.000815 0.007693
# 4 -0.007297 0.016002 -0.037856 0.066103 0.006666 -0.023455
# 5 0.003091 0.001915 -0.000815 0.006666 0.038140 -0.024363
# 6 -0.011404 -0.020419 0.007693 -0.023455 -0.024363 0.082787
#
#
# Mechanical properties :
#
#
# Convention : Reuss Voigt Hill
#
# Bulk Modulus (GPa) = 19.01526 57.27758 38.14642
# Shear Modulus (GPa) = 16.70323 37.05546 26.87935
#
# Velocity S-wave (km/s) = 2.63011 3.91742 3.33644
# Velocity P-wave (km/s) = 4.13501 6.64700 5.53538
#
# Compressibility (1/GPa) = 0.05258935
#
# Stress axis : x y z
#
# Youngs Moduli (GPa) = 70.17299 53.59888 24.52267
#
# Poissons Ratio (x) = 0.23164 -0.21584
# Poissons Ratio (y) = 0.30327 0.36854
# Poissons Ratio (z) = -0.61765 0.80551
#
# Static dielectric constant tensor:
#      x y z
#    x 2.053110 -0.081990 -0.025020 
#    y -0.081990 1.965860 -0.048050 
#    z -0.025020 -0.048050 2.190300 
# 
# From -- ./inp_files/233213.got.cif
#   From: 2010.05.17/outbox.cif.g08.bks.cpg/sg2_117_cif.got.tgz:233213.got - 2010.06.03 11:33:40.
