data_PCOD9057166
_publ_section_title
;
Structure prediction by ZEFSAII (Michael W. Deem and Ramdas Pophale) SiO2 
 PCOD9057166
Probable space group: P -1
;
_chemical_formula_sum "Si O2"
_cell_formula_units_Z 12
_cell_length_a 14.255273
_cell_length_b 9.486966
_cell_length_c 12.214037
_cell_angle_alpha 134.925039
_cell_angle_beta 29.358404
_cell_angle_gamma 139.498356
_cell_volume 521.045804
_symmetry_space_group_name_H-M "P -1"
_symmetry_group_IT_number 2
_symmetry_cell_setting 'triclinic'
loop_
_space_group_symop_operation_xyz
x,y,z
-x,-y,-z
loop_
_atom_site_type_symbol
_atom_site_label
_atom_site_fract_x
_atom_site_fract_y
_atom_site_fract_z
Si Si1 0.420699 0.156481 0.226021
Si Si2 0.754826 0.452860 0.223418
Si Si3 0.412509 0.579727 0.383128
Si Si4 0.174274 0.058222 0.614071
Si Si5 0.753704 0.743471 0.963985
Si Si6 0.685362 0.320816 0.688562
O O1 0.601246 0.274860 0.198732
O O2 0.406680 0.339963 0.263635
O O3 0.196075 0.034625 0.447850
O O4 0.500000 0.000000 0.000000
O O5 0.742935 0.679372 0.321689
O O6 0.666174 0.384794 0.399439
O O7 0.000000 0.500000 0.000000
O O8 0.271500 0.598213 0.436881
O O9 0.651422 0.731675 0.181763
O O10 0.282451 0.899541 0.455612
O O11 0.954401 0.955289 0.843231
O O12 0.793672 0.527693 0.773672
O O13 0.562268 0.735876 0.078220
#
# Coordination Sequence:
#
# PCOD9057166 Si02
#       6
#     2   2   2   2   2   2
#     4  11  25  46  69  96 137 181 229 279 334 409
#     4  11  27  46  65  99 141 179 227 283 338 402
#     4   9  20  43  66  96 138 170 220 283 333 394
#     4  11  22  41  72 100 133 181 226 273 346 396
#     4   9  20  38  68 105 141 174 223 277 340 401
#     4   9  20  38  68 103 146 168 226 278 337 401
#
# _framework density 23.030604
#
# number of rings (size 3 to 8) (size 9 to 14) (size 15 to 20)
#    1.000    1.000    0.000    3.500    2.333    2.667 
#    0.000   15.000    0.000    0.000    0.000    0.000 
#    0.000    0.000    0.000    0.000    0.000    0.000 
#
# Total GULP energy -66897.154821 kJ/mol
# GULP energy per Si atom -5574.762902 kJ/mol
# Density = 2.297819 g / cm^3
# Si number density = 23.030604 Si / 1000 Ang^3
#
#
#
# Elastic Constant Matrix: (Units=GPa)
#
#
# Indices 1 2 3 4 5 6 
#
# 1 70.3198 45.0844 36.9651 -0.8635 15.7871 -7.7626
# 2 45.0844 100.2044 57.1667 -12.3782 23.3267 1.7427
# 3 36.9651 57.1667 149.3280 -24.9744 27.1096 9.4546
# 4 -0.8635 -12.3782 -24.9744 44.4275 -5.0851 15.6863
# 5 15.7871 23.3267 27.1096 -5.0851 36.4479 0.4619
# 6 -7.7626 1.7427 9.4546 15.6863 0.4619 20.3235
#
#
#
# Elastic Compliance Matrix: (Units=1/GPa)
#
#
# Indices 1 2 3 4 5 6 
#
# 1 0.028033 -0.010512 -0.006826 -0.016224 -0.002947 0.027373
# 2 -0.010512 0.017673 -0.001567 0.006848 -0.004510 -0.009984
# 3 -0.006826 -0.001567 0.012929 0.012712 -0.003652 -0.018216
# 4 -0.016224 0.006848 0.012712 0.049233 0.000701 -0.050713
# 5 -0.002947 -0.004510 -0.003652 0.000701 0.034418 -0.000364
# 6 0.027373 -0.009984 -0.018216 -0.050713 -0.000364 0.108140
#
#
# Mechanical properties :
#
#
# Convention : Reuss Voigt Hill
#
# Bulk Modulus (GPa) = 48.02417 66.47606 57.25011
# Shear Modulus (GPa) = 16.93883 32.28218 24.61051
#
# Velocity S-wave (km/s) = 2.71494 3.74800 3.27249
# Velocity P-wave (km/s) = 5.54305 6.90340 6.26029
#
# Compressibility (1/GPa) = 0.02082285
#
# Stress axis : x y z
#
# Youngs Moduli (GPa) = 35.67186 56.58387 77.34609
#
# Poissons Ratio (x) = 0.59484 0.52799
# Poissons Ratio (y) = 0.37500 0.12122
# Poissons Ratio (z) = 0.24351 0.08868
#
# Static dielectric constant tensor:
#      x y z
#    x 1.900630 0.016730 -0.010700 
#    y 0.016730 1.832090 -0.024960 
#    z -0.010700 -0.024960 1.902050 
# 
# From -- ./inp_files/447975.got.cif
#   From: 2010.05.17/outbox.cif.g08.bks.cpg/sg2_224_cif.got.tgz:447975.got - 2010.06.03 11:33:40.
