data_PCOD9057054
_publ_section_title
;
Structure prediction by ZEFSAII (Michael W. Deem and Ramdas Pophale) SiO2 
 PCOD9057054
Probable space group: P -1
;
_chemical_formula_sum "Si O2"
_cell_formula_units_Z 16
_cell_length_a 25.295825
_cell_length_b 18.583614
_cell_length_c 16.166171
_cell_angle_alpha 29.587384
_cell_angle_beta 161.338302
_cell_angle_gamma 161.004097
_cell_volume 766.014191
_symmetry_space_group_name_H-M "P -1"
_symmetry_group_IT_number 2
_symmetry_cell_setting 'triclinic'
loop_
_space_group_symop_operation_xyz
x,y,z
-x,-y,-z
loop_
_atom_site_type_symbol
_atom_site_label
_atom_site_fract_x
_atom_site_fract_y
_atom_site_fract_z
Si Si1 0.355096 0.786968 0.267029
Si Si2 0.554321 0.793042 0.718993
Si Si3 0.308723 0.734589 0.724146
Si Si4 0.543144 0.425596 0.804954
Si Si5 0.869745 0.613865 0.776295
Si Si6 0.200225 0.528313 0.609535
Si Si7 0.974742 0.673048 0.067221
Si Si8 0.139582 0.216513 0.933042
O O1 0.366375 0.730302 0.432499
O O2 0.310233 0.633900 0.284597
O O3 0.624036 0.051096 0.388506
O O4 0.131807 0.758629 0.968513
O O5 0.383232 0.615453 0.717130
O O6 0.706330 0.773649 0.914687
O O7 0.764589 0.055932 0.798699
O O8 0.386082 0.724444 0.759399
O O9 0.000000 0.500000 0.500000
O O10 0.455191 0.744932 0.001776
O O11 0.274063 0.328645 0.500172
O O12 0.731954 0.574742 0.856829
O O13 0.688167 0.587454 0.938393
O O14 0.918952 0.628177 0.932237
O O15 0.051697 0.291817 0.667733
O O16 0.023663 0.543095 0.303502
O O17 0.000000 0.000000 0.000000
#
# Coordination Sequence:
#
# PCOD9057054 Si02
#       8
#     2   2   2   2   2   2   2   2
#     4  11  23  42  68  94 131 182 227 268 338 405
#     4  12  21  42  70  99 131 173 232 288 328 385
#     4  11  22  41  69 101 129 170 235 287 326 395
#     4  11  23  40  64  91 134 179 218 271 338 405
#     4  11  25  42  63  94 139 183 216 268 344 414
#     4  11  23  37  66 104 130 165 224 289 336 383
#     4  12  22  41  67  98 134 173 227 281 334 394
#     4  11  24  41  66 100 133 171 225 288 336 389
#
# _framework density 20.887340999999999
#
# number of rings (size 3 to 8) (size 9 to 14) (size 15 to 20)
#    0.000    0.750    6.250    1.875    1.750    0.500 
#    0.000    1.875    0.000    0.000    0.000    0.000 
#    0.000    0.000    0.000    0.000    0.000    0.000 
#
# Total GULP energy -89207.865319 kJ/mol
# GULP energy per Si atom -5575.491582 kJ/mol
# Density = 2.083980 g / cm^3
# Si number density = 20.887341 Si / 1000 Ang^3
#
#
#
# Elastic Constant Matrix: (Units=GPa)
#
#
# Indices 1 2 3 4 5 6 
#
# 1 149.5035 34.0064 22.0506 -0.9091 2.3897 7.2878
# 2 34.0064 72.6637 4.7317 -11.7246 -5.5878 7.0194
# 3 22.0506 4.7317 80.4425 -18.6235 3.5595 10.5168
# 4 -0.9091 -11.7246 -18.6235 23.2439 -1.5801 -7.7241
# 5 2.3897 -5.5878 3.5595 -1.5801 37.2786 9.6159
# 6 7.2878 7.0194 10.5168 -7.7241 9.6159 23.9504
#
#
#
# Elastic Compliance Matrix: (Units=1/GPa)
#
#
# Indices 1 2 3 4 5 6 
#
# 1 0.008129 -0.004309 -0.002851 -0.004563 -0.000802 -0.001108
# 2 -0.004309 0.017888 0.002764 0.010188 0.004021 -0.003474
# 3 -0.002851 0.002764 0.016571 0.013594 0.000359 -0.002979
# 4 -0.004563 0.010188 0.013594 0.063133 -0.000114 0.012840
# 5 -0.000802 0.004021 0.000359 -0.000114 0.030935 -0.013550
# 6 -0.001108 -0.003474 -0.002979 0.012840 -0.013550 0.053997
#
#
# Mechanical properties :
#
#
# Convention : Reuss Voigt Hill
#
# Bulk Modulus (GPa) = 29.59036 47.13188 38.36112
# Shear Modulus (GPa) = 23.72932 33.01598 28.37265
#
# Velocity S-wave (km/s) = 3.37421 3.98008 3.68960
# Velocity P-wave (km/s) = 5.42013 6.61325 6.04619
#
# Compressibility (1/GPa) = 0.03379480
#
# Stress axis : x y z
#
# Youngs Moduli (GPa) = 123.02301 55.90493 60.34696
#
# Poissons Ratio (x) = 0.24092 0.17203
# Poissons Ratio (y) = 0.53015 -0.16679
# Poissons Ratio (z) = 0.35069 -0.15452
#
# Static dielectric constant tensor:
#      x y z
#    x 1.767260 0.012440 0.045140 
#    y 0.012440 1.811860 -0.031720 
#    z 0.045140 -0.031720 1.838600 
# 
# From -- ./inp_files/543156.got.cif
#   From: 2010.05.17/outbox.cif.g08.bks.cpg/sg2_272_cif.got.tgz:543156.got - 2010.06.03 11:33:40.
