data_PCOD9057726
_publ_section_title
;
Structure prediction by ZEFSAII (Michael W. Deem and Ramdas Pophale) SiO2 
 PCOD9057726
Probable space group: P -1
;
_chemical_formula_sum "Si O2"
_cell_formula_units_Z 16
_cell_length_a 9.136923
_cell_length_b 9.563921
_cell_length_c 14.873333
_cell_angle_alpha 72.831291
_cell_angle_beta 125.280231
_cell_angle_gamma 69.306802
_cell_volume 751.036592
_symmetry_space_group_name_H-M "P -1"
_symmetry_group_IT_number 2
_symmetry_cell_setting 'triclinic'
loop_
_space_group_symop_operation_xyz
x,y,z
-x,-y,-z
loop_
_atom_site_type_symbol
_atom_site_label
_atom_site_fract_x
_atom_site_fract_y
_atom_site_fract_z
Si Si1 0.454126 0.285493 0.999109
Si Si2 0.233050 0.996119 0.356642
Si Si3 0.532595 0.975712 0.192941
Si Si4 0.020534 0.815206 0.060365
Si Si5 0.103502 0.416685 0.689207
Si Si6 0.708999 0.870956 0.466163
Si Si7 0.785542 0.320343 0.643584
Si Si8 0.781311 0.361868 0.021669
O O1 0.232873 0.365447 0.840939
O O2 0.352120 0.425854 0.023413
O O3 0.589280 0.065374 0.120323
O O4 0.623604 0.305898 0.002720
O O5 0.497483 0.882532 0.429682
O O6 0.162907 0.866526 0.344527
O O7 0.236409 0.044224 0.451923
O O8 0.038296 0.198768 0.193838
O O9 0.681223 0.745791 0.270611
O O10 0.605462 0.990564 0.314240
O O11 0.249396 0.099968 0.059633
O O12 0.132126 0.728492 0.213994
O O13 0.176662 0.658802 0.065480
O O14 0.000000 0.000000 0.000000
O O15 0.947927 0.645894 0.572708
O O16 0.923850 0.377640 0.634980
O O17 0.500000 0.500000 0.500000
#
# Coordination Sequence:
#
# PCOD9057726 Si02
#       8
#     2   2   2   2   2   2   2   2
#     4  11  25  44  70 100 137 182 222 289 352 398
#     4  11  22  43  69  95 137 182 222 283 338 408
#     4  12  25  43  70 103 135 178 235 286 336 403
#     4  12  24  42  72  99 133 179 234 283 331 408
#     4  12  24  44  67 100 139 182 225 282 349 411
#     4  11  24  44  69  96 138 185 225 277 350 405
#     4  12  25  43  67 104 141 178 227 281 346 406
#     4  11  23  45  71  99 137 179 235 280 340 412
#
# _framework density 21.303888000000001
#
# number of rings (size 3 to 8) (size 9 to 14) (size 15 to 20)
#    0.000    0.500    6.250    2.250    0.000    1.500 
#    2.250    2.500    0.000    0.000    0.000    0.000 
#    0.000    0.000    0.000    0.000    0.000    0.000 
#
# Total GULP energy -89560.458553 kJ/mol
# GULP energy per Si atom -5597.528660 kJ/mol
# Density = 2.125540 g / cm^3
# Si number density = 21.303888 Si / 1000 Ang^3
#
#
#
# Elastic Constant Matrix: (Units=GPa)
#
#
# Indices 1 2 3 4 5 6 
#
# 1 42.2741 22.2620 17.4339 11.3405 9.4842 -9.4641
# 2 22.2620 79.5621 33.7080 11.8799 7.9580 -13.4204
# 3 17.4339 33.7080 127.8926 11.1540 -4.0527 0.9835
# 4 11.3405 11.8799 11.1540 39.5856 -4.2208 6.7112
# 5 9.4842 7.9580 -4.0527 -4.2208 29.8531 -3.9184
# 6 -9.4641 -13.4204 0.9835 6.7112 -3.9184 17.9611
#
#
#
# Elastic Compliance Matrix: (Units=1/GPa)
#
#
# Indices 1 2 3 4 5 6 
#
# 1 0.037139 -0.002115 -0.003823 -0.013639 -0.010938 0.020909
# 2 -0.002115 0.018940 -0.004350 -0.006811 -0.003968 0.014955
# 3 -0.003823 -0.004350 0.009542 0.000970 0.003088 -0.005476
# 4 -0.013639 -0.006811 0.000970 0.035874 0.008210 -0.023942
# 5 -0.010938 -0.003968 0.003088 0.008210 0.039161 -0.003421
# 6 0.020909 0.014955 -0.005476 -0.023942 -0.003421 0.086367
#
#
# Mechanical properties :
#
#
# Convention : Reuss Voigt Hill
#
# Bulk Modulus (GPa) = 22.20004 44.05963 33.12983
# Shear Modulus (GPa) = 19.03925 29.23494 24.13710
#
# Velocity S-wave (km/s) = 2.99272 3.70845 3.36964
# Velocity P-wave (km/s) = 4.73129 6.25006 5.54294
#
# Compressibility (1/GPa) = 0.04504496
#
# Stress axis : x y z
#
# Youngs Moduli (GPa) = 26.92571 52.79808 104.79715
#
# Poissons Ratio (x) = 0.11165 0.40067
# Poissons Ratio (y) = 0.05694 0.45591
# Poissons Ratio (z) = 0.10294 0.22969
#
# Static dielectric constant tensor:
#      x y z
#    x 1.769060 -0.017240 0.009880 
#    y -0.017240 1.782230 -0.018050 
#    z 0.009880 -0.018050 1.745230 
# 
# From -- ./inp_files/206509.got.cif
#   From: 2010.05.17/outbox.cif.g08.bks.cpg/sg2_104_cif.got.tgz:206509.got - 2010.06.03 11:33:40.
