data_PCOD9057610
_publ_section_title
;
Structure prediction by ZEFSAII (Michael W. Deem and Ramdas Pophale) SiO2 
 PCOD9057610
Probable space group: P -1
;
_chemical_formula_sum "Si O2"
_cell_formula_units_Z 16
_cell_length_a 20.553399
_cell_length_b 10.282590
_cell_length_c 11.481290
_cell_angle_alpha 72.766708
_cell_angle_beta 41.316896
_cell_angle_gamma 38.646571
_cell_volume 710.400859
_symmetry_space_group_name_H-M "P -1"
_symmetry_group_IT_number 2
_symmetry_cell_setting 'triclinic'
loop_
_space_group_symop_operation_xyz
x,y,z
-x,-y,-z
loop_
_atom_site_type_symbol
_atom_site_label
_atom_site_fract_x
_atom_site_fract_y
_atom_site_fract_z
Si Si1 0.431949 0.252305 0.896642
Si Si2 0.731264 0.135887 0.574251
Si Si3 0.719771 0.685550 0.576414
Si Si4 0.007121 0.543883 0.108531
Si Si5 0.572482 0.512571 0.501556
Si Si6 0.964627 0.196132 0.543595
Si Si7 0.880552 0.307333 0.005518
Si Si8 0.453827 0.925498 0.662367
O O1 0.620955 0.126311 0.704549
O O2 0.528883 0.980515 0.834121
O O3 0.240577 0.526998 0.169327
O O4 0.329104 0.401766 0.867161
O O5 0.571736 0.437204 0.647216
O O6 0.821550 0.034019 0.609890
O O7 0.937547 0.920306 0.276206
O O8 0.900858 0.378007 0.478724
O O9 0.629467 0.707802 0.584639
O O10 0.819896 0.700922 0.385995
O O11 0.029126 0.678273 0.044454
O O12 0.000000 0.500000 0.000000
O O13 0.229379 0.220344 0.947642
O O14 0.500000 0.500000 0.500000
O O15 0.445419 0.805482 0.622001
O O16 0.796554 0.295288 0.209068
O O17 0.000000 0.000000 0.500000
O O18 0.500000 0.000000 0.500000
#
# Coordination Sequence:
#
# PCOD9057610 Si02
#       8
#     2   2   2   2   2   2   2   2
#     4  11  23  45  74 100 137 184 238 292 347 419
#     4  11  25  44  69  98 139 182 236 281 351 416
#     4  12  24  46  73 103 139 187 237 286 360 414
#     4  12  24  38  72 103 140 179 230 284 351 412
#     4  12  24  41  70 102 142 193 228 283 362 421
#     4  11  28  48  70 100 142 182 237 299 350 419
#     4  11  22  43  65 104 142 179 228 292 341 418
#     4  12  24  43  67 101 144 179 231 290 346 417
#
# _framework density 22.522494999999999
#
# number of rings (size 3 to 8) (size 9 to 14) (size 15 to 20)
#    0.000    0.500    6.250    1.500    1.750    3.000 
#    2.250    0.000    0.000    0.000    0.000    0.000 
#    0.000    0.000    0.000    0.000    0.000    0.000 
#
# Total GULP energy -89254.169172 kJ/mol
# GULP energy per Si atom -5578.385573 kJ/mol
# Density = 2.247123 g / cm^3
# Si number density = 22.522495 Si / 1000 Ang^3
#
#
#
# Elastic Constant Matrix: (Units=GPa)
#
#
# Indices 1 2 3 4 5 6 
#
# 1 147.4703 52.9222 2.9843 -15.1996 -18.2402 -1.7183
# 2 52.9222 86.0703 -14.4954 -0.9221 -3.3191 0.9955
# 3 2.9843 -14.4954 38.9935 -0.1943 -0.9902 4.4507
# 4 -15.1996 -0.9221 -0.1943 25.9604 5.6440 2.1949
# 5 -18.2402 -3.3191 -0.9902 5.6440 33.4179 3.4316
# 6 -1.7183 0.9955 4.4507 2.1949 3.4316 46.0945
#
#
#
# Elastic Compliance Matrix: (Units=1/GPa)
#
#
# Indices 1 2 3 4 5 6 
#
# 1 0.010208 -0.006605 -0.003146 0.004829 0.003976 0.000301
# 2 -0.006605 0.016764 0.006813 -0.002884 -0.001144 -0.001044
# 3 -0.003146 0.006813 0.028764 -0.001201 0.000324 -0.003009
# 4 0.004829 -0.002884 -0.001201 0.042370 -0.004708 -0.001309
# 5 0.003976 -0.001144 0.000324 -0.004708 0.033000 -0.002091
# 6 0.000301 -0.001044 -0.003009 -0.001309 -0.002091 0.022237
#
#
# Mechanical properties :
#
#
# Convention : Reuss Voigt Hill
#
# Bulk Modulus (GPa) = 20.05576 39.48405 29.76991
# Shear Modulus (GPa) = 28.43514 36.50276 32.46895
#
# Velocity S-wave (km/s) = 3.55705 4.03019 3.80099
# Velocity P-wave (km/s) = 5.07881 6.26303 5.70175
#
# Compressibility (1/GPa) = 0.04986099
#
# Stress axis : x y z
#
# Youngs Moduli (GPa) = 97.96335 59.65171 34.76528
#
# Poissons Ratio (x) = 0.39399 0.10937
# Poissons Ratio (y) = 0.64703 -0.23686
# Poissons Ratio (z) = 0.30818 -0.40641
#
# Static dielectric constant tensor:
#      x y z
#    x 1.835210 -0.032570 0.027960 
#    y -0.032570 1.956540 0.077230 
#    z 0.027960 0.077230 1.903580 
# 
# From -- ./inp_files/402830.got.cif
#   From: 2010.05.17/outbox.cif.g08.bks.cpg/sg2_202_cif.got.tgz:402830.got - 2010.06.03 11:33:40.
