data_PCOD9057185
_publ_section_title
;
Structure prediction by ZEFSAII (Michael W. Deem and Ramdas Pophale) SiO2 
 PCOD9057185
Probable space group: P -1
;
_chemical_formula_sum "Si O2"
_cell_formula_units_Z 12
_cell_length_a 11.644898
_cell_length_b 9.725800
_cell_length_c 8.478459
_cell_angle_alpha 88.965922
_cell_angle_beta 53.249118
_cell_angle_gamma 123.021997
_cell_volume 554.044902
_symmetry_space_group_name_H-M "P -1"
_symmetry_group_IT_number 2
_symmetry_cell_setting 'triclinic'
loop_
_space_group_symop_operation_xyz
x,y,z
-x,-y,-z
loop_
_atom_site_type_symbol
_atom_site_label
_atom_site_fract_x
_atom_site_fract_y
_atom_site_fract_z
Si Si1 0.137110 0.963305 0.851345
Si Si2 0.845082 0.561286 0.053168
Si Si3 0.158136 0.009946 0.461988
Si Si4 0.898715 0.331743 0.464999
Si Si5 0.407344 0.687250 0.442528
Si Si6 0.519996 0.541839 0.797952
O O1 0.125950 0.953218 0.672263
O O2 0.359812 0.129962 0.724513
O O3 0.021432 0.750151 0.004497
O O4 0.000000 0.000000 0.000000
O O5 0.708682 0.389835 0.293250
O O6 0.691516 0.570554 0.107063
O O7 0.953214 0.570018 0.811614
O O8 0.354820 0.233831 0.307659
O O9 0.142105 0.843524 0.415828
O O10 0.000000 0.000000 0.500000
O O11 0.691923 0.260055 0.579920
O O12 0.000000 0.500000 0.500000
O O13 0.387025 0.525043 0.373963
O O14 0.500000 0.500000 0.000000
#
# Coordination Sequence:
#
# PCOD9057185 Si02
#       6
#     2   2   2   2   2   2
#     4  11  22  41  72 107 137 180 239 284 351 417
#     4  11  23  43  71 102 142 184 231 290 350 421
#     4  11  24  43  70  98 142 183 236 284 348 422
#     4  11  26  49  69 104 144 186 234 297 359 415
#     4  12  24  46  74 104 143 181 239 297 348 418
#     4  12  23  43  71 101 140 186 235 287 347 420
#
# _framework density 21.658895999999999
#
# number of rings (size 3 to 8) (size 9 to 14) (size 15 to 20)
#    0.000    0.667    3.333    6.000    0.000    2.667 
#    3.000    1.667    0.000    0.000    0.000    0.000 
#    0.000    0.000    0.000    0.000    0.000    0.000 
#
# Total GULP energy -66967.065084 kJ/mol
# GULP energy per Si atom -5580.588757 kJ/mol
# Density = 2.160960 g / cm^3
# Si number density = 21.658896 Si / 1000 Ang^3
#
#
#
# Elastic Constant Matrix: (Units=GPa)
#
#
# Indices 1 2 3 4 5 6 
#
# 1 147.9177 47.7499 25.6842 -13.4888 -19.6703 -7.9006
# 2 47.7499 149.1658 44.0726 -16.1932 -20.0871 1.6517
# 3 25.6842 44.0726 72.5153 -15.0705 -25.4763 4.0517
# 4 -13.4888 -16.1932 -15.0705 42.8094 4.6524 -7.3571
# 5 -19.6703 -20.0871 -25.4763 4.6524 26.6008 0.7366
# 6 -7.9006 1.6517 4.0517 -7.3571 0.7366 32.6460
#
#
#
# Elastic Compliance Matrix: (Units=1/GPa)
#
#
# Indices 1 2 3 4 5 6 
#
# 1 0.008234 -0.001882 -0.000036 0.001822 0.004248 0.002407
# 2 -0.001882 0.008777 -0.003989 0.001161 0.001217 -0.000170
# 3 -0.000036 -0.003989 0.024053 0.004471 0.019277 -0.002220
# 4 0.001822 0.001161 0.004471 0.026766 0.001663 0.005822
# 5 0.004248 0.001217 0.019277 0.001663 0.059890 -0.002403
# 6 0.002407 -0.000170 -0.002220 0.005822 -0.002403 0.032864
#
#
# Mechanical properties :
#
#
# Convention : Reuss Voigt Hill
#
# Bulk Modulus (GPa) = 34.18933 67.17914 50.68424
# Shear Modulus (GPa) = 27.44997 37.21738 32.33368
#
# Velocity S-wave (km/s) = 3.56389 4.14979 3.86795
# Velocity P-wave (km/s) = 5.72317 7.35154 6.58786
#
# Compressibility (1/GPa) = 0.02924889
#
# Stress axis : x y z
#
# Youngs Moduli (GPa) = 121.44950 113.93523 41.57458
#
# Poissons Ratio (x) = 0.21442 0.00150
# Poissons Ratio (y) = 0.22857 0.16586
# Poissons Ratio (z) = 0.00439 0.45454
#
# Static dielectric constant tensor:
#      x y z
#    x 1.790920 -0.060810 0.024180 
#    y -0.060810 1.943070 -0.051090 
#    z 0.024180 -0.051090 1.833780 
# 
# From -- ./inp_files/202922.got.cif
#   From: 2010.05.17/outbox.cif.g08.bks.cpg/sg2_102_cif.got.tgz:202922.got - 2010.06.03 11:33:40.
