data_PCOD9057673
_publ_section_title
;
Structure prediction by ZEFSAII (Michael W. Deem and Ramdas Pophale) SiO2 
 PCOD9057673
Probable space group: P -1
;
_chemical_formula_sum "Si O2"
_cell_formula_units_Z 16
_cell_length_a 9.342553
_cell_length_b 13.301551
_cell_length_c 5.401711
_cell_angle_alpha 81.191432
_cell_angle_beta 96.084075
_cell_angle_gamma 103.087515
_cell_volume 644.349521
_symmetry_space_group_name_H-M "P -1"
_symmetry_group_IT_number 2
_symmetry_cell_setting 'triclinic'
loop_
_space_group_symop_operation_xyz
x,y,z
-x,-y,-z
loop_
_atom_site_type_symbol
_atom_site_label
_atom_site_fract_x
_atom_site_fract_y
_atom_site_fract_z
Si Si1 0.629320 0.041934 0.819894
Si Si2 0.116470 0.200333 0.508977
Si Si3 0.041950 0.890302 0.994914
Si Si4 0.899375 0.421754 0.708388
Si Si5 0.577614 0.841382 0.565042
Si Si6 0.605494 0.361490 0.487723
Si Si7 0.596088 0.576554 0.182554
Si Si8 0.142038 0.384325 0.110843
O O1 0.782049 0.095331 0.955326
O O2 0.555526 0.117880 0.608269
O O3 0.645316 0.936118 0.723796
O O4 0.500000 0.000000 0.000000
O O5 0.276855 0.171373 0.554039
O O6 0.138489 0.320016 0.384543
O O7 0.033454 0.176023 0.759425
O O8 0.022182 0.145837 0.274544
O O9 0.000000 0.000000 0.000000
O O10 0.767308 0.343667 0.579716
O O11 0.829055 0.494839 0.854521
O O12 0.000000 0.500000 0.500000
O O13 0.994279 0.367136 0.930160
O O14 0.491308 0.725007 0.676988
O O15 0.641714 0.485073 0.387616
O O16 0.498222 0.358038 0.705261
O O17 0.500000 0.500000 0.000000
O O18 0.733160 0.640436 0.035009
#
# Coordination Sequence:
#
# PCOD9057673 Si02
#       8
#     2   2   2   2   2   2   2   2
#     4  11  27  51  75 107 153 198 245 330 390 460
#     4  12  29  48  82 116 147 205 261 320 380 477
#     4  12  27  52  82 112 155 197 256 316 397 457
#     4  11  24  46  67  98 150 198 243 317 377 445
#     4  11  27  46  73 109 150 194 260 319 388 460
#     4  11  25  41  72 103 143 195 255 306 384 455
#     4  11  22  43  68 101 144 192 241 312 371 447
#     4  11  26  44  69 104 149 195 255 312 376 455
#
# _framework density 24.831246
#
# number of rings (size 3 to 8) (size 9 to 14) (size 15 to 20)
#    0.000    0.750    3.750    1.875   10.500    1.000 
#    0.000    0.000    0.000    0.000    0.000    0.000 
#    0.000    0.000    0.000    0.000    0.000    0.000 
#
# Total GULP energy -89498.232332 kJ/mol
# GULP energy per Si atom -5593.639521 kJ/mol
# Density = 2.477473 g / cm^3
# Si number density = 24.831246 Si / 1000 Ang^3
#
#
#
# Elastic Constant Matrix: (Units=GPa)
#
#
# Indices 1 2 3 4 5 6 
#
# 1 139.2123 40.3650 27.0962 5.1729 7.0826 22.3435
# 2 40.3650 104.2694 26.7902 7.8542 3.2570 14.2381
# 3 27.0962 26.7902 82.6267 -5.6794 -3.8103 8.2460
# 4 5.1729 7.8542 -5.6794 38.2131 15.7564 6.0331
# 5 7.0826 3.2570 -3.8103 15.7564 36.6631 4.5357
# 6 22.3435 14.2381 8.2460 6.0331 4.5357 43.7444
#
#
#
# Elastic Compliance Matrix: (Units=1/GPa)
#
#
# Indices 1 2 3 4 5 6 
#
# 1 0.008841 -0.002476 -0.001827 0.000096 -0.001318 -0.003242
# 2 -0.002476 0.011711 -0.002963 -0.002397 0.000370 -0.001696
# 3 -0.001827 -0.002963 0.014019 0.002694 0.001067 -0.001227
# 4 0.000096 -0.002397 0.002694 0.033019 -0.013352 -0.002946
# 5 -0.001318 0.000370 0.001067 -0.013352 0.033505 -0.001281
# 6 -0.003242 -0.001696 -0.001227 -0.002946 -0.001281 0.025838
#
#
# Mechanical properties :
#
#
# Convention : Reuss Voigt Hill
#
# Bulk Modulus (GPa) = 49.90584 57.17903 53.54243
# Shear Modulus (GPa) = 33.75033 39.18124 36.46578
#
# Velocity S-wave (km/s) = 3.69072 3.97659 3.83632
# Velocity P-wave (km/s) = 6.18898 6.64540 6.42125
#
# Compressibility (1/GPa) = 0.02003773
#
# Stress axis : x y z
#
# Youngs Moduli (GPa) = 113.11325 85.38805 71.32954
#
# Poissons Ratio (x) = 0.21146 0.13031
# Poissons Ratio (y) = 0.28012 0.21138
# Poissons Ratio (z) = 0.20665 0.25305
#
# Static dielectric constant tensor:
#      x y z
#    x 2.023360 -0.086110 0.083330 
#    y -0.086110 2.124570 -0.028020 
#    z 0.083330 -0.028020 2.101610 
# 
# From -- ./inp_files/38049.got.cif
#   From: 2010.05.17/outbox.cif.g08.bks.cpg/sg2_20_cif.got.tgz:38049.got - 2010.06.03 11:33:40.
