data_PCOD9057936
_publ_section_title
;
Structure prediction by ZEFSAII (Michael W. Deem and Ramdas Pophale) SiO2 
 PCOD9057936
Probable space group: P -1
;
_chemical_formula_sum "Si O2"
_cell_formula_units_Z 16
_cell_length_a 12.185489
_cell_length_b 8.671712
_cell_length_c 9.985207
_cell_angle_alpha 119.404616
_cell_angle_beta 107.969331
_cell_angle_gamma 106.392603
_cell_volume 745.061937
_symmetry_space_group_name_H-M "P -1"
_symmetry_group_IT_number 2
_symmetry_cell_setting 'triclinic'
loop_
_space_group_symop_operation_xyz
x,y,z
-x,-y,-z
loop_
_atom_site_type_symbol
_atom_site_label
_atom_site_fract_x
_atom_site_fract_y
_atom_site_fract_z
Si Si1 0.334870 0.003508 0.303322
Si Si2 0.986117 0.505638 0.339431
Si Si3 0.468196 0.890134 0.086649
Si Si4 0.264341 0.331232 0.040008
Si Si5 0.864833 0.423631 0.825063
Si Si6 0.435983 0.274861 0.713324
Si Si7 0.124140 0.962427 0.010233
Si Si8 0.236266 0.408512 0.769731
O O1 0.417472 0.145457 0.518525
O O2 0.429665 0.020999 0.225020
O O3 0.256922 0.769365 0.227628
O O4 0.214146 0.024930 0.205487
O O5 0.921668 0.272200 0.152094
O O6 0.898272 0.611590 0.340501
O O7 0.000000 0.500000 0.500000
O O8 0.111658 0.630043 0.338183
O O9 0.562631 0.840002 0.197241
O O10 0.339865 0.657216 0.921777
O O11 0.500000 0.000000 0.000000
O O12 0.185182 0.415497 0.132143
O O13 0.422489 0.504892 0.154733
O O14 0.205270 0.307083 0.860518
O O15 0.225721 0.116767 0.000659
O O16 0.000000 0.500000 0.000000
O O17 0.313756 0.315715 0.684259
O O18 0.000000 0.000000 0.000000
#
# Coordination Sequence:
#
# PCOD9057936 Si02
#       8
#     2   2   2   2   2   2   2   2
#     4  12  25  45  72 104 142 183 239 292 351 429
#     4  12  27  46  70 107 138 180 244 297 354 414
#     4  11  23  44  71  98 140 186 234 286 350 423
#     4  11  22  43  75  98 140 185 231 290 349 430
#     4  12  20  46  72  94 135 190 229 285 355 417
#     4  11  27  44  69 111 140 186 239 281 365 419
#     4  12  25  44  71 103 136 183 239 289 357 412
#     4  11  24  45  67  96 147 184 229 287 362 420
#
# _framework density 21.474726
#
# number of rings (size 3 to 8) (size 9 to 14) (size 15 to 20)
#    0.000    0.500    7.500    1.875    5.250    2.500 
#    0.000    1.250    0.000    0.000    0.000    0.000 
#    0.000    0.000    0.000    0.000    0.000    0.000 
#
# Total GULP energy -89317.340995 kJ/mol
# GULP energy per Si atom -5582.333812 kJ/mol
# Density = 2.142585 g / cm^3
# Si number density = 21.474726 Si / 1000 Ang^3
#
#
#
# Elastic Constant Matrix: (Units=GPa)
#
#
# Indices 1 2 3 4 5 6 
#
# 1 121.4519 13.1676 13.1140 -12.4006 -22.1503 -6.3126
# 2 13.1676 111.3851 20.4088 -23.7162 -3.1315 13.8585
# 3 13.1140 20.4088 69.3982 -26.2202 -19.5116 13.0618
# 4 -12.4006 -23.7162 -26.2202 23.3817 9.7790 -10.7124
# 5 -22.1503 -3.1315 -19.5116 9.7790 25.8352 -7.3404
# 6 -6.3126 13.8585 13.0618 -10.7124 -7.3404 27.1748
#
#
#
# Elastic Compliance Matrix: (Units=1/GPa)
#
#
# Indices 1 2 3 4 5 6 
#
# 1 0.011092 -0.001013 0.002176 0.006167 0.010797 0.007395
# 2 -0.001013 0.011971 0.000938 0.013275 -0.004524 -0.002780
# 3 0.002176 0.000938 0.027831 0.028694 0.012518 0.001343
# 4 0.006167 0.013275 0.028694 0.102861 -0.004637 0.020166
# 5 0.010797 -0.004524 0.012518 -0.004637 0.062566 0.013871
# 6 0.007395 -0.002780 0.001343 0.020166 0.013871 0.050985
#
#
# Mechanical properties :
#
#
# Convention : Reuss Voigt Hill
#
# Bulk Modulus (GPa) = 18.15067 43.95734 31.05400
# Shear Modulus (GPa) = 17.76393 32.31465 25.03929
#
# Velocity S-wave (km/s) = 2.87923 3.88335 3.41836
# Velocity P-wave (km/s) = 4.41857 6.37346 5.48383
#
# Compressibility (1/GPa) = 0.05509439
#
# Stress axis : x y z
#
# Youngs Moduli (GPa) = 90.15624 83.53492 35.93154
#
# Poissons Ratio (x) = 0.08465 -0.07818
# Poissons Ratio (y) = 0.09136 -0.03370
# Poissons Ratio (z) = -0.19617 -0.07835
#
# Static dielectric constant tensor:
#      x y z
#    x 1.918940 -0.137190 0.013960 
#    y -0.137190 1.975980 -0.010350 
#    z 0.013960 -0.010350 1.779740 
# 
# From -- ./inp_files/186083.got.cif
#   From: 2010.05.17/outbox.cif.g08.bks.cpg/sg2_94_cif.got.tgz:186083.got - 2010.06.03 11:33:40.
