data_PCOD9057607
_publ_section_title
;
Structure prediction by ZEFSAII (Michael W. Deem and Ramdas Pophale) SiO2 
 PCOD9057607
Probable space group: P -1
;
_chemical_formula_sum "Si O2"
_cell_formula_units_Z 14
_cell_length_a 5.005780
_cell_length_b 9.127486
_cell_length_c 18.457079
_cell_angle_alpha 117.951849
_cell_angle_beta 80.562544
_cell_angle_gamma 122.434929
_cell_volume 624.382666
_symmetry_space_group_name_H-M "P -1"
_symmetry_group_IT_number 2
_symmetry_cell_setting 'triclinic'
loop_
_space_group_symop_operation_xyz
x,y,z
-x,-y,-z
loop_
_atom_site_type_symbol
_atom_site_label
_atom_site_fract_x
_atom_site_fract_y
_atom_site_fract_z
Si Si1 0.217553 0.929853 0.440175
Si Si2 0.012803 0.517450 0.294717
Si Si3 0.044965 0.854490 0.751005
Si Si4 0.618317 0.548492 0.201001
Si Si5 0.174879 0.927359 0.924897
Si Si6 0.731732 0.033366 0.720318
Si Si7 0.263670 0.665120 0.972724
O O1 0.058679 0.699707 0.379755
O O2 0.308477 0.010766 0.373358
O O3 0.500000 0.000000 0.500000
O O4 0.000000 0.000000 0.500000
O O5 0.330258 0.573341 0.246160
O O6 0.973988 0.347386 0.308640
O O7 0.714193 0.452113 0.239333
O O8 0.004852 0.858171 0.839841
O O9 0.410967 0.018755 0.756638
O O10 0.803199 0.887500 0.725512
O O11 0.573069 0.436834 0.101144
O O12 0.949804 0.757516 0.230349
O O13 0.171883 0.755633 0.930094
O O14 0.514728 0.131071 0.946690
O O15 0.000000 0.000000 0.000000
O O16 0.000000 0.500000 0.000000
#
# Coordination Sequence:
#
# PCOD9057607 Si02
#       7
#     2   2   2   2   2   2   2
#     4  11  23  46  72 101 137 170 218 278 338 422
#     4  11  23  42  70  96 131 180 216 272 343 408
#     4  12  24  44  66  98 141 175 231 282 338 411
#     4  11  22  43  64  95 132 180 237 273 330 411
#     4  11  26  43  64  95 142 185 232 304 351 380
#     4  11  25  42  71 101 130 180 225 275 343 413
#     4  11  25  42  64  97 135 187 243 291 350 404
#
# _framework density 22.422149000000001
#
# number of rings (size 3 to 8) (size 9 to 14) (size 15 to 20)
#    0.000    0.857    1.429    6.857    6.000    0.571 
#    0.000    4.286    0.000    0.000    0.000    0.000 
#    0.000    0.000    0.000    0.000    0.000    0.000 
#
# Total GULP energy -78242.266700 kJ/mol
# GULP energy per Si atom -5588.733336 kJ/mol
# Density = 2.237112 g / cm^3
# Si number density = 22.422149 Si / 1000 Ang^3
#
#
#
# Elastic Constant Matrix: (Units=GPa)
#
#
# Indices 1 2 3 4 5 6 
#
# 1 109.9603 24.9588 38.9118 -0.5099 2.5084 -5.8373
# 2 24.9588 135.8092 23.3489 -3.3770 8.2795 -6.3128
# 3 38.9118 23.3489 136.0106 3.8522 9.4752 -8.8202
# 4 -0.5099 -3.3770 3.8522 32.9317 -2.7352 -0.9185
# 5 2.5084 8.2795 9.4752 -2.7352 45.1908 -7.4701
# 6 -5.8373 -6.3128 -8.8202 -0.9185 -7.4701 42.0419
#
#
#
# Elastic Compliance Matrix: (Units=1/GPa)
#
#
# Indices 1 2 3 4 5 6 
#
# 1 0.010414 -0.001426 -0.002726 0.000388 0.000400 0.000740
# 2 -0.001426 0.007885 -0.000856 0.000819 -0.001031 0.000641
# 3 -0.002726 -0.000856 0.008474 -0.001208 -0.001376 0.001000
# 4 0.000388 0.000819 -0.001208 0.030799 0.002106 0.000971
# 5 0.000400 -0.001031 -0.001376 0.002106 0.023340 0.003805
# 6 0.000740 0.000641 0.001000 0.000971 0.003805 0.024892
#
#
# Mechanical properties :
#
#
# Convention : Reuss Voigt Hill
#
# Bulk Modulus (GPa) = 59.66666 61.80213 60.73439
# Shear Modulus (GPa) = 41.18444 43.67026 42.42735
#
# Velocity S-wave (km/s) = 4.29041 4.41799 4.35467
# Velocity P-wave (km/s) = 7.15625 7.32446 7.24084
#
# Compressibility (1/GPa) = 0.01675978
#
# Stress axis : x y z
#
# Youngs Moduli (GPa) = 96.02236 126.81687 118.00845
#
# Poissons Ratio (x) = 0.18080 0.32164
# Poissons Ratio (y) = 0.13690 0.10097
# Poissons Ratio (z) = 0.26172 0.10851
#
# Static dielectric constant tensor:
#      x y z
#    x 1.883990 0.057950 0.006200 
#    y 0.057950 1.989340 0.025470 
#    z 0.006200 0.025470 1.801650 
# 
# From -- ./inp_files/134308.got.cif
#   From: 2010.05.17/outbox.cif.g08.bks.cpg/sg2_68_cif.got.tgz:134308.got - 2010.06.03 11:33:40.
