data_PCOD9057372
_publ_section_title
;
Structure prediction by ZEFSAII (Michael W. Deem and Ramdas Pophale) SiO2 
 PCOD9057372
Probable space group: P -1
;
_chemical_formula_sum "Si O2"
_cell_formula_units_Z 14
_cell_length_a 22.081373
_cell_length_b 23.068912
_cell_length_c 9.852031
_cell_angle_alpha 26.394287
_cell_angle_beta 153.041656
_cell_angle_gamma 161.085858
_cell_volume 688.723215
_symmetry_space_group_name_H-M "P -1"
_symmetry_group_IT_number 2
_symmetry_cell_setting 'triclinic'
loop_
_space_group_symop_operation_xyz
x,y,z
-x,-y,-z
loop_
_atom_site_type_symbol
_atom_site_label
_atom_site_fract_x
_atom_site_fract_y
_atom_site_fract_z
Si Si1 0.675712 0.582998 0.848671
Si Si2 0.857196 0.012121 0.744900
Si Si3 0.561805 0.400125 0.289555
Si Si4 0.056627 0.418121 0.192373
Si Si5 0.130033 0.599998 0.685984
Si Si6 0.516355 0.720690 0.138672
Si Si7 0.880419 0.102916 0.914008
O O1 0.568608 0.646395 0.508672
O O2 0.569513 0.420574 0.864575
O O3 0.668904 0.499374 0.150731
O O4 0.899834 0.767251 0.868169
O O5 0.863253 0.027263 0.888890
O O6 0.933584 0.202953 0.437557
O O7 0.635130 0.823025 0.654660
O O8 0.000000 0.000000 0.000000
O O9 0.717305 0.451943 0.594645
O O10 0.500000 0.500000 0.000000
O O11 0.033755 0.441921 0.941066
O O12 0.000000 0.500000 0.000000
O O13 0.139128 0.754775 0.431226
O O14 0.000000 0.500000 0.500000
O O15 0.348281 0.700955 0.886207
O O16 0.713921 0.930706 0.042190
#
# Coordination Sequence:
#
# PCOD9057372 Si02
#       7
#     2   2   2   2   2   2   2
#     4  11  22  42  69 100 139 183 229 296 344 418
#     4  12  25  44  78 108 140 191 240 297 363 425
#     4  12  23  45  71 103 143 184 239 296 356 420
#     4  12  26  48  74 105 146 185 241 297 357 423
#     4  12  26  49  71 101 148 191 231 296 359 422
#     4  11  25  41  69 101 140 187 234 281 359 417
#     4  12  23  47  70 102 143 188 239 293 351 430
#
# _framework density 20.327468
#
# number of rings (size 3 to 8) (size 9 to 14) (size 15 to 20)
#    0.000    0.286    7.143    1.714    0.000    0.571 
#   10.286    0.000    0.000    0.000    0.000    0.000 
#    0.000    0.000    0.000    0.000    0.000    0.000 
#
# Total GULP energy -78340.169880 kJ/mol
# GULP energy per Si atom -5595.726420 kJ/mol
# Density = 2.028120 g / cm^3
# Si number density = 20.327468 Si / 1000 Ang^3
#
#
#
# Elastic Constant Matrix: (Units=GPa)
#
#
# Indices 1 2 3 4 5 6 
#
# 1 78.8717 8.4547 36.1983 -7.8640 9.9617 12.8321
# 2 8.4547 128.2025 28.7337 -9.0536 5.4458 19.6061
# 3 36.1983 28.7337 108.4885 1.9423 10.2030 1.3133
# 4 -7.8640 -9.0536 1.9423 33.4145 3.3673 6.3350
# 5 9.9617 5.4458 10.2030 3.3673 53.4616 -0.2616
# 6 12.8321 19.6061 1.3133 6.3350 -0.2616 28.9872
#
#
#
# Elastic Compliance Matrix: (Units=1/GPa)
#
#
# Indices 1 2 3 4 5 6 
#
# 1 0.018449 0.002701 -0.006591 0.007932 -0.003011 -0.011456
# 2 0.002701 0.010248 -0.003483 0.005483 -0.001273 -0.009179
# 3 -0.006591 -0.003483 0.012393 -0.004234 -0.000488 0.005633
# 4 0.007932 0.005483 -0.004234 0.036752 -0.003617 -0.015093
# 5 -0.003011 -0.001273 -0.000488 -0.003617 0.019732 0.003184
# 6 -0.011456 -0.009179 0.005633 -0.015093 0.003184 0.048849
#
#
# Mechanical properties :
#
#
# Convention : Reuss Voigt Hill
#
# Bulk Modulus (GPa) = 37.96062 51.37068 44.66565
# Shear Modulus (GPa) = 29.42042 39.31774 34.36908
#
# Velocity S-wave (km/s) = 3.80850 4.40275 4.11636
# Velocity P-wave (km/s) = 6.16884 7.15346 6.67932
#
# Compressibility (1/GPa) = 0.02634309
#
# Stress axis : x y z
#
# Youngs Moduli (GPa) = 54.20249 97.58435 80.69278
#
# Poissons Ratio (x) = -0.26353 0.53187
# Poissons Ratio (y) = -0.14638 0.28102
# Poissons Ratio (z) = 0.35726 0.33984
#
# Static dielectric constant tensor:
#      x y z
#    x 1.724960 0.009380 -0.018040 
#    y 0.009380 1.687580 -0.001790 
#    z -0.018040 -0.001790 1.712440 
# 
# From -- ./inp_files/262207.got.cif
#   From: 2010.05.17/outbox.cif.g08.bks.cpg/sg2_132_cif.got.tgz:262207.got - 2010.06.03 11:33:40.
