data_PCOD9057635
_publ_section_title
;
Structure prediction by ZEFSAII (Michael W. Deem and Ramdas Pophale) SiO2 
 PCOD9057635
Probable space group: P -1
;
_chemical_formula_sum "Si O2"
_cell_formula_units_Z 16
_cell_length_a 11.603308
_cell_length_b 9.939350
_cell_length_c 19.305724
_cell_angle_alpha 151.561223
_cell_angle_beta 44.915537
_cell_angle_gamma 127.707853
_cell_volume 748.241616
_symmetry_space_group_name_H-M "P -1"
_symmetry_group_IT_number 2
_symmetry_cell_setting 'triclinic'
loop_
_space_group_symop_operation_xyz
x,y,z
-x,-y,-z
loop_
_atom_site_type_symbol
_atom_site_label
_atom_site_fract_x
_atom_site_fract_y
_atom_site_fract_z
Si Si1 0.833144 0.335849 0.002743
Si Si2 0.676780 0.593425 0.056557
Si Si3 0.854513 0.140586 0.201886
Si Si4 0.713197 0.199969 0.145229
Si Si5 0.799854 0.616340 0.797975
Si Si6 0.329663 0.828801 0.258117
Si Si7 0.836972 0.690640 0.665508
Si Si8 0.360277 0.394586 0.428834
O O1 0.700756 0.484034 0.074812
O O2 0.770799 0.314624 0.098724
O O3 0.000000 0.500000 0.000000
O O4 0.866717 0.018622 0.816583
O O5 0.505434 0.750702 0.182002
O O6 0.819048 0.813187 0.080349
O O7 0.687503 0.333179 0.880895
O O8 0.843079 0.208517 0.155970
O O9 0.706376 0.309161 0.379580
O O10 0.021312 0.252058 0.212694
O O11 0.550770 0.355522 0.313098
O O12 0.684403 0.862674 0.993328
O O13 0.795271 0.322100 0.706290
O O14 0.753527 0.585467 0.723950
O O15 0.313566 0.157257 0.397193
O O16 0.729935 0.663239 0.630811
O O17 0.000000 0.500000 0.500000
#
# Coordination Sequence:
#
# PCOD9057635 Si02
#       8
#     2   2   2   2   2   2   2   2
#     4  11  26  43  70  99 133 179 226 279 332 404
#     4  11  22  43  66  97 136 173 224 284 327 400
#     4  12  24  44  70  97 143 175 227 274 344 398
#     4  11  24  42  69 100 128 181 228 269 336 406
#     4  11  24  41  72  99 130 182 227 281 331 402
#     4  11  23  41  67 101 132 172 232 281 329 391
#     4  11  24  46  65  96 141 175 218 276 350 397
#     4  12  25  45  69  99 137 182 219 284 340 404
#
# _framework density 21.383468000000001
#
# number of rings (size 3 to 8) (size 9 to 14) (size 15 to 20)
#    0.000    0.750    5.000    3.000    3.500    1.500 
#    2.250    0.625    0.000    0.000    0.000    0.000 
#    0.000    0.000    0.000    0.000    0.000    0.000 
#
# Total GULP energy -89514.177787 kJ/mol
# GULP energy per Si atom -5594.636112 kJ/mol
# Density = 2.133480 g / cm^3
# Si number density = 21.383468 Si / 1000 Ang^3
#
#
#
# Elastic Constant Matrix: (Units=GPa)
#
#
# Indices 1 2 3 4 5 6 
#
# 1 109.3790 49.3259 10.4171 2.5922 2.6183 -28.8580
# 2 49.3259 109.8124 13.3508 3.8805 9.3913 -15.9733
# 3 10.4171 13.3508 67.5971 -9.0202 3.2332 -0.5781
# 4 2.5922 3.8805 -9.0202 20.5218 -2.2235 1.4629
# 5 2.6183 9.3913 3.2332 -2.2235 30.9812 -5.3076
# 6 -28.8580 -15.9733 -0.5781 1.4629 -5.3076 45.5739
#
#
#
# Elastic Compliance Matrix: (Units=1/GPa)
#
#
# Indices 1 2 3 4 5 6 
#
# 1 0.013299 -0.004880 -0.001323 -0.001664 0.001561 0.006929
# 2 -0.004880 0.012009 -0.001846 -0.002861 -0.003099 0.000827
# 3 -0.001323 -0.001846 0.016421 0.007767 -0.000761 -0.001615
# 4 -0.001664 -0.002861 0.007767 0.053503 0.003477 -0.003270
# 5 0.001561 -0.003099 -0.000761 0.003477 0.034056 0.003747
# 6 0.006929 0.000827 -0.001615 -0.003270 0.003747 0.027141
#
#
# Mechanical properties :
#
#
# Convention : Reuss Voigt Hill
#
# Bulk Modulus (GPa) = 39.01485 48.10846 43.56166
# Shear Modulus (GPa) = 27.61331 33.66170 30.63751
#
# Velocity S-wave (km/s) = 3.59742 3.97191 3.78930
# Velocity P-wave (km/s) = 5.96156 6.60164 6.28975
#
# Compressibility (1/GPa) = 0.02563126
#
# Stress axis : x y z
#
# Youngs Moduli (GPa) = 75.19122 83.26956 60.89726
#
# Poissons Ratio (x) = 0.40634 0.08057
# Poissons Ratio (y) = 0.36692 0.11244
# Poissons Ratio (z) = 0.09949 0.15374
#
# Static dielectric constant tensor:
#      x y z
#    x 1.780040 0.009520 -0.021850 
#    y 0.009520 1.783250 -0.019220 
#    z -0.021850 -0.019220 1.771830 
# 
# From -- ./inp_files/298048.got.cif
#   From: 2010.05.17/outbox.cif.g08.bks.cpg/sg2_150_cif.got.tgz:298048.got - 2010.06.03 11:33:40.
