data_PCOD9057899
_publ_section_title
;
Structure prediction by ZEFSAII (Michael W. Deem and Ramdas Pophale) SiO2 
 PCOD9057899
Probable space group: P -1
;
_chemical_formula_sum "Si O2"
_cell_formula_units_Z 16
_cell_length_a 9.233571
_cell_length_b 10.456973
_cell_length_c 9.041758
_cell_angle_alpha 76.513464
_cell_angle_beta 49.855256
_cell_angle_gamma 80.708697
_cell_volume 648.884170
_symmetry_space_group_name_H-M "P -1"
_symmetry_group_IT_number 2
_symmetry_cell_setting 'triclinic'
loop_
_space_group_symop_operation_xyz
x,y,z
-x,-y,-z
loop_
_atom_site_type_symbol
_atom_site_label
_atom_site_fract_x
_atom_site_fract_y
_atom_site_fract_z
Si Si1 0.591437 0.228882 0.870620
Si Si2 0.622264 0.270634 0.368971
Si Si3 0.908798 0.635749 0.476522
Si Si4 0.874568 0.184640 0.484076
Si Si5 0.801965 0.125142 0.021716
Si Si6 0.809460 0.757928 0.225232
Si Si7 0.791898 0.870690 0.911352
Si Si8 0.522977 0.522723 0.804486
O O1 0.698709 0.132599 0.709059
O O2 0.715121 0.233505 0.935874
O O3 0.575611 0.372574 0.766828
O O4 0.386593 0.173563 0.052443
O O5 0.772118 0.273938 0.402720
O O6 0.411871 0.233546 0.581192
O O7 0.614770 0.407117 0.243022
O O8 0.705228 0.159447 0.231778
O O9 0.900311 0.647146 0.301534
O O10 0.690692 0.626826 0.663781
O O11 0.000000 0.500000 0.500000
O O12 0.006756 0.743241 0.485418
O O13 0.025430 0.100127 0.314721
O O14 0.031248 0.131293 0.872353
O O15 0.742762 0.990701 0.019823
O O16 0.824008 0.751344 0.040777
O O17 0.500000 0.500000 0.000000
#
# Coordination Sequence:
#
# PCOD9057899 Si02
#       8
#     2   2   2   2   2   2   2   2
#     4  12  25  47  70 102 142 175 231 293 343 409
#     4  11  26  43  74 104 137 185 227 281 353 408
#     4  11  23  43  71  98 137 182 223 281 351 410
#     4  12  25  44  67 104 142 175 231 281 344 403
#     4  12  25  48  71  98 140 189 231 282 345 406
#     4  11  24  45  68 101 140 179 232 281 341 412
#     4  12  28  45  69 104 139 183 240 282 333 413
#     4  11  22  43  73  99 135 178 228 279 348 419
#
# _framework density 24.657715
#
# number of rings (size 3 to 8) (size 9 to 14) (size 15 to 20)
#    0.000    0.500    6.250    1.500    1.750    3.500 
#    0.000    1.875    0.000    0.000    0.000    0.000 
#    0.000    0.000    0.000    0.000    0.000    0.000 
#
# Total GULP energy -89240.993803 kJ/mol
# GULP energy per Si atom -5577.562113 kJ/mol
# Density = 2.460159 g / cm^3
# Si number density = 24.657715 Si / 1000 Ang^3
#
#
#
# Elastic Constant Matrix: (Units=GPa)
#
#
# Indices 1 2 3 4 5 6 
#
# 1 108.9065 8.0556 13.7698 -2.0316 -7.4192 -10.7500
# 2 8.0556 52.5863 4.8140 9.0090 -4.6076 -5.1874
# 3 13.7698 4.8140 117.1468 11.4442 3.2346 -1.1298
# 4 -2.0316 9.0090 11.4442 35.5097 3.1889 3.1999
# 5 -7.4192 -4.6076 3.2346 3.1889 40.7005 -8.5078
# 6 -10.7500 -5.1874 -1.1298 3.1999 -8.5078 30.8895
#
#
#
# Elastic Compliance Matrix: (Units=1/GPa)
#
#
# Indices 1 2 3 4 5 6 
#
# 1 0.009980 -0.000907 -0.001229 0.000611 0.002587 0.003925
# 2 -0.000907 0.021025 -0.000219 -0.006088 0.003726 0.004864
# 3 -0.001229 -0.000219 0.008987 -0.002840 -0.000751 -0.000048
# 4 0.000611 -0.006088 -0.002840 0.031481 -0.003917 -0.005254
# 5 0.002587 0.003726 -0.000751 -0.003917 0.027830 0.009569
# 6 0.003925 0.004864 -0.000048 -0.005254 0.009569 0.037734
#
#
# Mechanical properties :
#
#
# Convention : Reuss Voigt Hill
#
# Bulk Modulus (GPa) = 28.34276 36.87983 32.61130
# Shear Modulus (GPa) = 32.57163 38.21995 35.39579
#
# Velocity S-wave (km/s) = 3.63843 3.94130 3.79289
# Velocity P-wave (km/s) = 5.40096 5.97503 5.69523
#
# Compressibility (1/GPa) = 0.03528238
#
# Stress axis : x y z
#
# Youngs Moduli (GPa) = 100.20304 47.56312 111.26676
#
# Poissons Ratio (x) = 0.04315 0.13675
# Poissons Ratio (y) = 0.09090 0.02431
# Poissons Ratio (z) = 0.12316 0.01039
#
# Static dielectric constant tensor:
#      x y z
#    x 2.258350 -0.159690 -0.026240 
#    y -0.159690 2.084300 -0.034230 
#    z -0.026240 -0.034230 2.049870 
# 
# From -- ./inp_files/186398.got.cif
#   From: 2010.05.17/outbox.cif.g08.bks.cpg/sg2_94_cif.got.tgz:186398.got - 2010.06.03 11:33:40.
