data_PCOD9057856
_publ_section_title
;
Structure prediction by ZEFSAII (Michael W. Deem and Ramdas Pophale) SiO2 
 PCOD9057856
Probable space group: P -1
;
_chemical_formula_sum "Si O2"
_cell_formula_units_Z 14
_cell_length_a 8.934824
_cell_length_b 9.435308
_cell_length_c 12.186364
_cell_angle_alpha 34.346916
_cell_angle_beta 94.624350
_cell_angle_gamma 93.128603
_cell_volume 577.612161
_symmetry_space_group_name_H-M "P -1"
_symmetry_group_IT_number 2
_symmetry_cell_setting 'triclinic'
loop_
_space_group_symop_operation_xyz
x,y,z
-x,-y,-z
loop_
_atom_site_type_symbol
_atom_site_label
_atom_site_fract_x
_atom_site_fract_y
_atom_site_fract_z
Si Si1 0.135486 0.311594 0.494305
Si Si2 0.476566 0.616330 0.805193
Si Si3 0.086261 0.257155 0.868724
Si Si4 0.917886 0.941057 0.790137
Si Si5 0.748873 0.962832 0.540697
Si Si6 0.653213 0.284129 0.648015
Si Si7 0.425564 0.334854 0.775632
O O1 0.190093 0.182418 0.468820
O O2 0.265245 0.477513 0.446372
O O3 0.997795 0.506903 0.342095
O O4 0.070733 0.094712 0.705429
O O5 0.606268 0.815801 0.671048
O O6 0.496381 0.397843 0.856067
O O7 0.318110 0.763498 0.675390
O O8 0.500000 0.500000 0.000000
O O9 0.256841 0.248458 0.841573
O O10 0.070182 0.293928 0.977007
O O11 0.000000 0.000000 0.000000
O O12 0.780723 0.088098 0.747537
O O13 0.869983 0.941463 0.659845
O O14 0.532713 0.186779 0.790775
O O15 0.584392 0.393908 0.461807
#
# Coordination Sequence:
#
# PCOD9057856 Si02
#       7
#     2   2   2   2   2   2   2
#     4  12  24  46  68 100 145 178 232 287 343 412
#     4  11  23  44  70 101 143 178 230 289 339 410
#     4  12  25  42  69 104 137 180 234 285 346 409
#     4  12  24  43  71  99 140 185 228 285 349 406
#     4  11  25  43  68 102 136 187 232 274 352 411
#     4  11  22  43  72  96 138 182 225 284 344 407
#     4  11  23  43  70 101 137 181 229 288 345 406
#
# _framework density 24.237715999999999
#
# number of rings (size 3 to 8) (size 9 to 14) (size 15 to 20)
#    0.000    0.571    5.714    2.571    0.000    2.286 
#    0.000    0.000    0.000    0.000    0.000    0.000 
#    0.000    0.000    0.000    0.000    0.000    0.000 
#
# Total GULP energy -78376.106248 kJ/mol
# GULP energy per Si atom -5598.293303 kJ/mol
# Density = 2.418255 g / cm^3
# Si number density = 24.237716 Si / 1000 Ang^3
#
#
#
# Elastic Constant Matrix: (Units=GPa)
#
#
# Indices 1 2 3 4 5 6 
#
# 1 64.2209 -6.2308 34.6305 10.8212 -16.8702 3.7783
# 2 -6.2308 101.7186 35.4322 29.1491 -3.0132 -1.6694
# 3 34.6305 35.4322 94.9354 32.9902 -25.4998 0.0460
# 4 10.8212 29.1491 32.9902 46.8088 -0.8298 -1.5225
# 5 -16.8702 -3.0132 -25.4998 -0.8298 36.3321 5.3587
# 6 3.7783 -1.6694 0.0460 -1.5225 5.3587 37.0408
#
#
#
# Elastic Compliance Matrix: (Units=1/GPa)
#
#
# Indices 1 2 3 4 5 6 
#
# 1 0.022234 0.004897 -0.007254 -0.003069 0.006016 -0.003035
# 2 0.004897 0.013555 -0.004655 -0.006297 0.000008 -0.000143
# 3 -0.007254 -0.004655 0.021648 -0.010530 0.011432 -0.001583
# 4 -0.003069 -0.006297 -0.010530 0.033345 -0.008976 0.002711
# 5 0.006016 0.000008 0.011432 -0.008976 0.039118 -0.006656
# 6 -0.003035 -0.000143 -0.001583 0.002711 -0.006656 0.028377
#
#
# Mechanical properties :
#
#
# Convention : Reuss Voigt Hill
#
# Bulk Modulus (GPa) = 23.03528 43.17098 33.10313
# Shear Modulus (GPa) = 26.77068 37.17254 31.97161
#
# Velocity S-wave (km/s) = 3.32701 3.92045 3.63586
# Velocity P-wave (km/s) = 4.92780 6.19221 5.59583
#
# Compressibility (1/GPa) = 0.04341166
#
# Stress axis : x y z
#
# Youngs Moduli (GPa) = 44.97582 73.77474 46.19448
#
# Poissons Ratio (x) = -0.36125 0.33511
# Poissons Ratio (y) = -0.22023 0.21503
# Poissons Ratio (z) = 0.32627 0.34341
#
# Static dielectric constant tensor:
#      x y z
#    x 1.944580 0.026160 0.062500 
#    y 0.026160 1.950440 0.014740 
#    z 0.062500 0.014740 2.008570 
# 
# From -- ./inp_files/183781.got.cif
#   From: 2010.05.17/outbox.cif.g08.bks.cpg/sg2_92_cif.got.tgz:183781.got - 2010.06.03 11:33:40.
