data_PCOD9057492
_publ_section_title
;
Structure prediction by ZEFSAII (Michael W. Deem and Ramdas Pophale) SiO2 
 PCOD9057492
Probable space group: P -1
;
_chemical_formula_sum "Si O2"
_cell_formula_units_Z 14
_cell_length_a 11.545447
_cell_length_b 10.046692
_cell_length_c 8.366903
_cell_angle_alpha 122.484727
_cell_angle_beta 85.208025
_cell_angle_gamma 127.415208
_cell_volume 606.027521
_symmetry_space_group_name_H-M "P -1"
_symmetry_group_IT_number 2
_symmetry_cell_setting 'triclinic'
loop_
_space_group_symop_operation_xyz
x,y,z
-x,-y,-z
loop_
_atom_site_type_symbol
_atom_site_label
_atom_site_fract_x
_atom_site_fract_y
_atom_site_fract_z
Si Si1 0.160837 0.480923 0.348437
Si Si2 0.553701 0.484667 0.315400
Si Si3 0.778562 0.899531 0.430479
Si Si4 0.709494 0.628015 0.967423
Si Si5 0.484441 0.099438 0.415078
Si Si6 0.656700 0.302235 0.020557
Si Si7 0.017425 0.374433 0.643348
O O1 0.160897 0.326063 0.137249
O O2 0.343608 0.676408 0.492097
O O3 0.066481 0.381496 0.459582
O O4 0.097561 0.578614 0.326359
O O5 0.500000 0.500000 0.500000
O O6 0.734551 0.703658 0.410210
O O7 0.437390 0.447746 0.169467
O O8 0.555407 0.300585 0.165013
O O9 0.640611 0.885607 0.503988
O O10 0.760940 0.817634 0.199126
O O11 0.931589 0.144891 0.581668
O O12 0.663009 0.435505 0.959646
O O13 0.500000 0.000000 0.500000
O O14 0.417060 0.926608 0.174453
O O15 0.831000 0.439180 0.154205
#
# Coordination Sequence:
#
# PCOD9057492 Si02
#       7
#     2   2   2   2   2   2   2
#     4  11  24  43  69  97 141 168 222 272 324 384
#     4  11  23  42  67 102 129 166 226 284 313 385
#     4  11  23  41  71  93 134 175 222 261 339 389
#     4  11  22  42  71  96 127 177 220 274 321 388
#     4  12  20  41  73  97 120 183 226 267 314 396
#     4  11  24  41  71  95 137 171 223 264 336 385
#     4  11  26  45  62 103 139 173 207 281 330 393
#
# _framework density 23.101264
#
# number of rings (size 3 to 8) (size 9 to 14) (size 15 to 20)
#    0.000    0.857    4.286    3.429    0.000    5.714 
#    0.000    1.429    0.000    0.000    0.000    0.000 
#    0.000    0.000    0.000    0.000    0.000    0.000 
#
# Total GULP energy -78301.101638 kJ/mol
# GULP energy per Si atom -5592.935831 kJ/mol
# Density = 2.304868 g / cm^3
# Si number density = 23.101264 Si / 1000 Ang^3
#
#
#
# Elastic Constant Matrix: (Units=GPa)
#
#
# Indices 1 2 3 4 5 6 
#
# 1 120.5457 17.6547 68.9005 -1.7097 -19.4854 20.1121
# 2 17.6547 70.0457 27.1172 1.9877 -2.4343 8.4488
# 3 68.9005 27.1172 167.8429 6.0181 -29.1965 14.1839
# 4 -1.7097 1.9877 6.0181 32.7737 -4.4244 -0.6791
# 5 -19.4854 -2.4343 -29.1965 -4.4244 45.5458 -10.6901
# 6 20.1121 8.4488 14.1839 -0.6791 -10.6901 36.8149
#
#
#
# Elastic Compliance Matrix: (Units=1/GPa)
#
#
# Indices 1 2 3 4 5 6 
#
# 1 0.011736 -0.000852 -0.004121 0.001538 0.001506 -0.004162
# 2 -0.000852 0.015646 -0.002204 -0.000873 -0.001678 -0.002780
# 3 -0.004121 -0.002204 0.008644 -0.001165 0.003657 0.000467
# 4 0.001538 -0.000873 -0.001165 0.031321 0.003217 0.001321
# 5 0.001506 -0.001678 0.003657 0.003217 0.026558 0.005925
# 6 -0.004162 -0.002780 0.000467 0.001321 0.005925 0.031639
#
#
# Mechanical properties :
#
#
# Convention : Reuss Voigt Hill
#
# Bulk Modulus (GPa) = 46.14255 65.08655 55.61455
# Shear Modulus (GPa) = 33.98541 39.34435 36.66488
#
# Velocity S-wave (km/s) = 3.83972 4.13137 3.98821
# Velocity P-wave (km/s) = 6.29883 7.14096 6.73307
#
# Compressibility (1/GPa) = 0.02167197
#
# Stress axis : x y z
#
# Youngs Moduli (GPa) = 85.21016 63.91415 115.68308
#
# Poissons Ratio (x) = 0.05443 0.47678
# Poissons Ratio (y) = 0.07257 0.25496
# Poissons Ratio (z) = 0.35119 0.14086
#
# Static dielectric constant tensor:
#      x y z
#    x 1.942040 -0.053040 -0.087250 
#    y -0.053040 1.913190 0.005200 
#    z -0.087250 0.005200 1.960960 
# 
# From -- ./inp_files/260628.got.cif
#   From: 2010.05.17/outbox.cif.g08.bks.cpg/sg2_131_cif.got.tgz:260628.got - 2010.06.03 11:33:40.
