data_PCOD9057744
_publ_section_title
;
Structure prediction by ZEFSAII (Michael W. Deem and Ramdas Pophale) SiO2 
 PCOD9057744
Probable space group: P -1
;
_chemical_formula_sum "Si O2"
_cell_formula_units_Z 12
_cell_length_a 12.402981
_cell_length_b 13.606801
_cell_length_c 10.771675
_cell_angle_alpha 31.921110
_cell_angle_beta 145.328263
_cell_angle_gamma 148.496581
_cell_volume 469.102543
_symmetry_space_group_name_H-M "P -1"
_symmetry_group_IT_number 2
_symmetry_cell_setting 'triclinic'
loop_
_space_group_symop_operation_xyz
x,y,z
-x,-y,-z
loop_
_atom_site_type_symbol
_atom_site_label
_atom_site_fract_x
_atom_site_fract_y
_atom_site_fract_z
Si Si1 0.362316 0.934423 0.242112
Si Si2 0.018790 0.066202 0.256129
Si Si3 0.697788 0.509518 0.450045
Si Si4 0.900130 0.653382 0.733515
Si Si5 0.668191 0.563316 0.980075
Si Si6 0.176815 0.761029 0.521911
O O1 0.345771 0.721012 0.393754
O O2 0.243030 0.876500 0.326832
O O3 0.617610 0.102955 0.335417
O O4 0.225605 0.000728 0.949476
O O5 0.104156 0.266563 0.218820
O O6 0.181012 0.180337 0.171917
O O7 0.034518 0.883360 0.541581
O O8 0.702923 0.523614 0.588198
O O9 0.504255 0.540159 0.184055
O O10 0.935128 0.686959 0.425415
O O11 0.000000 0.500000 0.000000
O O12 0.500000 0.500000 0.000000
O O13 0.819307 0.461335 0.251682
#
# Coordination Sequence:
#
# PCOD9057744 Si02
#       6
#     2   2   2   2   2   2
#     4  11  22  43  70 102 145 189 236 301 358 428
#     4  11  25  46  74 108 145 189 252 297 358 440
#     4  12  24  43  72 101 144 192 238 295 366 426
#     4  11  24  47  74 102 143 196 246 303 361 421
#     4  12  24  43  72 107 146 191 235 296 371 435
#     4  11  24  43  68 105 149 187 238 298 364 438
#
# _framework density 25.580762
#
# number of rings (size 3 to 8) (size 9 to 14) (size 15 to 20)
#    0.000    0.667    5.000    2.500    2.333    0.667 
#    0.000    9.167    0.000    0.000    0.000    0.000 
#    0.000    0.000    0.000    0.000    0.000    0.000 
#
# Total GULP energy -67176.312239 kJ/mol
# GULP energy per Si atom -5598.026020 kJ/mol
# Density = 2.552254 g / cm^3
# Si number density = 25.580762 Si / 1000 Ang^3
#
#
#
# Elastic Constant Matrix: (Units=GPa)
#
#
# Indices 1 2 3 4 5 6 
#
# 1 77.3828 35.1884 37.2786 -1.7098 7.2705 5.2036
# 2 35.1884 144.9882 28.9989 8.3737 -1.1081 1.7029
# 3 37.2786 28.9989 145.1067 9.5606 -8.3596 8.9521
# 4 -1.7098 8.3737 9.5606 57.3622 -8.6479 -7.2311
# 5 7.2705 -1.1081 -8.3596 -8.6479 27.4181 7.1922
# 6 5.2036 1.7029 8.9521 -7.2311 7.1922 54.1423
#
#
#
# Elastic Compliance Matrix: (Units=1/GPa)
#
#
# Indices 1 2 3 4 5 6 
#
# 1 0.016968 -0.003397 -0.004059 0.000833 -0.005613 0.000004
# 2 -0.003397 0.007907 -0.000592 -0.001056 0.000723 -0.000061
# 3 -0.004059 -0.000592 0.008438 -0.001087 0.003708 -0.001624
# 4 0.000833 -0.001056 -0.001087 0.018769 0.004800 0.002002
# 5 -0.005613 0.000723 0.003708 0.004800 0.041954 -0.005028
# 6 0.000004 -0.000061 -0.001624 0.002002 -0.005028 0.019675
#
#
# Mechanical properties :
#
#
# Convention : Reuss Voigt Hill
#
# Bulk Modulus (GPa) = 58.08375 63.37885 60.73130
# Shear Modulus (GPa) = 36.88730 45.51863 41.20296
#
# Velocity S-wave (km/s) = 3.80148 4.22288 4.01771
# Velocity P-wave (km/s) = 6.48256 6.97185 6.73166
#
# Compressibility (1/GPa) = 0.01721652
#
# Stress axis : x y z
#
# Youngs Moduli (GPa) = 58.93287 126.46420 118.51119
#
# Poissons Ratio (x) = 0.42966 0.48101
# Poissons Ratio (y) = 0.20022 0.07021
# Poissons Ratio (z) = 0.23919 0.07492
#
# Static dielectric constant tensor:
#      x y z
#    x 2.074360 -0.035530 -0.089640 
#    y -0.035530 2.077230 -0.042220 
#    z -0.089640 -0.042220 2.097530 
# 
# From -- ./inp_files/454421.got.cif
#   From: 2010.05.17/outbox.cif.g08.bks.cpg/sg2_228_cif.got.tgz:454421.got - 2010.06.03 11:33:40.
