data_PCOD9057406
_publ_section_title
;
Structure prediction by ZEFSAII (Michael W. Deem and Ramdas Pophale) SiO2 
 PCOD9057406
Probable space group: P -1
;
_chemical_formula_sum "Si O2"
_cell_formula_units_Z 14
_cell_length_a 9.824974
_cell_length_b 9.620080
_cell_length_c 9.633332
_cell_angle_alpha 106.429131
_cell_angle_beta 113.716725
_cell_angle_gamma 42.831257
_cell_volume 566.619445
_symmetry_space_group_name_H-M "P -1"
_symmetry_group_IT_number 2
_symmetry_cell_setting 'triclinic'
loop_
_space_group_symop_operation_xyz
x,y,z
-x,-y,-z
loop_
_atom_site_type_symbol
_atom_site_label
_atom_site_fract_x
_atom_site_fract_y
_atom_site_fract_z
Si Si1 0.068076 0.159414 0.928462
Si Si2 0.495331 0.731643 0.587137
Si Si3 0.078019 0.594219 0.493053
Si Si4 0.416772 0.787129 0.103922
Si Si5 0.048193 0.024238 0.371893
Si Si6 0.589494 0.509874 0.833118
Si Si7 0.686841 0.879713 0.217833
O O1 0.241352 0.140950 0.916977
O O2 0.021600 0.051509 0.782773
O O3 0.836334 0.384610 0.913910
O O4 0.186901 0.019142 0.073684
O O5 0.298024 0.870277 0.442315
O O6 0.510057 0.593535 0.668509
O O7 0.703094 0.582881 0.540747
O O8 0.467003 0.892471 0.718805
O O9 0.906663 0.748182 0.349211
O O10 0.000000 0.500000 0.500000
O O11 0.066229 0.743031 0.629285
O O12 0.429414 0.642650 0.169253
O O13 0.589451 0.792566 0.191738
O O14 0.458365 0.692951 0.941090
O O15 0.000000 0.000000 0.500000
#
# Coordination Sequence:
#
# PCOD9057406 Si02
#       7
#     2   2   2   2   2   2   2
#     4  12  23  43  67  98 131 174 222 264 328 391
#     4  11  23  44  70  96 131 178 213 271 334 388
#     4  11  26  44  66 102 134 170 223 272 328 394
#     4  11  26  43  66  99 133 171 219 277 315 387
#     4  11  22  42  69  97 130 171 219 270 324 397
#     4  11  24  43  68  99 128 173 226 261 329 388
#     4  11  24  45  66  97 135 172 218 271 330 388
#
# _framework density 24.707941000000002
#
# number of rings (size 3 to 8) (size 9 to 14) (size 15 to 20)
#    0.000    0.857    5.714    0.857    0.000   13.143 
#    0.000    0.000    0.000    0.000    0.000    0.000 
#    0.000    0.000    0.000    0.000    0.000    0.000 
#
# Total GULP energy -78467.258864 kJ/mol
# GULP energy per Si atom -5604.804205 kJ/mol
# Density = 2.465170 g / cm^3
# Si number density = 24.707941 Si / 1000 Ang^3
#
#
#
# Elastic Constant Matrix: (Units=GPa)
#
#
# Indices 1 2 3 4 5 6 
#
# 1 149.6964 55.7820 18.4964 5.1875 -0.5520 1.8345
# 2 55.7820 122.6920 9.1297 -11.3761 -6.2406 -22.6679
# 3 18.4964 9.1297 40.9375 -0.9037 5.2005 -12.5586
# 4 5.1875 -11.3761 -0.9037 26.8220 -7.0624 2.5155
# 5 -0.5520 -6.2406 5.2005 -7.0624 32.9175 -0.0348
# 6 1.8345 -22.6679 -12.5586 2.5155 -0.0348 50.6334
#
#
#
# Elastic Compliance Matrix: (Units=1/GPa)
#
#
# Indices 1 2 3 4 5 6 
#
# 1 0.009181 -0.004905 -0.004039 -0.003939 -0.000987 -0.003335
# 2 -0.004905 0.012111 0.000906 0.006514 0.003474 0.005503
# 3 -0.004039 0.000906 0.028987 0.000256 -0.004412 0.007726
# 4 -0.003939 0.006514 0.000256 0.043479 0.010458 0.000970
# 5 -0.000987 0.003474 -0.004412 0.010458 0.033962 0.000000
# 6 -0.003335 0.005503 0.007726 0.000970 0.000000 0.024202
#
#
# Mechanical properties :
#
#
# Convention : Reuss Voigt Hill
#
# Bulk Modulus (GPa) = 29.23823 53.34912 41.29367
# Shear Modulus (GPa) = 27.87100 37.40244 32.63672
#
# Velocity S-wave (km/s) = 3.36224 3.89496 3.63836
# Velocity P-wave (km/s) = 5.18962 6.47042 5.86509
#
# Compressibility (1/GPa) = 0.03420179
#
# Stress axis : x y z
#
# Youngs Moduli (GPa) = 108.92282 82.57222 34.49869
#
# Poissons Ratio (x) = 0.40503 0.13934
# Poissons Ratio (y) = 0.53428 -0.03126
# Poissons Ratio (z) = 0.43994 -0.07481
#
# Static dielectric constant tensor:
#      x y z
#    x 1.961150 -0.011740 0.009470 
#    y -0.011740 1.974900 -0.022780 
#    z 0.009470 -0.022780 2.017460 
# 
# From -- ./inp_files/241376.got.cif
#   From: 2010.05.17/outbox.cif.g08.bks.cpg/sg2_121_cif.got.tgz:241376.got - 2010.06.03 11:33:40.
