data_PCOD9057197
_publ_section_title
;
Structure prediction by ZEFSAII (Michael W. Deem and Ramdas Pophale) SiO2 
 PCOD9057197
Probable space group: P -1
;
_chemical_formula_sum "Si O2"
_cell_formula_units_Z 16
_cell_length_a 9.408231
_cell_length_b 13.016021
_cell_length_c 7.484699
_cell_angle_alpha 101.281532
_cell_angle_beta 108.638028
_cell_angle_gamma 48.690591
_cell_volume 652.221027
_symmetry_space_group_name_H-M "P -1"
_symmetry_group_IT_number 2
_symmetry_cell_setting 'triclinic'
loop_
_space_group_symop_operation_xyz
x,y,z
-x,-y,-z
loop_
_atom_site_type_symbol
_atom_site_label
_atom_site_fract_x
_atom_site_fract_y
_atom_site_fract_z
Si Si1 0.334511 0.570872 0.107643
Si Si2 0.672378 0.666520 0.988912
Si Si3 0.891494 0.287123 0.449761
Si Si4 0.784657 0.556272 0.395404
Si Si5 0.742226 0.042745 0.067818
Si Si6 0.869967 0.003715 0.700745
Si Si7 0.928240 0.747757 0.100831
Si Si8 0.411659 0.711490 0.488178
O O1 0.392499 0.633424 0.294691
O O2 0.105585 0.700560 0.023731
O O3 0.500000 0.500000 0.000000
O O4 0.317462 0.456749 0.120260
O O5 0.699714 0.640659 0.206241
O O6 0.837625 0.675254 0.000489
O O7 0.461423 0.812059 0.912460
O O8 0.821760 0.415965 0.352252
O O9 0.698666 0.302290 0.406285
O O10 0.060419 0.140227 0.385417
O O11 0.973200 0.290674 0.675484
O O12 0.635976 0.643968 0.529520
O O13 0.000000 0.500000 0.500000
O O14 0.934322 0.013388 0.214283
O O15 0.763579 0.911336 0.081355
O O16 0.768895 0.043317 0.865932
O O17 0.722214 0.128707 0.552970
#
# Coordination Sequence:
#
# PCOD9057197 Si02
#       8
#     2   2   2   2   2   2   2   2
#     4  11  22  41  73 100 130 177 230 282 337 395
#     4  12  25  45  69 100 142 181 224 283 347 402
#     4  11  25  43  72 100 138 182 226 278 341 404
#     4  12  25  45  67  94 142 183 221 277 343 408
#     4  11  24  42  73 102 137 174 232 283 340 402
#     4  11  23  43  73 105 133 177 229 289 336 399
#     4  11  25  47  66 103 142 178 227 285 337 411
#     4  11  23  46  68 101 136 172 236 280 332 408
#
# _framework density 24.531561
#
# number of rings (size 3 to 8) (size 9 to 14) (size 15 to 20)
#    0.000    0.750    6.250    1.500    5.250    0.000 
#    0.000    2.500    0.000    0.000    0.000    0.000 
#    0.000    0.000    0.000    0.000    0.000    0.000 
#
# Total GULP energy -89626.947256 kJ/mol
# GULP energy per Si atom -5601.684204 kJ/mol
# Density = 2.447573 g / cm^3
# Si number density = 24.531561 Si / 1000 Ang^3
#
#
#
# Elastic Constant Matrix: (Units=GPa)
#
#
# Indices 1 2 3 4 5 6 
#
# 1 116.9933 32.1279 7.0324 -10.9213 13.5166 -15.0542
# 2 32.1279 155.5494 5.2658 -2.8260 10.4187 -9.3554
# 3 7.0324 5.2658 47.5985 -7.8445 3.7601 -7.7896
# 4 -10.9213 -2.8260 -7.8445 38.7586 -9.7869 -6.1998
# 5 13.5166 10.4187 3.7601 -9.7869 23.0740 -2.9752
# 6 -15.0542 -9.3554 -7.7896 -6.1998 -2.9752 45.3925
#
#
#
# Elastic Compliance Matrix: (Units=1/GPa)
#
#
# Indices 1 2 3 4 5 6 
#
# 1 0.010027 -0.001589 -0.000147 0.002202 -0.003809 0.003024
# 2 -0.001589 0.006950 -0.000330 -0.000481 -0.002276 0.000634
# 3 -0.000147 -0.000330 0.022680 0.005041 -0.000754 0.004414
# 4 0.002202 -0.000481 0.005041 0.031585 0.012357 0.006620
# 5 -0.003809 -0.002276 -0.000754 0.012357 0.052382 0.003259
# 6 0.003024 0.000634 0.004414 0.006620 0.003259 0.025039
#
#
# Mechanical properties :
#
#
# Convention : Reuss Voigt Hill
#
# Bulk Modulus (GPa) = 28.14903 45.44371 36.79637
# Shear Modulus (GPa) = 30.36980 39.82601 35.09791
#
# Velocity S-wave (km/s) = 3.52232 4.03359 3.78660
# Velocity P-wave (km/s) = 5.29546 6.34491 5.84379
#
# Compressibility (1/GPa) = 0.03552521
#
# Stress axis : x y z
#
# Youngs Moduli (GPa) = 99.72671 143.88399 44.09183
#
# Poissons Ratio (x) = 0.22865 0.00649
# Poissons Ratio (y) = 0.15848 0.01454
# Poissons Ratio (z) = 0.01467 0.04746
#
# Static dielectric constant tensor:
#      x y z
#    x 1.935030 -0.010490 0.026900 
#    y -0.010490 1.917810 -0.018260 
#    z 0.026900 -0.018260 2.073710 
# 
# From -- ./inp_files/188643.got.cif
#   From: 2010.05.17/outbox.cif.g08.bks.cpg/sg2_95_cif.got.tgz:188643.got - 2010.06.03 11:33:40.
