data_PCOD9057273
_publ_section_title
;
Structure prediction by ZEFSAII (Michael W. Deem and Ramdas Pophale) SiO2 
 PCOD9057273
Probable space group: P -1
;
_chemical_formula_sum "Si O2"
_cell_formula_units_Z 16
_cell_length_a 16.537518
_cell_length_b 12.418259
_cell_length_c 8.217831
_cell_angle_alpha 75.019359
_cell_angle_beta 32.868390
_cell_angle_gamma 62.497360
_cell_volume 782.520594
_symmetry_space_group_name_H-M "P -1"
_symmetry_group_IT_number 2
_symmetry_cell_setting 'triclinic'
loop_
_space_group_symop_operation_xyz
x,y,z
-x,-y,-z
loop_
_atom_site_type_symbol
_atom_site_label
_atom_site_fract_x
_atom_site_fract_y
_atom_site_fract_z
Si Si1 0.408008 0.595607 0.772233
Si Si2 0.796422 0.783740 0.144415
Si Si3 0.187686 0.374623 0.100599
Si Si4 0.643337 0.601714 0.872843
Si Si5 0.854768 0.960872 0.760671
Si Si6 0.013610 0.731181 0.340991
Si Si7 0.963661 0.606898 0.190309
Si Si8 0.518875 0.220512 0.200015
O O1 0.500000 0.500000 0.500000
O O2 0.481565 0.684006 0.693221
O O3 0.397976 0.510696 0.971054
O O4 0.212034 0.686448 0.021767
O O5 0.948360 0.657163 0.013940
O O6 0.637777 0.811073 0.513466
O O7 0.740003 0.747252 0.085419
O O8 0.847148 0.889127 0.966262
O O9 0.312616 0.363196 0.037676
O O10 0.023007 0.372904 0.460287
O O11 0.130105 0.493441 0.030640
O O12 0.810909 0.574843 0.496616
O O13 0.498079 0.709345 0.970407
O O14 0.683127 0.087974 0.983574
O O15 0.000000 0.000000 0.500000
O O16 0.907060 0.860519 0.564280
O O17 0.943484 0.726279 0.284433
#
# Coordination Sequence:
#
# PCOD9057273 Si02
#       8
#     2   2   2   2   2   2   2   2
#     4  12  22  38  60  93 131 159 196 255 312 365
#     4  10  23  38  63  95 118 161 210 254 303 364
#     4  10  17  36  66  90 128 158 197 252 313 361
#     4  10  20  38  60  93 124 161 201 249 307 369
#     4  11  23  45  65  83 122 169 209 252 297 362
#     4  10  20  38  62  89 121 164 204 245 304 364
#     4  10  18  36  63  90 127 153 203 253 308 367
#     4  11  24  41  63  91 127 163 208 246 306 365
#
# _framework density 20.446746000000001
#
# number of rings (size 3 to 8) (size 9 to 14) (size 15 to 20)
#    0.000    1.500    3.750    2.625    0.000    0.000 
#    2.250   13.125    0.000    0.000    0.000    0.000 
#    0.000    0.000    0.000    0.000    0.000    0.000 
#
# Total GULP energy -89140.974996 kJ/mol
# GULP energy per Si atom -5571.310937 kJ/mol
# Density = 2.040021 g / cm^3
# Si number density = 20.446746 Si / 1000 Ang^3
#
#
#
# Elastic Constant Matrix: (Units=GPa)
#
#
# Indices 1 2 3 4 5 6 
#
# 1 90.4295 48.2977 22.0428 -5.2942 8.7261 -1.1794
# 2 48.2977 108.8931 46.2638 -9.0538 7.7727 -1.3409
# 3 22.0428 46.2638 74.3410 -9.1451 -5.2352 -4.1197
# 4 -5.2942 -9.0538 -9.1451 37.0116 10.6838 -0.6692
# 5 8.7261 7.7727 -5.2352 10.6838 19.7646 -0.1889
# 6 -1.1794 -1.3409 -4.1197 -0.6692 -0.1889 34.8242
#
#
#
# Elastic Compliance Matrix: (Units=1/GPa)
#
#
# Indices 1 2 3 4 5 6 
#
# 1 0.015012 -0.005573 -0.001118 0.002224 -0.005933 0.000172
# 2 -0.005573 0.016133 -0.008570 0.003317 -0.007952 -0.000561
# 3 -0.001118 -0.008570 0.019879 0.000061 0.009116 0.002034
# 4 0.002224 0.003317 0.000061 0.034160 -0.020728 0.000754
# 5 -0.005933 -0.007952 0.009116 -0.020728 0.069967 0.000552
# 6 0.000172 -0.000561 0.002034 0.000754 0.000552 0.028958
#
#
# Mechanical properties :
#
#
# Convention : Reuss Voigt Hill
#
# Bulk Modulus (GPa) = 48.77737 56.31914 52.54826
# Shear Modulus (GPa) = 22.57695 28.79070 25.68383
#
# Velocity S-wave (km/s) = 3.32653 3.75651 3.54804
# Velocity P-wave (km/s) = 6.21788 6.81317 6.52232
#
# Compressibility (1/GPa) = 0.02050131
#
# Stress axis : x y z
#
# Youngs Moduli (GPa) = 66.61230 61.98528 50.30532
#
# Poissons Ratio (x) = 0.34545 0.05623
# Poissons Ratio (y) = 0.37124 0.43113
# Poissons Ratio (z) = 0.07446 0.53124
#
# Static dielectric constant tensor:
#      x y z
#    x 1.791790 0.018750 0.019430 
#    y 0.018750 1.810330 -0.009900 
#    z 0.019430 -0.009900 1.785930 
# 
# From -- ./inp_files/328801.got.cif
#   From: 2010.05.17/outbox.cif.g08.bks.cpg/sg2_165_cif.got.tgz:328801.got - 2010.06.03 11:33:40.
