data_PCOD9057072
_publ_section_title
;
Structure prediction by ZEFSAII (Michael W. Deem and Ramdas Pophale) SiO2 
 PCOD9057072
Probable space group: P -1
;
_chemical_formula_sum "Si O2"
_cell_formula_units_Z 14
_cell_length_a 14.702562
_cell_length_b 14.803942
_cell_length_c 11.341879
_cell_angle_alpha 123.876324
_cell_angle_beta 53.826149
_cell_angle_gamma 160.243205
_cell_volume 673.589111
_symmetry_space_group_name_H-M "P -1"
_symmetry_group_IT_number 2
_symmetry_cell_setting 'triclinic'
loop_
_space_group_symop_operation_xyz
x,y,z
-x,-y,-z
loop_
_atom_site_type_symbol
_atom_site_label
_atom_site_fract_x
_atom_site_fract_y
_atom_site_fract_z
Si Si1 0.328564 0.040840 0.095141
Si Si2 0.747395 0.804064 0.637780
Si Si3 0.402813 0.561528 0.502309
Si Si4 0.919715 0.538469 0.900202
Si Si5 0.844408 0.474541 0.634682
Si Si6 0.126701 0.753177 0.278195
Si Si7 0.308622 0.007764 0.547756
O O1 0.274279 0.931834 0.180949
O O2 0.200213 0.048134 0.210546
O O3 0.176824 0.836171 0.963063
O O4 0.651717 0.333611 0.032834
O O5 0.510043 0.635426 0.606621
O O6 0.664348 0.617451 0.624707
O O7 0.000000 0.000000 0.500000
O O8 0.631772 0.825901 0.442573
O O9 0.134182 0.400654 0.602058
O O10 0.848606 0.491306 0.783342
O O11 0.967998 0.452753 0.819812
O O12 0.546316 0.204168 0.605533
O O13 0.000000 0.500000 0.500000
O O14 0.018416 0.726634 0.627053
O O15 0.323653 0.935070 0.374685
#
# Coordination Sequence:
#
# PCOD9057072 Si02
#       7
#     2   2   2   2   2   2   2
#     4  12  26  44  66 102 144 180 212 279 352 420
#     4  11  23  41  72  98 141 174 232 279 341 408
#     4  11  22  41  69 108 130 174 230 285 338 390
#     4  12  28  43  66  99 148 183 220 267 346 417
#     4  12  25  43  68  94 135 191 235 275 316 399
#     4  12  24  42  68 107 139 179 213 281 355 407
#     4  12  23  40  71  99 134 169 240 282 325 384
#
# _framework density 20.784184
#
# number of rings (size 3 to 8) (size 9 to 14) (size 15 to 20)
#    0.000    0.286    5.714    3.000    6.000    0.000 
#    0.000    0.000    0.000    5.143    0.000    0.000 
#    0.000    0.000    0.000    0.000    0.000    0.000 
#
# Total GULP energy -78358.964470 kJ/mol
# GULP energy per Si atom -5597.068891 kJ/mol
# Density = 2.073688 g / cm^3
# Si number density = 20.784184 Si / 1000 Ang^3
#
#
#
# Elastic Constant Matrix: (Units=GPa)
#
#
# Indices 1 2 3 4 5 6 
#
# 1 57.5832 8.6940 35.1503 -4.7375 -9.0070 -14.4573
# 2 8.6940 50.7709 -3.6986 -1.4277 -1.3065 -12.0788
# 3 35.1503 -3.6986 72.7742 8.3869 -1.4477 -15.5138
# 4 -4.7375 -1.4277 8.3869 38.3274 -9.5291 -1.3934
# 5 -9.0070 -1.3065 -1.4477 -9.5291 38.6010 11.7509
# 6 -14.4573 -12.0788 -15.5138 -1.3934 11.7509 44.3205
#
#
#
# Elastic Compliance Matrix: (Units=1/GPa)
#
#
# Indices 1 2 3 4 5 6 
#
# 1 0.029797 -0.005527 -0.015325 0.008876 0.008082 0.000985
# 2 -0.005527 0.022574 0.005410 -0.001469 -0.002798 0.006938
# 3 -0.015325 0.005410 0.023551 -0.008217 -0.006414 0.006161
# 4 0.008876 -0.001469 -0.008217 0.031364 0.010086 -0.002069
# 5 0.008082 -0.002798 -0.006414 0.010086 0.032594 -0.008696
# 6 0.000985 0.006938 0.006161 -0.002069 -0.008696 0.029172
#
#
# Mechanical properties :
#
#
# Convention : Reuss Voigt Hill
#
# Bulk Modulus (GPa) = 22.20371 29.04664 25.62518
# Shear Modulus (GPa) = 23.26121 33.64862 28.45492
#
# Velocity S-wave (km/s) = 3.34904 4.02799 3.70410
# Velocity P-wave (km/s) = 5.06566 5.96981 5.53622
#
# Compressibility (1/GPa) = 0.04503752
#
# Stress axis : x y z
#
# Youngs Moduli (GPa) = 33.55996 44.29832 42.46099
#
# Poissons Ratio (x) = 0.24483 0.65073
# Poissons Ratio (y) = 0.18548 -0.22970
# Poissons Ratio (z) = 0.51432 -0.23964
#
# Static dielectric constant tensor:
#      x y z
#    x 1.771990 0.006480 0.003860 
#    y 0.006480 1.790990 0.024480 
#    z 0.003860 0.024480 1.737920 
# 
# From -- ./inp_files/452525.got.cif
#   From: 2010.05.17/outbox.cif.g08.bks.cpg/sg2_227_cif.got.tgz:452525.got - 2010.06.03 11:33:40.
