data_PCOD9057086
_publ_section_title
;
Structure prediction by ZEFSAII (Michael W. Deem and Ramdas Pophale) SiO2 
 PCOD9057086
Probable space group: P -1
;
_chemical_formula_sum "Si O2"
_cell_formula_units_Z 16
_cell_length_a 9.407465
_cell_length_b 15.936700
_cell_length_c 20.126102
_cell_angle_alpha 151.812860
_cell_angle_beta 39.960291
_cell_angle_gamma 143.040046
_cell_volume 836.152746
_symmetry_space_group_name_H-M "P -1"
_symmetry_group_IT_number 2
_symmetry_cell_setting 'triclinic'
loop_
_space_group_symop_operation_xyz
x,y,z
-x,-y,-z
loop_
_atom_site_type_symbol
_atom_site_label
_atom_site_fract_x
_atom_site_fract_y
_atom_site_fract_z
Si Si1 0.016272 0.405797 0.497407
Si Si2 0.068484 0.645906 0.882952
Si Si3 0.417269 0.674431 0.137659
Si Si4 0.571280 0.865416 0.072198
Si Si5 0.462817 0.365812 0.355428
Si Si6 0.018534 0.268949 0.173188
Si Si7 0.309296 0.024236 0.635993
Si Si8 0.839782 0.090280 0.835627
O O1 0.000000 0.500000 0.500000
O O2 0.285529 0.418094 0.409691
O O3 0.978458 0.535109 0.660199
O O4 0.840755 0.182917 0.419328
O O5 0.297001 0.611704 0.751914
O O6 0.978741 0.718899 0.899545
O O7 0.870511 0.440728 0.835116
O O8 0.130650 0.803557 0.029487
O O9 0.495826 0.780062 0.113060
O O10 0.535506 0.825403 0.259148
O O11 0.500000 0.500000 0.000000
O O12 0.324959 0.833930 0.098715
O O13 0.766320 0.091238 0.160231
O O14 0.746139 0.765365 0.911589
O O15 0.500000 0.500000 0.500000
O O16 0.325030 0.138934 0.263245
O O17 0.109899 0.099018 0.729160
O O18 0.500000 0.000000 0.500000
#
# Coordination Sequence:
#
# PCOD9057086 Si02
#       8
#     2   2   2   2   2   2   2   2
#     4  11  24  41  66  97 133 165 224 272 327 387
#     4  12  23  42  68  94 130 175 220 264 328 392
#     4  12  24  45  65  94 136 177 216 261 335 399
#     4  11  24  40  68  98 136 164 224 271 326 384
#     4  11  23  41  67  96 131 168 217 273 330 382
#     4  11  22  41  69  98 130 179 214 270 332 392
#     4  11  25  45  70  92 131 178 217 265 332 397
#     4  11  24  42  69 100 128 168 225 277 317 386
#
# _framework density 19.135259999999999
#
# number of rings (size 3 to 8) (size 9 to 14) (size 15 to 20)
#    0.000    0.750    5.000    1.875    3.500    2.500 
#    2.250    0.625    0.000    0.000    0.000    0.000 
#    0.000    0.000    0.000    0.000    0.000    0.000 
#
# Total GULP energy -89292.238186 kJ/mol
# GULP energy per Si atom -5580.764887 kJ/mol
# Density = 1.909171 g / cm^3
# Si number density = 19.135260 Si / 1000 Ang^3
#
#
#
# Elastic Constant Matrix: (Units=GPa)
#
#
# Indices 1 2 3 4 5 6 
#
# 1 144.7689 41.2315 65.8283 -9.7642 -12.2031 -5.3684
# 2 41.2315 99.7238 41.8801 -6.3696 11.7574 6.9513
# 3 65.8283 41.8801 138.6433 -1.0739 0.6041 17.9201
# 4 -9.7642 -6.3696 -1.0739 37.9613 11.8808 -4.1384
# 5 -12.2031 11.7574 0.6041 11.8808 37.9276 -2.8526
# 6 -5.3684 6.9513 17.9201 -4.1384 -2.8526 33.8510
#
#
#
# Elastic Compliance Matrix: (Units=1/GPa)
#
#
# Indices 1 2 3 4 5 6 
#
# 1 0.010682 -0.003231 -0.004809 0.001243 0.004535 0.005437
# 2 -0.003231 0.013365 -0.002158 0.003068 -0.006280 -0.002268
# 3 -0.004809 -0.002158 0.010969 -0.001672 -0.001012 -0.006416
# 4 0.001243 0.003068 -0.001672 0.030579 -0.009851 0.003360
# 5 0.004535 -0.006280 -0.001012 -0.009851 0.033185 0.004137
# 6 0.005437 -0.002268 -0.006416 0.003360 0.004137 0.035025
#
#
# Mechanical properties :
#
#
# Convention : Reuss Voigt Hill
#
# Bulk Modulus (GPa) = 68.40745 75.66842 72.03794
# Shear Modulus (GPa) = 31.43168 37.56105 34.49637
#
# Velocity S-wave (km/s) = 4.05730 4.43530 4.25050
# Velocity P-wave (km/s) = 7.60105 8.11535 7.86241
#
# Compressibility (1/GPa) = 0.01461829
#
# Stress axis : x y z
#
# Youngs Moduli (GPa) = 93.61309 74.82353 91.16852
#
# Poissons Ratio (x) = 0.24179 0.43841
# Poissons Ratio (y) = 0.30251 0.19678
# Poissons Ratio (z) = 0.45017 0.16150
#
# Static dielectric constant tensor:
#      x y z
#    x 1.674550 -0.021050 -0.036680 
#    y -0.021050 1.665550 0.000560 
#    z -0.036680 0.000560 1.673810 
# 
# From -- ./inp_files/225973.got.cif
#   From: 2010.05.17/outbox.cif.g08.bks.cpg/sg2_113_cif.got.tgz:225973.got - 2010.06.03 11:33:40.
