data_PCOD9057826
_publ_section_title
;
Structure prediction by ZEFSAII (Michael W. Deem and Ramdas Pophale) SiO2 
 PCOD9057826
Probable space group: P -1
;
_chemical_formula_sum "Si O2"
_cell_formula_units_Z 14
_cell_length_a 10.495896
_cell_length_b 18.245025
_cell_length_c 7.454098
_cell_angle_alpha 51.405291
_cell_angle_beta 67.361513
_cell_angle_gamma 29.177045
_cell_volume 493.788709
_symmetry_space_group_name_H-M "P -1"
_symmetry_group_IT_number 2
_symmetry_cell_setting 'triclinic'
loop_
_space_group_symop_operation_xyz
x,y,z
-x,-y,-z
loop_
_atom_site_type_symbol
_atom_site_label
_atom_site_fract_x
_atom_site_fract_y
_atom_site_fract_z
Si Si1 0.147498 0.816305 0.060703
Si Si2 0.342533 0.204434 0.842817
Si Si3 0.593684 0.240877 0.590455
Si Si4 0.815037 0.883455 0.379152
Si Si5 0.494685 0.179237 0.420527
Si Si6 0.234490 0.499631 0.887903
Si Si7 0.813762 0.377698 0.908857
O O1 0.464161 0.670512 0.119899
O O2 0.113886 0.767315 0.980233
O O3 0.075464 0.788818 0.302809
O O4 0.890911 0.043923 0.827763
O O5 0.576522 0.034065 0.122728
O O6 0.572158 0.847273 0.333789
O O7 0.350341 0.313472 0.691910
O O8 0.069824 0.301130 0.863127
O O9 0.644822 0.174753 0.457893
O O10 0.448331 0.426811 0.365558
O O11 0.947676 0.702842 0.629995
O O12 0.678975 0.013714 0.428447
O O13 0.245765 0.389861 0.138751
O O14 0.253890 0.567205 0.930779
#
# Coordination Sequence:
#
# PCOD9057826 Si02
#       7
#     2   2   2   2   2   2   2
#     4  11  24  42  67 104 136 182 235 276 345 412
#     4   9  22  46  70 102 137 179 230 280 356 409
#     4   8  20  40  66  96 130 178 222 276 340 397
#     4  11  24  45  68 103 140 181 227 288 348 403
#     4   9  22  46  66 100 140 176 229 286 338 413
#     4  11  25  42  70 104 137 183 234 280 344 414
#     4  11  22  43  72 100 138 180 228 289 339 413
#
# _framework density 28.352205999999999
#
# number of rings (size 3 to 8) (size 9 to 14) (size 15 to 20)
#    0.857    1.143    0.000    2.143    0.000    9.143 
#    2.571    4.286    0.000    0.000    0.000    0.000 
#    0.000    0.000    0.000    0.000    0.000    0.000 
#
# Total GULP energy -78445.102768 kJ/mol
# GULP energy per Si atom -5603.221626 kJ/mol
# Density = 2.828768 g / cm^3
# Si number density = 28.352206 Si / 1000 Ang^3
#
#
#
# Elastic Constant Matrix: (Units=GPa)
#
#
# Indices 1 2 3 4 5 6 
#
# 1 116.0458 39.0574 48.9735 -0.9561 13.1826 -4.7191
# 2 39.0574 143.7901 46.7893 14.1859 8.3798 -0.3988
# 3 48.9735 46.7893 200.1291 -26.7682 24.4323 7.4313
# 4 -0.9561 14.1859 -26.7682 52.6075 1.9946 -8.1595
# 5 13.1826 8.3798 24.4323 1.9946 60.0418 -3.7550
# 6 -4.7191 -0.3988 7.4313 -8.1595 -3.7550 25.7835
#
#
#
# Elastic Compliance Matrix: (Units=1/GPa)
#
#
# Indices 1 2 3 4 5 6 
#
# 1 0.010383 -0.002123 -0.001985 0.000153 -0.001035 0.002337
# 2 -0.002123 0.008480 -0.001907 -0.003420 0.000124 -0.000772
# 3 -0.001985 -0.001907 0.006765 0.003777 -0.002269 -0.001478
# 4 0.000153 -0.003420 0.003777 0.022826 -0.001483 0.005894
# 5 -0.001035 0.000124 -0.002269 -0.001483 0.018001 0.002619
# 6 0.002337 -0.000772 -0.001478 0.005894 0.002619 0.041873
#
#
# Mechanical properties :
#
#
# Convention : Reuss Voigt Hill
#
# Bulk Modulus (GPa) = 73.53166 81.06727 77.29946
# Shear Modulus (GPa) = 40.03505 49.36288 44.69896
#
# Velocity S-wave (km/s) = 3.76182 4.17713 3.97490
# Velocity P-wave (km/s) = 6.69774 7.20552 6.95627
#
# Compressibility (1/GPa) = 0.01359958
#
# Stress axis : x y z
#
# Youngs Moduli (GPa) = 96.30989 117.92756 147.81192
#
# Poissons Ratio (x) = 0.25035 0.29333
# Poissons Ratio (y) = 0.20446 0.28187
# Poissons Ratio (z) = 0.19113 0.22488
#
# Static dielectric constant tensor:
#      x y z
#    x 2.217860 -0.002040 0.033960 
#    y -0.002040 2.223950 0.027160 
#    z 0.033960 0.027160 2.120440 
# 
# From -- ./inp_files/282714.got.cif
#   From: 2010.05.17/outbox.cif.g08.bks.cpg/sg2_142_cif.got.tgz:282714.got - 2010.06.03 11:33:40.
