data_PCOD9057742
_publ_section_title
;
Structure prediction by ZEFSAII (Michael W. Deem and Ramdas Pophale) SiO2 
 PCOD9057742
Probable space group: P -1
;
_chemical_formula_sum "Si O2"
_cell_formula_units_Z 16
_cell_length_a 7.705591
_cell_length_b 9.347453
_cell_length_c 11.380287
_cell_angle_alpha 102.521793
_cell_angle_beta 106.042432
_cell_angle_gamma 51.029043
_cell_volume 611.451325
_symmetry_space_group_name_H-M "P -1"
_symmetry_group_IT_number 2
_symmetry_cell_setting 'triclinic'
loop_
_space_group_symop_operation_xyz
x,y,z
-x,-y,-z
loop_
_atom_site_type_symbol
_atom_site_label
_atom_site_fract_x
_atom_site_fract_y
_atom_site_fract_z
Si Si1 0.823792 0.761276 0.919571
Si Si2 0.554141 0.587303 0.257296
Si Si3 0.321432 0.922409 0.591325
Si Si4 0.482206 0.177754 0.926493
Si Si5 0.845565 0.197917 0.127321
Si Si6 0.199159 0.406190 0.341401
Si Si7 0.205779 0.273310 0.554995
Si Si8 0.104352 0.899859 0.308355
O O1 0.745930 0.738058 0.026196
O O2 0.861023 0.619876 0.803062
O O3 0.040332 0.761734 0.948198
O O4 0.600045 0.966265 0.877322
O O5 0.695712 0.376540 0.213086
O O6 0.677441 0.627317 0.383799
O O7 0.294835 0.690734 0.266534
O O8 0.557669 0.692724 0.164093
O O9 0.369789 0.067767 0.596221
O O10 0.145613 0.018732 0.681884
O O11 0.529757 0.714743 0.623961
O O12 0.205247 0.925780 0.449091
O O13 0.673894 0.161609 0.039865
O O14 0.052128 0.029195 0.210695
O O15 0.157881 0.296754 0.411679
O O16 0.028755 0.613079 0.394990
#
# Coordination Sequence:
#
# PCOD9057742 Si02
#       8
#     2   2   2   2   2   2   2   2
#     4  11  23  44  74 101 134 183 232 286 340 412
#     4  12  25  46  69 102 137 180 232 281 344 417
#     4  11  24  41  67 100 139 182 222 284 341 419
#     4  11  26  45  71 103 136 185 236 285 347 404
#     4  12  25  48  70  96 143 186 225 295 343 400
#     4  11  22  43  70 102 139 177 226 278 350 412
#     4  11  24  40  72 104 134 183 224 279 344 418
#     4  11  26  43  66 101 138 179 231 280 348 409
#
# _framework density 26.167252000000001
#
# number of rings (size 3 to 8) (size 9 to 14) (size 15 to 20)
#    0.000    0.750    3.750    3.375    1.750    3.500 
#    0.000    2.500    0.000    0.000    0.000    0.000 
#    0.000    0.000    0.000    0.000    0.000    0.000 
#
# Total GULP energy -89614.378316 kJ/mol
# GULP energy per Si atom -5600.898645 kJ/mol
# Density = 2.610769 g / cm^3
# Si number density = 26.167252 Si / 1000 Ang^3
#
#
#
# Elastic Constant Matrix: (Units=GPa)
#
#
# Indices 1 2 3 4 5 6 
#
# 1 94.3336 16.9335 22.9687 11.9019 -25.6548 -38.3447
# 2 16.9335 117.9299 20.7547 10.9397 -6.1969 -36.7180
# 3 22.9687 20.7547 69.5467 4.8097 -16.0570 -9.3765
# 4 11.9019 10.9397 4.8097 40.1542 -12.9373 -10.7638
# 5 -25.6548 -6.1969 -16.0570 -12.9373 44.1878 13.0154
# 6 -38.3447 -36.7180 -9.3765 -10.7638 13.0154 41.6853
#
#
#
# Elastic Compliance Matrix: (Units=1/GPa)
#
#
# Indices 1 2 3 4 5 6 
#
# 1 0.020327 0.004285 -0.004138 0.000313 0.005090 0.020034
# 2 0.004285 0.013180 -0.003649 -0.000943 -0.001688 0.015014
# 3 -0.004138 -0.003649 0.017312 0.000501 0.004852 -0.004512
# 4 0.000313 -0.000943 0.000501 0.028594 0.007219 0.004699
# 5 0.005090 -0.001688 0.004852 0.007219 0.030191 -0.003276
# 6 0.020034 0.015014 -0.004512 0.004699 -0.003276 0.056864
#
#
# Mechanical properties :
#
#
# Convention : Reuss Voigt Hill
#
# Bulk Modulus (GPa) = 22.82256 44.79157 33.80707
# Shear Modulus (GPa) = 26.58525 39.94901 33.26713
#
# Velocity S-wave (km/s) = 3.19089 3.91151 3.56944
# Velocity P-wave (km/s) = 4.72403 6.12817 5.47133
#
# Compressibility (1/GPa) = 0.04381629
#
# Stress axis : x y z
#
# Youngs Moduli (GPa) = 49.19606 75.87290 57.76468
#
# Poissons Ratio (x) = -0.32515 0.23901
# Poissons Ratio (y) = -0.21083 0.21077
# Poissons Ratio (z) = 0.20356 0.27685
#
# Static dielectric constant tensor:
#      x y z
#    x 2.108130 -0.029870 -0.010640 
#    y -0.029870 2.003630 0.008760 
#    z -0.010640 0.008760 2.054800 
# 
# From -- ./inp_files/390444.got.cif
#   From: 2010.05.17/outbox.cif.g08.bks.cpg/sg2_196_cif.got.tgz:390444.got - 2010.06.03 11:33:40.
