data_PCOD9057684
_publ_section_title
;
Structure prediction by ZEFSAII (Michael W. Deem and Ramdas Pophale) SiO2 
 PCOD9057684
Probable space group: P -1
;
_chemical_formula_sum "Si O2"
_cell_formula_units_Z 14
_cell_length_a 16.019687
_cell_length_b 8.769792
_cell_length_c 18.793412
_cell_angle_alpha 41.385941
_cell_angle_beta 157.280694
_cell_angle_gamma 126.158513
_cell_volume 617.995106
_symmetry_space_group_name_H-M "P -1"
_symmetry_group_IT_number 2
_symmetry_cell_setting 'triclinic'
loop_
_space_group_symop_operation_xyz
x,y,z
-x,-y,-z
loop_
_atom_site_type_symbol
_atom_site_label
_atom_site_fract_x
_atom_site_fract_y
_atom_site_fract_z
Si Si1 0.248076 0.750162 0.554105
Si Si2 0.961560 0.299115 0.118847
Si Si3 0.569235 0.129638 0.821996
Si Si4 0.893174 0.482494 0.604872
Si Si5 0.749093 0.739625 0.909838
Si Si6 0.275869 0.448341 0.816800
Si Si7 0.459094 0.254727 0.531995
O O1 0.167528 0.703994 0.428968
O O2 0.518461 0.710125 0.770611
O O3 0.227217 0.553112 0.662350
O O4 0.079048 0.031087 0.347199
O O5 0.204422 0.310530 0.277327
O O6 0.764380 0.249699 0.935883
O O7 0.841894 0.545650 0.986213
O O8 0.346982 0.302585 0.632920
O O9 0.485245 0.132152 0.674318
O O10 0.665857 0.847103 0.026575
O O11 0.056544 0.579621 0.651462
O O12 0.046755 0.341178 0.842591
O O13 0.656664 0.038283 0.716953
O O14 0.500000 0.500000 0.000000
O O15 0.500000 0.500000 0.500000
#
# Coordination Sequence:
#
# PCOD9057684 Si02
#       7
#     2   2   2   2   2   2   2
#     4  11  23  41  64  94 130 177 215 258 309 375
#     4  11  23  43  70  95 130 167 214 265 323 383
#     4  12  25  43  66  95 130 174 212 267 325 376
#     4  12  23  40  65  90 133 172 212 259 315 375
#     4  11  22  43  68  95 128 169 215 264 319 379
#     4  12  24  41  62  95 136 174 223 262 306 371
#     4  11  25  46  71  96 125 164 213 270 330 389
#
# _framework density 22.6539
#
# number of rings (size 3 to 8) (size 9 to 14) (size 15 to 20)
#    0.000    0.571    7.143    1.286    0.000    3.429 
#    0.000    0.714    0.000    0.000    0.000    0.000 
#    0.000    0.000    0.000    0.000    0.000    0.000 
#
# Total GULP energy -78250.517688 kJ/mol
# GULP energy per Si atom -5589.322692 kJ/mol
# Density = 2.260234 g / cm^3
# Si number density = 22.653900 Si / 1000 Ang^3
#
#
#
# Elastic Constant Matrix: (Units=GPa)
#
#
# Indices 1 2 3 4 5 6 
#
# 1 37.2985 24.7312 32.0342 -7.8887 8.9680 -11.9943
# 2 24.7312 145.0146 55.6818 9.5690 0.5131 -12.0348
# 3 32.0342 55.6818 119.9321 10.1222 24.2201 -8.9277
# 4 -7.8887 9.5690 10.1222 57.4416 -14.2228 2.3951
# 5 8.9680 0.5131 24.2201 -14.2228 24.9733 -1.5618
# 6 -11.9943 -12.0348 -8.9277 2.3951 -1.5618 41.7100
#
#
#
# Elastic Compliance Matrix: (Units=1/GPa)
#
#
# Indices 1 2 3 4 5 6 
#
# 1 0.041544 -0.003270 -0.009323 0.007253 -0.001144 0.008548
# 2 -0.003270 0.009208 -0.004426 0.000091 0.005390 0.000966
# 3 -0.009323 -0.004426 0.017078 -0.007903 -0.017657 -0.000510
# 4 0.007253 0.000091 -0.007903 0.024497 0.018992 -0.000275
# 5 -0.001144 0.005390 -0.017657 0.018992 0.068216 -0.001089
# 6 0.008548 0.000966 -0.000510 -0.000275 -0.001089 0.026578
#
#
# Mechanical properties :
#
#
# Convention : Reuss Voigt Hill
#
# Bulk Modulus (GPa) = 29.59302 58.57108 44.08205
# Shear Modulus (GPa) = 21.51247 37.47816 29.49531
#
# Velocity S-wave (km/s) = 3.08492 4.07182 3.61223
# Velocity P-wave (km/s) = 5.07745 6.92944 6.07444
#
# Compressibility (1/GPa) = 0.03379175
#
# Stress axis : x y z
#
# Youngs Moduli (GPa) = 24.07058 108.60024 58.55507
#
# Poissons Ratio (x) = 0.35517 0.54591
# Poissons Ratio (y) = 0.07872 0.25916
# Poissons Ratio (z) = 0.22441 0.48065
#
# Static dielectric constant tensor:
#      x y z
#    x 1.833190 0.027480 -0.002200 
#    y 0.027480 1.865910 -0.008210 
#    z -0.002200 -0.008210 1.881800 
# 
# From -- ./inp_files/313610.got.cif
#   From: 2010.05.17/outbox.cif.g08.bks.cpg/sg2_157_cif.got.tgz:313610.got - 2010.06.03 11:33:40.
