data_PCOD9057205
_publ_section_title
;
Structure prediction by ZEFSAII (Michael W. Deem and Ramdas Pophale) SiO2 
 PCOD9057205
Probable space group: P -1
;
_chemical_formula_sum "Si O2"
_cell_formula_units_Z 14
_cell_length_a 9.934531
_cell_length_b 9.474221
_cell_length_c 16.476572
_cell_angle_alpha 101.621424
_cell_angle_beta 136.567289
_cell_angle_gamma 45.296188
_cell_volume 586.556112
_symmetry_space_group_name_H-M "P -1"
_symmetry_group_IT_number 2
_symmetry_cell_setting 'triclinic'
loop_
_space_group_symop_operation_xyz
x,y,z
-x,-y,-z
loop_
_atom_site_type_symbol
_atom_site_label
_atom_site_fract_x
_atom_site_fract_y
_atom_site_fract_z
Si Si1 0.337263 0.894744 0.122714
Si Si2 0.557818 0.213278 0.476908
Si Si3 0.489817 0.277589 0.146867
Si Si4 0.175262 0.638676 0.667604
Si Si5 0.731748 0.749604 0.800717
Si Si6 0.201285 0.066705 0.899900
Si Si7 0.380150 0.552356 0.570394
O O1 0.684203 0.594503 0.262058
O O2 0.317245 0.050086 0.186644
O O3 0.314903 0.949681 0.025149
O O4 0.000000 0.000000 0.000000
O O5 0.312628 0.282524 0.312690
O O6 0.389055 0.408144 0.498088
O O7 0.735284 0.233999 0.503438
O O8 0.830357 0.922096 0.585441
O O9 0.527262 0.423514 0.193541
O O10 0.509430 0.180561 0.228867
O O11 0.760230 0.069836 0.171982
O O12 0.115865 0.475526 0.967203
O O13 0.156751 0.649787 0.562923
O O14 0.783205 0.346743 0.748388
O O15 0.500000 0.000000 0.000000
#
# Coordination Sequence:
#
# PCOD9057205 Si02
#       7
#     2   2   2   2   2   2   2
#     4  12  25  45  72 101 146 186 227 297 362 405
#     4  11  25  42  71 103 143 188 236 282 351 428
#     4  11  22  41  73 103 137 176 243 296 341 408
#     4  12  24  46  71 101 144 187 231 288 360 415
#     4  11  23  44  69 104 139 187 234 290 348 417
#     4  12  23  42  73 111 134 178 247 291 339 420
#     4  11  23  43  72 105 140 184 237 292 346 418
#
# _framework density 23.868134000000001
#
# number of rings (size 3 to 8) (size 9 to 14) (size 15 to 20)
#    0.000    0.571    7.143    1.286    0.000    1.143 
#    5.143    0.714    0.000    0.000    0.000    0.000 
#    0.000    0.000    0.000    0.000    0.000    0.000 
#
# Total GULP energy -78322.831001 kJ/mol
# GULP energy per Si atom -5594.487929 kJ/mol
# Density = 2.381381 g / cm^3
# Si number density = 23.868134 Si / 1000 Ang^3
#
#
#
# Elastic Constant Matrix: (Units=GPa)
#
#
# Indices 1 2 3 4 5 6 
#
# 1 65.1008 12.0167 1.8872 10.4286 -7.7444 5.7106
# 2 12.0167 142.7331 27.2355 11.3910 -10.7070 4.2987
# 3 1.8872 27.2355 90.6840 13.7995 -6.7908 9.3254
# 4 10.4286 11.3910 13.7995 50.9788 -1.9088 -8.3691
# 5 -7.7444 -10.7070 -6.7908 -1.9088 31.1324 -1.2035
# 6 5.7106 4.2987 9.3254 -8.3691 -1.2035 28.1690
#
#
#
# Elastic Compliance Matrix: (Units=1/GPa)
#
#
# Indices 1 2 3 4 5 6 
#
# 1 0.017060 -0.000922 0.001364 -0.004315 0.003771 -0.004890
# 2 -0.000922 0.007695 -0.001933 -0.001030 0.001910 -0.000572
# 3 0.001364 -0.001933 0.012920 -0.004156 0.002029 -0.005407
# 4 -0.004315 -0.001030 -0.004156 0.023365 -0.000541 0.009326
# 5 0.003771 0.001910 0.002029 -0.000541 0.034108 -0.000431
# 6 -0.004890 -0.000572 -0.005407 0.009326 -0.000431 0.041121
#
#
# Mechanical properties :
#
#
# Convention : Reuss Voigt Hill
#
# Bulk Modulus (GPa) = 28.82529 42.31075 35.56802
# Shear Modulus (GPa) = 33.15280 39.21460 36.18370
#
# Velocity S-wave (km/s) = 3.73097 4.05775 3.89779
# Velocity P-wave (km/s) = 5.53744 6.30231 5.93222
#
# Compressibility (1/GPa) = 0.03469176
#
# Stress axis : x y z
#
# Youngs Moduli (GPa) = 58.61625 129.94879 77.39991
#
# Poissons Ratio (x) = 0.11982 -0.10555
# Poissons Ratio (y) = 0.05405 0.14965
# Poissons Ratio (z) = -0.07993 0.25125
#
# Static dielectric constant tensor:
#      x y z
#    x 1.882550 -0.001130 0.065510 
#    y -0.001130 1.890050 -0.019270 
#    z 0.065510 -0.019270 1.954750 
# 
# From -- ./inp_files/566788.got.cif
#   From: 2010.05.17/outbox.cif.g08.bks.cpg/sg2_284_cif.got.tgz:566788.got - 2010.06.03 11:33:40.
