data_PCOD9057129
_publ_section_title
;
Structure prediction by ZEFSAII (Michael W. Deem and Ramdas Pophale) SiO2 
 PCOD9057129
Probable space group: P -1
;
_chemical_formula_sum "Si O2"
_cell_formula_units_Z 12
_cell_length_a 19.654760
_cell_length_b 17.777125
_cell_length_c 11.414612
_cell_angle_alpha 149.249699
_cell_angle_beta 23.713415
_cell_angle_gamma 158.691370
_cell_volume 582.299100
_symmetry_space_group_name_H-M "P -1"
_symmetry_group_IT_number 2
_symmetry_cell_setting 'triclinic'
loop_
_space_group_symop_operation_xyz
x,y,z
-x,-y,-z
loop_
_atom_site_type_symbol
_atom_site_label
_atom_site_fract_x
_atom_site_fract_y
_atom_site_fract_z
Si Si1 0.790989 0.485765 0.283368
Si Si2 0.997483 0.227726 0.256732
Si Si3 0.107888 0.923089 0.289409
Si Si4 0.357593 0.562962 0.299628
Si Si5 0.518131 0.994890 0.602958
Si Si6 0.765951 0.911374 0.418960
O O1 0.780866 0.543934 0.506052
O O2 0.523950 0.271105 0.382707
O O3 0.898177 0.673198 0.280533
O O4 0.000000 0.500000 0.000000
O O5 0.202508 0.459615 0.289920
O O6 0.788074 0.188145 0.473260
O O7 0.879928 0.082482 0.365230
O O8 0.115771 0.174513 0.916758
O O9 0.174534 0.003005 0.427078
O O10 0.332286 0.984284 0.951509
O O11 0.000000 0.000000 0.500000
O O12 0.478828 0.796492 0.427797
O O13 0.500000 0.500000 0.000000
O O14 0.500000 0.000000 0.500000
#
# Coordination Sequence:
#
# PCOD9057129 Si02
#       6
#     2   2   2   2   2   2
#     4  12  24  43  69 103 136 175 229 276 330 404
#     4  11  22  41  71 102 132 177 228 275 329 403
#     4  12  28  45  68 100 142 178 218 286 341 396
#     4  12  23  43  72 102 134 179 225 276 330 401
#     4  12  28  46  68 101 138 178 226 280 341 397
#     4  11  23  41  71 102 133 178 227 274 335 398
#
# _framework density 20.607968
#
# number of rings (size 3 to 8) (size 9 to 14) (size 15 to 20)
#    0.000    0.333    6.667    2.000    4.667    2.667 
#    0.000    0.000    0.000    0.000    0.000    0.000 
#    0.000    0.000    0.000    0.000    0.000    0.000 
#
# Total GULP energy -66909.267267 kJ/mol
# GULP energy per Si atom -5575.772272 kJ/mol
# Density = 2.056106 g / cm^3
# Si number density = 20.607968 Si / 1000 Ang^3
#
#
#
# Elastic Constant Matrix: (Units=GPa)
#
#
# Indices 1 2 3 4 5 6 
#
# 1 122.3586 25.8948 55.9385 -0.7783 2.1178 18.1393
# 2 25.8948 70.5742 30.5942 -3.3341 -17.1150 12.2846
# 3 55.9385 30.5942 179.2901 -4.1327 -0.3732 10.3866
# 4 -0.7783 -3.3341 -4.1327 24.7407 -0.7377 -5.0223
# 5 2.1178 -17.1150 -0.3732 -0.7377 40.3786 6.8661
# 6 18.1393 12.2846 10.3866 -5.0223 6.8661 40.9933
#
#
#
# Elastic Compliance Matrix: (Units=1/GPa)
#
#
# Indices 1 2 3 4 5 6 
#
# 1 0.010385 -0.002418 -0.002673 -0.001117 -0.001079 -0.003150
# 2 -0.002418 0.019260 -0.002162 0.001309 0.009237 -0.005541
# 3 -0.002673 -0.002162 0.006778 0.000803 -0.000756 0.000338
# 4 -0.001117 0.001309 0.000803 0.041709 0.000547 0.004917
# 5 -0.001079 0.009237 -0.000756 0.000547 0.029938 -0.007046
# 6 -0.003150 -0.005541 0.000338 0.004917 -0.007046 0.029145
#
#
# Mechanical properties :
#
#
# Convention : Reuss Voigt Hill
#
# Bulk Modulus (GPa) = 45.62598 66.34198 55.98398
# Shear Modulus (GPa) = 31.44130 38.54221 34.99175
#
# Velocity S-wave (km/s) = 3.91024 4.32934 4.12512
# Velocity P-wave (km/s) = 6.52493 7.56658 7.06498
#
# Compressibility (1/GPa) = 0.02191734
#
# Stress axis : x y z
#
# Youngs Moduli (GPa) = 96.29363 51.92099 147.54130
#
# Poissons Ratio (x) = 0.12554 0.39438
# Poissons Ratio (y) = 0.23282 0.31895
# Poissons Ratio (z) = 0.25740 0.11224
#
# Static dielectric constant tensor:
#      x y z
#    x 1.704690 0.023630 0.014770 
#    y 0.023630 1.753590 -0.029200 
#    z 0.014770 -0.029200 1.650940 
# 
# From -- ./inp_files/159169.got.cif
#   From: 2010.05.17/outbox.cif.g08.bks.cpg/sg2_80_cif.got.tgz:159169.got - 2010.06.03 11:33:40.
