data_PCOD9057661
_publ_section_title
;
Structure prediction by ZEFSAII (Michael W. Deem and Ramdas Pophale) SiO2 
 PCOD9057661
Probable space group: P -1
;
_chemical_formula_sum "Si O2"
_cell_formula_units_Z 16
_cell_length_a 14.890264
_cell_length_b 9.176520
_cell_length_c 7.396711
_cell_angle_alpha 70.177845
_cell_angle_beta 115.596231
_cell_angle_gamma 69.169894
_cell_volume 691.214909
_symmetry_space_group_name_H-M "P -1"
_symmetry_group_IT_number 2
_symmetry_cell_setting 'triclinic'
loop_
_space_group_symop_operation_xyz
x,y,z
-x,-y,-z
loop_
_atom_site_type_symbol
_atom_site_label
_atom_site_fract_x
_atom_site_fract_y
_atom_site_fract_z
Si Si1 0.374425 0.192833 0.244867
Si Si2 0.911816 0.690317 0.719885
Si Si3 0.638112 0.459329 0.993905
Si Si4 0.246804 0.433281 0.394693
Si Si5 0.777891 0.958346 0.829962
Si Si6 0.964943 0.195654 0.806500
Si Si7 0.386841 0.596615 0.597016
Si Si8 0.086389 0.772652 0.649795
O O1 0.303932 0.322477 0.304888
O O2 0.296566 0.121679 0.132557
O O3 0.500000 0.000000 0.500000
O O4 0.391587 0.331068 0.084245
O O5 0.813881 0.670642 0.535515
O O6 0.831490 0.871429 0.710821
O O7 0.006455 0.702263 0.678895
O O8 0.000000 0.500000 0.000000
O O9 0.630933 0.376452 0.212114
O O10 0.779280 0.322717 0.107743
O O11 0.533907 0.493726 0.750901
O O12 0.122139 0.648338 0.186801
O O13 0.343423 0.465523 0.552524
O O14 0.695718 0.189630 0.651813
O O15 0.902844 0.852835 0.097040
O O16 0.889509 0.267283 0.526398
O O17 0.000000 0.000000 0.000000
O O18 0.000000 0.000000 0.500000
#
# Coordination Sequence:
#
# PCOD9057661 Si02
#       8
#     2   2   2   2   2   2   2   2
#     4  11  25  46  68  97 135 179 232 276 343 412
#     4  11  23  41  68 101 140 182 220 284 347 404
#     4  11  24  42  70  95 134 177 230 278 338 404
#     4  11  24  42  69  99 136 177 225 279 343 395
#     4  11  22  43  67  98 139 179 219 282 349 402
#     4  12  23  40  68 104 140 178 229 286 341 403
#     4  11  23  45  68  93 137 180 226 280 340 403
#     4  12  26  43  71 105 140 180 232 279 347 414
#
# _framework density 23.147646999999999
#
# number of rings (size 3 to 8) (size 9 to 14) (size 15 to 20)
#    0.000    0.750    5.000    3.000    1.750    2.000 
#    2.250    0.625    0.000    0.000    0.000    0.000 
#    0.000    0.000    0.000    0.000    0.000    0.000 
#
# Total GULP energy -89370.782834 kJ/mol
# GULP energy per Si atom -5585.673927 kJ/mol
# Density = 2.309496 g / cm^3
# Si number density = 23.147647 Si / 1000 Ang^3
#
#
#
# Elastic Constant Matrix: (Units=GPa)
#
#
# Indices 1 2 3 4 5 6 
#
# 1 121.2224 33.3198 47.5835 0.6446 23.7264 32.6354
# 2 33.3198 82.2358 30.4259 -8.1057 12.3968 14.1140
# 3 47.5835 30.4259 96.8327 -12.3214 30.0145 11.9547
# 4 0.6446 -8.1057 -12.3214 38.1631 5.9389 13.9875
# 5 23.7264 12.3968 30.0145 5.9389 52.5309 10.9813
# 6 32.6354 14.1140 11.9547 13.9875 10.9813 45.0696
#
#
#
# Elastic Compliance Matrix: (Units=1/GPa)
#
#
# Indices 1 2 3 4 5 6 
#
# 1 0.012699 -0.002037 -0.004106 0.000973 -0.001469 -0.007412
# 2 -0.002037 0.015040 -0.002524 0.003851 -0.000881 -0.003546
# 3 -0.004106 -0.002524 0.016315 0.006206 -0.007431 -0.000679
# 4 0.000973 0.003851 0.006206 0.034661 -0.006133 -0.012819
# 5 -0.001469 -0.000881 -0.007431 -0.006133 0.025032 -0.000885
# 6 -0.007412 -0.003546 -0.000679 -0.012819 -0.000885 0.033040
#
#
# Mechanical properties :
#
#
# Convention : Reuss Voigt Hill
#
# Bulk Modulus (GPa) = 37.42401 58.10549 47.76475
# Shear Modulus (GPa) = 30.66966 39.75016 35.20991
#
# Velocity S-wave (km/s) = 3.64395 4.14846 3.90436
# Velocity P-wave (km/s) = 5.82298 6.93563 6.40351
#
# Compressibility (1/GPa) = 0.02672081
#
# Stress axis : x y z
#
# Youngs Moduli (GPa) = 78.74797 66.48844 61.29405
#
# Poissons Ratio (x) = 0.13541 0.25167
# Poissons Ratio (y) = 0.16037 0.15471
# Poissons Ratio (z) = 0.32333 0.16782
#
# Static dielectric constant tensor:
#      x y z
#    x 1.800490 0.108410 0.145710 
#    y 0.108410 1.895560 0.034640 
#    z 0.145710 0.034640 1.877120 
# 
# From -- ./inp_files/297711.got.cif
#   From: 2010.05.17/outbox.cif.g08.bks.cpg/sg2_149_cif.got.tgz:297711.got - 2010.06.03 11:33:40.
