data_PCOD9057017
_publ_section_title
;
Structure prediction by ZEFSAII (Michael W. Deem and Ramdas Pophale) SiO2 
 PCOD9057017
Probable space group: P -1
;
_chemical_formula_sum "Si O2"
_cell_formula_units_Z 12
_cell_length_a 14.873377
_cell_length_b 12.253237
_cell_length_c 15.255512
_cell_angle_alpha 150.568610
_cell_angle_beta 139.084831
_cell_angle_gamma 28.003790
_cell_volume 640.393632
_symmetry_space_group_name_H-M "P -1"
_symmetry_group_IT_number 2
_symmetry_cell_setting 'triclinic'
loop_
_space_group_symop_operation_xyz
x,y,z
-x,-y,-z
loop_
_atom_site_type_symbol
_atom_site_label
_atom_site_fract_x
_atom_site_fract_y
_atom_site_fract_z
Si Si1 0.438668 0.605422 0.398784
Si Si2 0.522114 0.137085 0.694487
Si Si3 0.209234 0.657561 0.411165
Si Si4 0.180386 0.224932 0.183378
Si Si5 0.497420 0.605415 0.900576
Si Si6 0.262822 0.299937 0.766865
O O1 0.302292 0.583723 0.332337
O O2 0.640938 0.387068 0.445645
O O3 0.475722 0.507494 0.256911
O O4 0.338135 0.960846 0.583903
O O5 0.558114 0.340635 0.825842
O O6 0.329249 0.332199 0.746362
O O7 0.500000 0.000000 0.500000
O O8 0.690157 0.886351 0.711690
O O9 0.195051 0.424965 0.273430
O O10 0.000000 0.000000 0.500000
O O11 0.623170 0.682741 0.065621
O O12 0.281810 0.913829 0.986003
O O13 0.961891 0.434458 0.195548
#
# Coordination Sequence:
#
# PCOD9057017 Si02
#       6
#     2   2   2   2   2   2
#     4  11  23  43  67  89 129 168 206 257 316 365
#     4  11  22  42  67  91 127 167 205 259 317 367
#     4  11  22  41  68  92 126 168 208 258 308 370
#     4  11  23  41  64  96 128 161 213 258 308 372
#     4  11  24  43  64  94 127 163 210 259 311 371
#     4  11  22  42  64  93 128 164 205 258 313 368
#
# _framework density 18.738475999999999
#
# number of rings (size 3 to 8) (size 9 to 14) (size 15 to 20)
#    0.000    1.000    6.667    2.000    0.000    5.333 
#    3.000    1.667    0.000    0.000    0.000    0.000 
#    0.000    0.000    0.000    0.000    0.000    0.000 
#
# Total GULP energy -67010.507143 kJ/mol
# GULP energy per Si atom -5584.208929 kJ/mol
# Density = 1.869583 g / cm^3
# Si number density = 18.738476 Si / 1000 Ang^3
#
#
#
# Elastic Constant Matrix: (Units=GPa)
#
#
# Indices 1 2 3 4 5 6 
#
# 1 135.2830 66.4400 42.5999 -5.1701 -11.1204 -8.4264
# 2 66.4400 108.3860 45.0673 19.9671 -7.7386 -17.0596
# 3 42.5999 45.0673 98.2462 8.7080 -13.0666 -1.2737
# 4 -5.1701 19.9671 8.7080 16.2073 1.2796 4.3958
# 5 -11.1204 -7.7386 -13.0666 1.2796 20.7261 3.3148
# 6 -8.4264 -17.0596 -1.2737 4.3958 3.3148 46.3701
#
#
#
# Elastic Compliance Matrix: (Units=1/GPa)
#
#
# Indices 1 2 3 4 5 6 
#
# 1 0.015648 -0.013669 -0.002624 0.024430 0.000871 -0.004635
# 2 -0.013669 0.028406 -0.003046 -0.041033 0.002025 0.011628
# 3 -0.002624 -0.003046 0.014029 -0.004822 0.006795 -0.001241
# 4 0.024430 -0.041033 -0.004822 0.129466 -0.009668 -0.022371
# 5 0.000871 0.002025 0.006795 -0.009668 0.054656 -0.001901
# 6 -0.004635 0.011628 -0.001241 -0.022371 -0.001901 0.027224
#
#
# Mechanical properties :
#
#
# Convention : Reuss Voigt Hill
#
# Bulk Modulus (GPa) = 51.53780 72.23663 61.88722
# Shear Modulus (GPa) = 15.89442 29.18124 22.53783
#
# Velocity S-wave (km/s) = 2.91559 3.95053 3.47184
# Velocity P-wave (km/s) = 6.23680 7.70990 7.01214
#
# Compressibility (1/GPa) = 0.01940323
#
# Stress axis : x y z
#
# Youngs Moduli (GPa) = 63.90697 35.20419 71.28122
#
# Poissons Ratio (x) = 0.48119 0.18708
# Poissons Ratio (y) = 0.87352 0.21715
# Poissons Ratio (z) = 0.16772 0.10725
#
# Static dielectric constant tensor:
#      x y z
#    x 1.651520 0.008690 0.017640 
#    y 0.008690 1.640250 0.013840 
#    z 0.017640 0.013840 1.656280 
# 
# From -- ./inp_files/401757.got.cif
#   From: 2010.05.17/outbox.cif.g08.bks.cpg/sg2_201_cif.got.tgz:401757.got - 2010.06.03 11:33:40.
