data_PCOD9057163
_publ_section_title
;
Structure prediction by ZEFSAII (Michael W. Deem and Ramdas Pophale) SiO2 
 PCOD9057163
Probable space group: P -1
;
_chemical_formula_sum "Si O2"
_cell_formula_units_Z 16
_cell_length_a 9.332243
_cell_length_b 8.336481
_cell_length_c 10.837754
_cell_angle_alpha 102.002295
_cell_angle_beta 129.491223
_cell_angle_gamma 79.704990
_cell_volume 635.250808
_symmetry_space_group_name_H-M "P -1"
_symmetry_group_IT_number 2
_symmetry_cell_setting 'triclinic'
loop_
_space_group_symop_operation_xyz
x,y,z
-x,-y,-z
loop_
_atom_site_type_symbol
_atom_site_label
_atom_site_fract_x
_atom_site_fract_y
_atom_site_fract_z
Si Si1 0.740437 0.155643 0.321098
Si Si2 0.836885 0.685350 0.686932
Si Si3 0.556752 0.303104 0.642234
Si Si4 0.933981 0.992288 0.176395
Si Si5 0.523900 0.673822 0.983146
Si Si6 0.121731 0.685221 0.351293
Si Si7 0.584087 0.055764 0.825602
Si Si8 0.790133 0.584464 0.911798
O O1 0.834374 0.024274 0.258289
O O2 0.641526 0.289841 0.198815
O O3 0.881699 0.230639 0.504398
O O4 0.571341 0.075166 0.284284
O O5 0.661811 0.682806 0.499584
O O6 0.940622 0.501621 0.704503
O O7 0.770596 0.690653 0.793677
O O8 0.947838 0.846415 0.749666
O O9 0.661943 0.329805 0.575303
O O10 0.602312 0.135000 0.714421
O O11 0.646557 0.440950 0.796488
O O12 0.782060 0.000645 0.985759
O O13 0.044430 0.816537 0.226964
O O14 0.714419 0.672945 0.008853
O O15 0.500000 0.500000 0.000000
O O16 0.499183 0.808677 0.098762
O O17 0.000000 0.500000 0.000000
#
# Coordination Sequence:
#
# PCOD9057163 Si02
#       8
#     2   2   2   2   2   2   2   2
#     4  11  25  46  68 100 142 185 243 292 357 433
#     4  11  25  44  73 103 144 188 239 296 356 429
#     4  11  23  44  69 105 141 187 243 290 353 440
#     4  11  25  47  67 106 144 184 244 301 350 432
#     4  11  22  41  71  99 137 189 228 288 363 416
#     4  11  25  45  71 100 143 191 232 294 366 417
#     4  11  25  45  71 102 142 183 240 298 357 428
#     4  11  23  41  69 108 144 177 239 300 346 426
#
# _framework density 25.186900999999999
#
# number of rings (size 3 to 8) (size 9 to 14) (size 15 to 20)
#    0.000    1.000    1.250    6.375    1.750    8.000 
#    0.000    0.000    0.000    0.000    0.000    0.000 
#    0.000    0.000    0.000    0.000    0.000    0.000 
#
# Total GULP energy -89568.167480 kJ/mol
# GULP energy per Si atom -5598.010467 kJ/mol
# Density = 2.512957 g / cm^3
# Si number density = 25.186901 Si / 1000 Ang^3
#
#
#
# Elastic Constant Matrix: (Units=GPa)
#
#
# Indices 1 2 3 4 5 6 
#
# 1 65.6651 22.0361 27.6943 -6.4168 13.7217 10.1552
# 2 22.0361 156.8948 55.1971 -2.6042 19.5582 15.9113
# 3 27.6943 55.1971 83.1108 6.1409 5.2085 -2.2200
# 4 -6.4168 -2.6042 6.1409 35.7229 5.0657 7.3305
# 5 13.7217 19.5582 5.2085 5.0657 37.7951 2.4218
# 6 10.1552 15.9113 -2.2200 7.3305 2.4218 50.5679
#
#
#
# Elastic Compliance Matrix: (Units=1/GPa)
#
#
# Indices 1 2 3 4 5 6 
#
# 1 0.021722 0.001767 -0.008640 0.007933 -0.008285 -0.006051
# 2 0.001767 0.009718 -0.007121 0.003778 -0.004937 -0.004037
# 3 -0.008640 -0.007121 0.020042 -0.007349 0.004680 0.005697
# 4 0.007933 0.003778 -0.007349 0.033629 -0.007842 -0.007604
# 5 -0.008285 -0.004937 0.004680 -0.007842 0.032234 0.003016
# 6 -0.006051 -0.004037 0.005697 -0.007604 0.003016 0.023469
#
#
# Mechanical properties :
#
#
# Convention : Reuss Voigt Hill
#
# Bulk Modulus (GPa) = 42.56279 57.28063 49.92171
# Shear Modulus (GPa) = 28.30715 38.20009 33.25362
#
# Velocity S-wave (km/s) = 3.35607 3.89866 3.63750
# Velocity P-wave (km/s) = 5.65271 6.56184 6.12417
#
# Compressibility (1/GPa) = 0.02349470
#
# Stress axis : x y z
#
# Youngs Moduli (GPa) = 46.03599 102.90073 49.89476
#
# Poissons Ratio (x) = -0.18182 0.43110
# Poissons Ratio (y) = -0.08134 0.35528
# Poissons Ratio (z) = 0.39776 0.73271
#
# Static dielectric constant tensor:
#      x y z
#    x 2.000560 -0.078330 0.030610 
#    y -0.078330 2.040850 -0.003940 
#    z 0.030610 -0.003940 2.012660 
# 
# From -- ./inp_files/382767.got.cif
#   From: 2010.05.17/outbox.cif.g08.bks.cpg/sg2_192_cif.got.tgz:382767.got - 2010.06.03 11:33:40.
