data_PCOD9057127
_publ_section_title
;
Structure prediction by ZEFSAII (Michael W. Deem and Ramdas Pophale) SiO2 
 PCOD9057127
Probable space group: P -1
;
_chemical_formula_sum "Si O2"
_cell_formula_units_Z 16
_cell_length_a 21.274728
_cell_length_b 5.269126
_cell_length_c 9.413120
_cell_angle_alpha 76.262320
_cell_angle_beta 48.748272
_cell_angle_gamma 92.776227
_cell_volume 739.639193
_symmetry_space_group_name_H-M "P -1"
_symmetry_group_IT_number 2
_symmetry_cell_setting 'triclinic'
loop_
_space_group_symop_operation_xyz
x,y,z
-x,-y,-z
loop_
_atom_site_type_symbol
_atom_site_label
_atom_site_fract_x
_atom_site_fract_y
_atom_site_fract_z
Si Si1 0.577007 0.192861 0.055673
Si Si2 0.812561 0.725374 0.952643
Si Si3 0.047644 0.767600 0.979687
Si Si4 0.082945 0.650548 0.264844
Si Si5 0.676459 0.994660 0.164574
Si Si6 0.468250 0.343127 0.424218
Si Si7 0.604627 0.271631 0.678070
Si Si8 0.772325 0.258053 0.269683
O O1 0.542221 0.377978 0.192558
O O2 0.654897 0.122966 0.033861
O O3 0.487957 0.943552 0.198632
O O4 0.604280 0.303282 0.843763
O O5 0.852261 0.543674 0.811753
O O6 0.868870 0.038036 0.805368
O O7 0.713225 0.744697 0.092679
O O8 0.813796 0.579331 0.124246
O O9 0.150076 0.853316 0.774535
O O10 0.049452 0.682814 0.152225
O O11 0.000000 0.500000 0.000000
O O12 0.000000 0.000000 0.000000
O O13 0.000000 0.500000 0.500000
O O14 0.585783 0.944318 0.393517
O O15 0.741283 0.137653 0.175049
O O16 0.500000 0.500000 0.500000
O O17 0.396231 0.455510 0.438484
O O18 0.689478 0.198271 0.503514
#
# Coordination Sequence:
#
# PCOD9057127 Si02
#       8
#     2   2   2   2   2   2   2   2
#     4  11  25  40  60  99 139 183 224 296 347 399
#     4  11  22  41  71 101 134 175 233 287 334 417
#     4  11  24  44  72 101 136 177 229 284 352 427
#     4  11  24  46  73 101 135 177 223 286 365 420
#     4  12  22  40  69  95 134 179 246 275 340 412
#     4  12  22  37  68  96 130 189 241 274 336 419
#     4  11  23  43  62  95 141 178 228 291 353 399
#     4  11  23  43  72  98 133 186 238 288 341 424
#
# _framework density 21.632166999999999
#
# number of rings (size 3 to 8) (size 9 to 14) (size 15 to 20)
#    0.000    0.750    6.250    3.375    0.000    0.000 
#    4.500    0.000    0.000    0.000    0.000    0.000 
#    0.000    0.000    0.000    0.000    0.000    0.000 
#
# Total GULP energy -89209.990047 kJ/mol
# GULP energy per Si atom -5575.624378 kJ/mol
# Density = 2.158293 g / cm^3
# Si number density = 21.632167 Si / 1000 Ang^3
#
#
#
# Elastic Constant Matrix: (Units=GPa)
#
#
# Indices 1 2 3 4 5 6 
#
# 1 131.5909 41.3999 34.2089 22.7856 -0.4959 -18.4324
# 2 41.3999 103.1100 31.3750 15.9089 -8.9590 -8.2355
# 3 34.2089 31.3750 123.8997 17.5388 -0.9443 -8.6340
# 4 22.7856 15.9089 17.5388 35.7350 -2.3377 -10.8830
# 5 -0.4959 -8.9590 -0.9443 -2.3377 42.2185 7.0803
# 6 -18.4324 -8.2355 -8.6340 -10.8830 7.0803 38.3733
#
#
#
# Elastic Compliance Matrix: (Units=1/GPa)
#
#
# Indices 1 2 3 4 5 6 
#
# 1 0.009880 -0.002892 -0.001292 -0.003526 -0.001235 0.003062
# 2 -0.002892 0.012003 -0.001892 -0.002536 0.002398 -0.000401
# 3 -0.001292 -0.001892 0.009329 -0.002835 -0.000423 0.000346
# 4 -0.003526 -0.002536 -0.002835 0.034891 0.000115 0.006998
# 5 -0.001235 0.002398 -0.000423 0.000115 0.024974 -0.004749
# 6 0.003062 -0.000401 0.000346 0.006998 -0.004749 0.030384
#
#
# Mechanical properties :
#
#
# Convention : Reuss Voigt Hill
#
# Bulk Modulus (GPa) = 52.46750 63.61869 58.04309
# Shear Modulus (GPa) = 35.72273 40.03983 37.88128
#
# Velocity S-wave (km/s) = 4.06811 4.30692 4.18922
# Velocity P-wave (km/s) = 6.80978 7.36247 7.09151
#
# Compressibility (1/GPa) = 0.01905942
#
# Stress axis : x y z
#
# Youngs Moduli (GPa) = 101.21345 83.31301 107.19217
#
# Poissons Ratio (x) = 0.24098 0.13853
# Poissons Ratio (y) = 0.29276 0.20276
# Poissons Ratio (z) = 0.13080 0.15759
#
# Static dielectric constant tensor:
#      x y z
#    x 1.852140 0.036490 -0.106230 
#    y 0.036490 1.951160 -0.016720 
#    z -0.106230 -0.016720 1.815300 
# 
# From -- ./inp_files/339703.got.cif
#   From: 2010.05.17/outbox.cif.g08.bks.cpg/sg2_170_cif.got.tgz:339703.got - 2010.06.03 11:33:40.
