data_PCOD9057857
_publ_section_title
;
Structure prediction by ZEFSAII (Michael W. Deem and Ramdas Pophale) SiO2 
 PCOD9057857
Probable space group: P -1
;
_chemical_formula_sum "Si O2"
_cell_formula_units_Z 16
_cell_length_a 25.342099
_cell_length_b 17.726818
_cell_length_c 6.487122
_cell_angle_alpha 72.913992
_cell_angle_beta 73.412184
_cell_angle_gamma 13.380321
_cell_volume 644.630094
_symmetry_space_group_name_H-M "P -1"
_symmetry_group_IT_number 2
_symmetry_cell_setting 'triclinic'
loop_
_space_group_symop_operation_xyz
x,y,z
-x,-y,-z
loop_
_atom_site_type_symbol
_atom_site_label
_atom_site_fract_x
_atom_site_fract_y
_atom_site_fract_z
Si Si1 0.689922 0.338486 0.817095
Si Si2 0.271273 0.859737 0.321845
Si Si3 0.415337 0.433553 0.629721
Si Si4 0.605534 0.609867 0.895197
Si Si5 0.005085 0.826741 0.232789
Si Si6 0.890812 0.733818 0.498562
Si Si7 0.070493 0.595743 0.071361
Si Si8 0.813343 0.693819 0.117681
O O1 0.600260 0.384192 0.767878
O O2 0.754920 0.296623 0.569229
O O3 0.545228 0.608385 0.871311
O O4 0.854875 0.078612 0.021510
O O5 0.445023 0.685531 0.338431
O O6 0.081346 0.156613 0.139549
O O7 0.142142 0.003417 0.550860
O O8 0.315796 0.520735 0.854834
O O9 0.630046 0.086760 0.574133
O O10 0.812537 0.362761 0.744082
O O11 0.143443 0.566045 0.162108
O O12 0.599643 0.043064 0.143671
O O13 0.000000 0.500000 0.500000
O O14 0.056695 0.530905 0.660896
O O15 0.916112 0.759106 0.265599
O O16 0.232582 0.306030 0.011358
O O17 0.000000 0.500000 0.000000
#
# Coordination Sequence:
#
# PCOD9057857 Si02
#       8
#     2   2   2   2   2   2   2   2
#     4  11  27  43  73  99 143 181 233 284 348 399
#     4  11  24  46  70 100 141 181 227 289 344 410
#     4  12  24  41  68 105 135 172 235 282 344 408
#     4  12  27  45  69 103 138 185 235 279 341 413
#     4  11  26  48  69  97 142 188 230 280 341 410
#     4  12  22  39  69 101 137 173 217 279 344 399
#     4  11  22  43  72  96 140 184 220 282 344 403
#     4  12  22  42  69 102 140 175 225 286 343 409
#
# _framework density 24.820436999999998
#
# number of rings (size 3 to 8) (size 9 to 14) (size 15 to 20)
#    0.000    0.500    5.000    2.250    1.750    4.500 
#    0.000    2.500    0.000    0.000    0.000    0.000 
#    0.000    0.000    0.000    0.000    0.000    0.000 
#
# Total GULP energy -89410.743815 kJ/mol
# GULP energy per Si atom -5588.171488 kJ/mol
# Density = 2.476394 g / cm^3
# Si number density = 24.820437 Si / 1000 Ang^3
#
#
#
# Elastic Constant Matrix: (Units=GPa)
#
#
# Indices 1 2 3 4 5 6 
#
# 1 134.3238 53.8479 21.6453 17.9706 21.0533 32.1293
# 2 53.8479 61.3518 36.2025 12.0252 -7.2266 7.4217
# 3 21.6453 36.2025 149.2920 -0.9362 -19.4280 -2.2074
# 4 17.9706 12.0252 -0.9362 32.8415 10.5698 0.3467
# 5 21.0533 -7.2266 -19.4280 10.5698 45.5824 15.9551
# 6 32.1293 7.4217 -2.2074 0.3467 15.9551 41.4164
#
#
#
# Elastic Compliance Matrix: (Units=1/GPa)
#
#
# Indices 1 2 3 4 5 6 
#
# 1 0.015829 -0.013471 0.000006 -0.001555 -0.006513 -0.007343
# 2 -0.013471 0.034225 -0.004870 -0.009103 0.011831 -0.000424
# 3 0.000006 -0.004870 0.008188 0.001278 0.002273 0.000419
# 4 -0.001555 -0.009103 0.001278 0.038304 -0.011521 0.007023
# 5 -0.006513 0.011831 0.002273 -0.011521 0.033936 -0.009923
# 6 -0.007343 -0.000424 0.000419 0.007023 -0.009923 0.033704
#
#
# Mechanical properties :
#
#
# Convention : Reuss Voigt Hill
#
# Bulk Modulus (GPa) = 46.35439 63.15099 54.75269
# Shear Modulus (GPa) = 24.03294 39.51952 31.77623
#
# Velocity S-wave (km/s) = 3.11508 3.99459 3.58193
# Velocity P-wave (km/s) = 5.62626 6.83915 6.26214
#
# Compressibility (1/GPa) = 0.02157293
#
# Stress axis : x y z
#
# Youngs Moduli (GPa) = 63.17385 29.21808 122.12416
#
# Poissons Ratio (x) = 0.39358 -0.00068
# Poissons Ratio (y) = 0.85099 0.59476
# Poissons Ratio (z) = -0.00035 0.14230
#
# Static dielectric constant tensor:
#      x y z
#    x 2.017870 0.058900 0.053150 
#    y 0.058900 1.950010 -0.009010 
#    z 0.053150 -0.009010 2.025850 
# 
# From -- ./inp_files/124706.got.cif
#   From: 2010.05.17/outbox.cif.g08.bks.cpg/sg2_63_cif.got.tgz:124706.got - 2010.06.03 11:33:40.
