data_PCOD9057050
_publ_section_title
;
Structure prediction by ZEFSAII (Michael W. Deem and Ramdas Pophale) SiO2 
 PCOD9057050
Probable space group: P -1
;
_chemical_formula_sum "Si O2"
_cell_formula_units_Z 16
_cell_length_a 11.114893
_cell_length_b 6.427552
_cell_length_c 10.893323
_cell_angle_alpha 113.729613
_cell_angle_beta 103.568640
_cell_angle_gamma 74.049863
_cell_volume 678.177572
_symmetry_space_group_name_H-M "P -1"
_symmetry_group_IT_number 2
_symmetry_cell_setting 'triclinic'
loop_
_space_group_symop_operation_xyz
x,y,z
-x,-y,-z
loop_
_atom_site_type_symbol
_atom_site_label
_atom_site_fract_x
_atom_site_fract_y
_atom_site_fract_z
Si Si1 0.208791 0.259552 0.316175
Si Si2 0.448484 0.466345 0.346484
Si Si3 0.039309 0.712748 0.305911
Si Si4 0.000550 0.231656 0.984976
Si Si5 0.401189 0.008682 0.772664
Si Si6 0.801731 0.930369 0.467063
Si Si7 0.772962 0.615402 0.018668
Si Si8 0.634819 0.220147 0.808362
O O1 0.322911 0.368101 0.317016
O O2 0.085002 0.445196 0.293691
O O3 0.209306 0.232295 0.457761
O O4 0.245912 0.992454 0.217168
O O5 0.500000 0.500000 0.500000
O O6 0.417978 0.704096 0.321330
O O7 0.545936 0.262396 0.250552
O O8 0.026064 0.768913 0.169702
O O9 0.909195 0.812606 0.368458
O O10 0.144522 0.849862 0.416703
O O11 0.887724 0.426800 0.060883
O O12 0.141449 0.286126 0.037446
O O13 0.000000 0.000000 0.000000
O O14 0.328433 0.014091 0.626514
O O15 0.521396 0.132633 0.827354
O O16 0.301705 0.162998 0.875679
O O17 0.676741 0.452933 0.919152
#
# Coordination Sequence:
#
# PCOD9057050 Si02
#       8
#     2   2   2   2   2   2   2   2
#     4  11  22  41  69 100 137 185 234 286 356 422
#     4  11  23  41  68 100 141 183 233 295 351 422
#     4  11  24  45  70 103 140 181 238 299 359 422
#     4  11  26  48  74 100 143 189 234 300 356 419
#     4  11  24  44  68 104 144 186 234 293 350 424
#     4  11  23  42  70 104 142 180 234 298 362 420
#     4  11  25  46  67 102 142 184 247 287 346 427
#     4  11  25  43  70  99 143 194 235 286 351 422
#
# _framework density 23.592641
#
# number of rings (size 3 to 8) (size 9 to 14) (size 15 to 20)
#    0.000    1.000    1.250    5.250    0.000   10.500 
#    4.500    0.000    0.000    0.000    0.000    0.000 
#    0.000    0.000    0.000    0.000    0.000    0.000 
#
# Total GULP energy -89448.370984 kJ/mol
# GULP energy per Si atom -5590.523186 kJ/mol
# Density = 2.353894 g / cm^3
# Si number density = 23.592641 Si / 1000 Ang^3
#
#
#
# Elastic Constant Matrix: (Units=GPa)
#
#
# Indices 1 2 3 4 5 6 
#
# 1 101.6488 26.7025 17.9905 12.9937 -1.8492 -17.5179
# 2 26.7025 170.4862 32.7155 1.8114 -15.5182 -20.9017
# 3 17.9905 32.7155 80.4480 12.6383 0.9014 -26.0191
# 4 12.9937 1.8114 12.6383 37.4793 -5.9019 -0.3128
# 5 -1.8492 -15.5182 0.9014 -5.9019 47.4125 5.1897
# 6 -17.5179 -20.9017 -26.0191 -0.3128 5.1897 36.5771
#
#
#
# Elastic Compliance Matrix: (Units=1/GPa)
#
#
# Indices 1 2 3 4 5 6 
#
# 1 0.011514 -0.001280 0.000247 -0.004136 -0.001045 0.005072
# 2 -0.001280 0.006864 -0.002280 0.001246 0.002244 0.001380
# 3 0.000247 -0.002280 0.018337 -0.006567 -0.003245 0.012264
# 4 -0.004136 0.001246 -0.006567 0.030992 0.004927 -0.006375
# 5 -0.001045 0.002244 -0.003245 0.004927 0.022980 -0.004745
# 6 0.005072 0.001380 0.012264 -0.006375 -0.004745 0.039900
#
#
# Mechanical properties :
#
#
# Convention : Reuss Voigt Hill
#
# Bulk Modulus (GPa) = 33.23377 56.37776 44.80577
# Shear Modulus (GPa) = 33.95815 42.63875 38.29845
#
# Velocity S-wave (km/s) = 3.79800 4.25584 4.03342
# Velocity P-wave (km/s) = 5.77496 6.93525 6.38153
#
# Compressibility (1/GPa) = 0.03008987
#
# Stress axis : x y z
#
# Youngs Moduli (GPa) = 86.85084 145.69398 54.53558
#
# Poissons Ratio (x) = 0.18652 -0.01350
# Poissons Ratio (y) = 0.11119 0.12431
# Poissons Ratio (z) = -0.02149 0.33211
#
# Static dielectric constant tensor:
#      x y z
#    x 1.910590 -0.013760 0.062020 
#    y -0.013760 1.866190 0.023360 
#    z 0.062020 0.023360 1.997270 
# 
# From -- ./inp_files/411095.got.cif
#   From: 2010.05.17/outbox.cif.g08.bks.cpg/sg2_206_cif.got.tgz:411095.got - 2010.06.03 11:33:40.
