data_PCOD9057074
_publ_section_title
;
Structure prediction by ZEFSAII (Michael W. Deem and Ramdas Pophale) SiO2 
 PCOD9057074
Probable space group: P -1
;
_chemical_formula_sum "Si O2"
_cell_formula_units_Z 14
_cell_length_a 5.852254
_cell_length_b 11.335755
_cell_length_c 11.521757
_cell_angle_alpha 128.390639
_cell_angle_beta 76.991881
_cell_angle_gamma 96.925701
_cell_volume 583.535339
_symmetry_space_group_name_H-M "P -1"
_symmetry_group_IT_number 2
_symmetry_cell_setting 'triclinic'
loop_
_space_group_symop_operation_xyz
x,y,z
-x,-y,-z
loop_
_atom_site_type_symbol
_atom_site_label
_atom_site_fract_x
_atom_site_fract_y
_atom_site_fract_z
Si Si1 0.270678 0.940101 0.918462
Si Si2 0.415846 0.644733 0.827409
Si Si3 0.985517 0.557065 0.199217
Si Si4 0.795514 0.455639 0.580039
Si Si5 0.635002 0.118518 0.391630
Si Si6 0.368565 0.347567 0.950174
Si Si7 0.236882 0.142967 0.639683
O O1 0.253641 0.769971 0.864277
O O2 0.344763 0.948890 0.780678
O O3 0.500000 0.000000 0.000000
O O4 0.000000 0.000000 0.000000
O O5 0.278687 0.495297 0.785149
O O6 0.602157 0.588549 0.677354
O O7 0.539317 0.703736 0.966025
O O8 0.972686 0.733181 0.274926
O O9 0.117778 0.546125 0.298777
O O10 0.105052 0.418363 0.029784
O O11 0.704919 0.289930 0.470174
O O12 0.000000 0.500000 0.500000
O O13 0.387836 0.121430 0.491910
O O14 0.806422 0.018485 0.395893
O O15 0.500000 0.500000 0.000000
O O16 0.392137 0.224878 0.772177
#
# Coordination Sequence:
#
# PCOD9057074 Si02
#       7
#     2   2   2   2   2   2   2
#     4  12  31  52  78 110 152 203 257 319 391 460
#     4  11  25  45  75 103 147 196 250 316 375 456
#     4  11  23  40  73 105 140 193 249 304 376 453
#     4  11  25  44  73 109 145 192 256 312 378 455
#     4  11  26  47  71 106 151 192 247 315 385 453
#     4  11  22  41  69 108 144 187 250 304 378 454
#     4  11  23  44  71 104 150 190 245 309 382 458
#
# _framework density 23.991690999999999
#
# number of rings (size 3 to 8) (size 9 to 14) (size 15 to 20)
#    0.000    0.857    2.857    3.000   10.000    1.714 
#    0.000    1.429    0.000    0.000    0.000    0.000 
#    0.000    0.000    0.000    0.000    0.000    0.000 
#
# Total GULP energy -78222.667012 kJ/mol
# GULP energy per Si atom -5587.333358 kJ/mol
# Density = 2.393708 g / cm^3
# Si number density = 23.991691 Si / 1000 Ang^3
#
#
#
# Elastic Constant Matrix: (Units=GPa)
#
#
# Indices 1 2 3 4 5 6 
#
# 1 84.0097 25.3133 50.1033 1.6795 -17.8638 -15.8127
# 2 25.3133 126.6371 39.6139 1.5549 -14.2424 -32.5789
# 3 50.1033 39.6139 150.1811 -12.5620 -15.1334 -4.7093
# 4 1.6795 1.5549 -12.5620 37.0938 0.2453 -10.0633
# 5 -17.8638 -14.2424 -15.1334 0.2453 36.9563 10.4393
# 6 -15.8127 -32.5789 -4.7093 -10.0633 10.4393 44.2427
#
#
#
# Elastic Compliance Matrix: (Units=1/GPa)
#
#
# Indices 1 2 3 4 5 6 
#
# 1 0.016763 -0.000228 -0.005043 -0.001458 0.004886 0.003802
# 2 -0.000228 0.010705 -0.002352 0.000797 0.000924 0.007515
# 3 -0.005043 -0.002352 0.009237 0.002868 0.001024 -0.002141
# 4 -0.001458 0.000797 0.002868 0.030026 -0.001561 0.007569
# 5 0.004886 0.000924 0.001024 -0.001561 0.031704 -0.005300
# 6 0.003802 0.007515 -0.002141 0.007569 -0.005300 0.032239
#
#
# Mechanical properties :
#
#
# Convention : Reuss Voigt Hill
#
# Bulk Modulus (GPa) = 46.59773 65.65430 56.12601
# Shear Modulus (GPa) = 32.66378 40.04506 36.35442
#
# Velocity S-wave (km/s) = 3.69380 4.08992 3.89690
# Velocity P-wave (km/s) = 6.13652 7.05182 6.61003
#
# Compressibility (1/GPa) = 0.02146027
#
# Stress axis : x y z
#
# Youngs Moduli (GPa) = 59.65394 93.41157 108.25471
#
# Poissons Ratio (x) = 0.02127 0.54592
# Poissons Ratio (y) = 0.01358 0.25465
# Poissons Ratio (z) = 0.30083 0.21974
#
# Static dielectric constant tensor:
#      x y z
#    x 1.733690 -0.081070 0.166860 
#    y -0.081070 1.902820 0.074980 
#    z 0.166860 0.074980 1.868290 
# 
# From -- ./inp_files/127245.got.cif
#   From: 2010.05.17/outbox.cif.g08.bks.cpg/sg2_64_cif.got.tgz:127245.got - 2010.06.03 11:33:40.
