data_PCOD9057894
_publ_section_title
;
Structure prediction by ZEFSAII (Michael W. Deem and Ramdas Pophale) SiO2 
 PCOD9057894
Probable space group: P -1
;
_chemical_formula_sum "Si O2"
_cell_formula_units_Z 12
_cell_length_a 15.793087
_cell_length_b 4.963136
_cell_length_c 8.669555
_cell_angle_alpha 81.711095
_cell_angle_beta 132.171850
_cell_angle_gamma 73.484479
_cell_volume 425.820640
_symmetry_space_group_name_H-M "P -1"
_symmetry_group_IT_number 2
_symmetry_cell_setting 'triclinic'
loop_
_space_group_symop_operation_xyz
x,y,z
-x,-y,-z
loop_
_atom_site_type_symbol
_atom_site_label
_atom_site_fract_x
_atom_site_fract_y
_atom_site_fract_z
Si Si1 0.620280 0.783122 0.874734
Si Si2 0.123979 0.555054 0.163700
Si Si3 0.629765 0.090369 0.591252
Si Si4 0.817026 0.054706 0.277225
Si Si5 0.601646 0.163287 0.223826
Si Si6 0.002313 0.881942 0.268127
O O1 0.650573 0.032507 0.807030
O O2 0.496634 0.956275 0.830010
O O3 0.531110 0.736786 0.637177
O O4 0.738441 0.433180 0.100681
O O5 0.261948 0.275271 0.292901
O O6 0.119724 0.606093 0.335973
O O7 0.000000 0.500000 0.000000
O O8 0.089302 0.861360 0.994353
O O9 0.656255 0.222350 0.450437
O O10 0.712007 0.993295 0.240812
O O11 0.926862 0.991598 0.545398
O O12 0.904709 0.832757 0.261654
O O13 0.500000 0.500000 0.000000
#
# Coordination Sequence:
#
# PCOD9057894 Si02
#       6
#     2   2   2   2   2   2
#     4   8  16  30  58  83 113 153 191 243 292 341
#     4  11  22  40  60  86 118 160 200 240 286 359
#     4   9  16  32  56  85 111 156 195 237 289 344
#     4  10  17  37  57  89 120 149 191 249 293 347
#     4   8  15  27  55  84 111 152 186 234 294 341
#     4  10  23  36  61  88 120 159 193 239 301 343
#
# _framework density 28.180878
#
# number of rings (size 3 to 8) (size 9 to 14) (size 15 to 20)
#    1.000    1.667    1.667    1.000    0.000    0.000 
#    0.000    8.333    0.000   10.000    0.000    0.000 
#    0.000    0.000    0.000    0.000    0.000    0.000 
#
# Total GULP energy -66841.196693 kJ/mol
# GULP energy per Si atom -5570.099724 kJ/mol
# Density = 2.811674 g / cm^3
# Si number density = 28.180878 Si / 1000 Ang^3
#
#
#
# Elastic Constant Matrix: (Units=GPa)
#
#
# Indices 1 2 3 4 5 6 
#
# 1 220.8621 71.2318 37.3881 12.3364 -13.5271 -69.9796
# 2 71.2318 69.7477 22.6981 -17.5372 -9.5494 -19.6437
# 3 37.3881 22.6981 135.9812 -24.0153 -25.2073 -3.6347
# 4 12.3364 -17.5372 -24.0153 45.1580 1.1781 0.7032
# 5 -13.5271 -9.5494 -25.2073 1.1781 64.9907 5.7577
# 6 -69.9796 -19.6437 -3.6347 0.7032 5.7577 50.8616
#
#
#
# Elastic Compliance Matrix: (Units=1/GPa)
#
#
# Indices 1 2 3 4 5 6 
#
# 1 0.014377 -0.012121 -0.003684 -0.010794 -0.001363 0.015140
# 2 -0.012121 0.028730 0.001557 0.015323 0.002554 -0.005970
# 3 -0.003684 0.001557 0.009854 0.006826 0.003538 -0.004258
# 4 -0.010794 0.015323 0.006826 0.034744 0.002842 -0.009248
# 5 -0.001363 0.002554 0.003538 0.002842 0.017030 -0.002603
# 6 0.015140 -0.005970 -0.004258 -0.009248 -0.002603 0.038305
#
#
# Mechanical properties :
#
#
# Convention : Reuss Voigt Hill
#
# Bulk Modulus (GPa) = 40.87305 76.58077 58.72691
# Shear Modulus (GPa) = 27.82563 51.88693 39.85628
#
# Velocity S-wave (km/s) = 3.14569 4.29559 3.76480
# Velocity P-wave (km/s) = 5.26585 7.19976 6.30736
#
# Compressibility (1/GPa) = 0.02446600
#
# Stress axis : x y z
#
# Youngs Moduli (GPa) = 69.55571 34.80664 101.47682
#
# Poissons Ratio (x) = 0.42188 0.37385
# Poissons Ratio (y) = 0.84305 -0.15798
# Poissons Ratio (z) = 0.25625 -0.05419
#
# Static dielectric constant tensor:
#      x y z
#    x 2.322370 0.118220 0.017200 
#    y 0.118220 2.287880 0.170340 
#    z 0.017200 0.170340 2.245320 
# 
# From -- ./inp_files/139971.got.cif
#   From: 2010.05.17/outbox.cif.g08.bks.cpg/sg2_70_cif.got.tgz:139971.got - 2010.06.03 11:33:40.
