data_PCOD9057838
_publ_section_title
;
Structure prediction by ZEFSAII (Michael W. Deem and Ramdas Pophale) SiO2 
 PCOD9057838
Probable space group: P -1
;
_chemical_formula_sum "Si O2"
_cell_formula_units_Z 12
_cell_length_a 8.757246
_cell_length_b 9.274276
_cell_length_c 9.452812
_cell_angle_alpha 112.482199
_cell_angle_beta 131.370512
_cell_angle_gamma 80.073206
_cell_volume 528.770487
_symmetry_space_group_name_H-M "P -1"
_symmetry_group_IT_number 2
_symmetry_cell_setting 'triclinic'
loop_
_space_group_symop_operation_xyz
x,y,z
-x,-y,-z
loop_
_atom_site_type_symbol
_atom_site_label
_atom_site_fract_x
_atom_site_fract_y
_atom_site_fract_z
Si Si1 0.363942 0.170625 0.620653
Si Si2 0.492092 0.658111 0.641891
Si Si3 0.477511 0.659881 0.958518
Si Si4 0.918917 0.820850 0.931369
Si Si5 0.986899 0.339734 0.343143
Si Si6 0.259568 0.808015 0.349772
O O1 0.568553 0.231805 0.676586
O O2 0.163090 0.247786 0.481553
O O3 0.317194 0.989104 0.489850
O O4 0.399112 0.207665 0.820951
O O5 0.500000 0.500000 0.500000
O O6 0.527179 0.626745 0.815208
O O7 0.673799 0.797421 0.773543
O O8 0.284842 0.715828 0.476290
O O9 0.253340 0.716619 0.824682
O O10 0.500000 0.500000 0.000000
O O11 0.967614 0.681514 0.802997
O O12 0.037400 0.789717 0.135707
O O13 0.000000 0.000000 0.000000
O O14 0.000000 0.500000 0.500000
#
# Coordination Sequence:
#
# PCOD9057838 Si02
#       6
#     2   2   2   2   2   2
#     4  11  22  43  72 104 144 193 243 296 371 433
#     4  12  28  47  70 109 148 190 251 304 365 441
#     4  12  26  45  69 102 145 197 238 302 372 432
#     4  12  24  47  79 107 141 200 249 294 364 448
#     4  12  23  40  74 107 145 190 246 299 364 437
#     4  11  23  44  73 103 143 192 245 303 359 439
#
# _framework density 22.694154000000001
#
# number of rings (size 3 to 8) (size 9 to 14) (size 15 to 20)
#    0.000    0.333    6.667    3.000    0.000    2.667 
#    0.000    1.667    0.000    0.000    0.000    0.000 
#    0.000    0.000    0.000    0.000    0.000    0.000 
#
# Total GULP energy -66973.376430 kJ/mol
# GULP energy per Si atom -5581.114702 kJ/mol
# Density = 2.264250 g / cm^3
# Si number density = 22.694154 Si / 1000 Ang^3
#
#
#
# Elastic Constant Matrix: (Units=GPa)
#
#
# Indices 1 2 3 4 5 6 
#
# 1 38.7729 21.1499 32.8610 1.1220 -11.6079 -10.5018
# 2 21.1499 89.5850 44.5230 -7.5921 -8.4185 -19.6043
# 3 32.8610 44.5230 215.8614 -12.4447 -18.2372 -4.6490
# 4 1.1220 -7.5921 -12.4447 29.9872 -8.6865 -2.2302
# 5 -11.6079 -8.4185 -18.2372 -8.6865 54.1315 -3.6661
# 6 -10.5018 -19.6043 -4.6490 -2.2302 -3.6661 31.8979
#
#
#
# Elastic Compliance Matrix: (Units=1/GPa)
#
#
# Indices 1 2 3 4 5 6 
#
# 1 0.035737 -0.003967 -0.003996 -0.001543 0.006085 0.009337
# 2 -0.003967 0.015535 -0.001969 0.004538 0.002208 0.008526
# 3 -0.003996 -0.001969 0.005840 0.002283 0.001076 -0.001391
# 4 -0.001543 0.004538 0.002283 0.038188 0.007690 0.006168
# 5 0.006085 0.002208 0.001076 0.007690 0.022166 0.006602
# 6 0.009337 0.008526 -0.001391 0.006168 0.006602 0.040652
#
#
# Mechanical properties :
#
#
# Convention : Reuss Voigt Hill
#
# Bulk Modulus (GPa) = 26.84606 60.14301 43.49453
# Shear Modulus (GPa) = 26.26104 39.58235 32.92169
#
# Velocity S-wave (km/s) = 3.40541 4.18085 3.81290
# Velocity P-wave (km/s) = 5.22663 7.06152 6.21220
#
# Compressibility (1/GPa) = 0.03724941
#
# Stress axis : x y z
#
# Youngs Moduli (GPa) = 27.98218 64.36913 171.24633
#
# Poissons Ratio (x) = 0.25534 0.68428
# Poissons Ratio (y) = 0.11100 0.33712
# Poissons Ratio (z) = 0.11181 0.12672
#
# Static dielectric constant tensor:
#      x y z
#    x 6.847490 -3.656560 5.261960 
#    y -3.656560 4.646410 -4.061300 
#    z 5.261960 -4.061300 7.719520 
# 
# From -- ./inp_files/160035.got.cif
#   From: 2010.05.17/outbox.cif.g08.bks.cpg/sg2_81_cif.got.tgz:160035.got - 2010.06.03 11:33:40.
