data_PCOD9057052
_publ_section_title
;
Structure prediction by ZEFSAII (Michael W. Deem and Ramdas Pophale) SiO2 
 PCOD9057052
Probable space group: P -1
;
_chemical_formula_sum "Si O2"
_cell_formula_units_Z 12
_cell_length_a 11.694082
_cell_length_b 9.638691
_cell_length_c 14.093438
_cell_angle_alpha 28.014359
_cell_angle_beta 44.117897
_cell_angle_gamma 45.963246
_cell_volume 510.191058
_symmetry_space_group_name_H-M "P -1"
_symmetry_group_IT_number 2
_symmetry_cell_setting 'triclinic'
loop_
_space_group_symop_operation_xyz
x,y,z
-x,-y,-z
loop_
_atom_site_type_symbol
_atom_site_label
_atom_site_fract_x
_atom_site_fract_y
_atom_site_fract_z
Si Si1 0.667316 0.395904 0.733313
Si Si2 0.443550 0.665339 0.530720
Si Si3 0.807539 0.023475 0.126475
Si Si4 0.949365 0.895841 0.316773
Si Si5 0.690215 0.689382 0.727760
Si Si6 0.781828 0.758640 0.099390
O O1 0.573363 0.541142 0.610378
O O2 0.601520 0.596606 0.741819
O O3 0.872161 0.339411 0.653985
O O4 0.651445 0.046968 0.962614
O O5 0.500000 0.500000 0.500000
O O6 0.270153 0.543478 0.723292
O O7 0.413671 0.024745 0.330752
O O8 0.818047 0.926765 0.288333
O O9 0.764172 0.818181 0.188374
O O10 0.728756 0.375030 0.949614
O O11 0.000000 0.000000 0.000000
O O12 0.854844 0.808718 0.518517
O O13 0.035318 0.193286 0.074489
#
# Coordination Sequence:
#
# PCOD9057052 Si02
#       6
#     2   2   2   2   2   2
#     4   9  21  42  68  89 124 173 213 258 321 386
#     4  12  26  42  59  94 140 171 209 265 319 383
#     4   9  18  38  66  99 123 160 214 263 319 377
#     4   9  20  39  75  90 127 160 218 273 315 372
#     4  11  22  41  69 101 120 170 222 261 317 383
#     4   8  20  39  64  90 126 169 206 262 328 367
#
# _framework density 23.520600000000002
#
# number of rings (size 3 to 8) (size 9 to 14) (size 15 to 20)
#    1.000    1.333    1.667    1.500    2.333    2.000 
#    6.000    7.500    0.000    0.000    0.000    0.000 
#    0.000    0.000    0.000    0.000    0.000    0.000 
#
# Total GULP energy -66853.475285 kJ/mol
# GULP energy per Si atom -5571.122940 kJ/mol
# Density = 2.346707 g / cm^3
# Si number density = 23.520600 Si / 1000 Ang^3
#
#
#
# Elastic Constant Matrix: (Units=GPa)
#
#
# Indices 1 2 3 4 5 6 
#
# 1 149.5157 30.8726 52.3686 -19.6488 8.1587 6.4711
# 2 30.8726 92.1943 24.8688 -16.0476 3.6061 6.0037
# 3 52.3686 24.8688 112.1622 -14.9094 5.2801 9.2275
# 4 -19.6488 -16.0476 -14.9094 50.5652 -5.3117 -11.5201
# 5 8.1587 3.6061 5.2801 -5.3117 43.5670 -1.6975
# 6 6.4711 6.0037 9.2275 -11.5201 -1.6975 7.1701
#
#
#
# Elastic Compliance Matrix: (Units=1/GPa)
#
#
# Indices 1 2 3 4 5 6 
#
# 1 0.008458 -0.001620 -0.003379 0.001916 -0.000769 0.000967
# 2 -0.001620 0.012380 -0.001366 0.001878 -0.000492 -0.004245
# 3 -0.003379 -0.001366 0.011793 -0.001572 -0.001414 -0.013843
# 4 0.001916 0.001878 -0.001572 0.033594 0.005879 0.054088
# 5 -0.000769 -0.000492 -0.001414 0.005879 0.024736 0.018229
# 6 0.000967 -0.004245 -0.013843 0.054088 0.018229 0.251183
#
#
# Mechanical properties :
#
#
# Convention : Reuss Voigt Hill
#
# Bulk Modulus (GPa) = 50.25038 63.34360 56.79699
# Shear Modulus (GPa) = 13.83093 36.64462 25.23777
#
# Velocity S-wave (km/s) = 2.42757 3.95141 3.27923
# Velocity P-wave (km/s) = 5.41002 6.91431 6.20790
#
# Compressibility (1/GPa) = 0.01990035
#
# Stress axis : x y z
#
# Youngs Moduli (GPa) = 118.23046 80.77292 84.79911
#
# Poissons Ratio (x) = 0.13089 0.28649
# Poissons Ratio (y) = 0.19158 0.11587
# Poissons Ratio (z) = 0.39944 0.11037
#
# Static dielectric constant tensor:
#      x y z
#    x 2.043320 -0.041320 -0.076230 
#    y -0.041320 1.905950 0.059640 
#    z -0.076230 0.059640 2.049730 
# 
# From -- ./inp_files/233984.got.cif
#   From: 2010.05.17/outbox.cif.g08.bks.cpg/sg2_117_cif.got.tgz:233984.got - 2010.06.03 11:33:40.
