data_PCOD9057340
_publ_section_title
;
Structure prediction by ZEFSAII (Michael W. Deem and Ramdas Pophale) SiO2 
 PCOD9057340
Probable space group: P -1
;
_chemical_formula_sum "Si O2"
_cell_formula_units_Z 16
_cell_length_a 9.431731
_cell_length_b 9.177030
_cell_length_c 14.665031
_cell_angle_alpha 71.399325
_cell_angle_beta 38.160821
_cell_angle_gamma 79.401776
_cell_volume 738.454683
_symmetry_space_group_name_H-M "P -1"
_symmetry_group_IT_number 2
_symmetry_cell_setting 'triclinic'
loop_
_space_group_symop_operation_xyz
x,y,z
-x,-y,-z
loop_
_atom_site_type_symbol
_atom_site_label
_atom_site_fract_x
_atom_site_fract_y
_atom_site_fract_z
Si Si1 0.934104 0.628161 0.200295
Si Si2 0.434503 0.251043 0.766636
Si Si3 0.971722 0.996076 0.406433
Si Si4 0.525671 0.361918 0.085310
Si Si5 0.747051 0.278848 0.423205
Si Si6 0.536602 0.988994 0.878135
Si Si7 0.301039 0.238233 0.539951
Si Si8 0.271911 0.481998 0.357818
O O1 0.783499 0.682654 0.182071
O O2 0.835940 0.455080 0.317828
O O3 0.883544 0.739503 0.289869
O O4 0.198874 0.628029 0.037112
O O5 0.623327 0.257855 0.588495
O O6 0.556847 0.360168 0.761323
O O7 0.383637 0.081322 0.869790
O O8 0.946502 0.167314 0.347809
O O9 0.204658 0.928746 0.277259
O O10 0.774863 0.888502 0.473478
O O11 0.000000 0.000000 0.500000
O O12 0.468440 0.188373 0.112426
O O13 0.350687 0.385878 0.251706
O O14 0.500000 0.500000 0.000000
O O15 0.543429 0.218615 0.468334
O O16 0.500000 0.000000 0.000000
O O17 0.331633 0.397466 0.437079
O O18 0.000000 0.500000 0.500000
#
# Coordination Sequence:
#
# PCOD9057340 Si02
#       8
#     2   2   2   2   2   2   2   2
#     4  11  23  47  71  99 143 188 234 288 352 427
#     4  11  23  44  70 101 138 186 233 292 355 418
#     4  12  24  41  69 101 139 180 235 298 346 414
#     4  12  27  45  68 101 142 187 236 288 356 423
#     4  11  22  44  70 103 141 178 240 292 352 420
#     4  12  26  46  66 100 142 186 237 289 356 415
#     4  11  22  42  68 102 134 184 231 288 356 414
#     4  12  24  41  70 103 139 179 239 291 351 421
#
# _framework density 21.666868000000001
#
# number of rings (size 3 to 8) (size 9 to 14) (size 15 to 20)
#    0.000    0.500    3.750    5.625    1.750    1.000 
#    2.250    0.000    0.000    0.000    0.000    0.000 
#    0.000    0.000    0.000    0.000    0.000    0.000 
#
# Total GULP energy -89370.687929 kJ/mol
# GULP energy per Si atom -5585.667996 kJ/mol
# Density = 2.161755 g / cm^3
# Si number density = 21.666868 Si / 1000 Ang^3
#
#
#
# Elastic Constant Matrix: (Units=GPa)
#
#
# Indices 1 2 3 4 5 6 
#
# 1 128.6060 78.9594 44.8900 5.1637 3.4409 -8.6052
# 2 78.9594 138.1963 27.0323 -5.5749 7.8160 -8.4915
# 3 44.8900 27.0323 86.5287 23.0974 4.0743 -3.3009
# 4 5.1637 -5.5749 23.0974 35.0878 -3.1970 2.6838
# 5 3.4409 7.8160 4.0743 -3.1970 34.2337 1.4820
# 6 -8.6052 -8.4915 -3.3009 2.6838 1.4820 56.1603
#
#
#
# Elastic Compliance Matrix: (Units=1/GPa)
#
#
# Indices 1 2 3 4 5 6 
#
# 1 0.013787 -0.006873 -0.005076 0.000234 0.000777 0.000743
# 2 -0.006873 0.011573 -0.000808 0.003197 -0.001580 0.000538
# 3 -0.005076 -0.000808 0.017588 -0.011242 -0.002480 0.000737
# 4 0.000234 0.003197 -0.011242 0.036903 0.004118 -0.002014
# 5 0.000777 -0.001580 -0.002480 0.004118 0.030228 -0.001260
# 6 0.000743 0.000538 0.000737 -0.002014 -0.001260 0.018174
#
#
# Mechanical properties :
#
#
# Convention : Reuss Voigt Hill
#
# Bulk Modulus (GPa) = 57.36203 72.78826 65.07515
# Shear Modulus (GPa) = 31.33254 38.59298 34.96276
#
# Velocity S-wave (km/s) = 3.80689 4.22500 4.02139
# Velocity P-wave (km/s) = 6.77165 7.58077 7.18760
#
# Compressibility (1/GPa) = 0.01743313
#
# Stress axis : x y z
#
# Youngs Moduli (GPa) = 72.53279 86.41125 56.85557
#
# Poissons Ratio (x) = 0.59392 0.28860
# Poissons Ratio (y) = 0.49853 0.04595
# Poissons Ratio (z) = 0.36818 0.06983
#
# Static dielectric constant tensor:
#      x y z
#    x 1.749120 0.024010 -0.019710 
#    y 0.024010 1.854980 -0.010880 
#    z -0.019710 -0.010880 1.797880 
# 
# From -- ./inp_files/187477.got.cif
#   From: 2010.05.17/outbox.cif.g08.bks.cpg/sg2_94_cif.got.tgz:187477.got - 2010.06.03 11:33:40.
