data_PCOD9057363
_publ_section_title
;
Structure prediction by ZEFSAII (Michael W. Deem and Ramdas Pophale) SiO2 
 PCOD9057363
Probable space group: P -1
;
_chemical_formula_sum "Si O2"
_cell_formula_units_Z 16
_cell_length_a 9.249697
_cell_length_b 20.271978
_cell_length_c 18.357199
_cell_angle_alpha 150.262259
_cell_angle_beta 149.549250
_cell_angle_gamma 28.701173
_cell_volume 743.515245
_symmetry_space_group_name_H-M "P -1"
_symmetry_group_IT_number 2
_symmetry_cell_setting 'triclinic'
loop_
_space_group_symop_operation_xyz
x,y,z
-x,-y,-z
loop_
_atom_site_type_symbol
_atom_site_label
_atom_site_fract_x
_atom_site_fract_y
_atom_site_fract_z
Si Si1 0.215833 0.171675 0.511981
Si Si2 0.781411 0.175457 0.049724
Si Si3 0.705859 0.797933 0.942880
Si Si4 0.381338 0.113702 0.170556
Si Si5 0.644317 0.313629 0.520563
Si Si6 0.135594 0.352585 0.864908
Si Si7 0.709451 0.337412 0.323568
Si Si8 0.466535 0.661284 0.122477
O O1 0.381813 0.276567 0.692005
O O2 0.925609 0.235872 0.506842
O O3 0.017783 0.213249 0.388596
O O4 0.500000 0.000000 0.500000
O O5 0.761877 0.281791 0.209932
O O6 0.992815 0.192417 0.093290
O O7 0.426165 0.214158 0.904052
O O8 0.000000 0.000000 0.000000
O O9 0.540509 0.853879 0.845633
O O10 0.625032 0.664869 0.800700
O O11 0.069549 0.769326 0.059045
O O12 0.540767 0.929400 0.059157
O O13 0.511189 0.196342 0.360197
O O14 0.371063 0.486379 0.539979
O O15 0.832535 0.332861 0.689353
O O16 0.329618 0.357042 0.880810
O O17 0.000000 0.500000 0.000000
O O18 0.500000 0.500000 0.000000
#
# Coordination Sequence:
#
# PCOD9057363 Si02
#       8
#     2   2   2   2   2   2   2   2
#     4  11  25  42  66 100 136 172 223 281 339 392
#     4  12  26  45  69  98 137 186 226 271 343 417
#     4  11  22  42  68  98 133 173 230 277 333 403
#     4  11  24  42  69  99 131 175 228 283 334 398
#     4  11  24  43  72  97 135 175 227 285 338 394
#     4  11  24  47  66  98 141 182 217 276 350 403
#     4  12  25  44  71  98 137 180 226 278 346 408
#     4  11  25  41  70 100 130 175 226 281 332 401
#
# _framework density 21.519397999999999
#
# number of rings (size 3 to 8) (size 9 to 14) (size 15 to 20)
#    0.000    0.750    5.000    2.625    7.000    0.500 
#    2.250    0.625    0.000    0.000    0.000    0.000 
#    0.000    0.000    0.000    0.000    0.000    0.000 
#
# Total GULP energy -89240.116465 kJ/mol
# GULP energy per Si atom -5577.507279 kJ/mol
# Density = 2.147042 g / cm^3
# Si number density = 21.519398 Si / 1000 Ang^3
#
#
#
# Elastic Constant Matrix: (Units=GPa)
#
#
# Indices 1 2 3 4 5 6 
#
# 1 61.5006 8.1631 8.9816 -3.3607 -13.8365 -8.3073
# 2 8.1631 104.2965 23.5166 -11.5068 -10.4009 -0.2309
# 3 8.9816 23.5166 123.7937 -15.7515 4.1955 0.2396
# 4 -3.3607 -11.5068 -15.7515 36.0840 -1.0651 -1.6718
# 5 -13.8365 -10.4009 4.1955 -1.0651 27.5572 -0.0332
# 6 -8.3073 -0.2309 0.2396 -1.6718 -0.0332 27.1667
#
#
#
# Elastic Compliance Matrix: (Units=1/GPa)
#
#
# Indices 1 2 3 4 5 6 
#
# 1 0.019714 0.000038 -0.001574 0.001749 0.010227 0.006163
# 2 0.000038 0.010753 -0.001845 0.002773 0.004466 0.000295
# 3 -0.001574 -0.001845 0.009032 0.003109 -0.002742 -0.000389
# 4 0.001749 0.002773 0.003109 0.030306 0.002626 0.002399
# 5 0.010227 0.004466 -0.002742 0.002626 0.043632 0.003404
# 6 0.006163 0.000295 -0.000389 0.002399 0.003404 0.038852
#
#
# Mechanical properties :
#
#
# Convention : Reuss Voigt Hill
#
# Bulk Modulus (GPa) = 30.54490 41.21260 35.87875
# Shear Modulus (GPa) = 29.41855 34.75687 32.08771
#
# Velocity S-wave (km/s) = 3.70140 4.02324 3.86567
# Velocity P-wave (km/s) = 5.70019 6.38552 6.05256
#
# Compressibility (1/GPa) = 0.03273869
#
# Stress axis : x y z
#
# Youngs Moduli (GPa) = 50.72624 92.99798 110.72021
#
# Poissons Ratio (x) = -0.00357 0.17423
# Poissons Ratio (y) = -0.00195 0.20423
# Poissons Ratio (z) = 0.07982 0.17154
#
# Static dielectric constant tensor:
#      x y z
#    x 1.841200 -0.031040 0.078680 
#    y -0.031040 1.904210 -0.083080 
#    z 0.078680 -0.083080 1.888080 
# 
# From -- ./inp_files/562952.got.cif
#   From: 2010.05.17/outbox.cif.g08.bks.cpg/sg2_282_cif.got.tgz:562952.got - 2010.06.03 11:33:40.
