data_PCOD9057491
_publ_section_title
;
Structure prediction by ZEFSAII (Michael W. Deem and Ramdas Pophale) SiO2 
 PCOD9057491
Probable space group: P -1
;
_chemical_formula_sum "Si O2"
_cell_formula_units_Z 14
_cell_length_a 17.005305
_cell_length_b 8.861314
_cell_length_c 9.282921
_cell_angle_alpha 31.658618
_cell_angle_beta 68.561445
_cell_angle_gamma 56.878596
_cell_volume 598.902405
_symmetry_space_group_name_H-M "P -1"
_symmetry_group_IT_number 2
_symmetry_cell_setting 'triclinic'
loop_
_space_group_symop_operation_xyz
x,y,z
-x,-y,-z
loop_
_atom_site_type_symbol
_atom_site_label
_atom_site_fract_x
_atom_site_fract_y
_atom_site_fract_z
Si Si1 0.354497 0.147790 0.091077
Si Si2 0.567258 0.348811 0.322123
Si Si3 0.166697 0.473028 0.151409
Si Si4 0.295366 0.196964 0.558088
Si Si5 0.007948 0.171612 0.706279
Si Si6 0.652008 0.245067 0.865738
Si Si7 0.994878 0.692294 0.697267
O O1 0.256625 0.300526 0.124481
O O2 0.434891 0.861222 0.369226
O O3 0.340463 0.973577 0.101130
O O4 0.383592 0.435824 0.829391
O O5 0.459966 0.593805 0.143915
O O6 0.626592 0.085102 0.372155
O O7 0.207071 0.405021 0.341788
O O8 0.096304 0.323390 0.294435
O O9 0.106141 0.855673 0.845637
O O10 0.327150 0.448027 0.404032
O O11 0.281039 0.994619 0.859493
O O12 0.944184 0.330415 0.473574
O O13 0.000000 0.500000 0.500000
O O14 0.000000 0.000000 0.000000
O O15 0.000000 0.000000 0.500000
O O16 0.000000 0.500000 0.000000
#
# Coordination Sequence:
#
# PCOD9057491 Si02
#       7
#     2   2   2   2   2   2   2
#     4  11  25  42  70 100 139 192 229 291 358 403
#     4  11  22  42  71  95 145 193 234 286 348 413
#     4  11  27  48  71  98 148 182 229 288 375 427
#     4  11  25  41  68 100 141 187 229 292 357 404
#     4  12  25  48  77 105 137 181 236 289 365 438
#     4  12  23  43  64 110 137 183 251 286 331 420
#     4  12  25  48  76 106 136 182 236 290 362 439
#
# _framework density 23.376096
#
# number of rings (size 3 to 8) (size 9 to 14) (size 15 to 20)
#    0.000    0.571    2.857    5.143    6.000    0.000 
#    7.714    0.000    0.000    0.000    0.000    0.000 
#    0.000    0.000    0.000    0.000    0.000    0.000 
#
# Total GULP energy -77947.440530 kJ/mol
# GULP energy per Si atom -5567.674324 kJ/mol
# Density = 2.332289 g / cm^3
# Si number density = 23.376096 Si / 1000 Ang^3
#
#
#
# Elastic Constant Matrix: (Units=GPa)
#
#
# Indices 1 2 3 4 5 6 
#
# 1 80.8315 19.9776 26.3491 -19.8969 -6.9054 16.1034
# 2 19.9776 90.4139 51.1377 -5.6003 -1.3353 30.2019
# 3 26.3491 51.1377 194.6258 -0.4591 -10.1543 18.4273
# 4 -19.8969 -5.6003 -0.4591 52.4264 18.6367 1.3315
# 5 -6.9054 -1.3353 -10.1543 18.6367 43.0931 -9.2361
# 6 16.1034 30.2019 18.4273 1.3315 -9.2361 43.6181
#
#
#
# Elastic Compliance Matrix: (Units=1/GPa)
#
#
# Indices 1 2 3 4 5 6 
#
# 1 0.015534 -0.000328 -0.001586 0.006679 -0.001952 -0.005455
# 2 -0.000328 0.017049 -0.003591 0.003465 -0.004264 -0.011175
# 3 -0.001586 -0.003591 0.006315 -0.001678 0.002038 0.000887
# 4 0.006679 0.003465 -0.001678 0.026535 -0.012317 -0.007574
# 5 -0.001952 -0.004264 0.002038 -0.012317 0.030642 0.009677
# 6 -0.005455 -0.011175 0.000887 -0.007574 0.009677 0.034583
#
#
# Mechanical properties :
#
#
# Convention : Reuss Voigt Hill
#
# Bulk Modulus (GPa) = 35.86100 62.31111 49.08606
# Shear Modulus (GPa) = 33.12050 45.72131 39.42091
#
# Velocity S-wave (km/s) = 3.76819 4.42735 4.11101
# Velocity P-wave (km/s) = 5.85718 7.26974 6.60135
#
# Compressibility (1/GPa) = 0.02788545
#
# Stress axis : x y z
#
# Youngs Moduli (GPa) = 64.37658 58.65617 158.35751
#
# Poissons Ratio (x) = 0.01924 0.25123
# Poissons Ratio (y) = 0.02111 0.56871
# Poissons Ratio (z) = 0.10213 0.21065
#
# Static dielectric constant tensor:
#      x y z
#    x 1.789280 -0.148350 -0.018110 
#    y -0.148350 1.743920 0.089820 
#    z -0.018110 0.089820 1.952590 
# 
# From -- ./inp_files/328271.got.cif
#   From: 2010.05.17/outbox.cif.g08.bks.cpg/sg2_165_cif.got.tgz:328271.got - 2010.06.03 11:33:40.
