data_PCOD9057660
_publ_section_title
;
Structure prediction by ZEFSAII (Michael W. Deem and Ramdas Pophale) SiO2 
 PCOD9057660
Probable space group: P -1
;
_chemical_formula_sum "Si O2"
_cell_formula_units_Z 16
_cell_length_a 23.581128
_cell_length_b 5.323057
_cell_length_c 29.207217
_cell_angle_alpha 86.008762
_cell_angle_beta 168.530696
_cell_angle_gamma 94.712019
_cell_volume 725.433038
_symmetry_space_group_name_H-M "P -1"
_symmetry_group_IT_number 2
_symmetry_cell_setting 'triclinic'
loop_
_space_group_symop_operation_xyz
x,y,z
-x,-y,-z
loop_
_atom_site_type_symbol
_atom_site_label
_atom_site_fract_x
_atom_site_fract_y
_atom_site_fract_z
Si Si1 0.375131 0.995213 0.740609
Si Si2 0.887434 0.845832 0.091953
Si Si3 0.824610 0.938133 0.770473
Si Si4 0.206901 0.592195 0.202186
Si Si5 0.786232 0.338426 0.120035
Si Si6 0.183174 0.864528 0.755931
Si Si7 0.837773 0.647106 0.660080
Si Si8 0.731971 0.372464 0.261927
O O1 0.300376 0.892246 0.733618
O O2 0.577993 0.836215 0.871239
O O3 0.086649 0.019672 0.483618
O O4 0.584429 0.234390 0.919102
O O5 0.942576 0.977518 0.084880
O O6 0.996180 0.566858 0.179232
O O7 0.072799 0.054205 0.266749
O O8 0.880115 0.137582 0.852587
O O9 0.500000 0.000000 0.500000
O O10 0.814361 0.640028 0.775621
O O11 0.520988 0.614386 0.428806
O O12 0.000000 0.500000 0.000000
O O13 0.862822 0.169103 0.226084
O O14 0.081020 0.422750 0.326938
O O15 0.576261 0.525198 0.974862
O O16 0.202276 0.625211 0.739800
O O17 0.500000 0.000000 0.000000
O O18 0.000000 0.500000 0.500000
#
# Coordination Sequence:
#
# PCOD9057660 Si02
#       8
#     2   2   2   2   2   2   2   2
#     4  11  24  44  63  97 135 173 223 279 348 401
#     4  11  23  41  72  97 133 180 231 280 332 409
#     4  12  22  42  71 101 130 183 237 269 327 415
#     4  12  25  42  67 105 145 176 223 285 344 399
#     4  11  24  42  66  95 133 178 223 281 348 403
#     4  12  24  42  67  96 130 171 226 285 337 411
#     4  11  22  43  67  98 137 182 220 277 350 405
#     4  12  22  42  67  93 128 173 222 278 340 406
#
# _framework density 22.055795
#
# number of rings (size 3 to 8) (size 9 to 14) (size 15 to 20)
#    0.000    0.500    6.250    3.000    0.000    1.000 
#    0.000    3.750    0.000    0.000    0.000    0.000 
#    0.000    0.000    0.000    0.000    0.000    0.000 
#
# Total GULP energy -89137.203692 kJ/mol
# GULP energy per Si atom -5571.075231 kJ/mol
# Density = 2.200559 g / cm^3
# Si number density = 22.055795 Si / 1000 Ang^3
#
#
#
# Elastic Constant Matrix: (Units=GPa)
#
#
# Indices 1 2 3 4 5 6 
#
# 1 98.2346 5.9438 41.7538 7.6399 16.3248 3.8129
# 2 5.9438 53.3226 5.4572 5.7627 -0.1276 5.1018
# 3 41.7538 5.4572 51.0338 -8.7258 -7.0509 -1.9417
# 4 7.6399 5.7627 -8.7258 27.0480 -3.2106 3.1077
# 5 16.3248 -0.1276 -7.0509 -3.2106 47.5714 0.8044
# 6 3.8129 5.1018 -1.9417 3.1077 0.8044 43.7468
#
#
#
# Elastic Compliance Matrix: (Units=1/GPa)
#
#
# Indices 1 2 3 4 5 6 
#
# 1 0.023947 0.001753 -0.024429 -0.016323 -0.012902 -0.001979
# 2 0.001753 0.019954 -0.004959 -0.006289 -0.001670 -0.002222
# 3 -0.024429 -0.004959 0.046786 0.024748 0.016929 0.002715
# 4 -0.016323 -0.006289 0.024748 0.052508 0.012808 -0.000711
# 5 -0.012902 -0.001670 0.016929 0.012808 0.028807 0.000631
# 6 -0.001979 -0.002222 0.002715 -0.000711 0.000631 0.023450
#
#
# Mechanical properties :
#
#
# Convention : Reuss Voigt Hill
#
# Bulk Modulus (GPa) = 28.23434 34.32227 31.27831
# Shear Modulus (GPa) = 19.04568 33.63565 26.34066
#
# Velocity S-wave (km/s) = 2.94176 3.90939 3.45958
# Velocity P-wave (km/s) = 4.93637 5.99776 5.49276
#
# Compressibility (1/GPa) = 0.03541786
#
# Stress axis : x y z
#
# Youngs Moduli (GPa) = 41.75826 50.11479 21.37412
#
# Poissons Ratio (x) = -0.08787 0.52215
# Poissons Ratio (y) = -0.07322 0.10599
# Poissons Ratio (z) = 1.02011 0.24851
#
# Static dielectric constant tensor:
#      x y z
#    x 1.879790 -0.004890 0.001920 
#    y -0.004890 1.992050 0.019210 
#    z 0.001920 0.019210 1.836190 
# 
# From -- ./inp_files/141332.got.cif
#   From: 2010.05.17/outbox.cif.g08.bks.cpg/sg2_71_cif.got.tgz:141332.got - 2010.06.03 11:33:40.
