data_PCOD9057842
_publ_section_title
;
Structure prediction by ZEFSAII (Michael W. Deem and Ramdas Pophale) SiO2 
 PCOD9057842
Probable space group: P -1
;
_chemical_formula_sum "Si O2"
_cell_formula_units_Z 14
_cell_length_a 11.273177
_cell_length_b 10.754571
_cell_length_c 16.904837
_cell_angle_alpha 155.013384
_cell_angle_beta 137.049839
_cell_angle_gamma 52.879455
_cell_volume 576.936353
_symmetry_space_group_name_H-M "P -1"
_symmetry_group_IT_number 2
_symmetry_cell_setting 'triclinic'
loop_
_space_group_symop_operation_xyz
x,y,z
-x,-y,-z
loop_
_atom_site_type_symbol
_atom_site_label
_atom_site_fract_x
_atom_site_fract_y
_atom_site_fract_z
Si Si1 0.323105 0.832102 0.965369
Si Si2 0.180849 0.895903 0.539783
Si Si3 0.494847 0.840897 0.218744
Si Si4 0.219633 0.777320 0.181954
Si Si5 0.305145 0.185443 0.923418
Si Si6 0.074001 0.231811 0.098852
Si Si7 0.046156 0.280565 0.463219
O O1 0.180021 0.515262 0.720183
O O2 0.392453 0.939625 0.149492
O O3 0.482146 0.810508 0.968251
O O4 0.213776 0.083324 0.032760
O O5 0.160367 0.556647 0.362845
O O6 0.309391 0.952666 0.560701
O O7 0.281532 0.132085 0.787532
O O8 0.000000 0.000000 0.500000
O O9 0.397062 0.862328 0.265292
O O10 0.500000 0.500000 0.000000
O O11 0.162041 0.048070 0.355392
O O12 0.245709 0.500342 0.090014
O O13 0.070289 0.699097 0.994378
O O14 0.147185 0.915253 0.719688
O O15 0.000000 0.000000 0.000000
O O16 0.000000 0.500000 0.500000
#
# Coordination Sequence:
#
# PCOD9057842 Si02
#       7
#     2   2   2   2   2   2   2
#     4  11  25  46  71 101 142 180 232 290 345 407
#     4  11  23  40  72 104 136 181 226 288 358 404
#     4  11  22  43  72 106 139 172 233 295 342 419
#     4  12  24  46  68 105 138 182 234 283 346 421
#     4  11  26  45  72  99 138 183 239 282 346 423
#     4  12  23  40  71 104 141 178 230 294 350 409
#     4  12  28  47  71  98 143 192 229 288 352 411
#
# _framework density 24.266107999999999
#
# number of rings (size 3 to 8) (size 9 to 14) (size 15 to 20)
#    0.000    0.571    7.143    1.286    2.000    4.571 
#    2.571    0.000    0.000    0.000    0.000    0.000 
#    0.000    0.000    0.000    0.000    0.000    0.000 
#
# Total GULP energy -78187.831455 kJ/mol
# GULP energy per Si atom -5584.845104 kJ/mol
# Density = 2.421088 g / cm^3
# Si number density = 24.266108 Si / 1000 Ang^3
#
#
#
# Elastic Constant Matrix: (Units=GPa)
#
#
# Indices 1 2 3 4 5 6 
#
# 1 111.1349 41.5565 66.6717 15.7580 31.7651 -34.9018
# 2 41.5565 79.8956 36.9128 18.7993 19.5166 -30.9465
# 3 66.6717 36.9128 123.4576 26.7394 22.3168 -24.5973
# 4 15.7580 18.7993 26.7394 43.3273 -1.0744 -7.6671
# 5 31.7651 19.5166 22.3168 -1.0744 59.4918 -0.6785
# 6 -34.9018 -30.9465 -24.5973 -7.6671 -0.6785 46.5015
#
#
#
# Elastic Compliance Matrix: (Units=1/GPa)
#
#
# Indices 1 2 3 4 5 6 
#
# 1 0.018160 -0.001046 -0.006179 -0.000842 -0.006943 0.009425
# 2 -0.001046 0.020848 -0.000981 -0.006177 -0.005894 0.011466
# 3 -0.006179 -0.000981 0.013346 -0.005450 -0.001474 0.000849
# 4 -0.000842 -0.006177 -0.005450 0.029066 0.005014 -0.002760
# 5 -0.006943 -0.005894 -0.001474 0.005014 0.022993 -0.008751
# 6 0.009425 0.011466 0.000849 -0.002760 -0.008751 0.036076
#
#
# Mechanical properties :
#
#
# Convention : Reuss Voigt Hill
#
# Bulk Modulus (GPa) = 27.82240 67.19668 47.50954
# Shear Modulus (GPa) = 29.60658 41.15394 35.38026
#
# Velocity S-wave (km/s) = 3.49675 4.12265 3.82253
# Velocity P-wave (km/s) = 5.27195 7.10024 6.25327
#
# Compressibility (1/GPa) = 0.03594226
#
# Stress axis : x y z
#
# Youngs Moduli (GPa) = 55.06603 47.96676 74.92781
#
# Poissons Ratio (x) = 0.05017 0.46299
# Poissons Ratio (y) = 0.05760 0.07349
# Poissons Ratio (z) = 0.34026 0.04705
#
# Static dielectric constant tensor:
#      x y z
#    x 2.143870 -0.037030 0.088550 
#    y -0.037030 2.051850 -0.077080 
#    z 0.088550 -0.077080 1.957080 
# 
# From -- ./inp_files/314527.got.cif
#   From: 2010.05.17/outbox.cif.g08.bks.cpg/sg2_158_cif.got.tgz:314527.got - 2010.06.03 11:33:40.
