data_PCOD9057670
_publ_section_title
;
Structure prediction by ZEFSAII (Michael W. Deem and Ramdas Pophale) SiO2 
 PCOD9057670
Probable space group: P -1
;
_chemical_formula_sum "Si O2"
_cell_formula_units_Z 12
_cell_length_a 14.799256
_cell_length_b 12.398286
_cell_length_c 5.383238
_cell_angle_alpha 54.138504
_cell_angle_beta 130.015649
_cell_angle_gamma 139.931543
_cell_volume 478.062971
_symmetry_space_group_name_H-M "P -1"
_symmetry_group_IT_number 2
_symmetry_cell_setting 'triclinic'
loop_
_space_group_symop_operation_xyz
x,y,z
-x,-y,-z
loop_
_atom_site_type_symbol
_atom_site_label
_atom_site_fract_x
_atom_site_fract_y
_atom_site_fract_z
Si Si1 0.193283 0.153509 0.341475
Si Si2 0.233597 0.909115 0.893629
Si Si3 0.458479 0.832887 0.783978
Si Si4 0.013479 0.738242 0.128142
Si Si5 0.390044 0.304499 0.991959
Si Si6 0.156298 0.616855 0.856612
O O1 0.298876 0.256511 0.633765
O O2 0.135544 0.960189 0.533811
O O3 0.277832 0.214623 0.146571
O O4 0.071187 0.184791 0.082388
O O5 0.217052 0.742672 0.026631
O O6 0.180223 0.883239 0.118596
O O7 0.403017 0.071258 0.902077
O O8 0.297275 0.704340 0.799529
O O9 0.500000 0.000000 0.500000
O O10 0.500150 0.743427 0.794743
O O11 0.036588 0.642853 0.508571
O O12 0.081974 0.420568 0.022909
O O13 0.500000 0.500000 0.000000
#
# Coordination Sequence:
#
# PCOD9057670 Si02
#       6
#     2   2   2   2   2   2
#     4  11  26  44  72 104 138 185 234 287 346 414
#     4  11  24  43  70  99 138 182 235 286 348 412
#     4  11  22  43  68 101 133 180 234 287 343 409
#     4  11  25  44  66 104 138 185 228 288 350 420
#     4  11  25  46  71 103 142 184 233 287 348 411
#     4  11  24  43  69  99 141 180 235 284 354 411
#
# _framework density 25.101293999999999
#
# number of rings (size 3 to 8) (size 9 to 14) (size 15 to 20)
#    0.000    1.000    1.667    4.000    4.667    4.667 
#    0.000    0.000    0.000    0.000    0.000    0.000 
#    0.000    0.000    0.000    0.000    0.000    0.000 
#
# Total GULP energy -67038.189846 kJ/mol
# GULP energy per Si atom -5586.515820 kJ/mol
# Density = 2.504416 g / cm^3
# Si number density = 25.101294 Si / 1000 Ang^3
#
#
#
# Elastic Constant Matrix: (Units=GPa)
#
#
# Indices 1 2 3 4 5 6 
#
# 1 184.1605 43.7047 43.7032 -4.7738 19.5932 0.1547
# 2 43.7047 101.7489 10.1597 -1.9295 14.8558 -9.7566
# 3 43.7032 10.1597 90.2375 2.7011 20.5740 -6.9997
# 4 -4.7738 -1.9295 2.7011 31.9681 -15.8008 1.9085
# 5 19.5932 14.8558 20.5740 -15.8008 49.6837 -6.0948
# 6 0.1547 -9.7566 -6.9997 1.9085 -6.0948 43.7072
#
#
#
# Elastic Compliance Matrix: (Units=1/GPa)
#
#
# Indices 1 2 3 4 5 6 
#
# 1 0.006862 -0.002670 -0.003031 0.000944 -0.000501 -0.001217
# 2 -0.002670 0.011512 0.000881 -0.001349 -0.002892 0.002376
# 3 -0.003031 0.000881 0.014154 -0.004782 -0.006228 0.001815
# 4 0.000944 -0.001349 -0.004782 0.038844 0.014269 -0.000777
# 5 -0.000501 -0.002892 -0.006228 0.014269 0.028517 0.001712
# 6 -0.001217 0.002376 0.001815 -0.000777 0.001712 0.023978
#
#
# Mechanical properties :
#
#
# Convention : Reuss Voigt Hill
#
# Bulk Modulus (GPa) = 43.69194 63.47578 53.58386
# Shear Modulus (GPa) = 35.42688 43.64375 39.53531
#
# Velocity S-wave (km/s) = 3.76088 4.17430 3.97297
# Velocity P-wave (km/s) = 6.02520 6.96963 6.51455
#
# Compressibility (1/GPa) = 0.02288751
#
# Stress axis : x y z
#
# Youngs Moduli (GPa) = 145.73201 86.86917 70.64937
#
# Poissons Ratio (x) = 0.23197 0.21414
# Poissons Ratio (y) = 0.38916 -0.06226
# Poissons Ratio (z) = 0.44172 -0.07655
#
# Static dielectric constant tensor:
#      x y z
#    x 1.962910 -0.061860 -0.055120 
#    y -0.061860 2.144150 0.202040 
#    z -0.055120 0.202040 2.232160 
# 
# From -- ./inp_files/25121.got.cif
#   From: 2010.05.17/outbox.cif.g08.bks.cpg/sg2_13_cif.got.tgz:25121.got - 2010.06.03 11:33:40.
