data_PCOD9057973
_publ_section_title
;
Structure prediction by ZEFSAII (Michael W. Deem and Ramdas Pophale) SiO2 
 PCOD9057973
Probable space group: P -1
;
_chemical_formula_sum "Si O2"
_cell_formula_units_Z 14
_cell_length_a 4.951659
_cell_length_b 13.170874
_cell_length_c 19.096004
_cell_angle_alpha 153.650723
_cell_angle_beta 83.404952
_cell_angle_gamma 96.331004
_cell_volume 549.025411
_symmetry_space_group_name_H-M "P -1"
_symmetry_group_IT_number 2
_symmetry_cell_setting 'triclinic'
loop_
_space_group_symop_operation_xyz
x,y,z
-x,-y,-z
loop_
_atom_site_type_symbol
_atom_site_label
_atom_site_fract_x
_atom_site_fract_y
_atom_site_fract_z
Si Si1 0.679279 0.022765 0.579971
Si Si2 0.544999 0.680459 0.947821
Si Si3 0.849986 0.636435 0.685435
Si Si4 0.956472 0.608464 0.269378
Si Si5 0.887565 0.822202 0.641718
Si Si6 0.343239 0.875715 0.865687
Si Si7 0.399691 0.102820 0.780382
O O1 0.498179 0.115451 0.705506
O O2 0.809282 0.772130 0.430733
O O3 0.500000 0.000000 0.500000
O O4 0.926319 0.202911 0.672362
O O5 0.611605 0.939786 0.082939
O O6 0.554006 0.690802 0.038356
O O7 0.771057 0.529135 0.808891
O O8 0.258557 0.576772 0.867492
O O9 0.970982 0.387537 0.530510
O O10 0.034492 0.791722 0.827678
O O11 0.901216 0.748665 0.676951
O O12 0.528671 0.653012 0.713026
O O13 0.586729 0.893892 0.673943
O O14 0.083092 0.038635 0.754991
O O15 0.500000 0.000000 0.000000
#
# Coordination Sequence:
#
# PCOD9057973 Si02
#       7
#     2   2   2   2   2   2   2
#     4  11  27  52  70 103 137 178 225 291 347 419
#     4  12  24  46  70 104 136 182 228 282 339 413
#     4  11  22  44  66  97 141 177 233 272 329 393
#     4  11  26  47  73  97 141 176 225 283 352 413
#     4  11  23  42  71 101 131 183 227 286 327 392
#     4  12  25  42  64 100 145 182 221 278 337 403
#     4  12  26  43  76 101 140 175 237 287 340 404
#
# _framework density 25.499728999999999
#
# number of rings (size 3 to 8) (size 9 to 14) (size 15 to 20)
#    0.000    0.571    4.286    3.000    4.000    6.857 
#    0.000    0.000    0.000    0.000    0.000    0.000 
#    0.000    0.000    0.000    0.000    0.000    0.000 
#
# Total GULP energy -78354.844577 kJ/mol
# GULP energy per Si atom -5596.774613 kJ/mol
# Density = 2.544169 g / cm^3
# Si number density = 25.499729 Si / 1000 Ang^3
#
#
#
# Elastic Constant Matrix: (Units=GPa)
#
#
# Indices 1 2 3 4 5 6 
#
# 1 120.7161 5.9390 4.4514 12.3108 -2.0266 -3.9344
# 2 5.9390 72.1495 -3.1217 -16.0624 -2.2876 -2.7129
# 3 4.4514 -3.1217 56.3142 16.0101 -16.5733 -8.5121
# 4 12.3108 -16.0624 16.0101 22.6762 2.6842 -3.4671
# 5 -2.0266 -2.2876 -16.5733 2.6842 51.2251 6.2666
# 6 -3.9344 -2.7129 -8.5121 -3.4671 6.2666 29.2839
#
#
#
# Elastic Compliance Matrix: (Units=1/GPa)
#
#
# Indices 1 2 3 4 5 6 
#
# 1 0.009196 -0.002435 0.001865 -0.008132 0.001245 0.000323
# 2 -0.002435 0.017775 -0.003849 0.017240 -0.001772 0.002621
# 3 0.001865 -0.003849 0.027466 -0.023819 0.009671 0.002988
# 4 -0.008132 0.017240 -0.023819 0.079840 -0.012131 0.005630
# 5 0.001245 -0.001772 0.009671 -0.012131 0.023708 -0.003695
# 6 0.000323 0.002621 0.002988 0.005630 -0.003695 0.036761
#
#
# Mechanical properties :
#
#
# Convention : Reuss Voigt Hill
#
# Bulk Modulus (GPa) = 21.93020 29.30195 25.61608
# Shear Modulus (GPa) = 22.85379 36.76444 29.80911
#
# Velocity S-wave (km/s) = 2.99697 3.80117 3.42277
# Velocity P-wave (km/s) = 4.53813 5.54808 5.06832
#
# Compressibility (1/GPa) = 0.04559921
#
# Stress axis : x y z
#
# Youngs Moduli (GPa) = 108.74683 56.26018 36.40835
#
# Poissons Ratio (x) = 0.13700 -0.06792
# Poissons Ratio (y) = 0.26481 0.14013
# Poissons Ratio (z) = -0.20285 0.21654
#
# Static dielectric constant tensor:
#      x y z
#    x 1.938490 -0.098870 -0.050500 
#    y -0.098870 2.271830 -0.016960 
#    z -0.050500 -0.016960 2.041460 
# 
# From -- ./inp_files/582119.got.cif
#   From: 2010.05.17/outbox.cif.g08.bks.cpg/sg2_292_cif.got.tgz:582119.got - 2010.06.03 11:33:40.
