data_PCOD9057088
_publ_section_title
;
Structure prediction by ZEFSAII (Michael W. Deem and Ramdas Pophale) SiO2 
 PCOD9057088
Probable space group: P -1
;
_chemical_formula_sum "Si O2"
_cell_formula_units_Z 16
_cell_length_a 14.374761
_cell_length_b 9.282586
_cell_length_c 9.457247
_cell_angle_alpha 121.480969
_cell_angle_beta 102.035412
_cell_angle_gamma 119.084852
_cell_volume 737.607643
_symmetry_space_group_name_H-M "P -1"
_symmetry_group_IT_number 2
_symmetry_cell_setting 'triclinic'
loop_
_space_group_symop_operation_xyz
x,y,z
-x,-y,-z
loop_
_atom_site_type_symbol
_atom_site_label
_atom_site_fract_x
_atom_site_fract_y
_atom_site_fract_z
Si Si1 0.374248 0.284624 0.256147
Si Si2 0.203432 0.399807 0.308586
Si Si3 0.981876 0.634643 0.958710
Si Si4 0.986624 0.972003 0.708907
Si Si5 0.796145 0.248664 0.064812
Si Si6 0.801724 0.633147 0.215320
Si Si7 0.630737 0.141388 0.218332
Si Si8 0.498570 0.344724 0.025030
O O1 0.500000 0.500000 0.500000
O O2 0.264318 0.296741 0.227357
O O3 0.432218 0.317555 0.136604
O O4 0.310981 0.028564 0.161007
O O5 0.068793 0.195523 0.257245
O O6 0.318117 0.636780 0.561257
O O7 0.156585 0.462457 0.198350
O O8 0.062623 0.666781 0.864773
O O9 0.000000 0.500000 0.000000
O O10 0.048213 0.877908 0.185965
O O11 0.903769 0.793202 0.459372
O O12 0.140025 0.183191 0.803284
O O13 0.797592 0.428269 0.074820
O O14 0.753305 0.242443 0.206451
O O15 0.655509 0.492636 0.157544
O O16 0.500000 0.000000 0.000000
O O17 0.585943 0.926478 0.189280
O O18 0.500000 0.500000 0.000000
#
# Coordination Sequence:
#
# PCOD9057088 Si02
#       8
#     2   2   2   2   2   2   2   2
#     4  11  25  43  75 103 137 188 235 294 359 427
#     4  12  25  45  71 107 139 183 240 287 355 424
#     4  12  27  43  64 101 144 186 233 291 347 412
#     4  11  23  43  72  95 140 183 230 287 348 410
#     4  11  22  41  69  98 138 181 231 284 351 422
#     4  11  23  43  71  97 140 185 227 289 348 416
#     4  11  22  46  74  98 136 181 230 292 353 420
#     4  11  26  43  67 103 137 178 232 286 352 416
#
# _framework density 21.691749000000002
#
# number of rings (size 3 to 8) (size 9 to 14) (size 15 to 20)
#    0.000    0.750    5.000    2.625    1.750    2.500 
#    0.000    0.625    0.000    0.000    0.000    0.000 
#    0.000    0.000    0.000    0.000    0.000    0.000 
#
# Total GULP energy -89277.736419 kJ/mol
# GULP energy per Si atom -5579.858526 kJ/mol
# Density = 2.164238 g / cm^3
# Si number density = 21.691749 Si / 1000 Ang^3
#
#
#
# Elastic Constant Matrix: (Units=GPa)
#
#
# Indices 1 2 3 4 5 6 
#
# 1 115.8309 44.1815 38.6132 2.2324 -9.0046 7.0642
# 2 44.1815 126.6778 42.5693 17.9730 3.5490 -11.9162
# 3 38.6132 42.5693 100.0213 17.7095 -13.7287 -16.7737
# 4 2.2324 17.9730 17.7095 30.1778 -4.5053 -6.3842
# 5 -9.0046 3.5490 -13.7287 -4.5053 28.0601 0.1144
# 6 7.0642 -11.9162 -16.7737 -6.3842 0.1144 46.0086
#
#
#
# Elastic Compliance Matrix: (Units=1/GPa)
#
#
# Indices 1 2 3 4 5 6 
#
# 1 0.011671 -0.003703 -0.003706 0.003177 0.002926 -0.003668
# 2 -0.003703 0.011136 -0.002774 -0.005073 -0.004776 0.001749
# 3 -0.003706 -0.002774 0.015067 -0.005087 0.005698 0.004624
# 4 0.003177 -0.005073 -0.005087 0.040148 0.005611 0.001901
# 5 0.002926 -0.004776 0.005698 0.005611 0.040865 0.001068
# 6 -0.003668 0.001749 0.004624 0.001901 0.001068 0.024698
#
#
# Mechanical properties :
#
#
# Convention : Reuss Voigt Hill
#
# Bulk Modulus (GPa) = 57.11386 65.91757 61.51572
# Shear Modulus (GPa) = 29.44869 35.32704 32.38786
#
# Velocity S-wave (km/s) = 3.68856 4.03996 3.86825
# Velocity P-wave (km/s) = 6.67290 7.22606 6.95498
#
# Compressibility (1/GPa) = 0.01750889
#
# Stress axis : x y z
#
# Youngs Moduli (GPa) = 85.68219 89.80039 66.36954
#
# Poissons Ratio (x) = 0.33254 0.24595
# Poissons Ratio (y) = 0.31729 0.18409
# Poissons Ratio (z) = 0.31752 0.24908
#
# Static dielectric constant tensor:
#      x y z
#    x 1.825650 0.014240 0.017920 
#    y 0.014240 1.863410 0.003500 
#    z 0.017920 0.003500 1.773420 
# 
# From -- ./inp_files/299555.got.cif
#   From: 2010.05.17/outbox.cif.g08.bks.cpg/sg2_150_cif.got.tgz:299555.got - 2010.06.03 11:33:40.
