data_PCOD9057996
_publ_section_title
;
Structure prediction by ZEFSAII (Michael W. Deem and Ramdas Pophale) SiO2 
 PCOD9057996
Probable space group: P -1
;
_chemical_formula_sum "Si O2"
_cell_formula_units_Z 14
_cell_length_a 9.136160
_cell_length_b 19.065026
_cell_length_c 9.716910
_cell_angle_alpha 54.554936
_cell_angle_beta 91.838857
_cell_angle_gamma 137.400175
_cell_volume 651.590727
_symmetry_space_group_name_H-M "P -1"
_symmetry_group_IT_number 2
_symmetry_cell_setting 'triclinic'
loop_
_space_group_symop_operation_xyz
x,y,z
-x,-y,-z
loop_
_atom_site_type_symbol
_atom_site_label
_atom_site_fract_x
_atom_site_fract_y
_atom_site_fract_z
Si Si1 0.813816 0.157487 0.916831
Si Si2 0.831296 0.879171 0.490904
Si Si3 0.553625 0.062819 0.578563
Si Si4 0.772758 0.514642 0.636738
Si Si5 0.206052 0.633825 0.724431
Si Si6 0.747778 0.636248 0.725867
Si Si7 0.880796 0.871299 0.031868
O O1 0.979501 0.151047 0.913747
O O2 0.688459 0.101099 0.133216
O O3 0.026566 0.338350 0.645217
O O4 0.500000 0.000000 0.000000
O O5 0.459464 0.690120 0.660654
O O6 0.869997 0.797899 0.552182
O O7 0.000000 0.000000 0.500000
O O8 0.996142 0.025678 0.221626
O O9 0.549171 0.162927 0.469089
O O10 0.917813 0.236254 0.411671
O O11 0.500000 0.000000 0.500000
O O12 0.981534 0.553924 0.687011
O O13 0.625177 0.516620 0.725935
O O14 0.486692 0.321546 0.773802
O O15 0.000000 0.500000 0.000000
O O16 0.500000 0.500000 0.000000
O O17 0.000000 0.000000 0.000000
#
# Coordination Sequence:
#
# PCOD9057996 Si02
#       7
#     2   2   2   2   2   2   2
#     4  12  23  50  72 100 148 188 240 297 360 446
#     4  12  23  42  70 104 147 185 234 303 354 420
#     4  11  24  43  70 102 140 189 237 290 357 428
#     4  11  25  48  73 102 143 196 243 302 362 442
#     4  11  22  44  68 103 145 180 235 296 358 421
#     4  11  23  40  71 103 141 186 242 286 359 427
#     4  12  27  47  71 104 141 186 244 303 374 426
#
# _framework density 21.485878
#
# number of rings (size 3 to 8) (size 9 to 14) (size 15 to 20)
#    0.000    0.571    4.286    5.571    2.000    0.000 
#    2.571    1.429    0.000    0.000    0.000    0.000 
#    0.000    0.000    0.000    0.000    0.000    0.000 
#
# Total GULP energy -77936.875670 kJ/mol
# GULP energy per Si atom -5566.919691 kJ/mol
# Density = 2.143698 g / cm^3
# Si number density = 21.485878 Si / 1000 Ang^3
#
#
#
# Elastic Constant Matrix: (Units=GPa)
#
#
# Indices 1 2 3 4 5 6 
#
# 1 41.6366 35.8145 9.7404 6.3833 -2.3990 13.0105
# 2 35.8145 143.9715 51.2823 -0.0909 1.5325 -0.2580
# 3 9.7404 51.2823 197.0366 4.1616 -3.0410 16.6394
# 4 6.3833 -0.0909 4.1616 42.6248 2.1668 -1.5550
# 5 -2.3990 1.5325 -3.0410 2.1668 33.6686 4.7849
# 6 13.0105 -0.2580 16.6394 -1.5550 4.7849 23.0617
#
#
#
# Elastic Compliance Matrix: (Units=1/GPa)
#
#
# Indices 1 2 3 4 5 6 
#
# 1 0.046165 -0.013123 0.004147 -0.008979 0.009348 -0.031728
# 2 -0.013123 0.011469 -0.003371 0.002893 -0.003495 0.010884
# 3 0.004147 -0.003371 0.006459 -0.001649 0.002220 -0.007609
# 4 -0.008979 0.002893 -0.001649 0.025487 -0.003811 0.008797
# 5 0.009348 -0.003495 0.002220 -0.003811 0.032963 -0.014011
# 6 -0.031728 0.010884 -0.007609 0.008797 -0.014011 0.070374
#
#
# Mechanical properties :
#
#
# Convention : Reuss Voigt Hill
#
# Bulk Modulus (GPa) = 25.38098 64.03544 44.70821
# Shear Modulus (GPa) = 21.66895 38.92485 30.29690
#
# Velocity S-wave (km/s) = 3.17917 4.26096 3.75918
# Velocity P-wave (km/s) = 5.03137 7.35363 6.30042
#
# Compressibility (1/GPa) = 0.03939958
#
# Stress axis : x y z
#
# Youngs Moduli (GPa) = 21.66146 87.18812 154.81923
#
# Poissons Ratio (x) = 1.14418 -0.64199
# Poissons Ratio (y) = 0.28427 0.52183
# Poissons Ratio (z) = -0.08982 0.29387
#
# Static dielectric constant tensor:
#      x y z
#    x 1.529840 0.557200 0.278680 
#    y 0.557200 0.124640 -0.514240 
#    z 0.278680 -0.514240 1.400500 
# 
# From -- ./inp_files/223248.got.cif
#   From: 2010.05.17/outbox.cif.g08.bks.cpg/sg2_112_cif.got.tgz:223248.got - 2010.06.03 11:33:40.
