data_PCOD9057685
_publ_section_title
;
Structure prediction by ZEFSAII (Michael W. Deem and Ramdas Pophale) SiO2 
 PCOD9057685
Probable space group: P -1
;
_chemical_formula_sum "Si O2"
_cell_formula_units_Z 16
_cell_length_a 11.357093
_cell_length_b 8.991790
_cell_length_c 16.455790
_cell_angle_alpha 46.785433
_cell_angle_beta 70.319228
_cell_angle_gamma 38.971241
_cell_volume 696.628505
_symmetry_space_group_name_H-M "P -1"
_symmetry_group_IT_number 2
_symmetry_cell_setting 'triclinic'
loop_
_space_group_symop_operation_xyz
x,y,z
-x,-y,-z
loop_
_atom_site_type_symbol
_atom_site_label
_atom_site_fract_x
_atom_site_fract_y
_atom_site_fract_z
Si Si1 0.597630 0.214048 0.645752
Si Si2 0.727829 0.806657 0.510152
Si Si3 0.649149 0.395673 0.284808
Si Si4 0.062342 0.628279 0.702933
Si Si5 0.281066 0.309104 0.616748
Si Si6 0.004166 0.714944 0.206643
Si Si7 0.616636 0.476022 0.072533
Si Si8 0.609837 0.614494 0.859821
O O1 0.500000 0.500000 0.500000
O O2 0.535458 0.333847 0.707882
O O3 0.488452 0.156700 0.655610
O O4 0.836834 0.919908 0.683252
O O5 0.802475 0.595903 0.489703
O O6 0.869938 0.557501 0.646141
O O7 0.500000 0.000000 0.500000
O O8 0.708205 0.077521 0.401390
O O9 0.811142 0.359243 0.287737
O O10 0.606781 0.509486 0.158957
O O11 0.106113 0.619487 0.600951
O O12 0.105990 0.327185 0.801313
O O13 0.392100 0.947954 0.740573
O O14 0.183072 0.585008 0.158660
O O15 0.841515 0.086006 0.142533
O O16 0.415064 0.597391 0.056413
O O17 0.604017 0.676488 0.934105
#
# Coordination Sequence:
#
# PCOD9057685 Si02
#       8
#     2   2   2   2   2   2   2   2
#     4  11  24  41  63  91 135 178 207 258 326 392
#     4  12  22  40  68 101 134 166 212 273 322 386
#     4  11  25  42  62 100 132 170 216 259 331 380
#     4  11  24  42  62  92 136 172 212 258 317 401
#     4  11  22  43  68  95 128 174 216 261 327 384
#     4  12  23  41  70  98 131 169 218 264 330 386
#     4  11  25  44  69  98 125 169 222 279 314 381
#     4  11  22  45  71  92 130 168 222 270 327 374
#
# _framework density 22.967765
#
# number of rings (size 3 to 8) (size 9 to 14) (size 15 to 20)
#    0.000    0.750    5.000    1.875    0.000   10.500 
#    0.000    3.125    0.000    0.000    0.000    0.000 
#    0.000    0.000    0.000    0.000    0.000    0.000 
#
# Total GULP energy -89171.953233 kJ/mol
# GULP energy per Si atom -5573.247077 kJ/mol
# Density = 2.291549 g / cm^3
# Si number density = 22.967765 Si / 1000 Ang^3
#
#
#
# Elastic Constant Matrix: (Units=GPa)
#
#
# Indices 1 2 3 4 5 6 
#
# 1 121.1915 56.4862 30.4911 28.7793 14.1578 -8.2790
# 2 56.4862 163.9501 35.8901 37.0684 12.4101 -16.6909
# 3 30.4911 35.8901 110.8241 27.4559 11.6611 5.2897
# 4 28.7793 37.0684 27.4559 48.1852 1.4326 1.1985
# 5 14.1578 12.4101 11.6611 1.4326 21.1418 9.0854
# 6 -8.2790 -16.6909 5.2897 1.1985 9.0854 36.7926
#
#
#
# Elastic Compliance Matrix: (Units=1/GPa)
#
#
# Indices 1 2 3 4 5 6 
#
# 1 0.011619 -0.001690 -0.000770 -0.005071 -0.007756 0.004039
# 2 -0.001690 0.009084 -0.000768 -0.005506 -0.005746 0.005450
# 3 -0.000770 -0.000768 0.011299 -0.005231 -0.004544 -0.000854
# 4 -0.005071 -0.005506 -0.005231 0.030855 0.010174 -0.006404
# 5 -0.007756 -0.005746 -0.004544 0.010174 0.066469 -0.020444
# 6 0.004039 0.005450 -0.000854 -0.006404 -0.020444 0.035940
#
#
# Mechanical properties :
#
#
# Convention : Reuss Voigt Hill
#
# Bulk Modulus (GPa) = 39.14522 71.30005 55.22264
# Shear Modulus (GPa) = 27.74116 39.43047 33.58581
#
# Velocity S-wave (km/s) = 3.47916 4.14789 3.82815
# Velocity P-wave (km/s) = 5.76367 7.35193 6.60571
#
# Compressibility (1/GPa) = 0.02554590
#
# Stress axis : x y z
#
# Youngs Moduli (GPa) = 86.06683 110.07775 88.50547
#
# Poissons Ratio (x) = 0.18600 0.06814
# Poissons Ratio (y) = 0.14543 0.06801
# Poissons Ratio (z) = 0.06626 0.08459
#
# Static dielectric constant tensor:
#      x y z
#    x 1.792410 -0.023810 0.067630 
#    y -0.023810 1.905470 0.070510 
#    z 0.067630 0.070510 1.882200 
# 
# From -- ./inp_files/514099.got.cif
#   From: 2010.05.17/outbox.cif.g08.bks.cpg/sg2_258_cif.got.tgz:514099.got - 2010.06.03 11:33:40.
