data_PCOD9057788
_publ_section_title
;
Structure prediction by ZEFSAII (Michael W. Deem and Ramdas Pophale) SiO2 
 PCOD9057788
Probable space group: P -1
;
_chemical_formula_sum "Si O2"
_cell_formula_units_Z 14
_cell_length_a 16.336369
_cell_length_b 9.407872
_cell_length_c 13.493349
_cell_angle_alpha 134.509650
_cell_angle_beta 26.167250
_cell_angle_gamma 122.930270
_cell_volume 627.578924
_symmetry_space_group_name_H-M "P -1"
_symmetry_group_IT_number 2
_symmetry_cell_setting 'triclinic'
loop_
_space_group_symop_operation_xyz
x,y,z
-x,-y,-z
loop_
_atom_site_type_symbol
_atom_site_label
_atom_site_fract_x
_atom_site_fract_y
_atom_site_fract_z
Si Si1 0.734235 0.646483 0.761451
Si Si2 0.720265 0.156950 0.294233
Si Si3 0.164711 0.106348 0.399387
Si Si4 0.670828 0.149796 0.725313
Si Si5 0.340459 0.093396 0.578462
Si Si6 0.033587 0.538302 0.866026
Si Si7 0.976984 0.757733 0.717708
O O1 0.752617 0.831301 0.761146
O O2 0.891691 0.434617 0.457960
O O3 0.804397 0.693288 0.817334
O O4 0.512891 0.653493 0.990082
O O5 0.528286 0.156723 0.441859
O O6 0.791012 0.359260 0.295663
O O7 0.683491 0.092204 0.414443
O O8 0.888480 0.962474 0.975591
O O9 0.076441 0.318459 0.658620
O O10 0.312587 0.952344 0.235662
O O11 0.000000 0.000000 0.500000
O O12 0.871774 0.199995 0.506146
O O13 0.644797 0.991534 0.590665
O O14 0.156755 0.291775 0.882601
O O15 0.000000 0.500000 0.000000
#
# Coordination Sequence:
#
# PCOD9057788 Si02
#       7
#     2   2   2   2   2   2   2
#     4  11  25  42  67 100 137 184 231 278 349 406
#     4  11  24  45  72 102 141 180 232 294 344 415
#     4  12  26  48  69 100 143 187 231 285 348 416
#     4  12  23  45  68  99 139 185 229 285 342 411
#     4  11  24  43  72 105 139 180 236 286 352 412
#     4  12  25  46  72 102 140 185 233 285 351 412
#     4  11  22  43  70  99 136 178 231 288 338 410
#
# _framework density 22.307950999999999
#
# number of rings (size 3 to 8) (size 9 to 14) (size 15 to 20)
#    0.000    0.571    5.714    2.143    2.000    0.571 
#    5.143    0.000    0.000    0.000    0.000    0.000 
#    0.000    0.000    0.000    0.000    0.000    0.000 
#
# Total GULP energy -78365.321925 kJ/mol
# GULP energy per Si atom -5597.522995 kJ/mol
# Density = 2.225718 g / cm^3
# Si number density = 22.307951 Si / 1000 Ang^3
#
#
#
# Elastic Constant Matrix: (Units=GPa)
#
#
# Indices 1 2 3 4 5 6 
#
# 1 114.7733 48.6642 28.2215 4.9037 -23.9605 -2.4895
# 2 48.6642 134.9244 22.8311 -4.1251 -8.8633 1.6344
# 3 28.2215 22.8311 57.7925 -4.1485 -21.1885 2.6453
# 4 4.9037 -4.1251 -4.1485 29.1719 -0.4114 2.7271
# 5 -23.9605 -8.8633 -21.1885 -0.4114 40.6804 3.9285
# 6 -2.4895 1.6344 2.6453 2.7271 3.9285 42.9356
#
#
#
# Elastic Compliance Matrix: (Units=1/GPa)
#
#
# Indices 1 2 3 4 5 6 
#
# 1 0.012124 -0.003657 -0.003016 -0.002992 0.004667 0.000791
# 2 -0.003657 0.009061 -0.002106 0.001619 -0.001220 -0.000418
# 3 -0.003016 -0.002106 0.023877 0.004013 0.010510 -0.002782
# 4 -0.002992 0.001619 0.004013 0.035870 0.001321 -0.002882
# 5 0.004667 -0.001220 0.010510 0.001321 0.032883 -0.003423
# 6 0.000791 -0.000418 -0.002782 -0.002882 -0.003423 0.024020
#
#
# Mechanical properties :
#
#
# Convention : Reuss Voigt Hill
#
# Bulk Modulus (GPa) = 36.35696 56.32486 46.34091
# Shear Modulus (GPa) = 30.38378 36.40915 33.39646
#
# Velocity S-wave (km/s) = 3.69455 4.04433 3.87339
# Velocity P-wave (km/s) = 5.87646 6.86385 6.38925
#
# Compressibility (1/GPa) = 0.02750505
#
# Stress axis : x y z
#
# Youngs Moduli (GPa) = 82.47898 110.35885 41.88184
#
# Poissons Ratio (x) = 0.40360 0.12631
# Poissons Ratio (y) = 0.30164 0.08819
# Poissons Ratio (z) = 0.24874 0.23238
#
# Static dielectric constant tensor:
#      x y z
#    x 1.809530 -0.006830 -0.004160 
#    y -0.006830 1.822460 -0.028920 
#    z -0.004160 -0.028920 1.850120 
# 
# From -- ./inp_files/416066.got.cif
#   From: 2010.05.17/outbox.cif.g08.bks.cpg/sg2_209_cif.got.tgz:416066.got - 2010.06.03 11:33:40.
