data_PCOD9057748
_publ_section_title
;
Structure prediction by ZEFSAII (Michael W. Deem and Ramdas Pophale) SiO2 
 PCOD9057748
Probable space group: P -1
;
_chemical_formula_sum "Si O2"
_cell_formula_units_Z 16
_cell_length_a 13.793811
_cell_length_b 11.201521
_cell_length_c 13.542954
_cell_angle_alpha 53.457686
_cell_angle_beta 41.344439
_cell_angle_gamma 30.289271
_cell_volume 688.358558
_symmetry_space_group_name_H-M "P -1"
_symmetry_group_IT_number 2
_symmetry_cell_setting 'triclinic'
loop_
_space_group_symop_operation_xyz
x,y,z
-x,-y,-z
loop_
_atom_site_type_symbol
_atom_site_label
_atom_site_fract_x
_atom_site_fract_y
_atom_site_fract_z
Si Si1 0.580095 0.581151 0.837948
Si Si2 0.611313 0.722157 0.263903
Si Si3 0.976584 0.587343 0.366064
Si Si4 0.154966 0.734842 0.611178
Si Si5 0.226185 0.131059 0.795117
Si Si6 0.250714 0.744759 0.306917
Si Si7 0.189650 0.200475 0.252655
Si Si8 0.293831 0.402896 0.965889
O O1 0.792916 0.491940 0.775974
O O2 0.681721 0.442832 0.724081
O O3 0.379651 0.865374 0.835722
O O4 0.500000 0.500000 0.000000
O O5 0.637398 0.532603 0.373932
O O6 0.685781 0.792756 0.248428
O O7 0.743659 0.616341 0.109454
O O8 0.345571 0.970152 0.312987
O O9 0.000510 0.427576 0.355350
O O10 0.000000 0.500000 0.500000
O O11 0.773820 0.839738 0.338353
O O12 0.219941 0.729923 0.452868
O O13 0.944853 0.779416 0.738574
O O14 0.006722 0.979940 0.660185
O O15 0.952128 0.330821 0.939811
O O16 0.476491 0.676133 0.161792
O O17 0.336375 0.219479 0.086049
#
# Coordination Sequence:
#
# PCOD9057748 Si02
#       8
#     2   2   2   2   2   2   2   2
#     4  12  27  45  71  98 147 188 226 281 351 413
#     4  12  23  41  77 101 131 177 230 290 341 393
#     4  11  24  45  72  99 137 184 230 288 344 406
#     4  11  25  47  69  98 141 180 230 282 348 405
#     4  11  26  44  71 109 134 176 245 286 341 412
#     4  11  27  47  65  99 149 182 222 279 345 422
#     4  11  22  43  70 105 133 171 237 285 338 403
#     4  11  24  42  73 103 140 175 228 289 344 408
#
# _framework density 23.243701000000001
#
# number of rings (size 3 to 8) (size 9 to 14) (size 15 to 20)
#    0.000    0.750    5.000    3.000    1.750    4.000 
#    0.000    0.000    0.000    0.000    0.000    0.000 
#    0.000    0.000    0.000    0.000    0.000    0.000 
#
# Total GULP energy -89374.072105 kJ/mol
# GULP energy per Si atom -5585.879507 kJ/mol
# Density = 2.319080 g / cm^3
# Si number density = 23.243701 Si / 1000 Ang^3
#
#
#
# Elastic Constant Matrix: (Units=GPa)
#
#
# Indices 1 2 3 4 5 6 
#
# 1 77.7592 35.8821 25.7492 -12.1923 10.6707 7.9844
# 2 35.8821 177.3291 34.7672 -26.1201 5.0542 7.0074
# 3 25.7492 34.7672 93.8420 -21.4747 -6.6243 7.7202
# 4 -12.1923 -26.1201 -21.4747 32.1134 -1.8789 17.0379
# 5 10.6707 5.0542 -6.6243 -1.8789 34.2726 -1.9371
# 6 7.9844 7.0074 7.7202 17.0379 -1.9371 32.0509
#
#
#
# Elastic Compliance Matrix: (Units=1/GPa)
#
#
# Indices 1 2 3 4 5 6 
#
# 1 0.016988 -0.001417 -0.002109 0.007734 -0.005508 -0.007858
# 2 -0.001417 0.007439 0.000072 0.008681 -0.000501 -0.005936
# 3 -0.002109 0.000072 0.016359 0.016888 0.004046 -0.012164
# 4 0.007734 0.008681 0.016888 0.078899 0.001089 -0.049769
# 5 -0.005508 -0.000501 0.004046 0.001089 0.031913 0.001857
# 6 -0.007858 -0.005936 -0.012164 -0.049769 0.001857 0.063955
#
#
# Mechanical properties :
#
#
# Convention : Reuss Voigt Hill
#
# Bulk Modulus (GPa) = 29.51704 60.19191 44.85448
# Shear Modulus (GPa) = 21.39000 36.52282 28.95641
#
# Velocity S-wave (km/s) = 3.03685 3.96826 3.53338
# Velocity P-wave (km/s) = 5.00231 6.85189 5.99881
#
# Compressibility (1/GPa) = 0.03387874
#
# Stress axis : x y z
#
# Youngs Moduli (GPa) = 58.86559 134.41833 61.12835
#
# Poissons Ratio (x) = 0.19052 0.12890
# Poissons Ratio (y) = 0.08343 -0.00442
# Poissons Ratio (z) = 0.12413 -0.00971
#
# Static dielectric constant tensor:
#      x y z
#    x 1.896750 -0.026140 0.023230 
#    y -0.026140 1.946960 -0.017950 
#    z 0.023230 -0.017950 1.940180 
# 
# From -- ./inp_files/532403.got.cif
#   From: 2010.05.17/outbox.cif.g08.bks.cpg/sg2_267_cif.got.tgz:532403.got - 2010.06.03 11:33:40.
