data_PCOD9057718
_publ_section_title
;
Structure prediction by ZEFSAII (Michael W. Deem and Ramdas Pophale) SiO2 
 PCOD9057718
Probable space group: P -1
;
_chemical_formula_sum "Si O2"
_cell_formula_units_Z 14
_cell_length_a 15.368774
_cell_length_b 5.147916
_cell_length_c 9.045516
_cell_angle_alpha 120.171291
_cell_angle_beta 76.987491
_cell_angle_gamma 79.967130
_cell_volume 566.647394
_symmetry_space_group_name_H-M "P -1"
_symmetry_group_IT_number 2
_symmetry_cell_setting 'triclinic'
loop_
_space_group_symop_operation_xyz
x,y,z
-x,-y,-z
loop_
_atom_site_type_symbol
_atom_site_label
_atom_site_fract_x
_atom_site_fract_y
_atom_site_fract_z
Si Si1 0.268093 0.059175 0.980019
Si Si2 0.557896 0.238985 0.782036
Si Si3 0.101076 0.879898 0.000513
Si Si4 0.933826 0.861906 0.584221
Si Si5 0.365456 0.305170 0.757863
Si Si6 0.311766 0.423669 0.322081
Si Si7 0.784495 0.662164 0.399629
O O1 0.336248 0.138416 0.860478
O O2 0.316534 0.689023 0.902137
O O3 0.254442 0.299949 0.188650
O O4 0.165199 0.078955 0.970782
O O5 0.477042 0.232899 0.696257
O O6 0.636487 0.366130 0.718514
O O7 0.606478 0.899573 0.745235
O O8 0.500000 0.500000 0.000000
O O9 0.096822 0.934507 0.194083
O O10 0.150012 0.530341 0.812879
O O11 0.000000 0.000000 0.000000
O O12 0.842419 0.849634 0.520842
O O13 0.000000 0.500000 0.500000
O O14 0.000000 0.000000 0.500000
O O15 0.316583 0.200304 0.607190
O O16 0.242885 0.553754 0.525234
#
# Coordination Sequence:
#
# PCOD9057718 Si02
#       7
#     2   2   2   2   2   2   2
#     4  11  22  43  69 106 139 190 237 297 362 428
#     4  12  23  42  74 109 141 195 250 300 363 431
#     4  11  25  49  79 109 148 194 244 304 368 438
#     4  12  28  49  77 110 143 188 246 303 363 437
#     4  11  25  42  71 102 145 187 241 297 364 426
#     4  12  24  43  72 105 150 192 243 303 364 433
#     4  11  28  49  73 111 153 194 243 304 371 437
#
# _framework density 24.706721000000002
#
# number of rings (size 3 to 8) (size 9 to 14) (size 15 to 20)
#    0.000    0.571    5.714    1.286    2.000    7.429 
#    0.000    0.000    0.000    0.000    0.000    0.000 
#    0.000    0.000    0.000    0.000    0.000    0.000 
#
# Total GULP energy -78390.946870 kJ/mol
# GULP energy per Si atom -5599.353348 kJ/mol
# Density = 2.465049 g / cm^3
# Si number density = 24.706721 Si / 1000 Ang^3
#
#
#
# Elastic Constant Matrix: (Units=GPa)
#
#
# Indices 1 2 3 4 5 6 
#
# 1 212.5412 26.3732 36.0615 5.3234 28.3701 13.2609
# 2 26.3732 94.9720 20.8553 6.3295 -2.6296 18.7112
# 3 36.0615 20.8553 177.0191 7.5477 29.4248 15.9904
# 4 5.3234 6.3295 7.5477 25.7375 4.2013 -6.1509
# 5 28.3701 -2.6296 29.4248 4.2013 42.8376 -7.1649
# 6 13.2609 18.7112 15.9904 -6.1509 -7.1649 35.7644
#
#
#
# Elastic Compliance Matrix: (Units=1/GPa)
#
#
# Indices 1 2 3 4 5 6 
#
# 1 0.005561 -0.001118 -0.000087 -0.000762 -0.004014 -0.002373
# 2 -0.001118 0.012574 -0.000726 -0.004383 0.001385 -0.006316
# 3 -0.000087 -0.000726 0.007110 -0.002012 -0.005374 -0.004189
# 4 -0.000762 -0.004383 -0.002012 0.043390 -0.000836 0.010770
# 5 -0.004014 0.001385 -0.005374 -0.000836 0.031419 0.009317
# 6 -0.002373 -0.006316 -0.004189 0.010770 0.009317 0.037737
#
#
# Mechanical properties :
#
#
# Convention : Reuss Voigt Hill
#
# Bulk Modulus (GPa) = 46.76726 72.34581 59.55654
# Shear Modulus (GPa) = 33.60613 47.61740 40.61176
#
# Velocity S-wave (km/s) = 3.69209 4.39487 4.05872
# Velocity P-wave (km/s) = 6.09471 7.42284 6.79132
#
# Compressibility (1/GPa) = 0.02138248
#
# Stress axis : x y z
#
# Youngs Moduli (GPa) = 179.80858 79.52793 140.64820
#
# Poissons Ratio (x) = 0.08891 0.01225
# Poissons Ratio (y) = 0.20103 0.10217
# Poissons Ratio (z) = 0.01566 0.05777
#
# Static dielectric constant tensor:
#      x y z
#    x 1.985800 -0.095530 -0.036530 
#    y -0.095530 2.019380 0.073820 
#    z -0.036530 0.073820 2.033660 
# 
# From -- ./inp_files/289259.got.cif
#   From: 2010.05.17/outbox.cif.g08.bks.cpg/sg2_145_cif.got.tgz:289259.got - 2010.06.03 11:33:40.
