data_PCOD9057880
_publ_section_title
;
Structure prediction by ZEFSAII (Michael W. Deem and Ramdas Pophale) SiO2 
 PCOD9057880
Probable space group: P -1
;
_chemical_formula_sum "Si O2"
_cell_formula_units_Z 16
_cell_length_a 9.099392
_cell_length_b 15.579174
_cell_length_c 9.825728
_cell_angle_alpha 41.084999
_cell_angle_beta 65.845723
_cell_angle_gamma 92.997290
_cell_volume 667.220287
_symmetry_space_group_name_H-M "P -1"
_symmetry_group_IT_number 2
_symmetry_cell_setting 'triclinic'
loop_
_space_group_symop_operation_xyz
x,y,z
-x,-y,-z
loop_
_atom_site_type_symbol
_atom_site_label
_atom_site_fract_x
_atom_site_fract_y
_atom_site_fract_z
Si Si1 0.419630 0.825535 0.624411
Si Si2 0.219431 0.646970 0.188533
Si Si3 0.535394 0.430987 0.209146
Si Si4 0.069049 0.899201 0.319188
Si Si5 0.857031 0.668511 0.447389
Si Si6 0.824264 0.765151 0.851302
Si Si7 0.596643 0.918964 0.846132
Si Si8 0.900126 0.089373 0.161046
O O1 0.388272 0.674487 0.737603
O O2 0.280634 0.750642 0.901826
O O3 0.373901 0.931624 0.426175
O O4 0.658676 0.950795 0.424509
O O5 0.280010 0.526530 0.274885
O O6 0.019487 0.765869 0.150359
O O7 0.316451 0.307120 0.508895
O O8 0.361954 0.771933 0.102429
O O9 0.500000 0.500000 0.000000
O O10 0.678696 0.575480 0.089534
O O11 0.984432 0.742244 0.448527
O O12 0.964181 0.844784 0.571284
O O13 0.304623 0.015891 0.121676
O O14 0.990495 0.998343 0.175789
O O15 0.000000 0.500000 0.500000
O O16 0.701864 0.840600 0.833443
O O17 0.970948 0.820173 0.859334
#
# Coordination Sequence:
#
# PCOD9057880 Si02
#       8
#     2   2   2   2   2   2   2   2
#     4  12  24  46  73 103 138 191 233 285 352 421
#     4  12  25  43  67 100 144 186 230 287 354 414
#     4  12  21  43  76 103 140 186 234 284 351 418
#     4  11  22  43  73 104 138 184 237 287 344 416
#     4  12  24  44  72 105 141 184 233 289 348 416
#     4  11  22  44  74 105 138 185 234 291 340 420
#     4  11  24  43  70 102 140 181 234 287 349 410
#     4  11  24  42  73 107 140 179 239 287 345 414
#
# _framework density 23.980084999999999
#
# number of rings (size 3 to 8) (size 9 to 14) (size 15 to 20)
#    0.000    0.500    5.000    4.500    0.000    2.500 
#    0.000    7.500    0.000    0.000    0.000    0.000 
#    0.000    0.000    0.000    0.000    0.000    0.000 
#
# Total GULP energy -89417.435159 kJ/mol
# GULP energy per Si atom -5588.589697 kJ/mol
# Density = 2.392551 g / cm^3
# Si number density = 23.980085 Si / 1000 Ang^3
#
#
#
# Elastic Constant Matrix: (Units=GPa)
#
#
# Indices 1 2 3 4 5 6 
#
# 1 106.1862 23.1536 54.2453 -18.2775 -15.6920 -6.1686
# 2 23.1536 73.3807 45.6461 -16.9034 -17.3208 0.1558
# 3 54.2453 45.6461 161.0088 -12.4008 -25.0866 6.1828
# 4 -18.2775 -16.9034 -12.4008 62.6649 2.4468 -7.2517
# 5 -15.6920 -17.3208 -25.0866 2.4468 36.7372 -7.0835
# 6 -6.1686 0.1558 6.1828 -7.2517 -7.0835 31.8133
#
#
#
# Elastic Compliance Matrix: (Units=1/GPa)
#
#
# Indices 1 2 3 4 5 6 
#
# 1 0.012662 -0.000161 -0.003588 0.003346 0.003568 0.004710
# 2 -0.000161 0.018655 -0.004045 0.004292 0.006265 0.003037
# 3 -0.003588 -0.004045 0.008954 -0.000694 0.002325 -0.002057
# 4 0.003346 0.004292 -0.000694 0.018492 0.002828 0.005608
# 5 0.003568 0.006265 0.002325 0.002828 0.034754 0.008592
# 6 0.004710 0.003037 -0.002057 0.005608 0.008592 0.035923
#
#
# Mechanical properties :
#
#
# Convention : Reuss Voigt Hill
#
# Bulk Modulus (GPa) = 40.51007 65.18509 52.84758
# Shear Modulus (GPa) = 32.62549 40.74512 36.68531
#
# Velocity S-wave (km/s) = 3.69253 4.12651 3.91554
# Velocity P-wave (km/s) = 5.92534 7.06726 6.52134
#
# Compressibility (1/GPa) = 0.02468522
#
# Stress axis : x y z
#
# Youngs Moduli (GPa) = 78.97633 53.60502 111.68326
#
# Poissons Ratio (x) = 0.00861 0.40068
# Poissons Ratio (y) = 0.01268 0.45171
# Poissons Ratio (z) = 0.28334 0.21681
#
# Static dielectric constant tensor:
#      x y z
#    x 2.012710 -0.136700 -0.003270 
#    y -0.136700 2.122200 0.007020 
#    z -0.003270 0.007020 1.916400 
# 
# From -- ./inp_files/503779.got.cif
#   From: 2010.05.17/outbox.cif.g08.bks.cpg/sg2_252_cif.got.tgz:503779.got - 2010.06.03 11:33:40.
