data_PCOD9057505
_publ_section_title
;
Structure prediction by ZEFSAII (Michael W. Deem and Ramdas Pophale) SiO2 
 PCOD9057505
Probable space group: P -1
;
_chemical_formula_sum "Si O2"
_cell_formula_units_Z 16
_cell_length_a 10.707641
_cell_length_b 9.437058
_cell_length_c 13.376070
_cell_angle_alpha 80.899872
_cell_angle_beta 146.753631
_cell_angle_gamma 111.085801
_cell_volume 663.947598
_symmetry_space_group_name_H-M "P -1"
_symmetry_group_IT_number 2
_symmetry_cell_setting 'triclinic'
loop_
_space_group_symop_operation_xyz
x,y,z
-x,-y,-z
loop_
_atom_site_type_symbol
_atom_site_label
_atom_site_fract_x
_atom_site_fract_y
_atom_site_fract_z
Si Si1 0.512773 0.970208 0.848678
Si Si2 0.070798 0.583168 0.803944
Si Si3 0.749545 0.018274 0.801270
Si Si4 0.219307 0.217558 0.451643
Si Si5 0.455475 0.400144 0.790762
Si Si6 0.368458 0.758591 0.437695
Si Si7 0.742374 0.376696 0.296020
Si Si8 0.213263 0.100537 0.780287
O O1 0.650869 0.062669 0.832979
O O2 0.305177 0.801207 0.693668
O O3 0.385103 0.054060 0.823502
O O4 0.693447 0.919521 0.044882
O O5 0.982576 0.724049 0.735646
O O6 0.828151 0.418500 0.653348
O O7 0.228145 0.606557 0.805076
O O8 0.264364 0.587846 0.017838
O O9 0.534803 0.856435 0.631018
O O10 0.777350 0.145004 0.719692
O O11 0.000000 0.000000 0.000000
O O12 0.330988 0.327119 0.610502
O O13 0.431121 0.240218 0.510777
O O14 0.068072 0.034217 0.401589
O O15 0.461674 0.569730 0.801225
O O16 0.276944 0.277552 0.769069
O O17 0.000000 0.500000 0.500000
#
# Coordination Sequence:
#
# PCOD9057505 Si02
#       8
#     2   2   2   2   2   2   2   2
#     4  11  22  42  72 101 138 181 233 284 366 413
#     4  12  25  46  68 101 148 182 235 292 353 429
#     4  11  26  47  72 101 139 193 237 292 354 422
#     4  12  25  46  69 103 141 192 238 291 356 416
#     4  12  26  41  74 107 142 185 235 293 368 417
#     4  11  28  46  69 104 141 188 245 286 348 430
#     4  12  23  43  68 106 139 181 227 295 359 419
#     4  11  22  43  71 105 141 178 237 297 346 429
#
# _framework density 24.098286999999999
#
# number of rings (size 3 to 8) (size 9 to 14) (size 15 to 20)
#    0.000    0.500    3.750    4.125    1.750    4.500 
#    0.000    0.000    0.000    0.000    0.000    0.000 
#    0.000    0.000    0.000    0.000    0.000    0.000 
#
# Total GULP energy -89695.840590 kJ/mol
# GULP energy per Si atom -5605.990037 kJ/mol
# Density = 2.404344 g / cm^3
# Si number density = 24.098287 Si / 1000 Ang^3
#
#
#
# Elastic Constant Matrix: (Units=GPa)
#
#
# Indices 1 2 3 4 5 6 
#
# 1 82.6549 -1.8641 16.4411 -3.5883 -1.0179 5.7950
# 2 -1.8641 90.0295 18.9514 6.0485 3.5297 -2.5610
# 3 16.4411 18.9514 114.4642 -16.0885 6.3634 -3.0087
# 4 -3.5883 6.0485 -16.0885 36.7560 -0.4366 5.9970
# 5 -1.0179 3.5297 6.3634 -0.4366 24.4588 -4.0951
# 6 5.7950 -2.5610 -3.0087 5.9970 -4.0951 27.3919
#
#
#
# Elastic Compliance Matrix: (Units=1/GPa)
#
#
# Indices 1 2 3 4 5 6 
#
# 1 0.012738 0.000507 -0.001903 0.000817 0.000470 -0.002965
# 2 0.000507 0.011912 -0.002408 -0.003188 -0.000910 0.001304
# 3 -0.001903 -0.002408 0.010189 0.004654 -0.002311 -0.000068
# 4 0.000817 -0.003188 0.004654 0.030964 -0.001325 -0.006937
# 5 0.000470 -0.000910 -0.002311 -0.001325 0.042656 0.006229
# 6 -0.002965 0.001304 -0.000068 -0.006937 0.006229 0.039699
#
#
# Mechanical properties :
#
#
# Convention : Reuss Voigt Hill
#
# Bulk Modulus (GPa) = 36.72433 39.35614 38.04023
# Shear Modulus (GPa) = 30.33185 34.62936 32.48060
#
# Velocity S-wave (km/s) = 3.55163 3.79490 3.67528
# Velocity P-wave (km/s) = 5.66491 5.96394 5.81635
#
# Compressibility (1/GPa) = 0.02722991
#
# Stress axis : x y z
#
# Youngs Moduli (GPa) = 78.50832 83.94975 98.14294
#
# Poissons Ratio (x) = -0.04253 0.18674
# Poissons Ratio (y) = -0.03977 0.23635
# Poissons Ratio (z) = 0.14938 0.20217
#
# Static dielectric constant tensor:
#      x y z
#    x 1.883360 -0.014090 -0.014420 
#    y -0.014090 1.948730 -0.019500 
#    z -0.014420 -0.019500 1.962490 
# 
# From -- ./inp_files/515572.got.cif
#   From: 2010.05.17/outbox.cif.g08.bks.cpg/sg2_258_cif.got.tgz:515572.got - 2010.06.03 11:33:40.
