data_PCOD9057677
_publ_section_title
;
Structure prediction by ZEFSAII (Michael W. Deem and Ramdas Pophale) SiO2 
 PCOD9057677
Probable space group: P -1
;
_chemical_formula_sum "Si O2"
_cell_formula_units_Z 14
_cell_length_a 9.771556
_cell_length_b 5.481075
_cell_length_c 13.793047
_cell_angle_alpha 95.990269
_cell_angle_beta 59.934134
_cell_angle_gamma 72.907671
_cell_volume 582.148332
_symmetry_space_group_name_H-M "P -1"
_symmetry_group_IT_number 2
_symmetry_cell_setting 'triclinic'
loop_
_space_group_symop_operation_xyz
x,y,z
-x,-y,-z
loop_
_atom_site_type_symbol
_atom_site_label
_atom_site_fract_x
_atom_site_fract_y
_atom_site_fract_z
Si Si1 0.655717 0.138611 0.987579
Si Si2 0.371321 0.574070 0.637368
Si Si3 0.327215 0.524730 0.838615
Si Si4 0.020693 0.401926 0.100286
Si Si5 0.585519 0.018936 0.807174
Si Si6 0.187525 0.175507 0.664641
Si Si7 0.890737 0.813554 0.532356
O O1 0.704725 0.344354 0.040032
O O2 0.481181 0.157137 0.105821
O O3 0.633291 0.183123 0.882882
O O4 0.808339 0.848936 0.942870
O O5 0.500000 0.500000 0.500000
O O6 0.450836 0.575222 0.716796
O O7 0.317131 0.319654 0.646313
O O8 0.243634 0.875346 0.668122
O O9 0.149793 0.663913 0.847387
O O10 0.416409 0.211103 0.816195
O O11 0.978914 0.631911 0.205744
O O12 0.000000 0.500000 0.000000
O O13 0.741721 0.906216 0.671763
O O14 0.172756 0.173938 0.554688
O O15 0.000000 0.500000 0.500000
O O16 0.000000 0.000000 0.500000
#
# Coordination Sequence:
#
# PCOD9057677 Si02
#       7
#     2   2   2   2   2   2   2
#     4  11  24  44  70 103 149 188 246 297 371 435
#     4  11  24  41  70 103 140 185 232 301 363 425
#     4  11  24  41  72 102 143 186 242 295 365 432
#     4  11  22  43  68 105 142 189 237 292 363 433
#     4  11  26  45  70 107 141 192 244 308 363 436
#     4  11  25  44  68 104 140 185 243 295 358 429
#     4  12  28  49  75 104 146 198 250 301 368 442
#
# _framework density 24.048853999999999
#
# number of rings (size 3 to 8) (size 9 to 14) (size 15 to 20)
#    0.000    0.857    1.429    4.714    6.000    3.429 
#    0.000    0.000    0.000    0.000    0.000    0.000 
#    0.000    0.000    0.000    0.000    0.000    0.000 
#
# Total GULP energy -78067.090701 kJ/mol
# GULP energy per Si atom -5576.220764 kJ/mol
# Density = 2.399412 g / cm^3
# Si number density = 24.048854 Si / 1000 Ang^3
#
#
#
# Elastic Constant Matrix: (Units=GPa)
#
#
# Indices 1 2 3 4 5 6 
#
# 1 78.1028 30.1352 41.1432 3.3719 11.8984 -5.8115
# 2 30.1352 134.9090 58.1075 -4.4248 -3.5546 -17.8616
# 3 41.1432 58.1075 210.1461 -8.4930 14.8361 -7.9650
# 4 3.3719 -4.4248 -8.4930 44.2806 -7.6390 7.5112
# 5 11.8984 -3.5546 14.8361 -7.6390 47.8974 -3.6260
# 6 -5.8115 -17.8616 -7.9650 7.5112 -3.6260 29.3118
#
#
#
# Elastic Compliance Matrix: (Units=1/GPa)
#
#
# Indices 1 2 3 4 5 6 
#
# 1 0.015730 -0.002620 -0.002154 -0.002723 -0.003781 0.001167
# 2 -0.002620 0.009652 -0.002126 0.000331 0.002457 0.005003
# 3 -0.002154 -0.002126 0.005880 0.000939 -0.001335 -0.000531
# 4 -0.002723 0.000331 0.000939 0.024681 0.003898 -0.005925
# 5 -0.003781 0.002457 -0.001335 0.003898 0.023205 0.002257
# 6 0.001167 0.005003 -0.000531 -0.005925 0.002257 0.039049
#
#
# Mechanical properties :
#
#
# Convention : Reuss Voigt Hill
#
# Bulk Modulus (GPa) = 57.27215 75.76994 66.52104
# Shear Modulus (GPa) = 36.27956 43.88276 40.08116
#
# Velocity S-wave (km/s) = 3.88825 4.27632 4.08690
# Velocity P-wave (km/s) = 6.63511 7.48049 7.07044
#
# Compressibility (1/GPa) = 0.01746049
#
# Stress axis : x y z
#
# Youngs Moduli (GPa) = 63.57425 103.61069 170.05979
#
# Poissons Ratio (x) = 0.27149 0.36631
# Poissons Ratio (y) = 0.16658 0.36158
# Poissons Ratio (z) = 0.13694 0.22030
#
# Static dielectric constant tensor:
#      x y z
#    x 2.709460 -0.441140 0.603740 
#    y -0.441140 2.637630 -0.876400 
#    z 0.603740 -0.876400 3.236600 
# 
# From -- ./inp_files/509918.got.cif
#   From: 2010.05.17/outbox.cif.g08.bks.cpg/sg2_255_cif.got.tgz:509918.got - 2010.06.03 11:33:40.
