data_PCOD9057797
_publ_section_title
;
Structure prediction by ZEFSAII (Michael W. Deem and Ramdas Pophale) SiO2 
 PCOD9057797
Probable space group: P -1
;
_chemical_formula_sum "Si O2"
_cell_formula_units_Z 16
_cell_length_a 12.625546
_cell_length_b 8.476477
_cell_length_c 14.917499
_cell_angle_alpha 78.293752
_cell_angle_beta 150.152752
_cell_angle_gamma 91.660392
_cell_volume 741.780089
_symmetry_space_group_name_H-M "P -1"
_symmetry_group_IT_number 2
_symmetry_cell_setting 'triclinic'
loop_
_space_group_symop_operation_xyz
x,y,z
-x,-y,-z
loop_
_atom_site_type_symbol
_atom_site_label
_atom_site_fract_x
_atom_site_fract_y
_atom_site_fract_z
Si Si1 0.747458 0.923853 0.926380
Si Si2 0.536275 0.460289 0.925559
Si Si3 0.622270 0.088005 0.009762
Si Si4 0.222309 0.697384 0.353558
Si Si5 0.062111 0.369532 0.307194
Si Si6 0.943387 0.918602 0.558286
Si Si7 0.519740 0.855493 0.455231
Si Si8 0.593264 0.239365 0.328706
O O1 0.658564 0.766849 0.851238
O O2 0.641648 0.060946 0.756222
O O3 0.012048 0.843879 0.142219
O O4 0.662321 0.999660 0.953189
O O5 0.390351 0.619447 0.744978
O O6 0.500000 0.500000 0.000000
O O7 0.489272 0.286505 0.886344
O O8 0.795333 0.430383 0.091447
O O9 0.859763 0.079616 0.228844
O O10 0.500000 0.000000 0.000000
O O11 0.151947 0.529020 0.339486
O O12 0.429271 0.705694 0.443296
O O13 0.295849 0.741788 0.499617
O O14 0.082767 0.268419 0.429653
O O15 0.223582 0.225676 0.378306
O O16 0.718453 0.053806 0.407479
O O17 0.000000 0.000000 0.500000
O O18 0.500000 0.000000 0.500000
#
# Coordination Sequence:
#
# PCOD9057797 Si02
#       8
#     2   2   2   2   2   2   2   2
#     4  12  24  48  73 103 150 188 243 307 362 444
#     4  11  25  46  72 110 151 191 240 306 368 439
#     4  11  25  42  71 108 146 191 246 293 375 447
#     4  12  26  47  72 109 140 196 246 303 370 427
#     4  11  25  46  73 105 149 184 248 303 363 439
#     4  11  22  43  71 102 143 193 239 299 366 438
#     4  12  26  49  77 105 144 196 251 308 370 433
#     4  12  23  44  71 102 147 185 244 302 356 437
#
# _framework density 21.569734
#
# number of rings (size 3 to 8) (size 9 to 14) (size 15 to 20)
#    0.000    0.500    5.000    3.750    3.500    0.000 
#    0.000    3.125    0.000    0.000    0.000    0.000 
#    0.000    0.000    0.000    0.000    0.000    0.000 
#
# Total GULP energy -89290.527111 kJ/mol
# GULP energy per Si atom -5580.657944 kJ/mol
# Density = 2.152064 g / cm^3
# Si number density = 21.569734 Si / 1000 Ang^3
#
#
#
# Elastic Constant Matrix: (Units=GPa)
#
#
# Indices 1 2 3 4 5 6 
#
# 1 108.5702 32.4691 33.3017 2.8124 1.6846 18.8992
# 2 32.4691 97.3864 18.5008 -2.9483 3.0363 29.8994
# 3 33.3017 18.5008 101.1463 2.5508 -10.9228 -4.7125
# 4 2.8124 -2.9483 2.5508 37.0524 5.2008 -6.5753
# 5 1.6846 3.0363 -10.9228 5.2008 39.5307 -3.1305
# 6 18.8992 29.8994 -4.7125 -6.5753 -3.1305 48.1868
#
#
#
# Elastic Compliance Matrix: (Units=1/GPa)
#
#
# Indices 1 2 3 4 5 6 
#
# 1 0.011726 -0.001926 -0.003834 -0.001279 -0.001564 -0.004055
# 2 -0.001926 0.014044 -0.002591 0.000303 -0.002412 -0.008327
# 3 -0.003834 -0.002591 0.012299 -0.000549 0.004190 0.004511
# 4 -0.001279 0.000303 -0.000549 0.028336 -0.003540 0.003897
# 5 -0.001564 -0.002412 0.004190 -0.003540 0.027475 0.003821
# 6 -0.004055 -0.008327 0.004511 0.003897 0.003821 0.028731
#
#
# Mechanical properties :
#
#
# Convention : Reuss Voigt Hill
#
# Bulk Modulus (GPa) = 46.79989 52.84957 49.82473
# Shear Modulus (GPa) = 34.14483 39.80940 36.97711
#
# Velocity S-wave (km/s) = 3.98301 4.30072 4.14491
# Velocity P-wave (km/s) = 6.54955 7.01545 6.78650
#
# Compressibility (1/GPa) = 0.02136757
#
# Stress axis : x y z
#
# Youngs Moduli (GPa) = 85.28130 71.20646 81.30507
#
# Poissons Ratio (x) = 0.13716 0.31171
# Poissons Ratio (y) = 0.16427 0.21063
# Poissons Ratio (z) = 0.32696 0.18447
#
# Static dielectric constant tensor:
#      x y z
#    x 1.839460 0.044660 0.045970 
#    y 0.044660 1.885150 0.056810 
#    z 0.045970 0.056810 1.873090 
# 
# From -- ./inp_files/515559.got.cif
#   From: 2010.05.17/outbox.cif.g08.bks.cpg/sg2_258_cif.got.tgz:515559.got - 2010.06.03 11:33:40.
