data_PCOD9057828
_publ_section_title
;
Structure prediction by ZEFSAII (Michael W. Deem and Ramdas Pophale) SiO2 
 PCOD9057828
Probable space group: P -1
;
_chemical_formula_sum "Si O2"
_cell_formula_units_Z 16
_cell_length_a 14.707415
_cell_length_b 12.145590
_cell_length_c 8.798144
_cell_angle_alpha 108.624043
_cell_angle_beta 110.253163
_cell_angle_gamma 131.478077
_cell_volume 690.525347
_symmetry_space_group_name_H-M "P -1"
_symmetry_group_IT_number 2
_symmetry_cell_setting 'triclinic'
loop_
_space_group_symop_operation_xyz
x,y,z
-x,-y,-z
loop_
_atom_site_type_symbol
_atom_site_label
_atom_site_fract_x
_atom_site_fract_y
_atom_site_fract_z
Si Si1 0.961329 0.231262 0.730825
Si Si2 0.484687 0.194164 0.976546
Si Si3 0.987281 0.108275 0.124725
Si Si4 0.657942 0.902096 0.661336
Si Si5 0.343715 0.506691 0.081788
Si Si6 0.896442 0.360696 0.537130
Si Si7 0.689131 0.367163 0.472703
Si Si8 0.784591 0.881464 0.217368
O O1 0.015423 0.395639 0.727071
O O2 0.802785 0.105262 0.707443
O O3 0.864876 0.030575 0.478758
O O4 0.149517 0.366152 0.971406
O O5 0.628690 0.293789 0.228720
O O6 0.579756 0.326241 0.929736
O O7 0.392130 0.220713 0.987627
O O8 0.303562 0.918233 0.733472
O O9 0.185522 0.385544 0.337650
O O10 0.948185 0.052007 0.256442
O O11 0.802015 0.985016 0.894366
O O12 0.000000 0.000000 0.000000
O O13 0.509582 0.665582 0.375214
O O14 0.510225 0.833394 0.634098
O O15 0.287957 0.325160 0.896716
O O16 0.832688 0.410272 0.609473
O O17 0.000000 0.500000 0.500000
#
# Coordination Sequence:
#
# PCOD9057828 Si02
#       8
#     2   2   2   2   2   2   2   2
#     4  11  25  46  68 107 141 181 240 294 346 417
#     4  11  23  45  73 106 133 179 245 284 350 421
#     4  12  27  47  69 106 146 188 236 287 350 419
#     4  12  26  45  67 103 148 177 240 276 356 425
#     4  12  24  44  72 102 142 188 228 294 354 410
#     4  11  24  47  77 105 136 180 240 302 345 413
#     4  12  26  45  76 100 142 192 231 292 356 405
#     4  11  22  43  72 101 141 184 234 292 348 414
#
# _framework density 23.170764999999999
#
# number of rings (size 3 to 8) (size 9 to 14) (size 15 to 20)
#    0.000    0.500    3.750    6.375    1.750    1.500 
#    0.000    1.250    0.000    0.000    0.000    0.000 
#    0.000    0.000    0.000    0.000    0.000    0.000 
#
# Total GULP energy -89565.261018 kJ/mol
# GULP energy per Si atom -5597.828814 kJ/mol
# Density = 2.311803 g / cm^3
# Si number density = 23.170765 Si / 1000 Ang^3
#
#
#
# Elastic Constant Matrix: (Units=GPa)
#
#
# Indices 1 2 3 4 5 6 
#
# 1 89.2224 24.7143 -15.4922 16.6201 4.8449 15.7808
# 2 24.7143 118.6392 26.2045 15.4473 -8.9431 18.5712
# 3 -15.4922 26.2045 38.1959 -4.6091 5.0073 3.6952
# 4 16.6201 15.4473 -4.6091 28.1487 1.0522 -4.6819
# 5 4.8449 -8.9431 5.0073 1.0522 26.3634 1.8363
# 6 15.7808 18.5712 3.6952 -4.6819 1.8363 45.6710
#
#
#
# Elastic Compliance Matrix: (Units=1/GPa)
#
#
# Indices 1 2 3 4 5 6 
#
# 1 0.016712 -0.004640 0.010497 -0.006231 -0.006033 -0.005133
# 2 -0.004640 0.015128 -0.014118 -0.009006 0.009353 -0.004705
# 3 0.010497 -0.014118 0.043228 0.009230 -0.015310 0.000178
# 4 -0.006231 -0.009006 0.009230 0.047589 -0.006273 0.010199
# 5 -0.006033 0.009353 -0.015310 -0.006273 0.045577 -0.002956
# 6 -0.005133 -0.004705 0.000178 0.010199 -0.002956 0.026733
#
#
# Mechanical properties :
#
#
# Convention : Reuss Voigt Hill
#
# Bulk Modulus (GPa) = 17.08059 35.21229 26.14644
# Shear Modulus (GPa) = 21.64457 34.07869 27.86163
#
# Velocity S-wave (km/s) = 3.05967 3.83921 3.47139
# Velocity P-wave (km/s) = 4.45755 5.90615 5.23222
#
# Compressibility (1/GPa) = 0.05854597
#
# Stress axis : x y z
#
# Youngs Moduli (GPa) = 59.83722 66.10179 23.13313
#
# Poissons Ratio (x) = 0.30670 -0.24283
# Poissons Ratio (y) = 0.27764 0.32660
# Poissons Ratio (z) = -0.62812 0.93325
#
# Static dielectric constant tensor:
#      x y z
#    x 1.870740 0.013570 0.002590 
#    y 0.013570 1.871220 -0.011150 
#    z 0.002590 -0.011150 1.856470 
# 
# From -- ./inp_files/308141.got.cif
#   From: 2010.05.17/outbox.cif.g08.bks.cpg/sg2_155_cif.got.tgz:308141.got - 2010.06.03 11:33:40.
