data_PCOD9057776
_publ_section_title
;
Structure prediction by ZEFSAII (Michael W. Deem and Ramdas Pophale) SiO2 
 PCOD9057776
Probable space group: P -1
;
_chemical_formula_sum "Si O2"
_cell_formula_units_Z 16
_cell_length_a 8.648456
_cell_length_b 7.749881
_cell_length_c 15.694143
_cell_angle_alpha 92.221954
_cell_angle_beta 42.618529
_cell_angle_gamma 107.177771
_cell_volume 654.043713
_symmetry_space_group_name_H-M "P -1"
_symmetry_group_IT_number 2
_symmetry_cell_setting 'triclinic'
loop_
_space_group_symop_operation_xyz
x,y,z
-x,-y,-z
loop_
_atom_site_type_symbol
_atom_site_label
_atom_site_fract_x
_atom_site_fract_y
_atom_site_fract_z
Si Si1 0.976985 0.362273 0.650892
Si Si2 0.189512 0.903790 0.942543
Si Si3 0.633278 0.273618 0.484839
Si Si4 0.792245 0.106715 0.871272
Si Si5 0.568842 0.364973 0.207712
Si Si6 0.757278 0.874463 0.511162
Si Si7 0.089531 0.188029 0.292585
Si Si8 0.471317 0.724179 0.276405
O O1 0.857621 0.288702 0.789280
O O2 0.798460 0.405620 0.657746
O O3 0.264258 0.502131 0.545332
O O4 0.015237 0.188194 0.591250
O O5 0.218632 0.718010 0.890795
O O6 0.436518 0.086387 0.815633
O O7 0.126412 0.852506 0.065051
O O8 0.000000 0.000000 0.000000
O O9 0.420864 0.167851 0.501388
O O10 0.537724 0.218237 0.620098
O O11 0.900942 0.280006 0.339778
O O12 0.901287 0.966072 0.781151
O O13 0.500000 0.000000 0.000000
O O14 0.413711 0.239807 0.346621
O O15 0.374377 0.301224 0.205581
O O16 0.617335 0.583839 0.206656
O O17 0.922250 0.095473 0.442495
#
# Coordination Sequence:
#
# PCOD9057776 Si02
#       8
#     2   2   2   2   2   2   2   2
#     4  11  22  43  70  97 140 181 223 292 339 410
#     4  12  29  48  71 100 143 188 229 294 345 409
#     4  12  24  41  67 111 139 175 230 293 359 404
#     4  11  23  47  68  95 135 185 243 276 341 418
#     4  12  24  46  72 103 141 185 238 280 350 422
#     4  11  24  39  66 103 145 177 225 289 353 410
#     4  11  23  41  70  98 138 187 232 283 343 420
#     4  12  25  46  75 103 141 185 233 286 352 420
#
# _framework density 24.463194000000001
#
# number of rings (size 3 to 8) (size 9 to 14) (size 15 to 20)
#    0.000    0.500    5.000    3.750    5.250    0.500 
#    2.250    1.875    0.000    0.000    0.000    0.000 
#    0.000    0.000    0.000    0.000    0.000    0.000 
#
# Total GULP energy -89110.447433 kJ/mol
# GULP energy per Si atom -5569.402965 kJ/mol
# Density = 2.440751 g / cm^3
# Si number density = 24.463194 Si / 1000 Ang^3
#
#
#
# Elastic Constant Matrix: (Units=GPa)
#
#
# Indices 1 2 3 4 5 6 
#
# 1 118.1822 4.7948 39.3789 9.8083 -7.3466 2.0076
# 2 4.7948 70.5087 19.5695 15.4118 -2.8560 -16.2251
# 3 39.3789 19.5695 105.1684 16.4407 15.0028 -4.8160
# 4 9.8083 15.4118 16.4407 47.0213 -9.5186 -17.2304
# 5 -7.3466 -2.8560 15.0028 -9.5186 48.9554 1.4563
# 6 2.0076 -16.2251 -4.8160 -17.2304 1.4563 34.0922
#
#
#
# Elastic Compliance Matrix: (Units=1/GPa)
#
#
# Indices 1 2 3 4 5 6 
#
# 1 0.010101 0.000412 -0.004194 -0.000774 0.002719 -0.001499
# 2 0.000412 0.016956 -0.002900 -0.001934 0.001367 0.006600
# 3 -0.004194 -0.002900 0.013035 -0.004318 -0.005596 -0.001235
# 4 -0.000774 -0.001934 -0.004318 0.029748 0.006483 0.013273
# 5 0.002719 0.001367 -0.005596 0.006483 0.023832 0.001959
# 6 -0.001499 0.006600 -0.001235 0.013273 0.001959 0.039012
#
#
# Mechanical properties :
#
#
# Convention : Reuss Voigt Hill
#
# Bulk Modulus (GPa) = 37.41384 46.81622 42.11503
# Shear Modulus (GPa) = 32.26653 41.35484 36.81068
#
# Velocity S-wave (km/s) = 3.63572 4.11602 3.88330
# Velocity P-wave (km/s) = 5.74036 6.46280 6.11226
#
# Compressibility (1/GPa) = 0.02672808
#
# Stress axis : x y z
#
# Youngs Moduli (GPa) = 98.99857 58.97469 76.71402
#
# Poissons Ratio (x) = -0.02428 0.32177
# Poissons Ratio (y) = -0.04076 0.22245
# Poissons Ratio (z) = 0.41524 0.17101
#
# Static dielectric constant tensor:
#      x y z
#    x 2.042180 0.162000 0.007230 
#    y 0.162000 2.146740 -0.045480 
#    z 0.007230 -0.045480 1.990180 
# 
# From -- ./inp_files/351734.got.cif
#   From: 2010.05.17/outbox.cif.g08.bks.cpg/sg2_176_cif.got.tgz:351734.got - 2010.06.03 11:33:40.
