data_PCOD9057926
_publ_section_title
;
Structure prediction by ZEFSAII (Michael W. Deem and Ramdas Pophale) SiO2 
 PCOD9057926
Probable space group: P -1
;
_chemical_formula_sum "Si O2"
_cell_formula_units_Z 16
_cell_length_a 9.274965
_cell_length_b 9.839411
_cell_length_c 16.372440
_cell_angle_alpha 71.571642
_cell_angle_beta 41.026791
_cell_angle_gamma 49.142916
_cell_volume 692.837728
_symmetry_space_group_name_H-M "P -1"
_symmetry_group_IT_number 2
_symmetry_cell_setting 'triclinic'
loop_
_space_group_symop_operation_xyz
x,y,z
-x,-y,-z
loop_
_atom_site_type_symbol
_atom_site_label
_atom_site_fract_x
_atom_site_fract_y
_atom_site_fract_z
Si Si1 0.140244 0.523256 0.186642
Si Si2 0.341696 0.759743 0.087979
Si Si3 0.299044 0.871114 0.657944
Si Si4 0.662410 0.828434 0.032418
Si Si5 0.426508 0.209054 0.742892
Si Si6 0.134003 0.537839 0.363561
Si Si7 0.695674 0.947544 0.533884
Si Si8 0.354543 0.556162 0.759767
O O1 0.247159 0.637958 0.139236
O O2 0.051278 0.509226 0.317171
O O3 0.874866 0.652063 0.210203
O O4 0.425087 0.314113 0.071022
O O5 0.545500 0.718900 0.083827
O O6 0.036042 0.974392 0.194868
O O7 0.374424 0.901683 0.531521
O O8 0.381214 0.669357 0.659343
O O9 0.471004 0.910569 0.634233
O O10 0.602573 0.870661 0.146362
O O11 0.011529 0.681676 0.899947
O O12 0.500000 0.000000 0.000000
O O13 0.674603 0.028395 0.614974
O O14 0.484502 0.348957 0.714597
O O15 0.477573 0.429011 0.243201
O O16 0.000000 0.500000 0.500000
O O17 0.985789 0.754055 0.406977
#
# Coordination Sequence:
#
# PCOD9057926 Si02
#       8
#     2   2   2   2   2   2   2   2
#     4  11  24  43  76 109 137 191 248 293 351 437
#     4  11  22  43  75 102 144 189 237 297 364 422
#     4  11  22  46  75 102 148 195 234 302 359 425
#     4  12  27  48  71 106 150 187 235 306 371 426
#     4  12  27  46  76 109 145 193 243 301 361 430
#     4  12  26  47  72 103 148 194 236 296 359 430
#     4  11  24  47  72 103 145 192 249 292 357 432
#     4  12  27  45  74 108 146 192 239 299 370 420
#
# _framework density 23.093432
#
# number of rings (size 3 to 8) (size 9 to 14) (size 15 to 20)
#    0.000    0.500    6.250    1.875    3.500    2.000 
#    0.000    1.875    0.000    0.000    0.000    0.000 
#    0.000    0.000    0.000    0.000    0.000    0.000 
#
# Total GULP energy -89212.539692 kJ/mol
# GULP energy per Si atom -5575.783731 kJ/mol
# Density = 2.304087 g / cm^3
# Si number density = 23.093432 Si / 1000 Ang^3
#
#
#
# Elastic Constant Matrix: (Units=GPa)
#
#
# Indices 1 2 3 4 5 6 
#
# 1 116.8569 19.7496 45.0849 -9.0889 2.6432 -12.0479
# 2 19.7496 52.7853 29.9880 -18.0893 9.3322 3.5752
# 3 45.0849 29.9880 99.3858 9.3207 21.1805 -7.1985
# 4 -9.0889 -18.0893 9.3207 34.7332 -5.6660 -6.6348
# 5 2.6432 9.3322 21.1805 -5.6660 53.8044 4.2059
# 6 -12.0479 3.5752 -7.1985 -6.6348 4.2059 34.1695
#
#
#
# Elastic Compliance Matrix: (Units=1/GPa)
#
#
# Indices 1 2 3 4 5 6 
#
# 1 0.011663 0.000663 -0.006255 0.006121 0.002134 0.003651
# 2 0.000663 0.032704 -0.012566 0.020439 0.001555 -0.002058
# 3 -0.006255 -0.012566 0.019582 -0.014302 -0.006829 0.001298
# 4 0.006121 0.020439 -0.014302 0.046925 0.006308 0.005342
# 5 0.002134 0.001555 -0.006829 0.006308 0.021744 -0.002301
# 6 0.003651 -0.002058 0.001298 0.005342 -0.002301 0.032362
#
#
# Mechanical properties :
#
#
# Convention : Reuss Voigt Hill
#
# Bulk Modulus (GPa) = 36.18881 50.96367 43.57624
# Shear Modulus (GPa) = 23.75214 36.15512 29.95363
#
# Velocity S-wave (km/s) = 3.21054 3.96106 3.60538
# Velocity P-wave (km/s) = 5.42661 6.56021 6.02015
#
# Compressibility (1/GPa) = 0.02763285
#
# Stress axis : x y z
#
# Youngs Moduli (GPa) = 85.74115 30.57705 51.06803
#
# Poissons Ratio (x) = -0.02028 0.31944
# Poissons Ratio (y) = -0.05687 0.64173
# Poissons Ratio (z) = 0.53633 0.38423
#
# Static dielectric constant tensor:
#      x y z
#    x 1.909780 -0.095290 -0.003880 
#    y -0.095290 2.041140 -0.006350 
#    z -0.003880 -0.006350 1.873110 
# 
# From -- ./inp_files/500352.got.cif
#   From: 2010.05.17/outbox.cif.g08.bks.cpg/sg2_251_cif.got.tgz:500352.got - 2010.06.03 11:33:40.
