data_PCOD9057091
_publ_section_title
;
Structure prediction by ZEFSAII (Michael W. Deem and Ramdas Pophale) SiO2 
 PCOD9057091
Probable space group: P -1
;
_chemical_formula_sum "Si O2"
_cell_formula_units_Z 14
_cell_length_a 7.776273
_cell_length_b 13.371219
_cell_length_c 8.409013
_cell_angle_alpha 83.585460
_cell_angle_beta 51.834636
_cell_angle_gamma 70.265239
_cell_volume 641.493035
_symmetry_space_group_name_H-M "P -1"
_symmetry_group_IT_number 2
_symmetry_cell_setting 'triclinic'
loop_
_space_group_symop_operation_xyz
x,y,z
-x,-y,-z
loop_
_atom_site_type_symbol
_atom_site_label
_atom_site_fract_x
_atom_site_fract_y
_atom_site_fract_z
Si Si1 0.522714 0.887281 0.585202
Si Si2 0.544573 0.678313 0.105780
Si Si3 0.309068 0.608677 0.527523
Si Si4 0.880815 0.194574 0.191861
Si Si5 0.130337 0.295639 0.800303
Si Si6 0.369605 0.120496 0.108833
Si Si7 0.089965 0.478236 0.273012
O O1 0.261936 0.883320 0.743402
O O2 0.688336 0.789499 0.402562
O O3 0.628067 0.875400 0.703373
O O4 0.500000 0.000000 0.500000
O O5 0.353231 0.644298 0.318194
O O6 0.731297 0.670390 0.142100
O O7 0.504310 0.797729 0.042877
O O8 0.653328 0.595991 0.914292
O O9 0.500000 0.500000 0.500000
O O10 0.298364 0.704021 0.633815
O O11 0.066934 0.589298 0.687784
O O12 0.109792 0.152973 0.179194
O O13 0.966080 0.236010 0.977612
O O14 0.980142 0.406052 0.785979
O O15 0.500000 0.000000 0.000000
O O16 0.000000 0.500000 0.500000
#
# Coordination Sequence:
#
# PCOD9057091 Si02
#       7
#     2   2   2   2   2   2   2
#     4  12  26  47  72 103 137 180 240 293 346 420
#     4  11  22  42  67  95 139 179 227 286 342 409
#     4  12  22  40  71  98 136 185 226 277 351 412
#     4  11  25  46  72 101 139 186 231 284 362 406
#     4  11  22  41  69  99 136 180 228 286 345 416
#     4  11  26  47  71 102 141 181 237 292 345 419
#     4  12  24  39  65 102 139 177 228 283 344 414
#
# _framework density 21.824085
#
# number of rings (size 3 to 8) (size 9 to 14) (size 15 to 20)
#    0.000    0.571    5.714    3.857    0.000    4.571 
#    0.000    0.000    0.000    0.000    0.000    0.000 
#    0.000    0.000    0.000    0.000    0.000    0.000 
#
# Total GULP energy -78286.736144 kJ/mol
# GULP energy per Si atom -5591.909725 kJ/mol
# Density = 2.177441 g / cm^3
# Si number density = 21.824085 Si / 1000 Ang^3
#
#
#
# Elastic Constant Matrix: (Units=GPa)
#
#
# Indices 1 2 3 4 5 6 
#
# 1 44.0357 44.6183 37.0487 -21.8142 1.9531 8.7490
# 2 44.6183 157.0910 63.1163 -16.3523 -3.0018 -8.7133
# 3 37.0487 63.1163 153.3628 -12.4991 3.2430 2.4578
# 4 -21.8142 -16.3523 -12.4991 57.6121 7.7079 -0.8516
# 5 1.9531 -3.0018 3.2430 7.7079 38.8471 -7.3492
# 6 8.7490 -8.7133 2.4578 -0.8516 -7.3492 28.0237
#
#
#
# Elastic Compliance Matrix: (Units=1/GPa)
#
#
# Indices 1 2 3 4 5 6 
#
# 1 0.053417 -0.012568 -0.005803 0.016497 -0.010679 -0.022375
# 2 -0.012568 0.010981 -0.001894 -0.002425 0.003709 0.008403
# 3 -0.005803 -0.001894 0.008638 -0.000809 -0.000349 0.000349
# 4 0.016497 -0.002425 -0.000809 0.023566 -0.006937 -0.006937
# 5 -0.010679 0.003709 -0.000349 -0.006937 0.030289 0.012250
# 6 -0.022375 0.008403 0.000349 -0.006937 0.012250 0.048253
#
#
# Mechanical properties :
#
#
# Convention : Reuss Voigt Hill
#
# Bulk Modulus (GPa) = 30.76382 71.56181 51.16282
# Shear Modulus (GPa) = 22.07421 38.87700 30.47560
#
# Velocity S-wave (km/s) = 3.18380 4.22522 3.74093
# Velocity P-wave (km/s) = 5.25759 7.52760 6.49258
#
# Compressibility (1/GPa) = 0.03250572
#
# Stress axis : x y z
#
# Youngs Moduli (GPa) = 18.72061 91.06700 115.77367
#
# Poissons Ratio (x) = 1.14456 0.67182
# Poissons Ratio (y) = 0.23529 0.21924
# Poissons Ratio (z) = 0.10863 0.17246
#
# Static dielectric constant tensor:
#      x y z
#    x 1.798010 0.014050 -0.049620 
#    y 0.014050 1.770850 0.017720 
#    z -0.049620 0.017720 1.838520 
# 
# From -- ./inp_files/177146.got.cif
#   From: 2010.05.17/outbox.cif.g08.bks.cpg/sg2_89_cif.got.tgz:177146.got - 2010.06.03 11:33:40.
