data_PCOD9057035
_publ_section_title
;
Structure prediction by ZEFSAII (Michael W. Deem and Ramdas Pophale) SiO2 
 PCOD9057035
Probable space group: P -1
;
_chemical_formula_sum "Si O2"
_cell_formula_units_Z 15
_cell_length_a 8.933878
_cell_length_b 11.866753
_cell_length_c 10.422229
_cell_angle_alpha 57.438175
_cell_angle_beta 42.057053
_cell_angle_gamma 49.909342
_cell_volume 562.337445
_symmetry_space_group_name_H-M "P -1"
_symmetry_group_IT_number 2
_symmetry_cell_setting 'triclinic'
loop_
_space_group_symop_operation_xyz
x,y,z
-x,-y,-z
loop_
_atom_site_type_symbol
_atom_site_label
_atom_site_fract_x
_atom_site_fract_y
_atom_site_fract_z
Si Si1 0.994771 0.688012 0.902346
Si Si2 0.712240 0.839077 0.434852
Si Si3 0.480078 0.364717 0.421533
Si Si4 0.734244 0.949320 0.079163
Si Si5 0.715551 0.109761 0.642203
Si Si6 0.233855 0.772343 0.193761
Si Si7 0.500000 0.500000 0.000000
Si Si8 0.009196 0.469808 0.234050
O O1 0.291933 0.603142 0.781572
O O2 0.919127 0.672324 0.815949
O O3 0.901152 0.602383 0.115069
O O4 0.905516 0.851792 0.914461
O O5 0.601537 0.719574 0.583540
O O6 0.798601 0.850790 0.227349
O O7 0.953734 0.799966 0.387652
O O8 0.500000 0.000000 0.500000
O O9 0.611067 0.238600 0.523059
O O10 0.231867 0.498467 0.546447
O O11 0.456438 0.976286 0.207202
O O12 0.766536 0.097988 0.979596
O O13 0.665892 0.192633 0.759383
O O14 0.000000 0.000000 0.500000
O O15 0.368881 0.621792 0.123156
O O16 0.232330 0.484158 0.155450
#
# Coordination Sequence:
#
# PCOD9057035 Si02
#       8
#     2   2   2   2   2   2   1   2
#     4  11  22  43  79  97 131 185 231 285 336 408
#     4  11  22  41  68  97 140 176 226 290 339 415
#     4  11  23  45  67 102 135 182 233 274 349 409
#     4  11  22  43  67 101 127 182 241 275 349 400
#     4  11  23  41  67 102 141 171 233 301 336 399
#     4  12  24  41  69  97 139 184 222 290 348 404
#     4  12  26  44  66 100 146 182 218 290 352 406
#     4  11  24  46  68 100 142 178 231 280 338 420
#
# _framework density 26.674374
#
# number of rings (size 3 to 8) (size 9 to 14) (size 15 to 20)
#    0.000    0.800    4.000    5.200    1.867    2.133 
#    0.000    2.000    0.000    0.000    0.000    0.000 
#    0.000    0.000    0.000    0.000    0.000    0.000 
#
# Total GULP energy -83905.892568 kJ/mol
# GULP energy per Si atom -5593.726171 kJ/mol
# Density = 2.661366 g / cm^3
# Si number density = 26.674374 Si / 1000 Ang^3
#
#
#
# Elastic Constant Matrix: (Units=GPa)
#
#
# Indices 1 2 3 4 5 6 
#
# 1 109.9074 59.3219 40.0017 0.1089 -28.7285 14.9001
# 2 59.3219 109.6512 40.2360 31.3555 5.3717 19.6338
# 3 40.0017 40.2360 114.7768 34.3567 -25.8754 5.6343
# 4 0.1089 31.3555 34.3567 48.7611 -0.4638 -0.2525
# 5 -28.7285 5.3717 -25.8754 -0.4638 53.2966 -0.3083
# 6 14.9001 19.6338 5.6343 -0.2525 -0.3083 52.1801
#
#
#
# Elastic Compliance Matrix: (Units=1/GPa)
#
#
# Indices 1 2 3 4 5 6 
#
# 1 0.020440 -0.013512 -0.003205 0.011004 0.010917 -0.000289
# 2 -0.013512 0.021945 -0.001014 -0.013486 -0.010130 -0.004415
# 3 -0.003205 -0.001014 0.014126 -0.009246 0.005151 -0.000243
# 4 0.011004 -0.013486 -0.009246 0.035716 0.003131 0.003122
# 5 0.010917 -0.010130 0.005151 0.003131 0.028198 0.000320
# 6 -0.000289 -0.004415 -0.000243 0.003122 0.000320 0.020951
#
#
# Mechanical properties :
#
#
# Convention : Reuss Voigt Hill
#
# Bulk Modulus (GPa) = 47.50976 68.16161 57.83569
# Shear Modulus (GPa) = 27.19526 43.83263 35.51395
#
# Velocity S-wave (km/s) = 3.19647 4.05810 3.65278
# Velocity P-wave (km/s) = 5.61007 6.89683 6.28646
#
# Compressibility (1/GPa) = 0.02104831
#
# Stress axis : x y z
#
# Youngs Moduli (GPa) = 48.92365 45.56848 70.79152
#
# Poissons Ratio (x) = 0.61571 0.22692
# Poissons Ratio (y) = 0.66104 0.07180
# Poissons Ratio (z) = 0.15682 0.04622
#
# Static dielectric constant tensor:
#      x y z
#    x 2.130580 0.033870 0.179910 
#    y 0.033870 2.235330 0.274070 
#    z 0.179910 0.274070 2.623960 
# 
# From -- ./inp_files/389645.got.cif
#   From: 2010.05.17/outbox.cif.g08.bks.cpg/sg2_195_cif.got.tgz:389645.got - 2010.06.03 11:33:40.
