data_PCOD9057250
_publ_section_title
;
Structure prediction by ZEFSAII (Michael W. Deem and Ramdas Pophale) SiO2 
 PCOD9057250
Probable space group: P -1
;
_chemical_formula_sum "Si O2"
_cell_formula_units_Z 16
_cell_length_a 9.340201
_cell_length_b 12.338169
_cell_length_c 9.485911
_cell_angle_alpha 97.187980
_cell_angle_beta 133.839243
_cell_angle_gamma 86.013534
_cell_volume 782.063798
_symmetry_space_group_name_H-M "P -1"
_symmetry_group_IT_number 2
_symmetry_cell_setting 'triclinic'
loop_
_space_group_symop_operation_xyz
x,y,z
-x,-y,-z
loop_
_atom_site_type_symbol
_atom_site_label
_atom_site_fract_x
_atom_site_fract_y
_atom_site_fract_z
Si Si1 0.942106 0.912082 0.330947
Si Si2 0.005044 0.382419 0.057674
Si Si3 0.219504 0.713300 0.873865
Si Si4 0.335033 0.270587 0.771361
Si Si5 0.332493 0.250250 0.428250
Si Si6 0.961047 0.387827 0.535265
Si Si7 0.988595 0.073623 0.141242
Si Si8 0.218060 0.728461 0.367751
O O1 0.756428 0.843922 0.255308
O O2 0.115999 0.828944 0.394490
O O3 0.911073 0.986257 0.187162
O O4 0.000000 0.000000 0.500000
O O5 0.854777 0.381135 0.086617
O O6 0.916638 0.300031 0.865133
O O7 0.204651 0.334914 0.259019
O O8 0.000000 0.500000 0.000000
O O9 0.451748 0.709495 0.014639
O O10 0.107591 0.698098 0.647385
O O11 0.158399 0.824951 0.927459
O O12 0.344596 0.279649 0.608385
O O13 0.175053 0.354609 0.731223
O O14 0.555727 0.247476 0.519881
O O15 0.203270 0.136154 0.318045
O O16 0.807190 0.373310 0.556124
O O17 0.000000 0.500000 0.500000
O O18 0.000000 0.000000 0.000000
#
# Coordination Sequence:
#
# PCOD9057250 Si02
#       8
#     2   2   2   2   2   2   2   2
#     4  11  22  42  64  93 129 174 213 258 325 381
#     4  11  23  41  67  96 129 167 213 266 324 385
#     4  11  23  43  65  94 132 169 214 265 319 382
#     4  11  23  42  69  92 133 172 213 266 323 380
#     4  11  23  43  66  96 133 166 214 273 319 377
#     4  11  24  44  66  94 133 170 209 267 326 386
#     4  11  23  40  66  95 132 167 216 270 319 379
#     4  11  25  40  67  99 127 167 219 267 319 383
#
# _framework density 20.458687999999999
#
# number of rings (size 3 to 8) (size 9 to 14) (size 15 to 20)
#    0.000    1.000    5.000    3.000    0.000    7.000 
#    0.000    0.000    0.000    0.000    0.000    0.000 
#    0.000    0.000    0.000    0.000    0.000    0.000 
#
# Total GULP energy -89264.545756 kJ/mol
# GULP energy per Si atom -5579.034110 kJ/mol
# Density = 2.041212 g / cm^3
# Si number density = 20.458688 Si / 1000 Ang^3
#
#
#
# Elastic Constant Matrix: (Units=GPa)
#
#
# Indices 1 2 3 4 5 6 
#
# 1 121.7339 21.0797 35.6734 -8.4347 14.9614 20.6860
# 2 21.0797 80.8122 20.4971 -19.4354 4.9044 14.6980
# 3 35.6734 20.4971 63.9200 -6.9274 3.2284 -5.4998
# 4 -8.4347 -19.4354 -6.9274 24.4902 5.3020 -19.9461
# 5 14.9614 4.9044 3.2284 5.3020 51.1360 -2.3044
# 6 20.6860 14.6980 -5.4998 -19.9461 -2.3044 33.7621
#
#
#
# Elastic Compliance Matrix: (Units=1/GPa)
#
#
# Indices 1 2 3 4 5 6 
#
# 1 0.013649 -0.000604 -0.009996 -0.011700 -0.002850 -0.016835
# 2 -0.000604 0.016583 -0.003583 0.012107 -0.002463 -0.000448
# 3 -0.009996 -0.003583 0.026768 0.021234 0.000486 0.024623
# 4 -0.011700 0.012107 0.021234 0.111756 -0.007472 0.070871
# 5 -0.002850 -0.002463 0.000486 -0.007472 0.021367 -0.000058
# 6 -0.016835 -0.000448 0.024623 0.070871 -0.000058 0.086005
#
#
# Mechanical properties :
#
#
# Convention : Reuss Voigt Hill
#
# Bulk Modulus (GPa) = 34.92351 46.77407 40.84879
# Shear Modulus (GPa) = 15.92159 34.49206 25.20682
#
# Velocity S-wave (km/s) = 2.79271 4.11047 3.51391
# Velocity P-wave (km/s) = 5.24464 6.74094 6.03931
#
# Compressibility (1/GPa) = 0.02863401
#
# Stress axis : x y z
#
# Youngs Moduli (GPa) = 73.26613 60.30097 37.35847
#
# Poissons Ratio (x) = 0.03642 0.37345
# Poissons Ratio (y) = 0.04425 0.13385
# Poissons Ratio (z) = 0.73239 0.21605
#
# Static dielectric constant tensor:
#      x y z
#    x 1.672890 -0.012720 -0.024050 
#    y -0.012720 1.754680 -0.028790 
#    z -0.024050 -0.028790 1.728810 
# 
# From -- ./inp_files/188021.got.cif
#   From: 2010.05.17/outbox.cif.g08.bks.cpg/sg2_95_cif.got.tgz:188021.got - 2010.06.03 11:33:40.
