data_PCOD9057871
_publ_section_title
;
Structure prediction by ZEFSAII (Michael W. Deem and Ramdas Pophale) SiO2 
 PCOD9057871
Probable space group: P -1
;
_chemical_formula_sum "Si O2"
_cell_formula_units_Z 16
_cell_length_a 12.513432
_cell_length_b 19.317269
_cell_length_c 8.856195
_cell_angle_alpha 58.439947
_cell_angle_beta 128.235466
_cell_angle_gamma 151.895860
_cell_volume 790.651575
_symmetry_space_group_name_H-M "P -1"
_symmetry_group_IT_number 2
_symmetry_cell_setting 'triclinic'
loop_
_space_group_symop_operation_xyz
x,y,z
-x,-y,-z
loop_
_atom_site_type_symbol
_atom_site_label
_atom_site_fract_x
_atom_site_fract_y
_atom_site_fract_z
Si Si1 0.507060 0.418097 0.014299
Si Si2 0.011633 0.100886 0.859906
Si Si3 0.518983 0.098332 0.329099
Si Si4 0.710376 0.351160 0.394649
Si Si5 0.569898 0.822419 0.341569
Si Si6 0.886515 0.847980 0.460611
Si Si7 0.310989 0.840712 0.933687
Si Si8 0.268375 0.394165 0.298633
O O1 0.645740 0.406012 0.202434
O O2 0.500000 0.500000 0.000000
O O3 0.228713 0.250110 0.967925
O O4 0.611883 0.495161 0.855875
O O5 0.067472 0.148375 0.678989
O O6 0.759017 0.010883 0.796949
O O7 0.000000 0.000000 0.000000
O O8 0.648434 0.237197 0.376442
O O9 0.622129 0.136278 0.209419
O O10 0.500000 0.000000 0.500000
O O11 0.559995 0.271887 0.511054
O O12 0.000000 0.500000 0.500000
O O13 0.662150 0.800076 0.330590
O O14 0.386885 0.795746 0.136663
O O15 0.839633 0.990733 0.431498
O O16 0.802662 0.735578 0.628617
O O17 0.014995 0.711306 0.815961
O O18 0.500000 0.000000 0.000000
O O19 0.500000 0.500000 0.500000
#
# Coordination Sequence:
#
# PCOD9057871 Si02
#       8
#     2   2   2   2   2   2   2   2
#     4  12  28  45  74 107 143 191 239 300 369 431
#     4  12  23  46  74 104 143 186 249 297 360 438
#     4  12  27  45  76 105 145 196 242 301 365 436
#     4  12  27  50  69 106 152 190 243 304 367 436
#     4  11  23  44  74 103 141 182 241 299 363 428
#     4  11  22  43  73 102 138 189 236 300 359 430
#     4  12  26  44  72 109 142 189 247 301 364 438
#     4  12  26  46  69 100 147 185 239 297 363 438
#
# _framework density 20.236474000000001
#
# number of rings (size 3 to 8) (size 9 to 14) (size 15 to 20)
#    0.000    0.250    5.000    3.750    3.500    3.000 
#    0.000    1.875    0.000    0.000    0.000    0.000 
#    0.000    0.000    0.000    0.000    0.000    0.000 
#
# Total GULP energy -89132.040595 kJ/mol
# GULP energy per Si atom -5570.752537 kJ/mol
# Density = 2.019041 g / cm^3
# Si number density = 20.236474 Si / 1000 Ang^3
#
#
#
# Elastic Constant Matrix: (Units=GPa)
#
#
# Indices 1 2 3 4 5 6 
#
# 1 95.0445 57.9452 51.4351 16.2500 22.0584 16.5775
# 2 57.9452 163.3603 63.7183 10.0369 20.8556 19.0487
# 3 51.4351 63.7183 144.3635 -10.0008 30.4554 10.4599
# 4 16.2500 10.0369 -10.0008 50.8992 7.9574 8.5834
# 5 22.0584 20.8556 30.4554 7.9574 44.9039 -3.8939
# 6 16.5775 19.0487 10.4599 8.5834 -3.8939 28.1683
#
#
#
# Elastic Compliance Matrix: (Units=1/GPa)
#
#
# Indices 1 2 3 4 5 6 
#
# 1 0.017128 -0.003173 -0.003624 -0.003866 -0.004318 -0.006008
# 2 -0.003173 0.008669 -0.002254 -0.000424 -0.001141 -0.003187
# 3 -0.003624 -0.002254 0.010989 0.005134 -0.005778 -0.002787
# 4 -0.003866 -0.000424 0.005134 0.024248 -0.006343 -0.007610
# 5 -0.004318 -0.001141 -0.005778 -0.006343 0.030976 0.011673
# 6 -0.006008 -0.003187 -0.002787 -0.007610 0.011673 0.046159
#
#
# Mechanical properties :
#
#
# Convention : Reuss Voigt Hill
#
# Bulk Modulus (GPa) = 53.51550 83.21837 68.36694
# Shear Modulus (GPa) = 30.76954 40.10559 35.43757
#
# Velocity S-wave (km/s) = 3.90359 4.45662 4.18924
# Velocity P-wave (km/s) = 6.84250 8.22765 7.56684
#
# Compressibility (1/GPa) = 0.01868618
#
# Stress axis : x y z
#
# Youngs Moduli (GPa) = 58.38490 115.35194 90.99736
#
# Poissons Ratio (x) = 0.36596 0.32974
# Poissons Ratio (y) = 0.18523 0.20509
# Poissons Ratio (z) = 0.21157 0.25998
#
# Static dielectric constant tensor:
#      x y z
#    x 1.688380 -0.035860 -0.037910 
#    y -0.035860 1.723020 0.023220 
#    z -0.037910 0.023220 1.713650 
# 
# From -- ./inp_files/279241.got.cif
#   From: 2010.05.17/outbox.cif.g08.bks.cpg/sg2_140_cif.got.tgz:279241.got - 2010.06.03 11:33:40.
