data_PCOD9057654
_publ_section_title
;
Structure prediction by ZEFSAII (Michael W. Deem and Ramdas Pophale) SiO2 
 PCOD9057654
Probable space group: P -1
;
_chemical_formula_sum "Si O2"
_cell_formula_units_Z 16
_cell_length_a 8.851091
_cell_length_b 11.816645
_cell_length_c 8.375133
_cell_angle_alpha 93.908995
_cell_angle_beta 126.262050
_cell_angle_gamma 68.487032
_cell_volume 644.052088
_symmetry_space_group_name_H-M "P -1"
_symmetry_group_IT_number 2
_symmetry_cell_setting 'triclinic'
loop_
_space_group_symop_operation_xyz
x,y,z
-x,-y,-z
loop_
_atom_site_type_symbol
_atom_site_label
_atom_site_fract_x
_atom_site_fract_y
_atom_site_fract_z
Si Si1 0.334681 0.074634 0.273042
Si Si2 0.090235 0.481563 0.355640
Si Si3 0.646902 0.517339 0.961062
Si Si4 0.762955 0.267665 0.807300
Si Si5 0.174406 0.102282 0.856487
Si Si6 0.083524 0.876993 0.813820
Si Si7 0.417923 0.316396 0.333930
Si Si8 0.952939 0.713956 0.478620
O O1 0.332807 0.211019 0.278189
O O2 0.131049 0.068773 0.218704
O O3 0.500000 0.000000 0.500000
O O4 0.354104 0.044150 0.093711
O O5 0.156434 0.358525 0.495296
O O6 0.231986 0.439873 0.289248
O O7 0.109677 0.597015 0.465154
O O8 0.854439 0.517458 0.167063
O O9 0.714848 0.398300 0.875314
O O10 0.536344 0.646063 0.808143
O O11 0.500000 0.500000 0.000000
O O12 0.601052 0.282321 0.569724
O O13 0.984069 0.200348 0.852506
O O14 0.758161 0.184762 0.949176
O O15 0.187423 0.181647 0.721609
O O16 0.118698 0.987798 0.761715
O O17 0.059169 0.777576 0.668747
#
# Coordination Sequence:
#
# PCOD9057654 Si02
#       8
#     2   2   2   2   2   2   2   2
#     4  11  22  43  67  97 131 179 229 274 337 408
#     4  11  24  45  69  96 141 180 221 278 344 399
#     4  12  27  43  68 104 138 174 228 283 335 401
#     4  11  24  41  66 100 133 178 226 268 341 403
#     4  11  23  42  69  99 135 179 227 277 339 396
#     4  11  22  44  65  99 135 179 226 283 330 399
#     4  12  24  43  71  97 136 183 224 273 340 410
#     4  11  23  41  71  96 135 182 222 282 339 394
#
# _framework density 24.842711000000001
#
# number of rings (size 3 to 8) (size 9 to 14) (size 15 to 20)
#    0.000    0.750    2.500    6.375    5.250    0.000 
#    0.000    0.625    0.000    0.000    0.000    0.000 
#    0.000    0.000    0.000    0.000    0.000    0.000 
#
# Total GULP energy -89558.863327 kJ/mol
# GULP energy per Si atom -5597.428958 kJ/mol
# Density = 2.478617 g / cm^3
# Si number density = 24.842711 Si / 1000 Ang^3
#
#
#
# Elastic Constant Matrix: (Units=GPa)
#
#
# Indices 1 2 3 4 5 6 
#
# 1 44.4836 19.4803 26.6222 -21.0054 -8.1136 14.4936
# 2 19.4803 133.2791 34.9213 -9.3157 -28.5341 24.1076
# 3 26.6222 34.9213 164.3742 -18.8550 -10.8914 20.8198
# 4 -21.0054 -9.3157 -18.8550 42.1643 2.4149 -20.1633
# 5 -8.1136 -28.5341 -10.8914 2.4149 30.3832 -17.1969
# 6 14.4936 24.1076 20.8198 -20.1633 -17.1969 29.4833
#
#
#
# Elastic Compliance Matrix: (Units=1/GPa)
#
#
# Indices 1 2 3 4 5 6 
#
# 1 0.032703 -0.002032 -0.002934 0.014404 0.004803 0.000309
# 2 -0.002032 0.010040 -0.001074 -0.001322 0.006632 -0.003487
# 3 -0.002934 -0.001074 0.007138 -0.000111 -0.001205 -0.003499
# 4 0.014404 -0.001322 -0.000111 0.048074 0.020902 0.039148
# 5 0.004803 0.006632 -0.001205 0.020902 0.063442 0.044365
# 6 0.000309 -0.003487 -0.003499 0.039148 0.044365 0.091738
#
#
# Mechanical properties :
#
#
# Convention : Reuss Voigt Hill
#
# Bulk Modulus (GPa) = 26.45482 56.02049 41.23765
# Shear Modulus (GPa) = 17.99764 37.81371 27.90568
#
# Velocity S-wave (km/s) = 2.69451 3.90567 3.35519
# Velocity P-wave (km/s) = 4.51138 6.55272 5.62542
#
# Compressibility (1/GPa) = 0.03780030
#
# Stress axis : x y z
#
# Youngs Moduli (GPa) = 30.57855 99.60277 140.10349
#
# Poissons Ratio (x) = 0.20240 0.41099
# Poissons Ratio (y) = 0.06214 0.15052
# Poissons Ratio (z) = 0.08970 0.10701
#
# Static dielectric constant tensor:
#      x y z
#    x 2.068930 -0.082680 -0.083900 
#    y -0.082680 1.983020 0.000190 
#    z -0.083900 0.000190 2.051750 
# 
# From -- ./inp_files/187959.got.cif
#   From: 2010.05.17/outbox.cif.g08.bks.cpg/sg2_94_cif.got.tgz:187959.got - 2010.06.03 11:33:40.
