data_PCOD9057056
_publ_section_title
;
Structure prediction by ZEFSAII (Michael W. Deem and Ramdas Pophale) SiO2 
 PCOD9057056
Probable space group: P -1
;
_chemical_formula_sum "Si O2"
_cell_formula_units_Z 14
_cell_length_a 15.948684
_cell_length_b 9.310403
_cell_length_c 8.747813
_cell_angle_alpha 76.575572
_cell_angle_beta 58.056831
_cell_angle_gamma 36.171413
_cell_volume 599.252128
_symmetry_space_group_name_H-M "P -1"
_symmetry_group_IT_number 2
_symmetry_cell_setting 'triclinic'
loop_
_space_group_symop_operation_xyz
x,y,z
-x,-y,-z
loop_
_atom_site_type_symbol
_atom_site_label
_atom_site_fract_x
_atom_site_fract_y
_atom_site_fract_z
Si Si1 0.209153 0.023743 0.948911
Si Si2 0.331336 0.815352 0.555573
Si Si3 0.549404 0.787982 0.714298
Si Si4 0.529383 0.815816 0.211961
Si Si5 0.311166 0.583320 0.087771
Si Si6 0.936656 0.022158 0.389072
Si Si7 0.816430 0.477304 0.261401
O O1 0.213801 0.959246 0.786177
O O2 0.349858 0.982341 0.826286
O O3 0.281990 0.793292 0.034998
O O4 0.010163 0.311312 0.119875
O O5 0.500000 0.500000 0.500000
O O6 0.407992 0.881341 0.435201
O O7 0.213503 0.912855 0.500856
O O8 0.633883 0.535768 0.767184
O O9 0.671307 0.689385 0.480498
O O10 0.548820 0.924572 0.800090
O O11 0.716322 0.611487 0.165271
O O12 0.553712 0.665524 0.093297
O O13 0.120202 0.746218 0.204856
O O14 0.864002 0.248005 0.305178
O O15 0.000000 0.000000 0.500000
#
# Coordination Sequence:
#
# PCOD9057056 Si02
#       7
#     2   2   2   2   2   2   2
#     4  11  24  42  75 101 131 185 241 283 341 406
#     4  12  22  42  71 105 137 184 234 285 345 409
#     4  12  25  46  66 103 147 183 224 290 345 418
#     4  12  25  43  69  99 146 185 227 281 355 416
#     4  11  24  43  68  99 137 181 234 289 343 406
#     4  11  22  41  69 101 137 173 235 296 331 398
#     4  11  23  43  69 101 132 184 236 283 336 407
#
# _framework density 23.362452999999999
#
# number of rings (size 3 to 8) (size 9 to 14) (size 15 to 20)
#    0.000    0.571    5.714    2.143    0.000    5.143 
#    2.571    0.714    0.000    0.000    0.000    0.000 
#    0.000    0.000    0.000    0.000    0.000    0.000 
#
# Total GULP energy -78191.330168 kJ/mol
# GULP energy per Si atom -5585.095012 kJ/mol
# Density = 2.330928 g / cm^3
# Si number density = 23.362453 Si / 1000 Ang^3
#
#
#
# Elastic Constant Matrix: (Units=GPa)
#
#
# Indices 1 2 3 4 5 6 
#
# 1 96.7787 25.2515 34.9861 16.8244 -24.2261 2.2668
# 2 25.2515 51.1757 17.5910 -3.6033 -20.8758 -2.9785
# 3 34.9861 17.5910 118.4323 22.3694 -16.8317 2.1899
# 4 16.8244 -3.6033 22.3694 32.5737 -11.1267 -7.9770
# 5 -24.2261 -20.8758 -16.8317 -11.1267 39.7345 5.0380
# 6 2.2668 -2.9785 2.1899 -7.9770 5.0380 20.7672
#
#
#
# Elastic Compliance Matrix: (Units=1/GPa)
#
#
# Indices 1 2 3 4 5 6 
#
# 1 0.014892 -0.006186 -0.001368 -0.007633 0.003905 -0.006248
# 2 -0.006186 0.031651 -0.004073 0.016585 0.014705 0.008447
# 3 -0.001368 -0.004073 0.011169 -0.008631 -0.000036 -0.004919
# 4 -0.007633 0.016585 -0.008631 0.051727 0.012223 0.021026
# 5 0.003905 0.014705 -0.000036 0.012223 0.039074 -0.003097
# 6 -0.006248 0.008447 -0.004919 0.021026 -0.003097 0.059393
#
#
# Mechanical properties :
#
#
# Convention : Reuss Voigt Hill
#
# Bulk Modulus (GPa) = 29.02094 46.89375 37.95734
# Shear Modulus (GPa) = 20.60616 31.18562 25.89589
#
# Velocity S-wave (km/s) = 2.97310 3.65754 3.33294
# Velocity P-wave (km/s) = 4.92289 6.16057 5.57617
#
# Compressibility (1/GPa) = 0.03445788
#
# Stress axis : x y z
#
# Youngs Moduli (GPa) = 67.14871 31.59491 89.53550
#
# Poissons Ratio (x) = 0.19545 0.12252
# Poissons Ratio (y) = 0.41538 0.36464
# Poissons Ratio (z) = 0.09188 0.12867
#
# Static dielectric constant tensor:
#      x y z
#    x 1.851660 -0.029120 0.011830 
#    y -0.029120 1.876450 0.005670 
#    z 0.011830 0.005670 1.964220 
# 
# From -- ./inp_files/186007.got.cif
#   From: 2010.05.17/outbox.cif.g08.bks.cpg/sg2_94_cif.got.tgz:186007.got - 2010.06.03 11:33:40.
