data_PCOD9057511
_publ_section_title
;
Structure prediction by ZEFSAII (Michael W. Deem and Ramdas Pophale) SiO2 
 PCOD9057511
Probable space group: P -1
;
_chemical_formula_sum "Si O2"
_cell_formula_units_Z 14
_cell_length_a 16.974234
_cell_length_b 23.231097
_cell_length_c 11.749395
_cell_angle_alpha 26.985245
_cell_angle_beta 33.486363
_cell_angle_gamma 16.102742
_cell_volume 574.009292
_symmetry_space_group_name_H-M "P -1"
_symmetry_group_IT_number 2
_symmetry_cell_setting 'triclinic'
loop_
_space_group_symop_operation_xyz
x,y,z
-x,-y,-z
loop_
_atom_site_type_symbol
_atom_site_label
_atom_site_fract_x
_atom_site_fract_y
_atom_site_fract_z
Si Si1 0.729929 0.918564 0.414538
Si Si2 0.887758 0.482469 0.517741
Si Si3 0.910258 0.241525 0.341089
Si Si4 0.380875 0.727153 0.781572
Si Si5 0.806337 0.828311 0.074340
Si Si6 0.660973 0.244325 0.956325
Si Si7 0.830010 0.742704 0.843507
O O1 0.731501 0.907829 0.566712
O O2 0.022697 0.646678 0.482142
O O3 0.500000 0.000000 0.500000
O O4 0.646050 0.123890 0.120538
O O5 0.561143 0.699277 0.554299
O O6 0.922521 0.606033 0.270988
O O7 0.074812 0.269989 0.766245
O O8 0.978958 0.313570 0.208089
O O9 0.569061 0.486394 0.299877
O O10 0.056252 0.009692 0.636988
O O11 0.066770 0.156338 0.182216
O O12 0.444451 0.686589 0.909163
O O13 0.500000 0.500000 0.000000
O O14 0.457811 0.087215 0.046580
O O15 0.000000 0.000000 0.000000
O O16 0.000000 0.500000 0.000000
#
# Coordination Sequence:
#
# PCOD9057511 Si02
#       7
#     2   2   2   2   2   2   2
#     4  12  23  43  73 108 153 196 244 313 378 442
#     4  11  22  42  72 104 148 195 244 301 375 446
#     4  12  26  47  76 110 151 196 255 309 376 458
#     4  12  27  51  73 104 146 202 260 308 369 451
#     4  11  22  42  72 108 151 193 237 310 376 447
#     4  12  27  52  74 107 151 200 253 320 378 447
#     4  12  24  40  68 117 156 188 241 311 384 451
#
# _framework density 24.389849000000002
#
# number of rings (size 3 to 8) (size 9 to 14) (size 15 to 20)
#    0.000    0.286    5.714    3.857    2.000    1.143 
#    0.000    0.000    0.000    0.000    0.000    0.000 
#    0.000    0.000    0.000    0.000    0.000    0.000 
#
# Total GULP energy -78360.976942 kJ/mol
# GULP energy per Si atom -5597.212639 kJ/mol
# Density = 2.433434 g / cm^3
# Si number density = 24.389849 Si / 1000 Ang^3
#
#
#
# Elastic Constant Matrix: (Units=GPa)
#
#
# Indices 1 2 3 4 5 6 
#
# 1 83.2495 32.8860 25.4865 -13.7531 9.2265 1.2487
# 2 32.8860 89.4725 4.0617 -25.4982 10.3646 -8.4881
# 3 25.4865 4.0617 88.1893 -34.8581 5.8167 -8.4596
# 4 -13.7531 -25.4982 -34.8581 42.6942 1.6980 10.4040
# 5 9.2265 10.3646 5.8167 1.6980 45.7822 -11.4369
# 6 1.2487 -8.4881 -8.4596 10.4040 -11.4369 48.3209
#
#
#
# Elastic Compliance Matrix: (Units=1/GPa)
#
#
# Indices 1 2 3 4 5 6 
#
# 1 0.015990 -0.006363 -0.005409 -0.002435 -0.001586 -0.002329
# 2 -0.006363 0.017799 0.007000 0.014343 -0.004051 0.000470
# 3 -0.005409 0.007000 0.020461 0.019325 -0.003841 -0.000118
# 4 -0.002435 0.014343 0.019325 0.048942 -0.008682 -0.006627
# 5 -0.001586 -0.004051 -0.003841 -0.008682 0.025530 0.006569
# 6 -0.002329 0.000470 -0.000118 -0.006627 0.006569 0.023799
#
#
# Mechanical properties :
#
#
# Convention : Reuss Voigt Hill
#
# Bulk Modulus (GPa) = 22.36827 42.86443 32.61635
# Shear Modulus (GPa) = 28.25396 40.59126 34.42261
#
# Velocity S-wave (km/s) = 3.40727 4.08397 3.76087
# Velocity P-wave (km/s) = 4.96692 6.31279 5.67986
#
# Compressibility (1/GPa) = 0.04470619
#
# Stress axis : x y z
#
# Youngs Moduli (GPa) = 62.53876 56.18370 48.87430
#
# Poissons Ratio (x) = 0.35749 0.26438
# Poissons Ratio (y) = 0.39792 -0.34214
# Poissons Ratio (z) = 0.33829 -0.39331
#
# Static dielectric constant tensor:
#      x y z
#    x 1.917850 0.033930 -0.006370 
#    y 0.033930 2.152790 -0.084910 
#    z -0.006370 -0.084910 2.008110 
# 
# From -- ./inp_files/457610.got.cif
#   From: 2010.05.17/outbox.cif.g08.bks.cpg/sg2_229_cif.got.tgz:457610.got - 2010.06.03 11:33:40.
