data_PCOD9057704
_publ_section_title
;
Structure prediction by ZEFSAII (Michael W. Deem and Ramdas Pophale) SiO2 
 PCOD9057704
Probable space group: P -1
;
_chemical_formula_sum "Si O2"
_cell_formula_units_Z 14
_cell_length_a 12.141259
_cell_length_b 16.585753
_cell_length_c 13.809217
_cell_angle_alpha 153.584812
_cell_angle_beta 138.155906
_cell_angle_gamma 30.661285
_cell_volume 626.897958
_symmetry_space_group_name_H-M "P -1"
_symmetry_group_IT_number 2
_symmetry_cell_setting 'triclinic'
loop_
_space_group_symop_operation_xyz
x,y,z
-x,-y,-z
loop_
_atom_site_type_symbol
_atom_site_label
_atom_site_fract_x
_atom_site_fract_y
_atom_site_fract_z
Si Si1 0.114938 0.097975 0.718951
Si Si2 0.158931 0.095840 0.979175
Si Si3 0.392438 0.255115 0.415372
Si Si4 0.703597 0.562504 0.975802
Si Si5 0.601031 0.000241 0.468025
Si Si6 0.272536 0.701176 0.112808
Si Si7 0.780737 0.212151 0.148789
O O1 0.166739 0.077304 0.847287
O O2 0.353683 0.930653 0.649108
O O3 0.000000 0.000000 0.500000
O O4 0.926376 0.374208 0.860135
O O5 0.282946 0.174157 0.192907
O O6 0.904846 0.292977 0.049703
O O7 0.203760 0.872513 0.821704
O O8 0.000000 0.000000 0.000000
O O9 0.275554 0.533391 0.622911
O O10 0.413899 0.191335 0.474440
O O11 0.729151 0.739412 0.229497
O O12 0.722234 0.379578 0.863634
O O13 0.446573 0.729654 0.963532
O O14 0.500000 0.000000 0.500000
O O15 0.752577 0.066088 0.655240
O O16 0.500000 0.500000 0.000000
#
# Coordination Sequence:
#
# PCOD9057704 Si02
#       7
#     2   2   2   2   2   2   2
#     4  11  24  51  79  99 145 194 247 302 352 437
#     4  11  27  44  74 108 143 191 237 302 368 421
#     4  12  26  48  72 110 148 188 243 304 362 421
#     4  11  23  46  72 106 142 189 245 290 360 428
#     4  12  25  42  76 106 145 193 240 293 362 436
#     4  11  22  43  69 101 145 189 239 290 347 433
#     4  12  26  45  73 109 152 188 234 300 368 428
#
# _framework density 22.332184000000002
#
# number of rings (size 3 to 8) (size 9 to 14) (size 15 to 20)
#    0.000    0.571    5.714    2.143    0.000    5.143 
#    0.000    0.000    0.000    0.000    0.000    0.000 
#    0.000    0.000    0.000    0.000    0.000    0.000 
#
# Total GULP energy -77959.266035 kJ/mol
# GULP energy per Si atom -5568.519002 kJ/mol
# Density = 2.228136 g / cm^3
# Si number density = 22.332184 Si / 1000 Ang^3
#
#
#
# Elastic Constant Matrix: (Units=GPa)
#
#
# Indices 1 2 3 4 5 6 
#
# 1 101.6126 37.7989 34.5971 -5.4501 4.2900 -2.7583
# 2 37.7989 172.0704 64.8611 -13.9181 -5.0447 -25.9960
# 3 34.5971 64.8611 169.2891 -0.0192 8.3083 -21.3248
# 4 -5.4501 -13.9181 -0.0192 52.3511 -3.9905 -2.3150
# 5 4.2900 -5.0447 8.3083 -3.9905 26.5297 -9.1791
# 6 -2.7583 -25.9960 -21.3248 -2.3150 -9.1791 17.7362
#
#
#
# Elastic Compliance Matrix: (Units=1/GPa)
#
#
# Indices 1 2 3 4 5 6 
#
# 1 0.011614 -0.003105 -0.001893 -0.000284 -0.004469 -0.007371
# 2 -0.003105 0.010562 -0.001522 0.004097 0.010164 0.018963
# 3 -0.001893 -0.001522 0.007720 -0.000317 -0.000152 0.006638
# 4 -0.000284 0.004097 -0.000317 0.021381 0.008572 0.012807
# 5 -0.004469 0.010164 -0.000152 0.008572 0.057159 0.044721
# 6 -0.007371 0.018963 0.006638 0.012807 0.044721 0.115828
#
#
# Mechanical properties :
#
#
# Convention : Reuss Voigt Hill
#
# Bulk Modulus (GPa) = 59.32427 79.72072 69.52249
# Shear Modulus (GPa) = 20.58257 39.70437 30.14347
#
# Velocity S-wave (km/s) = 3.03917 4.22109 3.67792
# Velocity P-wave (km/s) = 6.24000 7.71570 7.01675
#
# Compressibility (1/GPa) = 0.01685651
#
# Stress axis : x y z
#
# Youngs Moduli (GPa) = 86.10025 94.68232 129.52532
#
# Poissons Ratio (x) = 0.29402 0.24520
# Poissons Ratio (y) = 0.26737 0.19708
# Poissons Ratio (z) = 0.16299 0.14407
#
# Static dielectric constant tensor:
#      x y z
#    x 1.941760 -0.021310 -0.095300 
#    y -0.021310 2.019390 0.112040 
#    z -0.095300 0.112040 1.854710 
# 
# From -- ./inp_files/596341.got.cif
#   From: 2010.05.17/outbox.cif.g08.bks.cpg/sg2_299_cif.got.tgz:596341.got - 2010.06.03 11:33:40.
