data_PCOD9057378
_publ_section_title
;
Structure prediction by ZEFSAII (Michael W. Deem and Ramdas Pophale) SiO2 
 PCOD9057378
Probable space group: P -1
;
_chemical_formula_sum "Si O2"
_cell_formula_units_Z 12
_cell_length_a 10.985530
_cell_length_b 13.451388
_cell_length_c 19.141116
_cell_angle_alpha 159.569860
_cell_angle_beta 33.001373
_cell_angle_gamma 146.797238
_cell_volume 518.179580
_symmetry_space_group_name_H-M "P -1"
_symmetry_group_IT_number 2
_symmetry_cell_setting 'triclinic'
loop_
_space_group_symop_operation_xyz
x,y,z
-x,-y,-z
loop_
_atom_site_type_symbol
_atom_site_label
_atom_site_fract_x
_atom_site_fract_y
_atom_site_fract_z
Si Si1 0.065625 0.191192 0.764184
Si Si2 0.318146 0.201382 0.216301
Si Si3 0.622895 0.643501 0.464728
Si Si4 0.386527 0.676167 0.392164
Si Si5 0.879487 0.271319 0.765016
Si Si6 0.568991 0.685216 0.163441
O O1 0.965021 0.100609 0.675911
O O2 0.337315 0.248321 0.675548
O O3 0.914832 0.971935 0.747914
O O4 0.000000 0.500000 0.000000
O O5 0.449173 0.480425 0.382275
O O6 0.279016 0.350901 0.261128
O O7 0.500000 0.000000 0.000000
O O8 0.500000 0.500000 0.500000
O O9 0.877132 0.586220 0.296403
O O10 0.674343 0.993137 0.655694
O O11 0.371510 0.650646 0.297341
O O12 0.325970 0.955451 0.644191
O O13 0.756655 0.529784 0.002673
O O14 0.500000 0.500000 0.000000
#
# Coordination Sequence:
#
# PCOD9057378 Si02
#       6
#     2   2   2   2   2   2
#     4  12  21  41  72 101 130 177 228 288 347 394
#     4  12  22  39  68 103 135 168 227 287 344 400
#     4  11  23  37  66 108 133 168 223 288 340 398
#     4  11  25  46  67 103 138 180 231 281 341 411
#     4  11  22  42  69 101 137 174 227 283 344 405
#     4  11  25  45  70  94 142 191 223 274 347 411
#
# _framework density 23.157997000000002
#
# number of rings (size 3 to 8) (size 9 to 14) (size 15 to 20)
#    0.000    0.667    6.667    1.000    2.333    0.000 
#    0.000    5.000    0.000    7.000    0.000    0.000 
#    0.000    0.000    0.000    0.000    0.000    0.000 
#
# Total GULP energy -66832.954251 kJ/mol
# GULP energy per Si atom -5569.412854 kJ/mol
# Density = 2.310529 g / cm^3
# Si number density = 23.157997 Si / 1000 Ang^3
#
#
#
# Elastic Constant Matrix: (Units=GPa)
#
#
# Indices 1 2 3 4 5 6 
#
# 1 85.4787 29.3509 23.1578 2.0551 16.1795 -15.3795
# 2 29.3509 174.7746 40.1805 7.3302 -2.8625 -24.7071
# 3 23.1578 40.1805 123.4958 6.9749 -15.8867 -3.6625
# 4 2.0551 7.3302 6.9749 29.4587 -0.1302 1.8587
# 5 16.1795 -2.8625 -15.8867 -0.1302 42.6227 2.8021
# 6 -15.3795 -24.7071 -3.6625 1.8587 2.8021 51.2260
#
#
#
# Elastic Compliance Matrix: (Units=1/GPa)
#
#
# Indices 1 2 3 4 5 6 
#
# 1 0.015152 -0.001338 -0.003210 -0.000254 -0.007307 0.004083
# 2 -0.001338 0.006813 -0.001792 -0.001354 0.000109 0.002799
# 3 -0.003210 -0.001792 0.009962 -0.001584 0.004894 -0.001326
# 4 -0.000254 -0.001354 -0.001584 0.034805 -0.000341 -0.002086
# 5 -0.007307 0.000109 0.004894 -0.000341 0.028285 -0.003326
# 6 0.004083 0.002799 -0.001326 -0.002086 -0.003326 0.022260
#
#
# Mechanical properties :
#
#
# Convention : Reuss Voigt Hill
#
# Bulk Modulus (GPa) = 51.96110 63.23639 57.59875
# Shear Modulus (GPa) = 36.66399 44.06548 40.36474
#
# Velocity S-wave (km/s) = 3.98327 4.36686 4.17947
# Velocity P-wave (km/s) = 6.60618 7.26580 6.94383
#
# Compressibility (1/GPa) = 0.01924517
#
# Stress axis : x y z
#
# Youngs Moduli (GPa) = 65.99784 146.78565 100.37960
#
# Poissons Ratio (x) = 0.19645 0.32226
# Poissons Ratio (y) = 0.08833 0.17989
# Poissons Ratio (z) = 0.21188 0.26305
#
# Static dielectric constant tensor:
#      x y z
#    x 2.715080 -0.070080 0.436010 
#    y -0.070080 1.888360 0.039410 
#    z 0.436010 0.039410 2.197280 
# 
# From -- ./inp_files/396494.got.cif
#   From: 2010.05.17/outbox.cif.g08.bks.cpg/sg2_199_cif.got.tgz:396494.got - 2010.06.03 11:33:40.
