data_PCOD9057918
_publ_section_title
;
Structure prediction by ZEFSAII (Michael W. Deem and Ramdas Pophale) SiO2 
 PCOD9057918
Probable space group: P -1
;
_chemical_formula_sum "Si O2"
_cell_formula_units_Z 16
_cell_length_a 10.964988
_cell_length_b 7.007916
_cell_length_c 8.757406
_cell_angle_alpha 84.677059
_cell_angle_beta 95.996118
_cell_angle_gamma 124.891574
_cell_volume 548.495199
_symmetry_space_group_name_H-M "P -1"
_symmetry_group_IT_number 2
_symmetry_cell_setting 'triclinic'
loop_
_space_group_symop_operation_xyz
x,y,z
-x,-y,-z
loop_
_atom_site_type_symbol
_atom_site_label
_atom_site_fract_x
_atom_site_fract_y
_atom_site_fract_z
Si Si1 0.403437 0.420475 0.746297
Si Si2 0.392974 0.825714 0.730814
Si Si3 0.284446 0.264955 0.408539
Si Si4 0.925835 0.659971 0.686233
Si Si5 0.068868 0.818970 0.357068
Si Si6 0.297725 0.774455 0.379981
Si Si7 0.354253 0.014186 0.962990
Si Si8 0.971024 0.197582 0.968742
O O1 0.382464 0.604918 0.810469
O O2 0.297717 0.281005 0.596263
O O3 0.559545 0.589932 0.670267
O O4 0.403072 0.262492 0.889042
O O5 0.559013 0.061207 0.718743
O O6 0.343024 0.768595 0.556979
O O7 0.286183 0.863491 0.810626
O O8 0.259364 0.493547 0.351236
O O9 0.258635 0.993923 0.392074
O O10 0.009786 0.755566 0.526957
O O11 0.894214 0.895014 0.669835
O O12 0.969226 0.669889 0.871441
O O13 0.963664 0.715966 0.199373
O O14 0.115589 0.620109 0.338868
O O15 0.500000 0.000000 0.000000
O O16 0.208195 0.910924 0.057618
O O17 0.000000 0.000000 0.000000
#
# Coordination Sequence:
#
# PCOD9057918 Si02
#       8
#     2   2   2   2   2   2   2   2
#     4  11  24  45  83 117 156 222 278 342 420 500
#     4  11  23  46  78 114 158 213 280 340 413 502
#     4  11  22  43  74 120 149 203 282 342 403 493
#     4  12  25  45  77 111 155 214 271 336 410 492
#     4  12  25  46  75 106 162 212 265 342 413 487
#     4  11  23  44  74 114 158 206 273 344 411 484
#     4  12  29  51  76 119 171 215 280 351 413 494
#     4  12  29  51  78 120 165 217 279 342 414 508
#
# _framework density 29.170722000000001
#
# number of rings (size 3 to 8) (size 9 to 14) (size 15 to 20)
#    0.000    0.500    3.750    4.500    5.250    1.000 
#    0.000    3.750    0.000    0.000    0.000    0.000 
#    0.000    0.000    0.000    0.000    0.000    0.000 
#
# Total GULP energy -89275.393077 kJ/mol
# GULP energy per Si atom -5579.712067 kJ/mol
# Density = 2.910433 g / cm^3
# Si number density = 29.170722 Si / 1000 Ang^3
#
#
#
# Elastic Constant Matrix: (Units=GPa)
#
#
# Indices 1 2 3 4 5 6 
#
# 1 93.1861 58.0540 41.4506 9.4691 4.6865 -10.5210
# 2 58.0540 231.0684 68.5025 4.0641 -2.5508 -21.8909
# 3 41.4506 68.5025 172.9974 20.1159 0.7248 18.1016
# 4 9.4691 4.0641 20.1159 62.4050 -18.4644 4.4200
# 5 4.6865 -2.5508 0.7248 -18.4644 52.7415 -2.1341
# 6 -10.5210 -21.8909 18.1016 4.4200 -2.1341 61.1850
#
#
#
# Elastic Compliance Matrix: (Units=1/GPa)
#
#
# Indices 1 2 3 4 5 6 
#
# 1 0.013913 -0.002587 -0.002310 -0.001921 -0.001912 0.002222
# 2 -0.002587 0.005770 -0.001986 0.000767 0.000893 0.002183
# 3 -0.002310 -0.001986 0.007701 -0.002018 -0.000835 -0.003269
# 4 -0.001921 0.000767 -0.002018 0.018988 0.006859 -0.000591
# 5 -0.001912 0.000893 -0.000835 0.006859 0.021606 0.000496
# 6 0.002222 0.002183 -0.003269 -0.000591 0.000496 0.018534
#
#
# Mechanical properties :
#
#
# Convention : Reuss Voigt Hill
#
# Bulk Modulus (GPa) = 73.44200 92.58511 83.01356
# Shear Modulus (GPa) = 47.70192 57.21595 52.45894
#
# Velocity S-wave (km/s) = 4.04823 4.43359 4.24529
# Velocity P-wave (km/s) = 6.86164 7.61689 7.24911
#
# Compressibility (1/GPa) = 0.01361619
#
# Stress axis : x y z
#
# Youngs Moduli (GPa) = 71.87493 173.31869 129.86030
#
# Poissons Ratio (x) = 0.44846 0.30000
# Poissons Ratio (y) = 0.18597 0.25790
# Poissons Ratio (z) = 0.16604 0.34421
#
# Static dielectric constant tensor:
#      x y z
#    x 2.469880 -0.355650 0.154260 
#    y -0.355650 2.971580 0.032840 
#    z 0.154260 0.032840 2.212720 
# 
# From -- ./inp_files/243061.got.cif
#   From: 2010.05.17/outbox.cif.g08.bks.cpg/sg2_122_cif.got.tgz:243061.got - 2010.06.03 11:33:40.
