data_PCOD9057456
_publ_section_title
;
Structure prediction by ZEFSAII (Michael W. Deem and Ramdas Pophale) SiO2 
 PCOD9057456
Probable space group: P -1
;
_chemical_formula_sum "Si O2"
_cell_formula_units_Z 16
_cell_length_a 9.896282
_cell_length_b 14.168257
_cell_length_c 8.778244
_cell_angle_alpha 49.683877
_cell_angle_beta 120.425340
_cell_angle_gamma 99.480274
_cell_volume 784.001774
_symmetry_space_group_name_H-M "P -1"
_symmetry_group_IT_number 2
_symmetry_cell_setting 'triclinic'
loop_
_space_group_symop_operation_xyz
x,y,z
-x,-y,-z
loop_
_atom_site_type_symbol
_atom_site_label
_atom_site_fract_x
_atom_site_fract_y
_atom_site_fract_z
Si Si1 0.084418 0.618452 0.413045
Si Si2 0.337764 0.469137 0.506839
Si Si3 0.824307 0.593364 0.809647
Si Si4 0.465817 0.021382 0.135090
Si Si5 0.324134 0.575912 0.876016
Si Si6 0.711153 0.833051 0.690379
Si Si7 0.120488 0.088329 0.023074
Si Si8 0.515987 0.734691 0.948819
O O1 0.200018 0.591620 0.357577
O O2 0.196708 0.606774 0.636980
O O3 0.000000 0.500000 0.500000
O O4 0.966071 0.759839 0.198681
O O5 0.500000 0.500000 0.500000
O O6 0.258491 0.392437 0.418151
O O7 0.386647 0.384991 0.773334
O O8 0.724463 0.514324 0.933363
O O9 0.820327 0.723156 0.762042
O O10 0.000000 0.500000 0.000000
O O11 0.572553 0.912634 0.417894
O O12 0.277502 0.046972 0.047105
O O13 0.518318 0.147732 0.080990
O O14 0.500000 0.000000 0.000000
O O15 0.500000 0.500000 0.000000
O O16 0.353137 0.704515 0.828439
O O17 0.806505 0.917672 0.755756
O O18 0.622327 0.766184 0.837502
O O19 0.000000 0.000000 0.000000
#
# Coordination Sequence:
#
# PCOD9057456 Si02
#       8
#     2   2   2   2   2   2   2   2
#     4  12  25  43  68  97 142 181 228 282 348 411
#     4  12  23  40  66 104 137 176 225 288 332 402
#     4  12  24  40  64 103 142 168 215 289 355 385
#     4  11  26  48  73  97 132 181 232 286 337 410
#     4  12  22  41  68  97 129 183 227 270 330 421
#     4  11  24  46  73  93 136 186 230 269 336 429
#     4  11  26  45  69 103 137 182 230 282 349 412
#     4  11  22  42  70  98 127 174 241 265 330 404
#
# _framework density 20.408118000000002
#
# number of rings (size 3 to 8) (size 9 to 14) (size 15 to 20)
#    0.000    0.500    3.750    6.000    3.500    2.000 
#    2.250    0.625    0.000    0.000    0.000    0.000 
#    0.000    0.000    0.000    0.000    0.000    0.000 
#
# Total GULP energy -89430.299480 kJ/mol
# GULP energy per Si atom -5589.393718 kJ/mol
# Density = 2.036167 g / cm^3
# Si number density = 20.408118 Si / 1000 Ang^3
#
#
#
# Elastic Constant Matrix: (Units=GPa)
#
#
# Indices 1 2 3 4 5 6 
#
# 1 108.1633 70.8126 58.9273 2.5420 18.4991 -6.6385
# 2 70.8126 167.5979 54.7147 22.4511 13.0002 -8.2190
# 3 58.9273 54.7147 137.1317 13.8957 1.6185 -13.2124
# 4 2.5420 22.4511 13.8957 51.6695 -2.8697 6.8383
# 5 18.4991 13.0002 1.6185 -2.8697 27.5554 2.6462
# 6 -6.6385 -8.2190 -13.2124 6.8383 2.6462 40.3611
#
#
#
# Elastic Compliance Matrix: (Units=1/GPa)
#
#
# Indices 1 2 3 4 5 6 
#
# 1 0.016837 -0.005016 -0.005353 0.002304 -0.008398 0.000156
# 2 -0.005016 0.009064 -0.000931 -0.003708 -0.001378 0.001435
# 3 -0.005353 -0.000931 0.010407 -0.002303 0.002938 0.002534
# 4 0.002304 -0.003708 -0.002303 0.022323 0.003154 -0.005119
# 5 -0.008398 -0.001378 0.002938 0.003154 0.043124 -0.004062
# 6 0.000156 0.001435 0.002534 -0.005119 -0.004062 0.027057
#
#
# Mechanical properties :
#
#
# Convention : Reuss Voigt Hill
#
# Bulk Modulus (GPa) = 72.95011 86.86690 79.90851
# Shear Modulus (GPa) = 32.05502 39.14643 35.60073
#
# Velocity S-wave (km/s) = 3.96750 4.38445 4.18118
# Velocity P-wave (km/s) = 7.53733 8.26369 7.90885
#
# Compressibility (1/GPa) = 0.01370800
#
# Stress axis : x y z
#
# Youngs Moduli (GPa) = 59.39238 110.32991 96.09062
#
# Poissons Ratio (x) = 0.55341 0.51439
# Poissons Ratio (y) = 0.29791 0.08944
# Poissons Ratio (z) = 0.31794 0.10269
#
# Static dielectric constant tensor:
#      x y z
#    x 1.731700 0.014510 0.057970 
#    y 0.014510 1.812180 0.041510 
#    z 0.057970 0.041510 1.858750 
# 
# From -- ./inp_files/196299.got.cif
#   From: 2010.05.17/outbox.cif.g08.bks.cpg/sg2_99_cif.got.tgz:196299.got - 2010.06.03 11:33:40.
