data_PCOD9057551
_publ_section_title
;
Structure prediction by ZEFSAII (Michael W. Deem and Ramdas Pophale) SiO2 
 PCOD9057551
Probable space group: P -1
;
_chemical_formula_sum "Si O2"
_cell_formula_units_Z 16
_cell_length_a 22.128973
_cell_length_b 20.054780
_cell_length_c 5.938759
_cell_angle_alpha 53.365923
_cell_angle_beta 63.294861
_cell_angle_gamma 19.819877
_cell_volume 653.583634
_symmetry_space_group_name_H-M "P -1"
_symmetry_group_IT_number 2
_symmetry_cell_setting 'triclinic'
loop_
_space_group_symop_operation_xyz
x,y,z
-x,-y,-z
loop_
_atom_site_type_symbol
_atom_site_label
_atom_site_fract_x
_atom_site_fract_y
_atom_site_fract_z
Si Si1 0.423612 0.558479 0.761583
Si Si2 0.328080 0.494165 0.198792
Si Si3 0.903560 0.807584 0.286468
Si Si4 0.631134 0.007774 0.634616
Si Si5 0.023898 0.388089 0.817797
Si Si6 0.636917 0.821690 0.840393
Si Si7 0.941871 0.915389 0.755330
Si Si8 0.207063 0.535888 0.680494
O O1 0.500000 0.500000 0.500000
O O2 0.201352 0.847727 0.556867
O O3 0.500000 0.500000 0.000000
O O4 0.440123 0.440295 0.005844
O O5 0.316888 0.491221 0.491101
O O6 0.430895 0.289009 0.373573
O O7 0.104142 0.761345 0.965173
O O8 0.763867 0.897311 0.438371
O O9 0.031163 0.616534 0.265094
O O10 0.042647 0.687458 0.482141
O O11 0.815255 0.988447 0.939189
O O12 0.597029 0.947920 0.812057
O O13 0.764365 0.871824 0.905946
O O14 0.000000 0.500000 0.500000
O O15 0.866005 0.572440 0.906660
O O16 0.500000 0.000000 0.500000
O O17 0.639824 0.717584 0.057949
O O18 0.077090 0.717350 0.738294
#
# Coordination Sequence:
#
# PCOD9057551 Si02
#       8
#     2   2   2   2   2   2   2   2
#     4  12  31  54  86 120 154 198 258 320 389 470
#     4  11  29  47  75 110 150 200 249 314 389 458
#     4  11  22  42  73  98 143 188 254 301 379 432
#     4  12  25  44  70 101 147 197 255 307 367 447
#     4  12  24  41  65  98 138 198 247 315 365 437
#     4  12  25  42  65 103 147 195 255 305 373 443
#     4  11  25  49  79 106 152 194 246 313 385 459
#     4  11  25  45  72 107 148 197 249 311 380 453
#
# _framework density 24.480416999999999
#
# number of rings (size 3 to 8) (size 9 to 14) (size 15 to 20)
#    0.000    0.500    3.750    3.000   12.250    2.000 
#    0.000    0.000    0.000    0.000    0.000    0.000 
#    0.000    0.000    0.000    0.000    0.000    0.000 
#
# Total GULP energy -89205.568361 kJ/mol
# GULP energy per Si atom -5575.348023 kJ/mol
# Density = 2.442470 g / cm^3
# Si number density = 24.480417 Si / 1000 Ang^3
#
#
#
# Elastic Constant Matrix: (Units=GPa)
#
#
# Indices 1 2 3 4 5 6 
#
# 1 53.6614 7.4730 35.7638 16.6659 -17.7876 -3.8597
# 2 7.4730 89.2237 49.2951 0.2960 -20.8072 -5.9174
# 3 35.7638 49.2951 145.2595 4.1557 -30.7609 -3.5615
# 4 16.6659 0.2960 4.1557 48.4674 -17.5158 -3.2537
# 5 -17.7876 -20.8072 -30.7609 -17.5158 47.8970 1.7462
# 6 -3.8597 -5.9174 -3.5615 -3.2537 1.7462 29.2234
#
#
#
# Elastic Compliance Matrix: (Units=1/GPa)
#
#
# Indices 1 2 3 4 5 6 
#
# 1 0.025999 0.002313 -0.006045 -0.006763 0.004226 0.002160
# 2 0.002313 0.014820 -0.004561 0.001412 0.004789 0.002622
# 3 -0.006045 -0.004561 0.010576 0.002428 0.003467 -0.000370
# 4 -0.006763 0.001412 0.002428 0.026191 0.009164 0.002057
# 5 0.004226 0.004789 0.003467 0.009164 0.030063 0.001174
# 6 0.002160 0.002622 -0.000370 0.002057 0.001174 0.035149
#
#
# Mechanical properties :
#
#
# Convention : Reuss Voigt Hill
#
# Bulk Modulus (GPa) = 28.72757 52.57871 40.65314
# Shear Modulus (GPa) = 29.24234 38.15841 33.70038
#
# Velocity S-wave (km/s) = 3.45993 3.95236 3.71432
# Velocity P-wave (km/s) = 5.26516 6.50790 5.91923
#
# Compressibility (1/GPa) = 0.03480977
#
# Stress axis : x y z
#
# Youngs Moduli (GPa) = 38.46373 67.47776 94.55395
#
# Poissons Ratio (x) = -0.15609 0.57155
# Poissons Ratio (y) = -0.08898 0.43124
# Poissons Ratio (z) = 0.23250 0.30775
#
# Static dielectric constant tensor:
#      x y z
#    x 2.029230 0.020920 0.015040 
#    y 0.020920 2.013850 0.111290 
#    z 0.015040 0.111290 2.072840 
# 
# From -- ./inp_files/107322.got.cif
#   From: 2010.05.17/outbox.cif.g08.bks.cpg/sg2_54_cif.got.tgz:107322.got - 2010.06.03 11:33:40.
