data_PCOD9057451
_publ_section_title
;
Structure prediction by ZEFSAII (Michael W. Deem and Ramdas Pophale) SiO2 
 PCOD9057451
Probable space group: P -1
;
_chemical_formula_sum "Si O2"
_cell_formula_units_Z 14
_cell_length_a 9.101153
_cell_length_b 9.028657
_cell_length_c 12.410657
_cell_angle_alpha 64.251060
_cell_angle_beta 115.564925
_cell_angle_gamma 72.941075
_cell_volume 667.950478
_symmetry_space_group_name_H-M "P -1"
_symmetry_group_IT_number 2
_symmetry_cell_setting 'triclinic'
loop_
_space_group_symop_operation_xyz
x,y,z
-x,-y,-z
loop_
_atom_site_type_symbol
_atom_site_label
_atom_site_fract_x
_atom_site_fract_y
_atom_site_fract_z
Si Si1 0.972737 0.153674 0.851916
Si Si2 0.307493 0.266135 0.606689
Si Si3 0.871918 0.123362 0.596181
Si Si4 0.537226 0.431178 0.690773
Si Si5 0.879171 0.608920 0.254649
Si Si6 0.387115 0.538326 0.840799
Si Si7 0.213377 0.002030 0.586277
O O1 0.967150 0.067672 0.761166
O O2 0.751971 0.361286 0.741089
O O3 0.121206 0.221055 0.866515
O O4 0.000000 0.000000 0.000000
O O5 0.483004 0.294634 0.656039
O O6 0.237858 0.295950 0.699559
O O7 0.110407 0.436739 0.420694
O O8 0.366334 0.054058 0.646369
O O9 0.654026 0.338750 0.466398
O O10 0.845423 0.973675 0.565586
O O11 0.020568 0.141764 0.559966
O O12 0.532324 0.412505 0.824570
O O13 0.773787 0.515679 0.193563
O O14 0.291432 0.773921 0.710692
O O15 0.500000 0.500000 0.000000
#
# Coordination Sequence:
#
# PCOD9057451 Si02
#       7
#     2   2   2   2   2   2   2
#     4  12  25  39  61  92 135 168 200 245 320 384
#     4  10  17  36  68  95 111 151 226 265 287 349
#     4  10  19  38  62  88 121 161 211 252 302 355
#     4  10  22  39  64  92 122 167 205 257 304 365
#     4  10  20  38  63  91 118 165 209 255 304 364
#     4  10  23  39  64  90 128 161 205 260 315 364
#     4  10  19  35  68  94 114 155 216 268 299 345
#
# _framework density 20.959638000000002
#
# number of rings (size 3 to 8) (size 9 to 14) (size 15 to 20)
#    0.000    1.714    2.857    3.857    2.000    1.143 
#    0.000    4.286    6.286    0.000    0.000    0.000 
#    0.000    0.000    0.000    0.000    0.000    0.000 
#
# Total GULP energy -78115.821356 kJ/mol
# GULP energy per Si atom -5579.701525 kJ/mol
# Density = 2.091193 g / cm^3
# Si number density = 20.959638 Si / 1000 Ang^3
#
#
#
# Elastic Constant Matrix: (Units=GPa)
#
#
# Indices 1 2 3 4 5 6 
#
# 1 83.0001 40.9806 22.2012 8.4808 -14.6742 14.0813
# 2 40.9806 118.6780 46.1923 23.8953 -5.7134 30.1166
# 3 22.2012 46.1923 90.0182 29.1501 -22.2794 13.9895
# 4 8.4808 23.8953 29.1501 37.0306 3.9851 5.6230
# 5 -14.6742 -5.7134 -22.2794 3.9851 24.7467 -0.8932
# 6 14.0813 30.1166 13.9895 5.6230 -0.8932 34.2342
#
#
#
# Elastic Compliance Matrix: (Units=1/GPa)
#
#
# Indices 1 2 3 4 5 6 
#
# 1 0.016642 -0.004838 0.003121 -0.004010 0.012103 -0.002890
# 2 -0.004838 0.014543 -0.005157 -0.002507 -0.004053 -0.008390
# 3 0.003121 -0.005157 0.027876 -0.021894 0.029147 -0.003782
# 4 -0.004010 -0.002507 -0.021894 0.049467 -0.030493 0.003881
# 5 0.012103 -0.004053 0.029147 -0.030493 0.077574 -0.006291
# 6 -0.002890 -0.008390 -0.003782 0.003881 -0.006291 0.038525
#
#
# Mechanical properties :
#
#
# Convention : Reuss Voigt Hill
#
# Bulk Modulus (GPa) = 22.06821 56.71607 39.39214
# Shear Modulus (GPa) = 19.72555 31.35714 25.54134
#
# Velocity S-wave (km/s) = 3.07110 3.87211 3.49463
# Velocity P-wave (km/s) = 4.80908 6.86362 5.92607
#
# Compressibility (1/GPa) = 0.04531406
#
# Stress axis : x y z
#
# Youngs Moduli (GPa) = 60.08971 68.76329 35.87256
#
# Poissons Ratio (x) = 0.33267 -0.11197
# Poissons Ratio (y) = 0.29071 0.18499
# Poissons Ratio (z) = -0.18756 0.35460
#
# Static dielectric constant tensor:
#      x y z
#    x 1.761760 0.009550 0.000290 
#    y 0.009550 1.791030 -0.022020 
#    z 0.000290 -0.022020 1.827580 
# 
# From -- ./inp_files/209472.got.cif
#   From: 2010.05.17/outbox.cif.g08.bks.cpg/sg2_105_cif.got.tgz:209472.got - 2010.06.03 11:33:40.
