data_PCOD9057659
_publ_section_title
;
Structure prediction by ZEFSAII (Michael W. Deem and Ramdas Pophale) SiO2 
 PCOD9057659
Probable space group: P -1
;
_chemical_formula_sum "Si O2"
_cell_formula_units_Z 14
_cell_length_a 15.916466
_cell_length_b 14.413164
_cell_length_c 7.971386
_cell_angle_alpha 136.527715
_cell_angle_beta 45.848403
_cell_angle_gamma 152.890465
_cell_volume 565.817298
_symmetry_space_group_name_H-M "P -1"
_symmetry_group_IT_number 2
_symmetry_cell_setting 'triclinic'
loop_
_space_group_symop_operation_xyz
x,y,z
-x,-y,-z
loop_
_atom_site_type_symbol
_atom_site_label
_atom_site_fract_x
_atom_site_fract_y
_atom_site_fract_z
Si Si1 0.937012 0.580147 0.598620
Si Si2 0.582997 0.129125 0.378621
Si Si3 0.648836 0.905090 0.855957
Si Si4 0.664059 0.547036 0.392290
Si Si5 0.703800 0.709870 0.903343
Si Si6 0.019373 0.905839 0.144855
Si Si7 0.252234 0.996118 0.520853
O O1 0.732482 0.374355 0.543440
O O2 0.000000 0.500000 0.500000
O O3 0.074322 0.743247 0.472675
O O4 0.948571 0.716470 0.886028
O O5 0.500000 0.000000 0.500000
O O6 0.426419 0.052606 0.381861
O O7 0.674871 0.084044 0.100118
O O8 0.427744 0.672315 0.843215
O O9 0.734252 0.944104 0.609722
O O10 0.768832 0.933446 0.867654
O O11 0.500000 0.500000 0.500000
O O12 0.666901 0.569436 0.615747
O O13 0.861820 0.765925 0.323518
O O14 0.500000 0.500000 0.000000
O O15 0.932672 0.922844 0.811653
O O16 0.729258 0.873719 0.191962
#
# Coordination Sequence:
#
# PCOD9057659 Si02
#       7
#     2   2   2   2   2   2   2
#     4  11  22  43  67  98 135 179 225 281 349 410
#     4  12  23  42  71  97 136 179 227 285 344 411
#     4  12  25  44  68 101 142 182 232 282 348 420
#     4  12  26  44  73 101 137 187 234 286 347 411
#     4  11  23  48  69 101 140 178 235 285 345 410
#     4  11  25  45  72 103 139 184 234 281 352 414
#     4  11  26  43  67 105 135 181 232 284 347 409
#
# _framework density 24.74297
#
# number of rings (size 3 to 8) (size 9 to 14) (size 15 to 20)
#    0.000    0.571    5.714    2.571    2.000    1.714 
#    0.000    1.429    0.000    0.000    0.000    0.000 
#    0.000    0.000    0.000    0.000    0.000    0.000 
#
# Total GULP energy -77934.302763 kJ/mol
# GULP energy per Si atom -5566.735912 kJ/mol
# Density = 2.468665 g / cm^3
# Si number density = 24.742970 Si / 1000 Ang^3
#
#
#
# Elastic Constant Matrix: (Units=GPa)
#
#
# Indices 1 2 3 4 5 6 
#
# 1 58.5562 7.0915 7.1205 9.4443 19.7848 7.8350
# 2 7.0915 231.0917 39.1295 -2.3431 23.3056 3.0693
# 3 7.1205 39.1295 115.0882 4.2047 22.3587 9.2803
# 4 9.4443 -2.3431 4.2047 54.5010 -0.3592 4.2910
# 5 19.7848 23.3056 22.3587 -0.3592 29.1116 -2.0553
# 6 7.8350 3.0693 9.2803 4.2910 -2.0553 25.6500
#
#
#
# Elastic Compliance Matrix: (Units=1/GPa)
#
#
# Indices 1 2 3 4 5 6 
#
# 1 0.025897 0.000930 0.003256 -0.004034 -0.021619 -0.010257
# 2 0.000930 0.004855 -0.000885 0.000160 -0.003899 -0.000884
# 3 0.003256 -0.000885 0.011352 -0.001102 -0.010636 -0.005664
# 4 -0.004034 0.000160 -0.001102 0.019267 0.003604 -0.001323
# 5 -0.021619 -0.003899 -0.010636 0.003604 0.061454 0.015240
# 6 -0.010257 -0.000884 -0.005664 -0.001323 0.015240 0.045717
#
#
# Mechanical properties :
#
#
# Convention : Reuss Voigt Hill
#
# Bulk Modulus (GPa) = 20.53200 56.82433 38.67817
# Shear Modulus (GPa) = 28.06221 45.27883 36.67052
#
# Velocity S-wave (km/s) = 3.37137 4.28245 3.85393
# Velocity P-wave (km/s) = 4.84468 6.88972 5.95564
#
# Compressibility (1/GPa) = 0.04870445
#
# Stress axis : x y z
#
# Youngs Moduli (GPa) = 38.61510 205.96227 88.09124
#
# Poissons Ratio (x) = -0.19145 -0.28684
# Poissons Ratio (y) = -0.03589 0.07799
# Poissons Ratio (z) = -0.12574 0.18235
#
# Static dielectric constant tensor:
#      x y z
#    x 2.062560 -0.048950 0.018330 
#    y -0.048950 2.060180 -0.031910 
#    z 0.018330 -0.031910 1.992490 
# 
# From -- ./inp_files/313205.got.cif
#   From: 2010.05.17/outbox.cif.g08.bks.cpg/sg2_157_cif.got.tgz:313205.got - 2010.06.03 11:33:40.
