data_PCOD9057746
_publ_section_title
;
Structure prediction by ZEFSAII (Michael W. Deem and Ramdas Pophale) SiO2 
 PCOD9057746
Probable space group: P -1
;
_chemical_formula_sum "Si O2"
_cell_formula_units_Z 15
_cell_length_a 9.639494
_cell_length_b 5.232416
_cell_length_c 12.732240
_cell_angle_alpha 62.331694
_cell_angle_beta 77.768911
_cell_angle_gamma 78.373397
_cell_volume 551.881202
_symmetry_space_group_name_H-M "P -1"
_symmetry_group_IT_number 2
_symmetry_cell_setting 'triclinic'
loop_
_space_group_symop_operation_xyz
x,y,z
-x,-y,-z
loop_
_atom_site_type_symbol
_atom_site_label
_atom_site_fract_x
_atom_site_fract_y
_atom_site_fract_z
Si Si1 0.817822 0.304741 0.386951
Si Si2 0.720787 0.556679 0.808285
Si Si3 0.442385 0.332110 0.921167
Si Si4 0.369466 0.069748 0.428307
Si Si5 0.097306 0.964334 0.213044
Si Si6 0.000000 0.500000 0.500000
Si Si7 0.193263 0.734087 0.841358
Si Si8 0.413942 0.218049 0.703056
O O1 0.768286 0.991489 0.472373
O O2 0.842779 0.370482 0.250331
O O3 0.674547 0.520979 0.396602
O O4 0.937082 0.350232 0.439423
O O5 0.566012 0.535589 0.889476
O O6 0.806833 0.240813 0.844347
O O7 0.681780 0.634074 0.677771
O O8 0.813363 0.793629 0.795962
O O9 0.279952 0.476788 0.943330
O O10 0.433878 0.324693 0.796531
O O11 0.500000 0.000000 0.000000
O O12 0.434276 0.883369 0.353662
O O13 0.500000 0.000000 0.500000
O O14 0.045722 0.772225 0.355249
O O15 0.960703 0.102784 0.139275
O O16 0.310950 0.962285 0.768760
#
# Coordination Sequence:
#
# PCOD9057746 Si02
#       8
#     2   2   2   2   2   1   2   2
#     4  11  23  38  64 102 149 198 250 285 357 441
#     4  12  27  48  71 111 149 197 250 319 365 447
#     4  11  27  52  82 106 135 189 261 327 395 446
#     4  12  22  39  66 104 150 195 247 303 360 438
#     4  12  28  45  71 106 165 197 249 296 371 443
#     4  12  24  38  66 100 150 216 240 266 352 448
#     4  11  24  47  69 107 146 195 245 312 368 449
#     4  11  22  43  70 103 145 188 247 313 374 435
#
# _framework density 27.179762
#
# number of rings (size 3 to 8) (size 9 to 14) (size 15 to 20)
#    0.000    0.533    5.333    2.800    5.600    1.600 
#    0.000    1.333    0.000    0.000    0.000    0.000 
#    0.000    0.000    0.000    0.000    0.000    0.000 
#
# Total GULP energy -83758.096564 kJ/mol
# GULP energy per Si atom -5583.873104 kJ/mol
# Density = 2.711790 g / cm^3
# Si number density = 27.179762 Si / 1000 Ang^3
#
#
#
# Elastic Constant Matrix: (Units=GPa)
#
#
# Indices 1 2 3 4 5 6 
#
# 1 165.5812 51.7014 61.0472 -13.3138 14.1867 0.3278
# 2 51.7014 62.8714 -2.8946 -10.8337 2.0750 -1.4591
# 3 61.0472 -2.8946 101.8016 -22.7265 13.9604 2.7066
# 4 -13.3138 -10.8337 -22.7265 36.9579 1.8080 7.6688
# 5 14.1867 2.0750 13.9604 1.8080 46.4446 -11.2347
# 6 0.3278 -1.4591 2.7066 7.6688 -11.2347 70.3152
#
#
#
# Elastic Compliance Matrix: (Units=1/GPa)
#
#
# Indices 1 2 3 4 5 6 
#
# 1 0.012513 -0.011406 -0.008739 -0.004281 -0.000412 0.000442
# 2 -0.011406 0.027603 0.010227 0.010588 -0.001517 -0.001165
# 3 -0.008739 0.010227 0.018743 0.012116 -0.004500 -0.002509
# 4 -0.004281 0.010588 0.012116 0.037416 -0.005519 -0.005189
# 5 -0.000412 -0.001517 -0.004500 -0.005519 0.024416 0.004647
# 6 0.000442 -0.001165 -0.002509 -0.005189 0.004647 0.015600
#
#
# Mechanical properties :
#
#
# Convention : Reuss Voigt Hill
#
# Bulk Modulus (GPa) = 25.62524 61.10693 43.36609
# Shear Modulus (GPa) = 29.56214 45.43686 37.49950
#
# Velocity S-wave (km/s) = 3.30154 4.09310 3.71844
# Velocity P-wave (km/s) = 4.89715 6.69845 5.86734
#
# Compressibility (1/GPa) = 0.03902402
#
# Stress axis : x y z
#
# Youngs Moduli (GPa) = 79.91793 36.22750 53.35348
#
# Poissons Ratio (x) = 0.41321 0.46625
# Poissons Ratio (y) = 0.91154 -0.54566
# Poissons Ratio (z) = 0.69839 -0.37051
#
# Static dielectric constant tensor:
#      x y z
#    x 2.227690 -0.215170 0.017490 
#    y -0.215170 2.382890 -0.139540 
#    z 0.017490 -0.139540 2.190150 
# 
# From -- ./inp_files/552318.got.cif
#   From: 2010.05.17/outbox.cif.g08.bks.cpg/sg2_277_cif.got.tgz:552318.got - 2010.06.03 11:33:40.
