data_PCOD9057487
_publ_section_title
;
Structure prediction by ZEFSAII (Michael W. Deem and Ramdas Pophale) SiO2 
 PCOD9057487
Probable space group: P -1
;
_chemical_formula_sum "Si O2"
_cell_formula_units_Z 12
_cell_length_a 13.084343
_cell_length_b 10.038956
_cell_length_c 5.392894
_cell_angle_alpha 80.908236
_cell_angle_beta 49.544824
_cell_angle_gamma 79.754888
_cell_volume 529.557610
_symmetry_space_group_name_H-M "P -1"
_symmetry_group_IT_number 2
_symmetry_cell_setting 'triclinic'
loop_
_space_group_symop_operation_xyz
x,y,z
-x,-y,-z
loop_
_atom_site_type_symbol
_atom_site_label
_atom_site_fract_x
_atom_site_fract_y
_atom_site_fract_z
Si Si1 0.008996 0.880314 0.719139
Si Si2 0.282878 0.034648 0.740096
Si Si3 0.471967 0.585984 0.268923
Si Si4 0.323233 0.187715 0.150653
Si Si5 0.779552 0.230875 0.250017
Si Si6 0.027354 0.339345 0.531413
O O1 0.155517 0.865308 0.608254
O O2 0.990587 0.734325 0.679267
O O3 0.000000 0.000000 0.500000
O O4 0.876639 0.921549 0.073911
O O5 0.354178 0.095645 0.373687
O O6 0.297059 0.870901 0.770545
O O7 0.314869 0.101333 0.934171
O O8 0.500000 0.500000 0.500000
O O9 0.318253 0.649715 0.517053
O O10 0.500000 0.500000 0.000000
O O11 0.564930 0.708830 0.084176
O O12 0.179012 0.280739 0.386305
O O13 0.909088 0.284959 0.899701
O O14 0.000000 0.500000 0.500000
#
# Coordination Sequence:
#
# PCOD9057487 Si02
#       6
#     2   2   2   2   2   2
#     4  11  22  42  71 109 144 183 240 305 368 425
#     4  11  23  43  74 107 142 181 242 302 368 420
#     4  12  30  51  72 100 151 199 243 295 367 438
#     4  11  25  46  69 105 147 184 237 309 351 430
#     4  12  25  43  76 103 142 194 242 298 369 437
#     4  11  24  40  69 104 144 188 246 296 362 434
#
# _framework density 22.660425
#
# number of rings (size 3 to 8) (size 9 to 14) (size 15 to 20)
#    0.000    0.667    3.333    4.500    4.667    3.333 
#    0.000    0.000    0.000    0.000    0.000    0.000 
#    0.000    0.000    0.000    0.000    0.000    0.000 
#
# Total GULP energy -67108.003847 kJ/mol
# GULP energy per Si atom -5592.333654 kJ/mol
# Density = 2.260885 g / cm^3
# Si number density = 22.660425 Si / 1000 Ang^3
#
#
#
# Elastic Constant Matrix: (Units=GPa)
#
#
# Indices 1 2 3 4 5 6 
#
# 1 52.3398 12.0331 17.6337 10.1631 11.0741 -7.5662
# 2 12.0331 110.0657 17.8381 11.4420 22.5564 5.6507
# 3 17.6337 17.8381 100.4593 -1.9519 7.4710 -14.5696
# 4 10.1631 11.4420 -1.9519 59.8747 -0.8042 0.0487
# 5 11.0741 22.5564 7.4710 -0.8042 34.9923 -9.2777
# 6 -7.5662 5.6507 -14.5696 0.0487 -9.2777 17.0146
#
#
#
# Elastic Compliance Matrix: (Units=1/GPa)
#
#
# Indices 1 2 3 4 5 6 
#
# 1 0.022785 -0.001001 -0.002739 -0.003832 -0.004575 0.005636
# 2 -0.001001 0.012944 -0.003324 -0.002548 -0.010972 -0.013565
# 3 -0.002739 -0.003324 0.012623 0.001551 0.003722 0.012721
# 4 -0.003832 -0.002548 0.001551 0.017935 0.003563 0.002362
# 5 -0.004575 -0.010972 0.003722 0.003563 0.044019 0.028789
# 6 0.005636 -0.013565 0.012721 0.002362 0.028789 0.092368
#
#
# Mechanical properties :
#
#
# Convention : Reuss Voigt Hill
#
# Bulk Modulus (GPa) = 29.21718 39.76383 34.49050
# Shear Modulus (GPa) = 21.90971 36.73365 29.32168
#
# Velocity S-wave (km/s) = 3.11283 4.03059 3.60107
# Velocity P-wave (km/s) = 5.08341 6.26472 5.70472
#
# Compressibility (1/GPa) = 0.03422644
#
# Stress axis : x y z
#
# Youngs Moduli (GPa) = 43.88776 77.25860 79.21836
#
# Poissons Ratio (x) = 0.07731 0.21695
# Poissons Ratio (y) = 0.04392 0.26329
# Poissons Ratio (z) = 0.12019 0.25678
#
# Static dielectric constant tensor:
#      x y z
#    x 2.211170 -0.089170 0.109450 
#    y -0.089170 1.817280 -0.040330 
#    z 0.109450 -0.040330 1.894770 
# 
# From -- ./inp_files/40060.got.cif
#   From: 2010.05.17/outbox.cif.g08.bks.cpg/sg2_21_cif.got.tgz:40060.got - 2010.06.03 11:33:40.
