data_PCOD9057621
_publ_section_title
;
Structure prediction by ZEFSAII (Michael W. Deem and Ramdas Pophale) SiO2 
 PCOD9057621
Probable space group: P -1
;
_chemical_formula_sum "Si O2"
_cell_formula_units_Z 16
_cell_length_a 17.079637
_cell_length_b 9.201124
_cell_length_c 5.367280
_cell_angle_alpha 82.367598
_cell_angle_beta 98.527610
_cell_angle_gamma 129.306188
_cell_volume 644.610250
_symmetry_space_group_name_H-M "P -1"
_symmetry_group_IT_number 2
_symmetry_cell_setting 'triclinic'
loop_
_space_group_symop_operation_xyz
x,y,z
-x,-y,-z
loop_
_atom_site_type_symbol
_atom_site_label
_atom_site_fract_x
_atom_site_fract_y
_atom_site_fract_z
Si Si1 0.169283 0.768441 0.564623
Si Si2 0.679744 0.207869 0.750304
Si Si3 0.990856 0.218306 0.354806
Si Si4 0.445720 0.661984 0.422567
Si Si5 0.876413 0.536233 0.025060
Si Si6 0.363657 0.090547 0.865940
Si Si7 0.366359 0.422788 0.925054
Si Si8 0.131469 0.193381 0.764179
O O1 0.243540 0.800049 0.376742
O O2 0.082003 0.786985 0.476107
O O3 0.120787 0.568972 0.716285
O O4 0.248258 0.931541 0.760784
O O5 0.611311 0.249856 0.576976
O O6 0.760098 0.388480 0.917362
O O7 0.612018 0.019733 0.923845
O O8 0.081670 0.224260 0.504241
O O9 0.916546 0.021984 0.217225
O O10 0.043170 0.402105 0.167002
O O11 0.561031 0.819941 0.353934
O O12 0.433315 0.554725 0.691880
O O13 0.395615 0.527420 0.181456
O O14 0.898411 0.731187 0.048280
O O15 0.372536 0.254414 0.973027
O O16 0.252188 0.327085 0.803722
#
# Coordination Sequence:
#
# PCOD9057621 Si02
#       8
#     2   2   2   2   2   2   2   2
#     4  11  25  44  68 100 148 184 243 297 364 432
#     4  11  26  46  72 103 147 194 241 305 364 445
#     4  11  24  43  68 103 135 190 240 302 363 437
#     4  12  27  48  81 108 148 197 247 303 370 443
#     4  11  22  43  66 100 135 188 238 298 362 438
#     4  11  27  46  73 111 144 192 242 305 369 435
#     4  12  26  49  77 112 149 193 244 312 366 438
#     4  11  24  43  70 100 141 185 244 298 369 431
#
# _framework density 24.821202
#
# number of rings (size 3 to 8) (size 9 to 14) (size 15 to 20)
#    0.000    0.750    2.500    4.125    5.250    4.500 
#    2.250    0.000    0.000    0.000    0.000    0.000 
#    0.000    0.000    0.000    0.000    0.000    0.000 
#
# Total GULP energy -89553.313455 kJ/mol
# GULP energy per Si atom -5597.082091 kJ/mol
# Density = 2.476471 g / cm^3
# Si number density = 24.821202 Si / 1000 Ang^3
#
#
#
# Elastic Constant Matrix: (Units=GPa)
#
#
# Indices 1 2 3 4 5 6 
#
# 1 105.7948 51.0177 10.8739 4.0864 -1.7957 9.5612
# 2 51.0177 108.3229 35.0786 -1.5935 1.4472 -1.1500
# 3 10.8739 35.0786 75.1684 5.8286 -10.4107 3.8887
# 4 4.0864 -1.5935 5.8286 24.3903 8.4254 -0.0605
# 5 -1.7957 1.4472 -10.4107 8.4254 34.2524 0.9322
# 6 9.5612 -1.1500 3.8887 -0.0605 0.9322 34.2910
#
#
#
# Elastic Compliance Matrix: (Units=1/GPa)
#
#
# Indices 1 2 3 4 5 6 
#
# 1 0.013265 -0.007164 0.002377 -0.004266 0.002887 -0.004294
# 2 -0.007164 0.015149 -0.007295 0.005564 -0.004696 0.003470
# 3 0.002377 -0.007295 0.018267 -0.008028 0.008047 -0.003212
# 4 -0.004266 0.005564 -0.008028 0.049213 -0.015080 0.002783
# 5 0.002887 -0.004696 0.008047 -0.015080 0.035778 -0.002874
# 6 -0.004294 0.003470 -0.003212 0.002783 -0.002874 0.030923
#
#
# Mechanical properties :
#
#
# Convention : Reuss Voigt Hill
#
# Bulk Modulus (GPa) = 44.40941 53.69182 49.05062
# Shear Modulus (GPa) = 25.73815 31.40781 28.57298
#
# Velocity S-wave (km/s) = 3.22365 3.56105 3.39654
# Velocity P-wave (km/s) = 5.63795 6.21180 5.93182
#
# Compressibility (1/GPa) = 0.02251775
#
# Stress axis : x y z
#
# Youngs Moduli (GPa) = 75.38892 66.00894 54.74374
#
# Poissons Ratio (x) = 0.47289 -0.13014
# Poissons Ratio (y) = 0.54009 0.39934
# Poissons Ratio (z) = -0.17921 0.48152
#
# Static dielectric constant tensor:
#      x y z
#    x 1.949100 -0.016070 -0.008180 
#    y -0.016070 1.961490 0.066150 
#    z -0.008180 0.066150 1.983760 
# 
# From -- ./inp_files/98037.got.cif
#   From: 2010.05.17/outbox.cif.g08.bks.cpg/sg2_50_cif.got.tgz:98037.got - 2010.06.03 11:33:40.
