data_PCOD9057761
_publ_section_title
;
Structure prediction by ZEFSAII (Michael W. Deem and Ramdas Pophale) SiO2 
 PCOD9057761
Probable space group: P -1
;
_chemical_formula_sum "Si O2"
_cell_formula_units_Z 16
_cell_length_a 8.611255
_cell_length_b 26.819095
_cell_length_c 14.500036
_cell_angle_alpha 159.982809
_cell_angle_beta 126.815254
_cell_angle_gamma 44.887924
_cell_volume 777.743303
_symmetry_space_group_name_H-M "P -1"
_symmetry_group_IT_number 2
_symmetry_cell_setting 'triclinic'
loop_
_space_group_symop_operation_xyz
x,y,z
-x,-y,-z
loop_
_atom_site_type_symbol
_atom_site_label
_atom_site_fract_x
_atom_site_fract_y
_atom_site_fract_z
Si Si1 0.476238 0.203222 0.098436
Si Si2 0.673485 0.940889 0.872474
Si Si3 0.064014 0.194888 0.874703
Si Si4 0.858298 0.414536 0.828645
Si Si5 0.047738 0.012490 0.202424
Si Si6 0.855628 0.104873 0.489572
Si Si7 0.406810 0.485208 0.709673
Si Si8 0.348584 0.372587 0.697312
O O1 0.447104 0.355583 0.417060
O O2 0.246695 0.250702 0.045759
O O3 0.696597 0.124327 0.974851
O O4 0.532582 0.051872 0.927760
O O5 0.765068 0.742028 0.543568
O O6 0.868837 0.982656 0.031589
O O7 0.500000 0.000000 0.000000
O O8 0.993696 0.176894 0.715694
O O9 0.161790 0.015409 0.650253
O O10 0.823725 0.334854 0.078340
O O11 0.630272 0.492686 0.821044
O O12 0.778170 0.473177 0.007536
O O13 0.987250 0.207967 0.506209
O O14 0.000000 0.500000 0.000000
O O15 0.997188 0.999074 0.267452
O O16 0.604566 0.247689 0.612069
O O17 0.368648 0.419353 0.680715
#
# Coordination Sequence:
#
# PCOD9057761 Si02
#       8
#     2   2   2   2   2   2   2   2
#     4  12  24  41  65  96 139 177 212 271 344 388
#     4  12  20  39  70 101 126 173 222 271 322 395
#     4  11  25  42  68  94 132 177 227 267 325 405
#     4  12  25  39  66 105 134 164 214 285 335 372
#     4  12  25  43  68  99 138 170 223 280 332 392
#     4  11  22  43  70  95 126 181 228 265 321 403
#     4  12  24  44  68 101 132 172 224 278 324 396
#     4  12  22  42  74  98 130 171 232 270 324 386
#
# _framework density 20.572341000000002
#
# number of rings (size 3 to 8) (size 9 to 14) (size 15 to 20)
#    0.000    0.250    7.500    2.625    1.750    0.500 
#    0.000    1.875    0.000    0.000    0.000    0.000 
#    0.000    0.000    0.000    0.000    0.000    0.000 
#
# Total GULP energy -89495.462611 kJ/mol
# GULP energy per Si atom -5593.466413 kJ/mol
# Density = 2.052552 g / cm^3
# Si number density = 20.572341 Si / 1000 Ang^3
#
#
#
# Elastic Constant Matrix: (Units=GPa)
#
#
# Indices 1 2 3 4 5 6 
#
# 1 55.6166 36.9816 18.2529 -17.4817 -1.7482 -15.6998
# 2 36.9816 94.4450 43.2199 -28.1869 -3.4894 -20.2314
# 3 18.2529 43.2199 106.1622 -29.8510 1.4065 -20.8809
# 4 -17.4817 -28.1869 -29.8510 39.0432 -1.8201 11.0413
# 5 -1.7482 -3.4894 1.4065 -1.8201 41.4136 -5.2776
# 6 -15.6998 -20.2314 -20.8809 11.0413 -5.2776 36.1540
#
#
#
# Elastic Compliance Matrix: (Units=1/GPa)
#
#
# Indices 1 2 3 4 5 6 
#
# 1 0.026338 -0.007938 0.001474 0.005448 0.001447 0.006394
# 2 -0.007938 0.017800 -0.003731 0.005714 0.001911 0.002892
# 3 0.001474 -0.003731 0.013510 0.007113 0.000137 0.004202
# 4 0.005448 0.005714 0.007113 0.038189 0.001930 -0.001709
# 5 0.001447 0.001911 0.000137 0.001930 0.025067 0.004847
# 6 0.006394 0.002892 0.004202 -0.001709 0.004847 0.035711
#
#
# Mechanical properties :
#
#
# Convention : Reuss Voigt Hill
#
# Bulk Modulus (GPa) = 26.84169 50.34807 38.59488
# Shear Modulus (GPa) = 26.39565 33.84012 30.11788
#
# Velocity S-wave (km/s) = 3.58588 4.06018 3.83037
# Velocity P-wave (km/s) = 5.49731 6.81959 6.19384
#
# Compressibility (1/GPa) = 0.03725548
#
# Stress axis : x y z
#
# Youngs Moduli (GPa) = 37.96812 56.18084 74.01842
#
# Poissons Ratio (x) = 0.44599 -0.10908
# Poissons Ratio (y) = 0.30141 0.27619
# Poissons Ratio (z) = -0.05595 0.20963
#
# Static dielectric constant tensor:
#      x y z
#    x 1.741040 -0.006590 0.013670 
#    y -0.006590 1.717430 -0.013490 
#    z 0.013670 -0.013490 1.778050 
# 
# From -- ./inp_files/508676.got.cif
#   From: 2010.05.17/outbox.cif.g08.bks.cpg/sg2_255_cif.got.tgz:508676.got - 2010.06.03 11:33:40.
