data_PCOD9057053
_publ_section_title
;
Structure prediction by ZEFSAII (Michael W. Deem and Ramdas Pophale) SiO2 
 PCOD9057053
Probable space group: P -1
;
_chemical_formula_sum "Si O2"
_cell_formula_units_Z 16
_cell_length_a 14.181658
_cell_length_b 21.567272
_cell_length_c 8.223395
_cell_angle_alpha 141.679357
_cell_angle_beta 137.256926
_cell_angle_gamma 28.627606
_cell_volume 738.301039
_symmetry_space_group_name_H-M "P -1"
_symmetry_group_IT_number 2
_symmetry_cell_setting 'triclinic'
loop_
_space_group_symop_operation_xyz
x,y,z
-x,-y,-z
loop_
_atom_site_type_symbol
_atom_site_label
_atom_site_fract_x
_atom_site_fract_y
_atom_site_fract_z
Si Si1 0.915351 0.341959 0.010863
Si Si2 0.591532 0.298136 0.224168
Si Si3 0.854087 0.984424 0.333112
Si Si4 0.834200 0.461422 0.478773
Si Si5 0.918960 0.725171 0.280088
Si Si6 0.454569 0.540834 0.771827
Si Si7 0.970000 0.921752 0.687199
Si Si8 0.448769 0.216160 0.099568
O O1 0.680205 0.439539 0.901396
O O2 0.982154 0.341505 0.911819
O O3 0.940685 0.406046 0.324651
O O4 0.040522 0.178251 0.879479
O O5 0.454977 0.451903 0.453580
O O6 0.607260 0.323924 0.111898
O O7 0.812441 0.198299 0.368702
O O8 0.507506 0.235624 0.040933
O O9 0.652524 0.091724 0.196163
O O10 0.000000 0.000000 0.500000
O O11 0.814009 0.017273 0.542709
O O12 0.706381 0.423301 0.239257
O O13 0.682404 0.631820 0.659901
O O14 0.974705 0.383828 0.657021
O O15 0.932326 0.837292 0.555606
O O16 0.693838 0.803939 0.144099
O O17 0.000000 0.000000 0.000000
#
# Coordination Sequence:
#
# PCOD9057053 Si02
#       8
#     2   2   2   2   2   2   2   2
#     4  11  23  39  65  96 133 174 217 279 330 384
#     4  10  18  37  62  93 121 170 214 266 326 376
#     4  11  22  41  65  92 132 173 217 275 330 390
#     4  11  23  39  68 102 127 174 227 269 333 394
#     4  11  24  46  64  97 139 172 219 279 332 392
#     4  10  17  36  64  94 128 162 224 275 319 382
#     4  11  23  40  65  94 128 174 219 267 330 392
#     4  11  24  41  68  97 133 179 218 267 342 398
#
# _framework density 21.671378000000001
#
# number of rings (size 3 to 8) (size 9 to 14) (size 15 to 20)
#    0.000    1.250    5.000    3.000    1.750    3.500 
#    0.000    3.750    0.000    0.000    0.000    0.000 
#    0.000    0.000    0.000    0.000    0.000    0.000 
#
# Total GULP energy -89271.743046 kJ/mol
# GULP energy per Si atom -5579.483940 kJ/mol
# Density = 2.162205 g / cm^3
# Si number density = 21.671378 Si / 1000 Ang^3
#
#
#
# Elastic Constant Matrix: (Units=GPa)
#
#
# Indices 1 2 3 4 5 6 
#
# 1 54.5787 20.1911 35.0566 -10.9082 15.0249 2.0490
# 2 20.1911 119.5714 37.9131 -20.2672 -1.0608 5.1209
# 3 35.0566 37.9131 66.2861 -5.9528 7.6158 -2.9227
# 4 -10.9082 -20.2672 -5.9528 26.6304 -9.2348 9.1114
# 5 15.0249 -1.0608 7.6158 -9.2348 26.4714 -10.9538
# 6 2.0490 5.1209 -2.9227 9.1114 -10.9538 20.2805
#
#
#
# Elastic Compliance Matrix: (Units=1/GPa)
#
#
# Indices 1 2 3 4 5 6 
#
# 1 0.041001 0.003392 -0.020748 0.016251 -0.022954 -0.027688
# 2 0.003392 0.013369 -0.008859 0.013669 0.001699 -0.010218
# 3 -0.020748 -0.008859 0.030129 -0.012496 0.005546 0.017285
# 4 0.016251 0.013669 -0.012496 0.064658 0.003351 -0.034133
# 5 -0.022954 0.001699 0.005546 0.003351 0.065598 0.036614
# 6 -0.027688 -0.010218 0.017285 -0.034133 0.036614 0.092287
#
#
# Mechanical properties :
#
#
# Convention : Reuss Voigt Hill
#
# Bulk Modulus (GPa) = 31.18320 47.41753 39.30037
# Shear Modulus (GPa) = 13.50769 24.49481 19.00125
#
# Velocity S-wave (km/s) = 2.49930 3.36562 2.96428
# Velocity P-wave (km/s) = 4.76959 6.08530 5.46717
#
# Compressibility (1/GPa) = 0.03206855
#
# Stress axis : x y z
#
# Youngs Moduli (GPa) = 24.38994 74.80086 33.19114
#
# Poissons Ratio (x) = -0.25372 0.68865
# Poissons Ratio (y) = -0.08273 0.29403
# Poissons Ratio (z) = 0.50604 0.66263
#
# Static dielectric constant tensor:
#      x y z
#    x 1.867160 0.013610 -0.048290 
#    y 0.013610 1.813410 0.023100 
#    z -0.048290 0.023100 1.818670 
# 
# From -- ./inp_files/319114.got.cif
#   From: 2010.05.17/outbox.cif.g08.bks.cpg/sg2_160_cif.got.tgz:319114.got - 2010.06.03 11:33:40.
