data_PCOD9057787
_publ_section_title
;
Structure prediction by ZEFSAII (Michael W. Deem and Ramdas Pophale) SiO2 
 PCOD9057787
Probable space group: P -1
;
_chemical_formula_sum "Si O2"
_cell_formula_units_Z 14
_cell_length_a 8.707717
_cell_length_b 12.067590
_cell_length_c 8.627390
_cell_angle_alpha 37.113623
_cell_angle_beta 85.056841
_cell_angle_gamma 82.492770
_cell_volume 542.090895
_symmetry_space_group_name_H-M "P -1"
_symmetry_group_IT_number 2
_symmetry_cell_setting 'triclinic'
loop_
_space_group_symop_operation_xyz
x,y,z
-x,-y,-z
loop_
_atom_site_type_symbol
_atom_site_label
_atom_site_fract_x
_atom_site_fract_y
_atom_site_fract_z
Si Si1 0.994462 0.219369 0.740799
Si Si2 0.702411 0.948212 0.500716
Si Si3 0.553170 0.212020 0.463434
Si Si4 0.230022 0.715950 0.025650
Si Si5 0.037141 0.298686 0.155061
Si Si6 0.251398 0.511749 0.717101
Si Si7 0.662851 0.649255 0.434102
O O1 0.169099 0.273356 0.659353
O O2 0.896994 0.286871 0.825743
O O3 0.886037 0.328645 0.498665
O O4 0.000000 0.000000 0.000000
O O5 0.590328 0.793824 0.636664
O O6 0.877186 0.855598 0.572441
O O7 0.661955 0.041717 0.567102
O O8 0.674064 0.109078 0.192983
O O9 0.649201 0.388040 0.278053
O O10 0.474874 0.207383 0.646904
O O11 0.328679 0.521747 0.254196
O O12 0.122148 0.745473 0.852549
O O13 0.170136 0.336863 0.977807
O O14 0.000000 0.500000 0.000000
O O15 0.347063 0.438911 0.637328
#
# Coordination Sequence:
#
# PCOD9057787 Si02
#       7
#     2   2   2   2   2   2   2
#     4  11  23  41  74 102 134 174 230 299 345 396
#     4  11  27  44  64 104 143 189 231 278 345 416
#     4  11  26  46  67  98 149 188 227 278 347 424
#     4  11  22  43  70  99 136 174 236 292 337 401
#     4  12  24  41  72 100 139 178 235 290 342 407
#     4  11  24  44  69 107 133 180 236 284 352 409
#     4  11  22  47  71 102 138 181 232 286 352 409
#
# _framework density 25.825925999999999
#
# number of rings (size 3 to 8) (size 9 to 14) (size 15 to 20)
#    0.000    0.857    2.857    4.286    4.000    3.429 
#    0.000    8.571    0.000    0.000    0.000    0.000 
#    0.000    0.000    0.000    0.000    0.000    0.000 
#
# Total GULP energy -78245.874099 kJ/mol
# GULP energy per Si atom -5588.991007 kJ/mol
# Density = 2.576714 g / cm^3
# Si number density = 25.825926 Si / 1000 Ang^3
#
#
#
# Elastic Constant Matrix: (Units=GPa)
#
#
# Indices 1 2 3 4 5 6 
#
# 1 79.5216 33.8925 19.7147 4.7080 -19.3579 3.2259
# 2 33.8925 146.3275 23.2570 -8.8629 -9.2063 -11.0718
# 3 19.7147 23.2570 107.6645 -18.0852 -10.1045 0.4181
# 4 4.7080 -8.8629 -18.0852 28.4635 -6.6572 -12.8818
# 5 -19.3579 -9.2063 -10.1045 -6.6572 28.0140 -0.4731
# 6 3.2259 -11.0718 0.4181 -12.8818 -0.4731 56.5446
#
#
#
# Elastic Compliance Matrix: (Units=1/GPa)
#
#
# Indices 1 2 3 4 5 6 
#
# 1 0.017154 -0.003529 -0.002312 -0.004546 0.008735 -0.002615
# 2 -0.003529 0.008274 -0.000251 0.004620 0.001336 0.002887
# 3 -0.002312 -0.000251 0.011935 0.010136 0.005073 0.002346
# 4 -0.004546 0.004620 0.010136 0.053299 0.014924 0.013356
# 5 0.008735 0.001336 0.005073 0.014924 0.047608 0.003524
# 6 -0.002615 0.002887 0.002346 0.013356 0.003524 0.021455
#
#
# Mechanical properties :
#
#
# Convention : Reuss Voigt Hill
#
# Bulk Modulus (GPa) = 39.71680 54.13800 46.92740
# Shear Modulus (GPa) = 27.73117 39.71438 33.72278
#
# Velocity S-wave (km/s) = 3.28040 3.92570 3.61747
# Velocity P-wave (km/s) = 5.45528 6.44642 5.97145
#
# Compressibility (1/GPa) = 0.02517826
#
# Stress axis : x y z
#
# Youngs Moduli (GPa) = 58.29394 120.86572 83.78432
#
# Poissons Ratio (x) = 0.42659 0.19375
# Poissons Ratio (y) = 0.20574 0.02101
# Poissons Ratio (z) = 0.13480 0.03030
#
# Static dielectric constant tensor:
#      x y z
#    x 2.090560 0.005240 -0.089050 
#    y 0.005240 2.086480 0.036840 
#    z -0.089050 0.036840 2.167260 
# 
# From -- ./inp_files/183727.got.cif
#   From: 2010.05.17/outbox.cif.g08.bks.cpg/sg2_92_cif.got.tgz:183727.got - 2010.06.03 11:33:40.
