data_PCOD9057567
_publ_section_title
;
Structure prediction by ZEFSAII (Michael W. Deem and Ramdas Pophale) SiO2 
 PCOD9057567
Probable space group: P -1
;
_chemical_formula_sum "Si O2"
_cell_formula_units_Z 16
_cell_length_a 12.300482
_cell_length_b 18.645027
_cell_length_c 8.901903
_cell_angle_alpha 48.216952
_cell_angle_beta 133.425929
_cell_angle_gamma 152.727086
_cell_volume 669.980583
_symmetry_space_group_name_H-M "P -1"
_symmetry_group_IT_number 2
_symmetry_cell_setting 'triclinic'
loop_
_space_group_symop_operation_xyz
x,y,z
-x,-y,-z
loop_
_atom_site_type_symbol
_atom_site_label
_atom_site_fract_x
_atom_site_fract_y
_atom_site_fract_z
Si Si1 0.844284 0.018385 0.839345
Si Si2 0.520535 0.595875 0.764325
Si Si3 0.622740 0.278080 0.389637
Si Si4 0.095468 0.328987 0.498005
Si Si5 0.515932 0.904330 0.222365
Si Si6 0.164381 0.610874 0.857900
Si Si7 0.097093 0.204556 0.399432
Si Si8 0.622266 0.833638 0.154887
O O1 0.995429 0.184892 0.690430
O O2 0.598211 0.879746 0.700450
O O3 0.771822 0.989461 0.985595
O O4 0.000000 0.000000 0.000000
O O5 0.475196 0.674922 0.690923
O O6 0.318470 0.483894 0.593834
O O7 0.782583 0.723852 0.749385
O O8 0.500000 0.500000 0.000000
O O9 0.658090 0.215074 0.638863
O O10 0.843432 0.415967 0.290452
O O11 0.169351 0.329723 0.401911
O O12 0.877473 0.295333 0.319157
O O13 0.477636 0.807090 0.190914
O O14 0.803333 0.042974 0.347594
O O15 0.500000 0.000000 0.000000
O O16 0.422523 0.696323 0.036844
O O17 0.000000 0.500000 0.000000
O O18 0.207905 0.163907 0.630102
#
# Coordination Sequence:
#
# PCOD9057567 Si02
#       8
#     2   2   2   2   2   2   2   2
#     4  11  22  42  75 103 139 182 240 301 357 422
#     4  12  29  44  73 108 148 191 245 299 358 427
#     4  11  26  48  69 107 145 187 248 298 360 432
#     4  12  26  47  72 107 144 195 244 291 365 437
#     4  12  26  45  75 111 147 187 241 304 364 427
#     4  11  28  48  72 102 152 201 235 294 372 437
#     4  12  25  47  74 106 146 189 243 300 360 431
#     4  11  24  43  74 104 145 187 243 300 365 419
#
# _framework density 23.881288999999999
#
# number of rings (size 3 to 8) (size 9 to 14) (size 15 to 20)
#    0.000    0.500    3.750    3.000    8.750    1.500 
#    0.000    0.000    0.000    0.000    0.000    0.000 
#    0.000    0.000    0.000    0.000    0.000    0.000 
#
# Total GULP energy -89478.673805 kJ/mol
# GULP energy per Si atom -5592.417113 kJ/mol
# Density = 2.382693 g / cm^3
# Si number density = 23.881289 Si / 1000 Ang^3
#
#
#
# Elastic Constant Matrix: (Units=GPa)
#
#
# Indices 1 2 3 4 5 6 
#
# 1 115.9612 10.8023 46.0534 -17.2513 -35.1175 0.2607
# 2 10.8023 74.0916 20.6636 -1.6420 -10.1352 0.9769
# 3 46.0534 20.6636 154.0311 -26.2779 -11.2545 11.2455
# 4 -17.2513 -1.6420 -26.2779 32.2735 8.4509 -9.0638
# 5 -35.1175 -10.1352 -11.2545 8.4509 56.2489 -8.6936
# 6 0.2607 0.9769 11.2455 -9.0638 -8.6936 38.4197
#
#
#
# Elastic Compliance Matrix: (Units=1/GPa)
#
#
# Indices 1 2 3 4 5 6 
#
# 1 0.012414 -0.000002 -0.002851 0.003324 0.007168 0.003156
# 2 -0.000002 0.014361 -0.002024 -0.001439 0.002466 0.000446
# 3 -0.002851 -0.002024 0.008518 0.005268 -0.001465 -0.001511
# 4 0.003324 -0.001439 0.005268 0.039553 -0.001934 0.007366
# 5 0.007168 0.002466 -0.001465 -0.001934 0.023495 0.005178
# 6 0.003156 0.000446 -0.001511 0.007366 0.005178 0.029347
#
#
# Mechanical properties :
#
#
# Convention : Reuss Voigt Hill
#
# Bulk Modulus (GPa) = 39.15510 55.45805 47.30658
# Shear Modulus (GPa) = 34.25684 43.15941 38.70813
#
# Velocity S-wave (km/s) = 3.79154 4.25579 4.03035
# Velocity P-wave (km/s) = 5.96649 6.88635 6.44286
#
# Compressibility (1/GPa) = 0.02553946
#
# Stress axis : x y z
#
# Youngs Moduli (GPa) = 80.55276 69.63230 117.39696
#
# Poissons Ratio (x) = 0.00015 0.33470
# Poissons Ratio (y) = 0.00018 0.23758
# Poissons Ratio (z) = 0.22966 0.14092
#
# Static dielectric constant tensor:
#      x y z
#    x 1.949740 0.079750 -0.081470 
#    y 0.079750 2.059030 -0.017860 
#    z -0.081470 -0.017860 1.912050 
# 
# From -- ./inp_files/279130.got.cif
#   From: 2010.05.17/outbox.cif.g08.bks.cpg/sg2_140_cif.got.tgz:279130.got - 2010.06.03 11:33:40.
