data_PCOD9057032
_publ_section_title
;
Structure prediction by ZEFSAII (Michael W. Deem and Ramdas Pophale) SiO2 
 PCOD9057032
Probable space group: P -1
;
_chemical_formula_sum "Si O2"
_cell_formula_units_Z 16
_cell_length_a 13.675062
_cell_length_b 11.104683
_cell_length_c 8.986951
_cell_angle_alpha 119.383296
_cell_angle_beta 76.119276
_cell_angle_gamma 143.584591
_cell_volume 673.520049
_symmetry_space_group_name_H-M "P -1"
_symmetry_group_IT_number 2
_symmetry_cell_setting 'triclinic'
loop_
_space_group_symop_operation_xyz
x,y,z
-x,-y,-z
loop_
_atom_site_type_symbol
_atom_site_label
_atom_site_fract_x
_atom_site_fract_y
_atom_site_fract_z
Si Si1 0.832575 0.096695 0.035109
Si Si2 0.919064 0.786797 0.800395
Si Si3 0.355150 0.742341 0.319376
Si Si4 0.047796 0.304579 0.774203
Si Si5 0.223798 0.284022 0.505678
Si Si6 0.013685 0.540556 0.342837
Si Si7 0.611171 0.811849 0.701438
Si Si8 0.365936 0.842244 0.083341
O O1 0.944516 0.188217 0.898816
O O2 0.653247 0.840799 0.880908
O O3 0.852261 0.280100 0.169862
O O4 0.922380 0.139629 0.177019
O O5 0.739902 0.504581 0.739692
O O6 0.878765 0.795156 0.656112
O O7 0.000000 0.000000 0.000000
O O8 0.436274 0.821676 0.175651
O O9 0.186961 0.651676 0.306043
O O10 0.500000 0.000000 0.500000
O O11 0.122988 0.241096 0.654130
O O12 0.980053 0.304231 0.646317
O O13 0.200182 0.575740 0.930574
O O14 0.409875 0.566384 0.597993
O O15 0.281163 0.186062 0.426795
O O16 0.000000 0.500000 0.500000
O O17 0.657211 0.022346 0.779313
O O18 0.500000 0.000000 0.000000
#
# Coordination Sequence:
#
# PCOD9057032 Si02
#       8
#     2   2   2   2   2   2   2   2
#     4  11  22  41  68  97 137 183 235 294 349 422
#     4  11  22  44  68  98 140 192 230 290 368 434
#     4  11  25  43  69 107 144 183 242 302 358 427
#     4  12  22  41  67 101 134 179 244 289 350 430
#     4  11  25  42  67  97 137 187 239 287 364 435
#     4  11  23  39  67 106 141 185 237 298 363 427
#     4  11  23  41  66  99 135 182 236 294 358 423
#     4  12  23  40  72 102 135 184 235 301 362 419
#
# _framework density 23.755787999999999
#
# number of rings (size 3 to 8) (size 9 to 14) (size 15 to 20)
#    0.000    0.750    6.250    3.375    1.750    0.500 
#    0.000    0.000    0.000    6.750    0.000    0.000 
#    0.000    0.000    0.000    0.000    0.000    0.000 
#
# Total GULP energy -89086.818122 kJ/mol
# GULP energy per Si atom -5567.926133 kJ/mol
# Density = 2.370172 g / cm^3
# Si number density = 23.755788 Si / 1000 Ang^3
#
#
#
# Elastic Constant Matrix: (Units=GPa)
#
#
# Indices 1 2 3 4 5 6 
#
# 1 79.9822 23.4852 40.2161 -1.3022 -10.9980 -12.6540
# 2 23.4852 101.6295 53.1177 1.7729 -0.8112 -21.9482
# 3 40.2161 53.1177 157.3269 15.3496 7.5628 -10.1039
# 4 -1.3022 1.7729 15.3496 54.3169 -1.3114 -5.0762
# 5 -10.9980 -0.8112 7.5628 -1.3114 56.4253 7.6943
# 6 -12.6540 -21.9482 -10.1039 -5.0762 7.6943 31.1645
#
#
#
# Elastic Compliance Matrix: (Units=1/GPa)
#
#
# Indices 1 2 3 4 5 6 
#
# 1 0.015771 -0.000733 -0.003852 0.001957 0.003052 0.004204
# 2 -0.000733 0.013975 -0.004098 0.001474 -0.000529 0.008587
# 3 -0.003852 -0.004098 0.008979 -0.002683 -0.001869 -0.001514
# 4 0.001957 0.001474 -0.002683 0.019556 0.000674 0.003982
# 5 0.003052 -0.000529 -0.001869 0.000674 0.019171 -0.004363
# 6 0.004204 0.008587 -0.001514 0.003982 -0.004363 0.041077
#
#
# Mechanical properties :
#
#
# Convention : Reuss Voigt Hill
#
# Bulk Modulus (GPa) = 46.81709 63.61961 55.21835
# Shear Modulus (GPa) = 34.96144 43.18931 39.07537
#
# Velocity S-wave (km/s) = 3.84044 4.26849 4.06011
# Velocity P-wave (km/s) = 6.27819 7.15068 6.72859
#
# Compressibility (1/GPa) = 0.02135972
#
# Stress axis : x y z
#
# Youngs Moduli (GPa) = 63.40615 71.55389 111.37614
#
# Poissons Ratio (x) = 0.05248 0.42897
# Poissons Ratio (y) = 0.04650 0.45641
# Poissons Ratio (z) = 0.24421 0.29322
#
# Static dielectric constant tensor:
#      x y z
#    x 2.132150 -0.020380 -0.113890 
#    y -0.020380 2.082410 0.060170 
#    z -0.113890 0.060170 2.170010 
# 
# From -- ./inp_files/308317.got.cif
#   From: 2010.05.17/outbox.cif.g08.bks.cpg/sg2_155_cif.got.tgz:308317.got - 2010.06.03 11:33:40.
