data_PCOD9057462
_publ_section_title
;
Structure prediction by ZEFSAII (Michael W. Deem and Ramdas Pophale) SiO2 
 PCOD9057462
Probable space group: P -1
;
_chemical_formula_sum "Si O2"
_cell_formula_units_Z 14
_cell_length_a 22.408961
_cell_length_b 9.575458
_cell_length_c 14.310661
_cell_angle_alpha 31.886299
_cell_angle_beta 20.521592
_cell_angle_gamma 27.399984
_cell_volume 492.428444
_symmetry_space_group_name_H-M "P -1"
_symmetry_group_IT_number 2
_symmetry_cell_setting 'triclinic'
loop_
_space_group_symop_operation_xyz
x,y,z
-x,-y,-z
loop_
_atom_site_type_symbol
_atom_site_label
_atom_site_fract_x
_atom_site_fract_y
_atom_site_fract_z
Si Si1 0.000000 0.500000 0.000000
Si Si2 0.352979 0.171988 0.203179
Si Si3 0.014162 0.658996 0.529851
Si Si4 0.778375 0.773408 0.356306
Si Si5 0.577443 0.143115 0.077015
Si Si6 0.303718 0.632926 0.590677
Si Si7 0.748861 0.367433 0.114449
Si Si8 0.000000 0.000000 0.500000
O O1 0.846482 0.695269 0.197581
O O2 0.828004 0.455103 0.225129
O O3 0.185003 0.518718 0.282112
O O4 0.496375 0.091645 0.127717
O O5 0.230249 0.994213 0.489131
O O6 0.500000 0.000000 0.000000
O O7 0.120218 0.535361 0.550111
O O8 0.916359 0.005983 0.508259
O O9 0.867313 0.527523 0.811070
O O10 0.546974 0.917783 0.629268
O O11 0.844476 0.004474 0.168240
O O12 0.500000 0.500000 0.000000
O O13 0.808738 0.984044 0.834248
O O14 0.536089 0.486924 0.310610
O O15 0.290541 0.556795 0.761533
#
# Coordination Sequence:
#
# PCOD9057462 Si02
#       8
#     1   2   2   2   2   2   2   1
#     4  12  26  40  66 108 138 182 226 308 368 402
#     4  11  24  45  70  99 143 190 236 295 357 427
#     4  11  22  42  71 102 133 196 235 288 363 434
#     4  11  23  43  70  97 144 181 240 294 361 433
#     4  11  23  45  67 102 136 191 238 287 354 431
#     4  11  24  41  70 102 139 181 236 296 356 428
#     4  11  22  46  71 100 134 188 244 281 356 447
#     4  12  24  40  72 104 140 184 244 284 346 436
#
# _framework density 28.430527999999999
#
# number of rings (size 3 to 8) (size 9 to 14) (size 15 to 20)
#    0.000    0.857    7.143    2.143    4.000    0.571 
#    0.000    5.714    0.000    0.000    0.000    0.000 
#    0.000    0.000    0.000    0.000    0.000    0.000 
#
# Total GULP energy -78052.330410 kJ/mol
# GULP energy per Si atom -5575.166458 kJ/mol
# Density = 2.836582 g / cm^3
# Si number density = 28.430528 Si / 1000 Ang^3
#
#
#
# Elastic Constant Matrix: (Units=GPa)
#
#
# Indices 1 2 3 4 5 6 
#
# 1 107.5899 44.8460 81.6829 -4.5688 -19.7846 68.3627
# 2 44.8460 105.0485 71.6637 11.8234 8.4646 33.2415
# 3 81.6829 71.6637 253.4811 39.8138 -38.8969 44.2135
# 4 -4.5688 11.8234 39.8138 62.4805 20.0804 7.3910
# 5 -19.7846 8.4646 -38.8969 20.0804 67.2243 2.1290
# 6 68.3627 33.2415 44.2135 7.3910 2.1290 70.8660
#
#
#
# Elastic Compliance Matrix: (Units=1/GPa)
#
#
# Indices 1 2 3 4 5 6 
#
# 1 0.035976 -0.003168 -0.005760 0.008584 0.006062 -0.030703
# 2 -0.003168 0.014092 -0.003772 0.001332 -0.005250 -0.001182
# 3 -0.005760 -0.003772 0.008418 -0.007225 0.005724 0.002656
# 4 0.008584 0.001332 -0.007225 0.024662 -0.008977 -0.006701
# 5 0.006062 -0.005250 0.005724 -0.008977 0.023527 -0.006727
# 6 -0.030703 -0.001182 0.002656 -0.006701 -0.006727 0.043528
#
#
# Mechanical properties :
#
#
# Convention : Reuss Voigt Hill
#
# Bulk Modulus (GPa) = 30.22441 95.83388 63.02914
# Shear Modulus (GPa) = 26.79071 57.97597 42.38334
#
# Velocity S-wave (km/s) = 3.07306 4.52067 3.86524
# Velocity P-wave (km/s) = 4.82137 7.81216 6.49136
#
# Compressibility (1/GPa) = 0.03308584
#
# Stress axis : x y z
#
# Youngs Moduli (GPa) = 27.79629 70.96156 118.79779
#
# Poissons Ratio (x) = 0.22480 0.68430
# Poissons Ratio (y) = 0.08806 0.44809
# Poissons Ratio (z) = 0.16011 0.26766
#
# Static dielectric constant tensor:
#      x y z
#    x 2.299080 -0.327710 0.126070 
#    y -0.327710 1.158050 0.108080 
#    z 0.126070 0.108080 2.123030 
# 
# From -- ./inp_files/242853.got.cif
#   From: 2010.05.17/outbox.cif.g08.bks.cpg/sg2_122_cif.got.tgz:242853.got - 2010.06.03 11:33:40.
