data_PCOD9057275
_publ_section_title
;
Structure prediction by ZEFSAII (Michael W. Deem and Ramdas Pophale) SiO2 
 PCOD9057275
Probable space group: P -1
;
_chemical_formula_sum "Si O2"
_cell_formula_units_Z 16
_cell_length_a 9.496656
_cell_length_b 13.717856
_cell_length_c 9.224811
_cell_angle_alpha 71.040734
_cell_angle_beta 46.796401
_cell_angle_gamma 100.311262
_cell_volume 673.528439
_symmetry_space_group_name_H-M "P -1"
_symmetry_group_IT_number 2
_symmetry_cell_setting 'triclinic'
loop_
_space_group_symop_operation_xyz
x,y,z
-x,-y,-z
loop_
_atom_site_type_symbol
_atom_site_label
_atom_site_fract_x
_atom_site_fract_y
_atom_site_fract_z
Si Si1 0.816197 0.942926 0.020709
Si Si2 0.208689 0.640324 0.234133
Si Si3 0.771821 0.425920 0.303443
Si Si4 0.447019 0.873332 0.544907
Si Si5 0.024609 0.804193 0.383837
Si Si6 0.504917 0.694745 0.729795
Si Si7 0.416433 0.327899 0.829323
Si Si8 0.970097 0.280814 0.273746
O O1 0.569196 0.895168 0.293910
O O2 0.758323 0.812876 0.053849
O O3 0.887790 0.059371 0.808524
O O4 0.000000 0.000000 0.000000
O O5 0.446379 0.689602 0.132975
O O6 0.000000 0.500000 0.500000
O O7 0.136689 0.738100 0.257696
O O8 0.282662 0.627714 0.026538
O O9 0.569538 0.352956 0.358436
O O10 0.622766 0.438724 0.526166
O O11 0.857070 0.352594 0.370314
O O12 0.000000 0.500000 0.000000
O O13 0.556704 0.832108 0.606565
O O14 0.169526 0.777025 0.751636
O O15 0.500000 0.000000 0.500000
O O16 0.739078 0.709904 0.608066
O O17 0.070039 0.809638 0.521795
O O18 0.246604 0.362658 0.998434
#
# Coordination Sequence:
#
# PCOD9057275 Si02
#       8
#     2   2   2   2   2   2   2   2
#     4  12  23  43  72 104 145 186 229 293 353 429
#     4  12  27  46  71 105 141 185 242 298 355 420
#     4  11  24  47  71  98 140 182 237 297 347 415
#     4  11  22  42  66 100 144 180 231 283 347 425
#     4  12  25  45  72 102 143 187 233 292 361 418
#     4  11  24  43  68 105 135 179 235 286 354 418
#     4  12  24  46  70 105 146 180 241 290 353 429
#     4  11  25  43  69 102 137 186 234 286 354 418
#
# _framework density 23.755493000000001
#
# number of rings (size 3 to 8) (size 9 to 14) (size 15 to 20)
#    0.000    0.500    6.250    2.250    0.000    8.500 
#    0.000    0.000    0.000    0.000    0.000    0.000 
#    0.000    0.000    0.000    0.000    0.000    0.000 
#
# Total GULP energy -89232.327188 kJ/mol
# GULP energy per Si atom -5577.020449 kJ/mol
# Density = 2.370142 g / cm^3
# Si number density = 23.755493 Si / 1000 Ang^3
#
#
#
# Elastic Constant Matrix: (Units=GPa)
#
#
# Indices 1 2 3 4 5 6 
#
# 1 129.6811 18.3169 19.9216 6.5375 -11.8154 -7.5682
# 2 18.3169 51.3038 -6.5993 4.2450 -10.5561 -0.6208
# 3 19.9216 -6.5993 126.7437 12.7575 3.7751 -16.2732
# 4 6.5375 4.2450 12.7575 38.5269 -5.3883 -4.7074
# 5 -11.8154 -10.5561 3.7751 -5.3883 47.0792 4.5340
# 6 -7.5682 -0.6208 -16.2732 -4.7074 4.5340 30.8551
#
#
#
# Elastic Compliance Matrix: (Units=1/GPa)
#
#
# Indices 1 2 3 4 5 6 
#
# 1 0.008540 -0.002882 -0.001367 -0.000346 0.001466 0.001048
# 2 -0.002882 0.021671 0.001629 -0.001938 0.003809 -0.000267
# 3 -0.001367 0.001629 0.009044 -0.002618 -0.001414 0.004276
# 4 -0.000346 -0.001938 -0.002618 0.027750 0.002639 0.002341
# 5 0.001466 0.003809 -0.001414 0.002639 0.023198 -0.003316
# 6 0.001048 -0.000267 0.004276 0.002341 -0.003316 0.035761
#
#
# Mechanical properties :
#
#
# Convention : Reuss Voigt Hill
#
# Bulk Modulus (GPa) = 29.39838 41.22298 35.31068
# Shear Modulus (GPa) = 35.07715 41.69822 38.38768
#
# Velocity S-wave (km/s) = 3.84681 4.19419 4.02425
# Velocity P-wave (km/s) = 5.66859 6.39106 6.04063
#
# Compressibility (1/GPa) = 0.03401548
#
# Stress axis : x y z
#
# Youngs Moduli (GPa) = 117.09000 46.14456 110.56805
#
# Poissons Ratio (x) = 0.13299 0.15112
# Poissons Ratio (y) = 0.33745 -0.18008
# Poissons Ratio (z) = 0.16004 -0.07515
#
# Static dielectric constant tensor:
#      x y z
#    x 1.850840 -0.244980 0.089480 
#    y -0.244980 0.576480 0.507180 
#    z 0.089480 0.507180 1.771490 
# 
# From -- ./inp_files/206211.got.cif
#   From: 2010.05.17/outbox.cif.g08.bks.cpg/sg2_104_cif.got.tgz:206211.got - 2010.06.03 11:33:40.
