data_PCOD9057814
_publ_section_title
;
Structure prediction by ZEFSAII (Michael W. Deem and Ramdas Pophale) SiO2 
 PCOD9057814
Probable space group: P -1
;
_chemical_formula_sum "Si O2"
_cell_formula_units_Z 16
_cell_length_a 12.484263
_cell_length_b 10.271075
_cell_length_c 28.598431
_cell_angle_alpha 152.056352
_cell_angle_beta 25.963972
_cell_angle_gamma 140.690496
_cell_volume 748.559369
_symmetry_space_group_name_H-M "P -1"
_symmetry_group_IT_number 2
_symmetry_cell_setting 'triclinic'
loop_
_space_group_symop_operation_xyz
x,y,z
-x,-y,-z
loop_
_atom_site_type_symbol
_atom_site_label
_atom_site_fract_x
_atom_site_fract_y
_atom_site_fract_z
Si Si1 0.149128 0.854412 0.438604
Si Si2 0.078632 0.238955 0.255412
Si Si3 0.297861 0.262193 0.083271
Si Si4 0.353881 0.309797 0.644423
Si Si5 0.754049 0.144462 0.743351
Si Si6 0.280738 0.939203 0.889672
Si Si7 0.169018 0.813690 0.163838
Si Si8 0.504405 0.273105 0.467935
O O1 0.188949 0.533563 0.308952
O O2 0.385627 0.007389 0.408445
O O3 0.000000 0.000000 0.500000
O O4 0.948209 0.895923 0.571721
O O5 0.198447 0.116719 0.121507
O O6 0.787577 0.244090 0.363334
O O7 0.132236 0.093668 0.237431
O O8 0.170095 0.570988 0.219453
O O9 0.579062 0.324380 0.000409
O O10 0.277862 0.073315 0.985180
O O11 0.409831 0.618472 0.737469
O O12 0.357777 0.336410 0.594590
O O13 0.089570 0.308975 0.772768
O O14 0.500000 0.000000 0.500000
O O15 0.776296 0.167103 0.797036
O O16 0.470429 0.091501 0.830967
O O17 0.000000 0.000000 0.000000
O O18 0.500000 0.500000 0.500000
#
# Coordination Sequence:
#
# PCOD9057814 Si02
#       8
#     2   2   2   2   2   2   2   2
#     4  12  24  41  71 105 134 182 236 283 358 403
#     4  12  26  45  70 102 145 183 225 295 351 414
#     4  11  24  47  69  98 139 184 235 281 346 431
#     4  12  25  46  70 103 144 177 233 300 349 409
#     4  11  22  43  71  97 136 180 237 291 336 425
#     4  11  25  40  72 105 134 187 237 285 356 414
#     4  11  24  45  68  96 140 181 222 289 352 403
#     4  12  25  43  70 104 139 181 236 289 345 422
#
# _framework density 21.374390999999999
#
# number of rings (size 3 to 8) (size 9 to 14) (size 15 to 20)
#    0.000    0.500    5.000    4.125    1.750    2.500 
#    2.250    0.625    0.000    0.000    0.000    0.000 
#    0.000    0.000    0.000    0.000    0.000    0.000 
#
# Total GULP energy -89159.030499 kJ/mol
# GULP energy per Si atom -5572.439406 kJ/mol
# Density = 2.132574 g / cm^3
# Si number density = 21.374391 Si / 1000 Ang^3
#
#
#
# Elastic Constant Matrix: (Units=GPa)
#
#
# Indices 1 2 3 4 5 6 
#
# 1 -475.8058 -152.9286 -325.9498 122.9399 -139.3266 121.4793
# 2 -152.9286 42.3981 -106.7661 39.3800 -46.6596 43.7757
# 3 -325.9498 -106.7661 -164.9414 74.6305 -88.0044 87.6930
# 4 122.9399 39.3800 74.6305 16.2946 30.7500 -24.2732
# 5 -139.3266 -46.6596 -88.0044 30.7500 -1.5365 31.2280
# 6 121.4793 43.7757 87.6930 -24.2732 31.2280 19.3707
#
#
#
# Elastic Compliance Matrix: (Units=1/GPa)
#
#
# Indices 1 2 3 4 5 6 
#
# 1 0.010367 -0.004155 -0.011461 0.001710 -0.004611 0.005836
# 2 -0.004155 0.010997 0.000468 0.000325 0.000360 -0.001089
# 3 -0.011461 0.000468 0.018361 0.003677 -0.003239 -0.002473
# 4 0.001710 0.000325 0.003677 0.022245 0.001924 -0.003332
# 5 -0.004611 0.000360 -0.003239 0.001924 0.026611 0.002276
# 6 0.005836 -0.001089 -0.002473 -0.003332 0.002276 0.020835
#
#
# Mechanical properties :
#
#
# Convention : Reuss Voigt Hill
#
# Bulk Modulus (GPa) = 106.05247 -196.62646 -45.28700
# Shear Modulus (GPa) = 35.00013 5.97879 20.48946
#
# Velocity S-wave (km/s) = 4.05097 1.67429 3.09948
# Velocity P-wave (km/s) = 8.46196 9.40498 2.90249
#
# Compressibility (1/GPa) = 0.00942930
#
# Stress axis : x y z
#
# Youngs Moduli (GPa) = 96.45631 90.93153 54.46313
#
# Poissons Ratio (x) = 0.37783 0.62422
# Poissons Ratio (y) = 0.40079 -0.02551
# Poissons Ratio (z) = 1.10553 -0.04259
#
# Static dielectric constant tensor:
#      x y z
#    x 1.738550 0.081910 -0.030210 
#    y 0.081910 1.776840 -0.007520 
#    z -0.030210 -0.007520 1.846170 
# 
# From -- ./inp_files/618231.got.cif
#   From: 2010.05.17/outbox.cif.g08.bks.cpg/sg2_310_cif.got.tgz:618231.got - 2010.06.03 11:33:40.
