data_PCOD9057634
_publ_section_title
;
Structure prediction by ZEFSAII (Michael W. Deem and Ramdas Pophale) SiO2 
 PCOD9057634
Probable space group: P -1
;
_chemical_formula_sum "Si O2"
_cell_formula_units_Z 14
_cell_length_a 7.298189
_cell_length_b 9.360144
_cell_length_c 13.357963
_cell_angle_alpha 57.597678
_cell_angle_beta 112.398119
_cell_angle_gamma 128.779934
_cell_volume 599.169468
_symmetry_space_group_name_H-M "P -1"
_symmetry_group_IT_number 2
_symmetry_cell_setting 'triclinic'
loop_
_space_group_symop_operation_xyz
x,y,z
-x,-y,-z
loop_
_atom_site_type_symbol
_atom_site_label
_atom_site_fract_x
_atom_site_fract_y
_atom_site_fract_z
Si Si1 0.657626 0.235023 0.462418
Si Si2 0.285626 0.111935 0.774570
Si Si3 0.090324 0.203666 0.505703
Si Si4 0.219676 0.529572 0.780507
Si Si5 0.263607 0.194979 0.958870
Si Si6 0.213582 0.699914 0.914312
Si Si7 0.271774 0.624312 0.348275
O O1 0.605588 0.342719 0.321634
O O2 0.654775 0.302827 0.548915
O O3 0.907794 0.264523 0.479125
O O4 0.500000 0.000000 0.500000
O O5 0.173193 0.158661 0.642009
O O6 0.276085 0.211486 0.835577
O O7 0.549228 0.209647 0.754265
O O8 0.177630 0.880139 0.862853
O O9 0.269310 0.418212 0.409165
O O10 0.000000 0.000000 0.500000
O O11 0.271968 0.396125 0.913018
O O12 0.195306 0.671503 0.800862
O O13 0.971439 0.396979 0.722725
O O14 0.511843 0.221836 0.031900
O O15 0.000000 0.000000 0.000000
O O16 0.000000 0.500000 0.000000
#
# Coordination Sequence:
#
# PCOD9057634 Si02
#       7
#     2   2   2   2   2   2   2
#     4  11  23  40  64  97 133 172 218 269 337 421
#     4  12  24  42  67  93 130 175 214 279 344 394
#     4  11  23  39  64 101 133 169 219 271 338 419
#     4  11  23  42  66  92 129 175 215 277 339 391
#     4  12  26  45  67  95 127 176 233 280 334 401
#     4  12  26  45  66  97 132 174 232 287 332 394
#     4  11  22  43  66  97 135 173 218 273 342 420
#
# _framework density 23.365677000000002
#
# number of rings (size 3 to 8) (size 9 to 14) (size 15 to 20)
#    0.000    0.571    0.000   10.714    0.000    3.429 
#    0.000    0.000    0.000    0.000    0.000    0.000 
#    0.000    0.000    0.000    0.000    0.000    0.000 
#
# Total GULP energy -78129.295058 kJ/mol
# GULP energy per Si atom -5580.663933 kJ/mol
# Density = 2.331250 g / cm^3
# Si number density = 23.365677 Si / 1000 Ang^3
#
#
#
# Elastic Constant Matrix: (Units=GPa)
#
#
# Indices 1 2 3 4 5 6 
#
# 1 63.7272 4.0594 20.1876 -7.3532 -2.4130 7.3029
# 2 4.0594 98.1000 34.0257 -12.3515 -6.3190 -1.1066
# 3 20.1876 34.0257 90.5426 -12.0366 -6.4944 21.5488
# 4 -7.3532 -12.3515 -12.0366 56.4434 -10.0413 -3.1482
# 5 -2.4130 -6.3190 -6.4944 -10.0413 48.7577 -1.5042
# 6 7.3029 -1.1066 21.5488 -3.1482 -1.5042 35.4783
#
#
#
# Elastic Compliance Matrix: (Units=1/GPa)
#
#
# Indices 1 2 3 4 5 6 
#
# 1 0.017128 0.000777 -0.003549 0.001721 0.000794 -0.001159
# 2 0.000777 0.012421 -0.005333 0.002156 0.001497 0.003721
# 3 -0.003549 -0.005333 0.016326 0.001582 0.001351 -0.009154
# 4 0.001721 0.002156 0.001582 0.019613 0.004636 0.000689
# 5 0.000794 0.001497 0.001351 0.004636 0.021890 0.000402
# 6 -0.001159 0.003721 -0.009154 0.000689 0.000402 0.034179
#
#
# Mechanical properties :
#
#
# Convention : Reuss Voigt Hill
#
# Bulk Modulus (GPa) = 33.70959 40.99059 37.35009
# Shear Modulus (GPa) = 33.86258 41.07568 37.46913
#
# Velocity S-wave (km/s) = 3.81102 4.19734 4.00884
# Velocity P-wave (km/s) = 5.81580 6.40870 6.11943
#
# Compressibility (1/GPa) = 0.02966515
#
# Stress axis : x y z
#
# Youngs Moduli (GPa) = 58.38301 80.50885 61.25298
#
# Poissons Ratio (x) = -0.06256 0.21741
# Poissons Ratio (y) = -0.04537 0.32664
# Poissons Ratio (z) = 0.20722 0.42933
#
# Static dielectric constant tensor:
#      x y z
#    x 1.673010 -0.145830 0.212560 
#    y -0.145830 1.696210 0.111720 
#    z 0.212560 0.111720 1.754660 
# 
# From -- ./inp_files/381430.got.cif
#   From: 2010.05.17/outbox.cif.g08.bks.cpg/sg2_191_cif.got.tgz:381430.got - 2010.06.03 11:33:40.
