data_PCOD9057041
_publ_section_title
;
Structure prediction by ZEFSAII (Michael W. Deem and Ramdas Pophale) SiO2 
 PCOD9057041
Probable space group: P -1
;
_chemical_formula_sum "Si O2"
_cell_formula_units_Z 16
_cell_length_a 7.481693
_cell_length_b 8.734144
_cell_length_c 15.081997
_cell_angle_alpha 129.492261
_cell_angle_beta 85.954128
_cell_angle_gamma 108.547533
_cell_volume 709.270339
_symmetry_space_group_name_H-M "P -1"
_symmetry_group_IT_number 2
_symmetry_cell_setting 'triclinic'
loop_
_space_group_symop_operation_xyz
x,y,z
-x,-y,-z
loop_
_atom_site_type_symbol
_atom_site_label
_atom_site_fract_x
_atom_site_fract_y
_atom_site_fract_z
Si Si1 0.357428 0.585046 0.245429
Si Si2 0.476701 0.991846 0.293727
Si Si3 0.928375 0.851627 0.863023
Si Si4 0.526722 0.638294 0.444884
Si Si5 0.645071 0.504475 0.077870
Si Si6 0.875901 0.980225 0.258586
Si Si7 0.610470 0.045249 0.918106
Si Si8 0.156435 0.383902 0.470300
O O1 0.336169 0.761158 0.244812
O O2 0.158590 0.396200 0.202247
O O3 0.470625 0.689660 0.368829
O O4 0.502978 0.487104 0.158683
O O5 0.491649 0.015467 0.196031
O O6 0.437751 0.168620 0.417442
O O7 0.686881 0.998548 0.314457
O O8 0.080315 0.915557 0.802233
O O9 0.754178 0.920001 0.863109
O O10 0.000000 0.000000 0.000000
O O11 0.326857 0.465565 0.422336
O O12 0.714424 0.571894 0.427655
O O13 0.820932 0.727920 0.156655
O O14 0.500000 0.500000 0.000000
O O15 0.705318 0.300452 0.001958
O O16 0.046385 0.133233 0.368145
O O17 0.500000 0.000000 0.000000
O O18 0.000000 0.500000 0.500000
#
# Coordination Sequence:
#
# PCOD9057041 Si02
#       8
#     2   2   2   2   2   2   2   2
#     4  11  23  44  71 101 139 185 234 286 360 427
#     4  11  24  44  75  97 139 187 231 292 354 420
#     4  12  25  41  64 103 140 173 237 293 346 423
#     4  11  24  44  72 104 140 194 236 282 365 427
#     4  11  22  45  69  96 138 181 231 288 356 416
#     4  11  22  41  68  98 138 179 229 290 350 406
#     4  12  24  42  73 100 131 188 237 279 356 427
#     4  11  23  42  70 103 142 183 237 297 342 415
#
# _framework density 22.558394
#
# number of rings (size 3 to 8) (size 9 to 14) (size 15 to 20)
#    0.000    0.750    6.250    2.625    1.750    0.500 
#    4.500    2.500    2.750    0.000    0.000    0.000 
#    0.000    0.000    0.000    0.000    0.000    0.000 
#
# Total GULP energy -89281.394293 kJ/mol
# GULP energy per Si atom -5580.087143 kJ/mol
# Density = 2.250705 g / cm^3
# Si number density = 22.558394 Si / 1000 Ang^3
#
#
#
# Elastic Constant Matrix: (Units=GPa)
#
#
# Indices 1 2 3 4 5 6 
#
# 1 70.4062 31.9422 22.3531 12.2816 6.6044 -1.1188
# 2 31.9422 127.5825 39.0904 16.5265 6.2321 9.4974
# 3 22.3531 39.0904 102.6328 4.5133 8.2503 -0.1644
# 4 12.2816 16.5265 4.5133 49.0726 0.8597 3.3929
# 5 6.6044 6.2321 8.2503 0.8597 35.8235 2.7588
# 6 -1.1188 9.4974 -0.1644 3.3929 2.7588 24.2520
#
#
#
# Elastic Compliance Matrix: (Units=1/GPa)
#
#
# Indices 1 2 3 4 5 6 
#
# 1 0.017202 -0.003339 -0.002153 -0.003136 -0.002234 0.002779
# 2 -0.003339 0.010166 -0.003053 -0.002039 -0.000104 -0.003859
# 3 -0.002153 -0.003053 0.011505 0.000450 -0.001834 0.001320
# 4 -0.003136 -0.002039 0.000450 0.021970 0.000492 -0.002473
# 5 -0.002234 -0.000104 -0.001834 0.000492 0.029020 -0.003445
# 6 0.002779 -0.003859 0.001320 -0.002473 -0.003445 0.043620
#
#
# Mechanical properties :
#
#
# Convention : Reuss Voigt Hill
#
# Bulk Modulus (GPa) = 45.90621 54.15479 50.03050
# Shear Modulus (GPa) = 31.67881 35.64533 33.66207
#
# Velocity S-wave (km/s) = 3.75147 3.97940 3.86712
# Velocity P-wave (km/s) = 6.25770 6.72107 6.49352
#
# Compressibility (1/GPa) = 0.02178355
#
# Stress axis : x y z
#
# Youngs Moduli (GPa) = 58.13174 98.36950 86.91904
#
# Poissons Ratio (x) = 0.32843 0.18714
# Poissons Ratio (y) = 0.19409 0.26536
# Poissons Ratio (z) = 0.12516 0.30031
#
# Static dielectric constant tensor:
#      x y z
#    x 2.271430 -0.006860 0.345780 
#    y -0.006860 1.909330 0.014470 
#    z 0.345780 0.014470 2.128280 
# 
# From -- ./inp_files/495608.got.cif
#   From: 2010.05.17/outbox.cif.g08.bks.cpg/sg2_248_cif.got.tgz:495608.got - 2010.06.03 11:33:40.
