data_PCOD9057785
_publ_section_title
;
Structure prediction by ZEFSAII (Michael W. Deem and Ramdas Pophale) SiO2 
 PCOD9057785
Probable space group: P -1
;
_chemical_formula_sum "Si O2"
_cell_formula_units_Z 16
_cell_length_a 28.452867
_cell_length_b 12.090080
_cell_length_c 9.591569
_cell_angle_alpha 144.349899
_cell_angle_beta 26.226713
_cell_angle_gamma 150.758879
_cell_volume 705.428472
_symmetry_space_group_name_H-M "P -1"
_symmetry_group_IT_number 2
_symmetry_cell_setting 'triclinic'
loop_
_space_group_symop_operation_xyz
x,y,z
-x,-y,-z
loop_
_atom_site_type_symbol
_atom_site_label
_atom_site_fract_x
_atom_site_fract_y
_atom_site_fract_z
Si Si1 0.736838 0.442882 0.007199
Si Si2 0.532657 0.648204 0.426811
Si Si3 0.238004 0.869752 0.599028
Si Si4 0.311872 0.156661 0.201075
Si Si5 0.916424 0.556209 0.874577
Si Si6 0.130780 0.042732 0.832323
Si Si7 0.397567 0.580798 0.225584
Si Si8 0.205095 0.732221 0.847104
O O1 0.598217 0.399310 0.335038
O O2 0.840694 0.708543 0.965490
O O3 0.741587 0.284960 0.717734
O O4 0.780609 0.413948 0.012215
O O5 0.500000 0.500000 0.500000
O O6 0.627061 0.911929 0.483452
O O7 0.594260 0.559220 0.067015
O O8 0.169430 0.743128 0.795028
O O9 0.173932 0.969925 0.779639
O O10 0.222479 0.072968 0.489940
O O11 0.331540 0.387635 0.323544
O O12 0.455418 0.228863 0.929913
O O13 0.252091 0.963952 0.043959
O O14 0.000000 0.500000 0.500000
O O15 0.905902 0.467873 0.967419
O O16 0.986579 0.829038 0.968776
O O17 0.317680 0.685923 0.504652
#
# Coordination Sequence:
#
# PCOD9057785 Si02
#       8
#     2   2   2   2   2   2   2   2
#     4  12  25  46  77 104 141 195 238 287 361 417
#     4  12  23  44  71 109 153 183 226 288 365 444
#     4  12  26  44  71 107 147 186 231 290 367 434
#     4  11  22  43  70  98 144 185 233 300 350 416
#     4  12  26  50  74 103 138 191 255 295 337 415
#     4  12  25  49  74 101 140 195 244 293 345 420
#     4  11  24  41  67 109 143 181 236 291 357 427
#     4  12  26  42  71 104 144 186 233 296 363 411
#
# _framework density 22.681249999999999
#
# number of rings (size 3 to 8) (size 9 to 14) (size 15 to 20)
#    0.000    0.250    6.250    2.625    1.750    2.500 
#    0.000    0.625    0.000    0.000    0.000    0.000 
#    0.000    0.000    0.000    0.000    0.000    0.000 
#
# Total GULP energy -89644.488033 kJ/mol
# GULP energy per Si atom -5602.780502 kJ/mol
# Density = 2.262963 g / cm^3
# Si number density = 22.681250 Si / 1000 Ang^3
#
#
#
# Elastic Constant Matrix: (Units=GPa)
#
#
# Indices 1 2 3 4 5 6 
#
# 1 134.6892 10.1043 28.7549 -12.0833 20.2129 -12.6796
# 2 10.1043 100.9441 8.2604 1.4367 21.8500 11.5388
# 3 28.7549 8.2604 46.6245 4.6777 19.4599 -0.3279
# 4 -12.0833 1.4367 4.6777 41.5712 -0.9728 9.2799
# 5 20.2129 21.8500 19.4599 -0.9728 42.1512 -6.0429
# 6 -12.6796 11.5388 -0.3279 9.2799 -6.0429 44.3651
#
#
#
# Elastic Compliance Matrix: (Units=1/GPa)
#
#
# Indices 1 2 3 4 5 6 
#
# 1 0.009237 -0.000447 -0.005300 0.002832 -0.001408 0.001933
# 2 -0.000447 0.011861 0.001065 0.000110 -0.007023 -0.004184
# 3 -0.005300 0.001065 0.030149 -0.004755 -0.012363 -0.002258
# 4 0.002832 0.000110 -0.004755 0.026474 0.000718 -0.004694
# 5 -0.001408 -0.007023 -0.012363 0.000718 0.034609 0.005897
# 6 0.001933 -0.004184 -0.002258 -0.004694 0.005897 0.025949
#
#
# Mechanical properties :
#
#
# Convention : Reuss Voigt Hill
#
# Bulk Modulus (GPa) = 23.87635 41.83298 32.85466
# Shear Modulus (GPa) = 30.93943 41.29338 36.11640
#
# Velocity S-wave (km/s) = 3.69738 4.27147 3.99475
# Velocity P-wave (km/s) = 5.36444 6.54303 5.98283
#
# Compressibility (1/GPa) = 0.04188245
#
# Stress axis : x y z
#
# Youngs Moduli (GPa) = 108.26015 84.30970 33.16830
#
# Poissons Ratio (x) = 0.03771 0.17580
# Poissons Ratio (y) = 0.04843 -0.03533
# Poissons Ratio (z) = 0.57382 -0.08981
#
# Static dielectric constant tensor:
#      x y z
#    x 1.847320 -0.019310 -0.005660 
#    y -0.019310 1.861980 -0.026580 
#    z -0.005660 -0.026580 1.820350 
# 
# From -- ./inp_files/357079.got.cif
#   From: 2010.05.17/outbox.cif.g08.bks.cpg/sg2_179_cif.got.tgz:357079.got - 2010.06.03 11:33:40.
