data_PCOD9057818
_publ_section_title
;
Structure prediction by ZEFSAII (Michael W. Deem and Ramdas Pophale) SiO2 
 PCOD9057818
Probable space group: P -1
;
_chemical_formula_sum "Si O2"
_cell_formula_units_Z 16
_cell_length_a 8.603244
_cell_length_b 15.918420
_cell_length_c 8.797579
_cell_angle_alpha 49.089625
_cell_angle_beta 97.315069
_cell_angle_gamma 66.149950
_cell_volume 685.799029
_symmetry_space_group_name_H-M "P -1"
_symmetry_group_IT_number 2
_symmetry_cell_setting 'triclinic'
loop_
_space_group_symop_operation_xyz
x,y,z
-x,-y,-z
loop_
_atom_site_type_symbol
_atom_site_label
_atom_site_fract_x
_atom_site_fract_y
_atom_site_fract_z
Si Si1 0.117842 0.439120 0.925345
Si Si2 0.906511 0.102694 0.219542
Si Si3 0.539603 0.377811 0.988829
Si Si4 0.191350 0.181374 0.082243
Si Si5 0.163383 0.281272 0.625456
Si Si6 0.397040 0.676611 0.602714
Si Si7 0.569678 0.093767 0.727443
Si Si8 0.959836 0.891153 0.226252
O O1 0.314290 0.431015 0.935490
O O2 0.948714 0.558433 0.639329
O O3 0.194189 0.279189 0.088013
O O4 0.000000 0.500000 0.000000
O O5 0.032017 0.158466 0.138693
O O6 0.930908 0.001341 0.211533
O O7 0.668503 0.242295 0.052847
O O8 0.000000 0.000000 0.500000
O O9 0.529301 0.508998 0.772348
O O10 0.659944 0.324529 0.228155
O O11 0.404023 0.016902 0.260991
O O12 0.126652 0.270953 0.809047
O O13 0.404873 0.162651 0.759488
O O14 0.080668 0.214824 0.595825
O O15 0.480219 0.763243 0.518782
O O16 0.200102 0.774682 0.352667
O O17 0.794073 0.987255 0.960495
#
# Coordination Sequence:
#
# PCOD9057818 Si02
#       8
#     2   2   2   2   2   2   2   2
#     4  12  28  47  73 103 146 193 235 288 362 426
#     4  12  26  44  71 106 142 182 239 302 346 423
#     4  11  26  43  69 102 142 185 232 290 358 420
#     4  11  26  46  71 105 142 184 240 296 352 420
#     4  11  26  47  72 103 148 190 235 295 351 426
#     4  11  22  45  69  98 141 182 238 292 351 417
#     4  11  24  45  74 104 140 189 237 293 352 421
#     4  11  22  43  71  97 138 184 231 286 357 406
#
# _framework density 23.330449999999999
#
# number of rings (size 3 to 8) (size 9 to 14) (size 15 to 20)
#    0.000    0.750    3.750    3.000   12.250    0.000 
#    0.000    3.125    0.000    0.000    0.000    0.000 
#    0.000    0.000    0.000    0.000    0.000    0.000 
#
# Total GULP energy -89374.964532 kJ/mol
# GULP energy per Si atom -5585.935283 kJ/mol
# Density = 2.327735 g / cm^3
# Si number density = 23.330450 Si / 1000 Ang^3
#
#
#
# Elastic Constant Matrix: (Units=GPa)
#
#
# Indices 1 2 3 4 5 6 
#
# 1 56.8305 43.1423 26.9182 -8.3284 -13.2925 -9.4522
# 2 43.1423 135.9479 41.4580 -32.1248 -17.2119 8.6685
# 3 26.9182 41.4580 97.5107 -21.9216 -16.9473 -8.3073
# 4 -8.3284 -32.1248 -21.9216 37.9199 4.2877 -6.6089
# 5 -13.2925 -17.2119 -16.9473 4.2877 35.3984 -6.7267
# 6 -9.4522 8.6685 -8.3073 -6.6089 -6.7267 38.6719
#
#
#
# Elastic Compliance Matrix: (Units=1/GPa)
#
#
# Indices 1 2 3 4 5 6 
#
# 1 0.027951 -0.008090 -0.002563 -0.001427 0.007239 0.009110
# 2 -0.008090 0.012421 -0.001682 0.007039 0.000619 -0.003812
# 3 -0.002563 -0.001682 0.014517 0.006664 0.005299 0.004930
# 4 -0.001427 0.007039 0.006664 0.036645 0.002828 0.006259
# 5 0.007239 0.000619 0.005299 0.002828 0.035247 0.009383
# 6 0.009110 -0.003812 0.004930 0.006259 0.009383 0.032701
#
#
# Mechanical properties :
#
#
# Convention : Reuss Voigt Hill
#
# Bulk Modulus (GPa) = 33.09255 57.03621 45.06438
# Shear Modulus (GPa) = 25.74329 34.31607 30.02968
#
# Velocity S-wave (km/s) = 3.32538 3.83935 3.59157
# Velocity P-wave (km/s) = 5.38138 6.64488 6.04622
#
# Compressibility (1/GPa) = 0.03021828
#
# Stress axis : x y z
#
# Youngs Moduli (GPa) = 35.77704 80.50931 68.88297
#
# Poissons Ratio (x) = 0.65133 0.17654
# Poissons Ratio (y) = 0.28944 0.11589
# Poissons Ratio (z) = 0.09169 0.13545
#
# Static dielectric constant tensor:
#      x y z
#    x 1.969820 0.022400 -0.031260 
#    y 0.022400 1.887170 0.006350 
#    z -0.031260 0.006350 1.892860 
# 
# From -- ./inp_files/205636.got.cif
#   From: 2010.05.17/outbox.cif.g08.bks.cpg/sg2_103_cif.got.tgz:205636.got - 2010.06.03 11:33:40.
