data_PCOD9057765
_publ_section_title
;
Structure prediction by ZEFSAII (Michael W. Deem and Ramdas Pophale) SiO2 
 PCOD9057765
Probable space group: P -1
;
_chemical_formula_sum "Si O2"
_cell_formula_units_Z 16
_cell_length_a 11.107914
_cell_length_b 9.013883
_cell_length_c 19.788651
_cell_angle_alpha 35.845611
_cell_angle_beta 140.493786
_cell_angle_gamma 117.113104
_cell_volume 657.126599
_symmetry_space_group_name_H-M "P -1"
_symmetry_group_IT_number 2
_symmetry_cell_setting 'triclinic'
loop_
_space_group_symop_operation_xyz
x,y,z
-x,-y,-z
loop_
_atom_site_type_symbol
_atom_site_label
_atom_site_fract_x
_atom_site_fract_y
_atom_site_fract_z
Si Si1 0.934335 0.976363 0.129577
Si Si2 0.897895 0.608950 0.013429
Si Si3 0.306585 0.071011 0.440857
Si Si4 0.288350 0.500566 0.380624
Si Si5 0.321898 0.935578 0.141274
Si Si6 0.652075 0.278878 0.013470
Si Si7 0.756222 0.845057 0.327671
Si Si8 0.764517 0.453545 0.350217
O O1 0.734726 0.053145 0.965486
O O2 0.836363 0.028304 0.141742
O O3 0.105958 0.665414 0.295359
O O4 0.039166 0.188368 0.080401
O O5 0.099419 0.310466 0.225755
O O6 0.712182 0.537059 0.933923
O O7 0.813335 0.771756 0.987176
O O8 0.322912 0.210821 0.467672
O O9 0.500000 0.000000 0.500000
O O10 0.286844 0.788419 0.551238
O O11 0.500000 0.500000 0.500000
O O12 0.245188 0.716817 0.219225
O O13 0.567306 0.854656 0.288636
O O14 0.418007 0.373068 0.847526
O O15 0.682687 0.157304 0.147412
O O16 0.759627 0.651176 0.337248
O O17 0.992099 0.713091 0.508369
#
# Coordination Sequence:
#
# PCOD9057765 Si02
#       8
#     2   2   2   2   2   2   2   2
#     4  11  22  43  70  96 135 175 225 276 336 407
#     4  11  23  43  67 102 133 173 223 279 350 396
#     4  12  23  41  68 101 138 174 219 285 349 394
#     4  11  25  41  68 105 138 174 222 277 348 404
#     4  11  22  46  68  92 137 184 220 271 334 410
#     4  12  25  44  72 100 129 181 232 276 334 401
#     4  11  25  47  70  94 136 187 230 273 335 393
#     4  11  25  42  66  99 134 169 233 281 322 401
#
# _framework density 24.348427000000001
#
# number of rings (size 3 to 8) (size 9 to 14) (size 15 to 20)
#    0.000    0.750    5.000    3.000    5.250    2.500 
#    0.000    0.625    0.000    0.000    0.000    0.000 
#    0.000    0.000    0.000    0.000    0.000    0.000 
#
# Total GULP energy -89615.332666 kJ/mol
# GULP energy per Si atom -5600.958292 kJ/mol
# Density = 2.429301 g / cm^3
# Si number density = 24.348427 Si / 1000 Ang^3
#
#
#
# Elastic Constant Matrix: (Units=GPa)
#
#
# Indices 1 2 3 4 5 6 
#
# 1 109.8837 25.2872 39.8799 -6.0842 7.4657 28.8656
# 2 25.2872 95.0081 18.8930 3.5268 0.5049 21.4518
# 3 39.8799 18.8930 111.1313 10.9159 21.9364 18.5882
# 4 -6.0842 3.5268 10.9159 42.2444 17.9229 0.9847
# 5 7.4657 0.5049 21.9364 17.9229 36.6371 5.8990
# 6 28.8656 21.4518 18.5882 0.9847 5.8990 31.4669
#
#
#
# Elastic Compliance Matrix: (Units=1/GPa)
#
#
# Indices 1 2 3 4 5 6 
#
# 1 0.013213 -0.000839 -0.003142 0.003396 -0.000910 -0.009628
# 2 -0.000839 0.012758 -0.000908 -0.001935 0.002749 -0.007846
# 3 -0.003142 -0.000908 0.011890 -0.001029 -0.005569 -0.002446
# 4 0.003396 -0.001935 -0.001029 0.031096 -0.015377 0.000722
# 5 -0.000910 0.002749 -0.005569 -0.015377 0.039038 -0.004586
# 6 -0.009628 -0.007846 -0.002446 0.000722 -0.004586 0.048242
#
#
# Mechanical properties :
#
#
# Convention : Reuss Voigt Hill
#
# Bulk Modulus (GPa) = 35.60992 53.79368 44.70180
# Shear Modulus (GPa) = 28.51013 37.53389 33.02201
#
# Velocity S-wave (km/s) = 3.42559 3.93049 3.68669
# Velocity P-wave (km/s) = 5.50482 6.53756 6.04329
#
# Compressibility (1/GPa) = 0.02808207
#
# Stress axis : x y z
#
# Youngs Moduli (GPa) = 75.68185 78.38162 84.10564
#
# Poissons Ratio (x) = 0.06578 0.26429
# Poissons Ratio (y) = 0.06351 0.07636
# Poissons Ratio (z) = 0.23782 0.07117
#
# Static dielectric constant tensor:
#      x y z
#    x 1.890590 -0.005700 -0.028600 
#    y -0.005700 1.960290 0.044780 
#    z -0.028600 0.044780 2.049890 
# 
# From -- ./inp_files/593971.got.cif
#   From: 2010.05.17/outbox.cif.g08.bks.cpg/sg2_297_cif.got.tgz:593971.got - 2010.06.03 11:33:40.
