data_PCOD9057710
_publ_section_title
;
Structure prediction by ZEFSAII (Michael W. Deem and Ramdas Pophale) SiO2 
 PCOD9057710
Probable space group: P -1
;
_chemical_formula_sum "Si O2"
_cell_formula_units_Z 16
_cell_length_a 7.742027
_cell_length_b 14.029494
_cell_length_c 9.090186
_cell_angle_alpha 134.262505
_cell_angle_beta 71.115389
_cell_angle_gamma 90.656737
_cell_volume 634.641299
_symmetry_space_group_name_H-M "P -1"
_symmetry_group_IT_number 2
_symmetry_cell_setting 'triclinic'
loop_
_space_group_symop_operation_xyz
x,y,z
-x,-y,-z
loop_
_atom_site_type_symbol
_atom_site_label
_atom_site_fract_x
_atom_site_fract_y
_atom_site_fract_z
Si Si1 0.798756 0.559227 0.032552
Si Si2 0.159628 0.157705 0.344850
Si Si3 0.788029 0.284187 0.755694
Si Si4 0.204864 0.094322 0.939756
Si Si5 0.482244 0.305614 0.339023
Si Si6 0.152982 0.879602 0.140292
Si Si7 0.207868 0.410640 0.281892
Si Si8 0.476960 0.791149 0.479258
O O1 0.695361 0.447572 0.993543
O O2 0.792637 0.553055 0.850950
O O3 0.695461 0.716868 0.286758
O O4 0.000000 0.500000 0.000000
O O5 0.122286 0.099736 0.133473
O O6 0.333135 0.219395 0.332724
O O7 0.967295 0.266439 0.577512
O O8 0.199809 0.024709 0.296792
O O9 0.856638 0.195047 0.785628
O O10 0.641008 0.226199 0.649013
O O11 0.245206 0.242446 0.078963
O O12 0.045890 0.094119 0.863194
O O13 0.386527 0.954020 0.723395
O O14 0.357987 0.421162 0.381378
O O15 0.557075 0.309317 0.488702
O O16 0.669942 0.220102 0.107403
O O17 0.000000 0.500000 0.500000
#
# Coordination Sequence:
#
# PCOD9057710 Si02
#       8
#     2   2   2   2   2   2   2   2
#     4  12  26  50  71 101 145 194 236 292 358 423
#     4  11  22  43  69 103 142 182 233 292 352 418
#     4  12  26  45  72 102 147 191 234 291 355 428
#     4  11  24  43  73 105 140 183 237 296 353 422
#     4  11  25  43  73 103 141 186 237 295 350 420
#     4  12  23  43  69 108 142 182 238 292 356 419
#     4  11  25  48  72 103 140 189 240 288 353 427
#     4  12  25  45  69 105 144 182 238 293 359 413
#
# _framework density 25.211089999999999
#
# number of rings (size 3 to 8) (size 9 to 14) (size 15 to 20)
#    0.000    0.500    2.500    6.750    1.750    0.500 
#    0.000    1.875    0.000    0.000    0.000    0.000 
#    0.000    0.000    0.000    0.000    0.000    0.000 
#
# Total GULP energy -89457.238127 kJ/mol
# GULP energy per Si atom -5591.077383 kJ/mol
# Density = 2.515371 g / cm^3
# Si number density = 25.211090 Si / 1000 Ang^3
#
#
#
# Elastic Constant Matrix: (Units=GPa)
#
#
# Indices 1 2 3 4 5 6 
#
# 1 67.0220 21.5851 25.7361 -5.1967 -18.9744 -30.7176
# 2 21.5851 181.6647 63.5182 -3.6311 -6.2651 -18.8327
# 3 25.7361 63.5182 155.6437 1.2546 -25.8141 -21.2122
# 4 -5.1967 -3.6311 1.2546 39.6076 -5.2357 0.5545
# 5 -18.9744 -6.2651 -25.8141 -5.2357 40.1793 11.0405
# 6 -30.7176 -18.8327 -21.2122 0.5545 11.0405 40.9068
#
#
#
# Elastic Compliance Matrix: (Units=1/GPa)
#
#
# Indices 1 2 3 4 5 6 
#
# 1 0.025264 -0.000835 -0.000390 0.004028 0.007602 0.016278
# 2 -0.000835 0.006622 -0.002600 0.000377 -0.001379 0.001440
# 3 -0.000390 -0.002600 0.008518 -0.000001 0.004405 0.001738
# 4 0.004028 0.000377 -0.000001 0.026450 0.004997 0.001490
# 5 0.007602 -0.001379 0.004405 0.004997 0.032124 -0.001380
# 6 0.016278 0.001440 0.001738 0.001490 -0.001380 0.038586
#
#
# Mechanical properties :
#
#
# Convention : Reuss Voigt Hill
#
# Bulk Modulus (GPa) = 30.53000 69.55658 50.04329
# Shear Modulus (GPa) = 32.02389 43.70481 37.86435
#
# Velocity S-wave (km/s) = 3.56790 4.16812 3.87963
# Velocity P-wave (km/s) = 5.39530 7.12838 6.32151
#
# Compressibility (1/GPa) = 0.03275466
#
# Stress axis : x y z
#
# Youngs Moduli (GPa) = 39.58141 151.00651 117.39949
#
# Poissons Ratio (x) = 0.12615 0.04575
# Poissons Ratio (y) = 0.03307 0.30522
# Poissons Ratio (z) = 0.01543 0.39259
#
# Static dielectric constant tensor:
#      x y z
#    x 2.100280 -0.022130 0.071400 
#    y -0.022130 2.031670 0.005190 
#    z 0.071400 0.005190 2.007520 
# 
# From -- ./inp_files/208952.got.cif
#   From: 2010.05.17/outbox.cif.g08.bks.cpg/sg2_105_cif.got.tgz:208952.got - 2010.06.03 11:33:40.
