data_PCOD9057320
_publ_section_title
;
Structure prediction by ZEFSAII (Michael W. Deem and Ramdas Pophale) SiO2 
 PCOD9057320
Probable space group: P -1
;
_chemical_formula_sum "Si O2"
_cell_formula_units_Z 16
_cell_length_a 9.164753
_cell_length_b 14.475941
_cell_length_c 6.145480
_cell_angle_alpha 92.957882
_cell_angle_beta 101.025845
_cell_angle_gamma 113.043172
_cell_volume 729.154817
_symmetry_space_group_name_H-M "P -1"
_symmetry_group_IT_number 2
_symmetry_cell_setting 'triclinic'
loop_
_space_group_symop_operation_xyz
x,y,z
-x,-y,-z
loop_
_atom_site_type_symbol
_atom_site_label
_atom_site_fract_x
_atom_site_fract_y
_atom_site_fract_z
Si Si1 0.338117 0.926675 0.825558
Si Si2 0.917258 0.972158 0.226292
Si Si3 0.820607 0.746405 0.059907
Si Si4 0.714295 0.241772 0.481895
Si Si5 0.982281 0.594167 0.616368
Si Si6 0.483062 0.348827 0.325632
Si Si7 0.848402 0.270004 0.969640
Si Si8 0.346611 0.428357 0.665701
O O1 0.351816 0.878843 0.590164
O O2 0.212029 0.977986 0.798492
O O3 0.263495 0.820576 0.919556
O O4 0.500000 0.000000 0.000000
O O5 0.837451 0.850483 0.186389
O O6 0.000000 0.000000 0.500000
O O7 0.000000 0.000000 0.000000
O O8 0.742196 0.649504 0.180703
O O9 0.000489 0.757776 0.052065
O O10 0.694989 0.722665 0.821227
O O11 0.901991 0.304176 0.466712
O O12 0.599581 0.290158 0.349937
O O13 0.732185 0.268479 0.742492
O O14 0.000000 0.500000 0.500000
O O15 0.796593 0.577395 0.543729
O O16 0.063082 0.620893 0.878799
O O17 0.463441 0.388657 0.563794
O O18 0.563140 0.454294 0.227924
#
# Coordination Sequence:
#
# PCOD9057320 Si02
#       8
#     2   2   2   2   2   2   2   2
#     4  11  26  49  69 105 143 184 242 312 373 443
#     4  12  28  48  80 114 147 196 256 310 377 450
#     4  12  24  45  74  99 143 193 240 302 365 443
#     4  11  24  44  71 101 137 182 236 296 360 436
#     4  11  22  42  67  97 137 181 229 281 348 432
#     4  11  25  44  67 106 144 184 238 302 366 432
#     4  11  24  43  72  99 136 186 239 290 368 439
#     4  11  24  43  69 102 142 186 240 296 361 442
#
# _framework density 21.943214000000001
#
# number of rings (size 3 to 8) (size 9 to 14) (size 15 to 20)
#    0.000    0.750    5.000    1.875    3.500    4.000 
#    4.500    0.000    0.000    0.000    0.000    0.000 
#    0.000    0.000    0.000    0.000    0.000    0.000 
#
# Total GULP energy -89253.929287 kJ/mol
# GULP energy per Si atom -5578.370580 kJ/mol
# Density = 2.189327 g / cm^3
# Si number density = 21.943214 Si / 1000 Ang^3
#
#
#
# Elastic Constant Matrix: (Units=GPa)
#
#
# Indices 1 2 3 4 5 6 
#
# 1 103.1185 29.4534 23.2685 15.5891 9.6224 -21.7402
# 2 29.4534 85.5198 36.6937 42.4164 6.4608 -10.9207
# 3 23.2685 36.6937 101.4438 30.4676 18.9401 -13.7206
# 4 15.5891 42.4164 30.4676 43.0615 1.7058 -12.5173
# 5 9.6224 6.4608 18.9401 1.7058 27.5710 7.9445
# 6 -21.7402 -10.9207 -13.7206 -12.5173 7.9445 33.2112
#
#
#
# Elastic Compliance Matrix: (Units=1/GPa)
#
#
# Indices 1 2 3 4 5 6 
#
# 1 0.013153 -0.003867 0.000458 0.001878 -0.006969 0.009902
# 2 -0.003867 0.024551 -0.001433 -0.022704 -0.001047 -0.003357
# 3 0.000458 -0.001433 0.015588 -0.007484 -0.011882 0.006290
# 4 0.001878 -0.022704 -0.007484 0.052875 0.003738 0.009706
# 5 -0.006969 -0.001047 -0.011882 0.003738 0.052950 -0.021072
# 6 0.009902 -0.003357 0.006290 0.009706 -0.021072 0.046786
#
#
# Mechanical properties :
#
#
# Convention : Reuss Voigt Hill
#
# Bulk Modulus (GPa) = 22.93153 52.10149 37.51651
# Shear Modulus (GPa) = 21.72760 34.14651 27.93705
#
# Velocity S-wave (km/s) = 3.15012 3.94906 3.57200
# Velocity P-wave (km/s) = 4.86868 6.67748 5.84349
#
# Compressibility (1/GPa) = 0.04360807
#
# Stress axis : x y z
#
# Youngs Moduli (GPa) = 76.03002 40.73169 64.15239
#
# Poissons Ratio (x) = 0.15750 -0.02940
# Poissons Ratio (y) = 0.29399 0.09195
# Poissons Ratio (z) = -0.03484 0.05838
#
# Static dielectric constant tensor:
#      x y z
#    x 1.769670 0.034460 -0.063430 
#    y 0.034460 1.760380 -0.008330 
#    z -0.063430 -0.008330 2.092760 
# 
# From -- ./inp_files/39459.got.cif
#   From: 2010.05.17/outbox.cif.g08.bks.cpg/sg2_20_cif.got.tgz:39459.got - 2010.06.03 11:33:40.
