data_PCOD9057095
_publ_section_title
;
Structure prediction by ZEFSAII (Michael W. Deem and Ramdas Pophale) SiO2 
 PCOD9057095
Probable space group: P -1
;
_chemical_formula_sum "Si O2"
_cell_formula_units_Z 14
_cell_length_a 8.359684
_cell_length_b 12.289121
_cell_length_c 10.960842
_cell_angle_alpha 135.106730
_cell_angle_beta 113.371955
_cell_angle_gamma 41.955925
_cell_volume 510.731578
_symmetry_space_group_name_H-M "P -1"
_symmetry_group_IT_number 2
_symmetry_cell_setting 'triclinic'
loop_
_space_group_symop_operation_xyz
x,y,z
-x,-y,-z
loop_
_atom_site_type_symbol
_atom_site_label
_atom_site_fract_x
_atom_site_fract_y
_atom_site_fract_z
Si Si1 0.108007 0.068239 0.706143
Si Si2 0.178325 0.203996 0.056076
Si Si3 0.237139 0.356843 0.654555
Si Si4 0.303224 0.832558 0.943372
Si Si5 0.365877 0.751721 0.166824
Si Si6 0.652678 0.644552 0.581728
Si Si7 0.829608 0.372681 0.631351
O O1 0.912701 0.104264 0.761576
O O2 0.965155 0.186199 0.630148
O O3 0.364315 0.811459 0.590127
O O4 0.174146 0.186428 0.894319
O O5 0.292308 0.266924 0.224617
O O6 0.890975 0.397346 0.161648
O O7 0.298312 0.978945 0.969515
O O8 0.509524 0.205902 0.669625
O O9 0.239484 0.347724 0.502937
O O10 0.063663 0.349647 0.671070
O O11 0.382172 0.817122 0.092408
O O12 0.548891 0.580565 0.768797
O O13 0.000000 0.000000 0.000000
O O14 0.500000 0.500000 0.000000
O O15 0.765494 0.418975 0.500697
#
# Coordination Sequence:
#
# PCOD9057095 Si02
#       7
#     2   2   2   2   2   2   2
#     4  12  24  43  74 102 134 176 234 282 333 400
#     4  11  22  41  70 100 134 176 226 286 330 395
#     4  11  26  46  68  96 143 180 224 279 340 409
#     4  12  22  39  71 106 135 172 230 287 339 392
#     4  12  23  43  68 101 135 175 226 285 338 397
#     4  11  26  47  65 101 143 179 226 280 339 402
#     4  11  24  42  72 101 132 182 229 276 339 399
#
# _framework density 27.411657999999999
#
# number of rings (size 3 to 8) (size 9 to 14) (size 15 to 20)
#    0.000    0.571    5.714    2.143    4.000    4.000 
#    2.571    0.714    0.000    0.000    0.000    0.000 
#    0.000    0.000    0.000    0.000    0.000    0.000 
#
# Total GULP energy -77985.850122 kJ/mol
# GULP energy per Si atom -5570.417866 kJ/mol
# Density = 2.734927 g / cm^3
# Si number density = 27.411658 Si / 1000 Ang^3
#
#
#
# Elastic Constant Matrix: (Units=GPa)
#
#
# Indices 1 2 3 4 5 6 
#
# 1 90.4938 61.1014 46.5769 -12.2811 -20.1969 -7.4089
# 2 61.1014 186.9386 42.8844 -21.0055 11.7008 1.0423
# 3 46.5769 42.8844 93.1318 -15.8609 -14.2879 2.6017
# 4 -12.2811 -21.0055 -15.8609 65.9261 -4.0281 -1.7707
# 5 -20.1969 11.7008 -14.2879 -4.0281 39.9763 -10.0979
# 6 -7.4089 1.0423 2.6017 -1.7707 -10.0979 53.3270
#
#
#
# Elastic Compliance Matrix: (Units=1/GPa)
#
#
# Indices 1 2 3 4 5 6 
#
# 1 0.021967 -0.006445 -0.006012 0.001513 0.012475 0.005884
# 2 -0.006445 0.008292 -0.001455 0.000621 -0.006705 -0.002235
# 3 -0.006012 -0.001455 0.015255 0.002234 0.002828 -0.000941
# 4 0.001513 0.000621 0.002234 0.016425 0.003357 0.001270
# 5 0.012475 -0.006705 0.002828 0.003357 0.036856 0.008817
# 6 0.005884 -0.002235 -0.000941 0.001270 0.008817 0.021371
#
#
# Mechanical properties :
#
#
# Convention : Reuss Voigt Hill
#
# Bulk Modulus (GPa) = 56.52738 74.63219 65.57979
# Shear Modulus (GPa) = 32.49175 46.51265 39.50220
#
# Velocity S-wave (km/s) = 3.44659 4.12372 3.80027
# Velocity P-wave (km/s) = 6.04194 7.06816 6.57510
#
# Compressibility (1/GPa) = 0.01769054
#
# Stress axis : x y z
#
# Youngs Moduli (GPa) = 45.52256 120.60366 65.55320
#
# Poissons Ratio (x) = 0.77724 0.39408
# Poissons Ratio (y) = 0.29337 0.09540
# Poissons Ratio (z) = 0.27366 0.17552
#
# Static dielectric constant tensor:
#      x y z
#    x 2.330630 -0.024600 0.198670 
#    y -0.024600 2.247430 0.131320 
#    z 0.198670 0.131320 2.266000 
# 
# From -- ./inp_files/397655.got.cif
#   From: 2010.05.17/outbox.cif.g08.bks.cpg/sg2_199_cif.got.tgz:397655.got - 2010.06.03 11:33:40.
