data_PCOD9057993
_publ_section_title
;
Structure prediction by ZEFSAII (Michael W. Deem and Ramdas Pophale) SiO2 
 PCOD9057993
Probable space group: P -1
;
_chemical_formula_sum "Si O2"
_cell_formula_units_Z 16
_cell_length_a 16.371329
_cell_length_b 20.359825
_cell_length_c 12.399326
_cell_angle_alpha 155.412492
_cell_angle_beta 35.435897
_cell_angle_gamma 157.014798
_cell_volume 665.111827
_symmetry_space_group_name_H-M "P -1"
_symmetry_group_IT_number 2
_symmetry_cell_setting 'triclinic'
loop_
_space_group_symop_operation_xyz
x,y,z
-x,-y,-z
loop_
_atom_site_type_symbol
_atom_site_label
_atom_site_fract_x
_atom_site_fract_y
_atom_site_fract_z
Si Si1 0.843825 0.001081 0.381920
Si Si2 0.739972 0.229404 0.119323
Si Si3 0.331783 0.113705 0.094567
Si Si4 0.504977 0.493431 0.648404
Si Si5 0.423265 0.847623 0.584563
Si Si6 0.135513 0.328396 0.107670
Si Si7 0.048342 0.205078 0.694599
Si Si8 0.123086 0.323796 0.366173
O O1 0.004889 0.166199 0.554243
O O2 0.958146 0.103755 0.295694
O O3 0.652910 0.965836 0.533331
O O4 0.757328 0.753990 0.132750
O O5 0.703422 0.237016 0.294476
O O6 0.844443 0.472004 0.318673
O O7 0.892043 0.211002 0.908367
O O8 0.500000 0.000000 0.000000
O O9 0.440129 0.280168 0.333145
O O10 0.348769 0.272724 0.231701
O O11 0.433962 0.039437 0.824365
O O12 0.085868 0.870857 0.012463
O O13 0.295230 0.422439 0.780370
O O14 0.644738 0.560703 0.699750
O O15 0.279953 0.591515 0.301858
O O16 0.067688 0.288572 0.247644
O O17 0.000000 0.000000 0.500000
#
# Coordination Sequence:
#
# PCOD9057993 Si02
#       8
#     2   2   2   2   2   2   2   2
#     4  12  24  44  70 104 133 188 231 281 344 415
#     4  11  23  42  65 102 140 180 227 287 346 402
#     4  11  22  44  68 102 137 179 233 281 349 395
#     4  11  23  42  71 100 139 180 225 291 342 402
#     4  11  25  42  71  97 142 182 231 285 342 410
#     4  11  24  47  69  99 141 188 230 280 344 410
#     4  12  25  41  70 104 141 174 231 289 349 408
#     4  11  25  44  73 100 141 184 229 285 343 414
#
# _framework density 24.056106
#
# number of rings (size 3 to 8) (size 9 to 14) (size 15 to 20)
#    0.000    0.750    3.750    4.125    3.500    0.500 
#    0.000    0.625    0.000    0.000    0.000    0.000 
#    0.000    0.000    0.000    0.000    0.000    0.000 
#
# Total GULP energy -89421.532492 kJ/mol
# GULP energy per Si atom -5588.845781 kJ/mol
# Density = 2.400135 g / cm^3
# Si number density = 24.056106 Si / 1000 Ang^3
#
#
#
# Elastic Constant Matrix: (Units=GPa)
#
#
# Indices 1 2 3 4 5 6 
#
# 1 68.8441 26.5003 32.4638 3.4331 0.2965 8.9136
# 2 26.5003 112.7817 46.6206 -19.5112 -16.5146 29.4755
# 3 32.4638 46.6206 128.5474 -4.0055 -27.7735 24.1353
# 4 3.4331 -19.5112 -4.0055 49.6161 4.5737 -8.6527
# 5 0.2965 -16.5146 -27.7735 4.5737 36.3930 -11.1812
# 6 8.9136 29.4755 24.1353 -8.6527 -11.1812 38.2243
#
#
#
# Elastic Compliance Matrix: (Units=1/GPa)
#
#
# Indices 1 2 3 4 5 6 
#
# 1 0.018154 -0.003424 -0.004323 -0.002654 -0.004947 -0.000911
# 2 -0.003424 0.013254 -0.002177 0.003949 0.001853 -0.006611
# 3 -0.004323 -0.002177 0.011720 -0.000761 0.007237 -0.002769
# 4 -0.002654 0.003949 -0.000761 0.022403 -0.000684 0.002925
# 5 -0.004947 0.001853 0.007237 -0.000684 0.035634 0.005424
# 6 -0.000911 -0.006611 -0.002769 0.002925 0.005424 0.035468
#
#
# Mechanical properties :
#
#
# Convention : Reuss Voigt Hill
#
# Bulk Modulus (GPa) = 42.95829 57.92696 50.44262
# Shear Modulus (GPa) = 30.44274 38.48593 34.46434
#
# Velocity S-wave (km/s) = 3.56123 4.00414 3.78916
# Velocity P-wave (km/s) = 5.89967 6.74609 6.33703
#
# Compressibility (1/GPa) = 0.02327839
#
# Stress axis : x y z
#
# Youngs Moduli (GPa) = 55.08435 75.45129 85.32144
#
# Poissons Ratio (x) = 0.25834 0.36888
# Poissons Ratio (y) = 0.18861 0.18578
# Poissons Ratio (z) = 0.23815 0.16428
#
# Static dielectric constant tensor:
#      x y z
#    x 1.947920 -0.033610 -0.006030 
#    y -0.033610 1.941660 0.013030 
#    z -0.006030 0.013030 2.083950 
# 
# From -- ./inp_files/539302.got.cif
#   From: 2010.05.17/outbox.cif.g08.bks.cpg/sg2_270_cif.got.tgz:539302.got - 2010.06.03 11:33:40.
