data_PCOD9057049
_publ_section_title
;
Structure prediction by ZEFSAII (Michael W. Deem and Ramdas Pophale) SiO2 
 PCOD9057049
Probable space group: P -1
;
_chemical_formula_sum "Si O2"
_cell_formula_units_Z 16
_cell_length_a 8.775019
_cell_length_b 11.020512
_cell_length_c 13.678810
_cell_angle_alpha 68.726265
_cell_angle_beta 147.042712
_cell_angle_gamma 110.774514
_cell_volume 667.287648
_symmetry_space_group_name_H-M "P -1"
_symmetry_group_IT_number 2
_symmetry_cell_setting 'triclinic'
loop_
_space_group_symop_operation_xyz
x,y,z
-x,-y,-z
loop_
_atom_site_type_symbol
_atom_site_label
_atom_site_fract_x
_atom_site_fract_y
_atom_site_fract_z
Si Si1 0.193236 0.620953 0.519837
Si Si2 0.983177 0.537769 0.226633
Si Si3 0.476022 0.691755 0.926239
Si Si4 0.462986 0.764857 0.120636
Si Si5 0.295724 0.510258 0.209797
Si Si6 0.473879 0.051703 0.241334
Si Si7 0.991393 0.076732 0.117376
Si Si8 0.028874 0.908696 0.377618
O O1 0.515845 0.592917 0.705850
O O2 0.122807 0.761698 0.476068
O O3 0.000000 0.500000 0.500000
O O4 0.135839 0.612191 0.376291
O O5 0.801504 0.407396 0.204903
O O6 0.204048 0.504045 0.274482
O O7 0.739599 0.628968 0.037714
O O8 0.439573 0.830472 0.820268
O O9 0.530413 0.707475 0.067363
O O10 0.459225 0.651574 0.231625
O O11 0.698954 0.884833 0.233556
O O12 0.150377 0.810455 0.934549
O O13 0.000000 0.500000 0.000000
O O14 0.752453 0.008312 0.457162
O O15 0.244940 0.958023 0.084237
O O16 0.284375 0.102339 0.212452
O O17 0.031774 0.965861 0.252621
#
# Coordination Sequence:
#
# PCOD9057049 Si02
#       8
#     2   2   2   2   2   2   2   2
#     4  12  24  45  69 103 142 179 232 286 344 421
#     4  11  23  41  67 101 144 181 229 278 352 417
#     4  11  22  41  69 100 136 187 224 283 353 413
#     4  12  24  46  69 101 142 181 231 290 343 413
#     4  12  26  43  67 107 137 182 228 282 349 414
#     4  11  25  45  71  99 132 186 233 285 354 407
#     4  11  26  48  70 100 139 179 236 291 343 414
#     4  12  25  45  73 101 137 183 232 284 347 412
#
# _framework density 23.977665999999999
#
# number of rings (size 3 to 8) (size 9 to 14) (size 15 to 20)
#    0.000    0.500    5.000    2.625    5.250    1.500 
#    0.000    0.000    0.000    0.000    0.000    0.000 
#    0.000    0.000    0.000    0.000    0.000    0.000 
#
# Total GULP energy -89510.304036 kJ/mol
# GULP energy per Si atom -5594.394002 kJ/mol
# Density = 2.392309 g / cm^3
# Si number density = 23.977666 Si / 1000 Ang^3
#
#
#
# Elastic Constant Matrix: (Units=GPa)
#
#
# Indices 1 2 3 4 5 6 
#
# 1 78.1697 -5.3112 31.6120 -10.1334 20.2159 -2.4725
# 2 -5.3112 35.6514 -4.1071 -7.2637 0.5592 0.7882
# 3 31.6120 -4.1071 86.4678 14.5135 11.2364 3.6343
# 4 -10.1334 -7.2637 14.5135 41.6514 -12.8968 4.0494
# 5 20.2159 0.5592 11.2364 -12.8968 36.3173 -3.5969
# 6 -2.4725 0.7882 3.6343 4.0494 -3.5969 26.0194
#
#
#
# Elastic Compliance Matrix: (Units=1/GPa)
#
#
# Indices 1 2 3 4 5 6 
#
# 1 0.017908 0.003052 -0.006524 0.005200 -0.006064 0.000873
# 2 0.003052 0.029751 -0.000739 0.006392 0.000196 -0.001476
# 3 -0.006524 -0.000739 0.016022 -0.008498 -0.004544 -0.002141
# 4 0.005200 0.006392 -0.008498 0.033007 0.011149 -0.002108
# 5 -0.006064 0.000196 -0.004544 0.011149 0.036607 0.003378
# 6 0.000873 -0.001476 -0.002141 -0.002108 0.003378 0.039655
#
#
# Mechanical properties :
#
#
# Convention : Reuss Voigt Hill
#
# Bulk Modulus (GPa) = 18.09659 27.18624 22.64142
# Shear Modulus (GPa) = 25.02622 32.67062 28.84842
#
# Velocity S-wave (km/s) = 3.23419 3.69527 3.47239
# Velocity P-wave (km/s) = 4.63792 5.43778 5.05370
#
# Compressibility (1/GPa) = 0.05525903
#
# Stress axis : x y z
#
# Youngs Moduli (GPa) = 55.84064 33.61249 62.41554
#
# Poissons Ratio (x) = -0.10257 0.40717
# Poissons Ratio (y) = -0.17040 0.04611
# Poissons Ratio (z) = 0.36428 0.02483
#
# Static dielectric constant tensor:
#      x y z
#    x 1.940860 -0.039310 -0.016070 
#    y -0.039310 1.936770 0.002050 
#    z -0.016070 0.002050 1.957500 
# 
# From -- ./inp_files/299463.got.cif
#   From: 2010.05.17/outbox.cif.g08.bks.cpg/sg2_150_cif.got.tgz:299463.got - 2010.06.03 11:33:40.
