data_PCOD9057747
_publ_section_title
;
Structure prediction by ZEFSAII (Michael W. Deem and Ramdas Pophale) SiO2 
 PCOD9057747
Probable space group: P -1
;
_chemical_formula_sum "Si O2"
_cell_formula_units_Z 16
_cell_length_a 12.038815
_cell_length_b 9.967885
_cell_length_c 23.483636
_cell_angle_alpha 146.326487
_cell_angle_beta 150.965825
_cell_angle_gamma 42.270198
_cell_volume 757.534125
_symmetry_space_group_name_H-M "P -1"
_symmetry_group_IT_number 2
_symmetry_cell_setting 'triclinic'
loop_
_space_group_symop_operation_xyz
x,y,z
-x,-y,-z
loop_
_atom_site_type_symbol
_atom_site_label
_atom_site_fract_x
_atom_site_fract_y
_atom_site_fract_z
Si Si1 0.850479 0.294750 0.888477
Si Si2 0.945790 0.097706 0.072666
Si Si3 0.969585 0.497636 0.371508
Si Si4 0.228168 0.565328 0.398790
Si Si5 0.760837 0.971358 0.626366
Si Si6 0.044071 0.019429 0.403339
Si Si7 0.486996 0.485186 0.885827
Si Si8 0.592432 0.813934 0.147334
O O1 0.648026 0.396113 0.874956
O O2 0.770003 0.140603 0.744896
O O3 0.990119 0.104987 0.923917
O O4 0.000000 0.500000 0.000000
O O5 0.089743 0.336770 0.232389
O O6 0.673819 0.136165 0.964977
O O7 0.000000 0.000000 0.000000
O O8 0.742237 0.393861 0.203225
O O9 0.123227 0.605505 0.428542
O O10 0.130180 0.291298 0.399897
O O11 0.884809 0.715169 0.451982
O O12 0.500000 0.500000 0.500000
O O13 0.169295 0.805399 0.420484
O O14 0.500000 0.000000 0.500000
O O15 0.906673 0.039539 0.660878
O O16 0.772611 0.015935 0.291852
O O17 0.388272 0.286544 0.815027
O O18 0.640593 0.626273 0.050278
#
# Coordination Sequence:
#
# PCOD9057747 Si02
#       8
#     2   2   2   2   2   2   2   2
#     4  12  27  45  72 105 142 193 243 290 365 436
#     4  12  26  45  73 106 148 189 235 302 367 418
#     4  12  25  46  70 104 139 193 238 297 365 416
#     4  12  26  45  72 108 144 185 247 300 354 430
#     4  12  27  50  68 101 152 192 238 299 359 428
#     4  12  27  43  74 106 138 189 250 289 359 435
#     4  11  22  43  71  98 142 182 231 299 361 416
#     4  11  22  43  70 104 142 178 234 304 354 422
#
# _framework density 21.12116
#
# number of rings (size 3 to 8) (size 9 to 14) (size 15 to 20)
#    0.000    0.250    5.000    3.750    5.250    2.000 
#    0.000    2.500    0.000    0.000    0.000    0.000 
#    0.000    0.000    0.000    0.000    0.000    0.000 
#
# Total GULP energy -89399.497309 kJ/mol
# GULP energy per Si atom -5587.468582 kJ/mol
# Density = 2.107309 g / cm^3
# Si number density = 21.121160 Si / 1000 Ang^3
#
#
#
# Elastic Constant Matrix: (Units=GPa)
#
#
# Indices 1 2 3 4 5 6 
#
# 1 152.7633 53.5073 48.5690 -5.4022 -22.5102 1.9587
# 2 53.5073 152.0274 58.0550 -23.8890 -4.2936 8.1172
# 3 48.5690 58.0550 103.7760 -16.0767 0.9434 -3.0690
# 4 -5.4022 -23.8890 -16.0767 36.2716 -6.3713 -0.0090
# 5 -22.5102 -4.2936 0.9434 -6.3713 34.3472 -6.6767
# 6 1.9587 8.1172 -3.0690 -0.0090 -6.6767 36.7219
#
#
#
# Elastic Compliance Matrix: (Units=1/GPa)
#
#
# Indices 1 2 3 4 5 6 
#
# 1 0.009096 -0.001862 -0.003293 -0.000294 0.005905 0.000725
# 2 -0.001862 0.009522 -0.003849 0.004366 0.000449 -0.002244
# 3 -0.003293 -0.003849 0.013825 0.002722 -0.002167 0.001789
# 4 -0.000294 0.004366 0.002722 0.032739 0.006440 0.000457
# 5 0.005905 0.000449 -0.002167 0.006440 0.035432 0.005848
# 6 0.000725 -0.002244 0.001789 0.000457 0.005848 0.028902
#
#
# Mechanical properties :
#
#
# Convention : Reuss Voigt Hill
#
# Bulk Modulus (GPa) = 69.28218 80.98102 75.13160
# Shear Modulus (GPa) = 32.82232 38.03050 35.42641
#
# Velocity S-wave (km/s) = 3.94636 4.24794 4.09992
# Velocity P-wave (km/s) = 7.32383 7.90471 7.61980
#
# Compressibility (1/GPa) = 0.01443373
#
# Stress axis : x y z
#
# Youngs Moduli (GPa) = 109.94234 105.02458 72.33237
#
# Poissons Ratio (x) = 0.19554 0.23820
# Poissons Ratio (y) = 0.20469 0.27843
# Poissons Ratio (z) = 0.36205 0.40428
#
# Static dielectric constant tensor:
#      x y z
#    x 1.784670 -0.037900 -0.041020 
#    y -0.037900 1.797150 0.030510 
#    z -0.041020 0.030510 1.783910 
# 
# From -- ./inp_files/594281.got.cif
#   From: 2010.05.17/outbox.cif.g08.bks.cpg/sg2_298_cif.got.tgz:594281.got - 2010.06.03 11:33:40.
