data_PCOD9057619
_publ_section_title
;
Structure prediction by ZEFSAII (Michael W. Deem and Ramdas Pophale) SiO2 
 PCOD9057619
Probable space group: P -1
;
_chemical_formula_sum "Si O2"
_cell_formula_units_Z 14
_cell_length_a 23.537249
_cell_length_b 7.573062
_cell_length_c 9.543625
_cell_angle_alpha 70.195730
_cell_angle_beta 36.407584
_cell_angle_gamma 43.591236
_cell_volume 558.774506
_symmetry_space_group_name_H-M "P -1"
_symmetry_group_IT_number 2
_symmetry_cell_setting 'triclinic'
loop_
_space_group_symop_operation_xyz
x,y,z
-x,-y,-z
loop_
_atom_site_type_symbol
_atom_site_label
_atom_site_fract_x
_atom_site_fract_y
_atom_site_fract_z
Si Si1 0.826972 0.718383 0.721000
Si Si2 0.982905 0.790907 0.084537
Si Si3 0.390271 0.593498 0.027466
Si Si4 0.362906 0.479292 0.395357
Si Si5 0.972589 0.373889 0.258605
Si Si6 0.724159 0.622373 0.182297
Si Si7 0.326981 0.669147 0.820350
O O1 0.000000 0.500000 0.500000
O O2 0.865486 0.513569 0.573282
O O3 0.717701 0.804975 0.038993
O O4 0.740788 0.045341 0.755643
O O5 0.935225 0.648193 0.221956
O O6 0.826075 0.168370 0.308140
O O7 0.057341 0.694633 0.805345
O O8 0.100690 0.629244 0.025870
O O9 0.546555 0.480973 0.731859
O O10 0.328971 0.618743 0.994480
O O11 0.413404 0.403523 0.153254
O O12 0.386205 0.248361 0.496520
O O13 0.164480 0.047090 0.004719
O O14 0.695785 0.480835 0.186077
O O15 0.500000 0.500000 0.500000
#
# Coordination Sequence:
#
# PCOD9057619 Si02
#       7
#     2   2   2   2   2   2   2
#     4  12  23  44  66 103 133 180 219 277 332 397
#     4  11  22  43  66 100 130 175 223 273 327 403
#     4  11  23  44  71  91 141 176 222 268 345 390
#     4  11  23  42  69  98 130 179 217 280 326 394
#     4  11  23  41  71  93 138 177 215 275 334 392
#     4  12  25  41  71 100 134 170 232 273 333 389
#     4  12  24  44  66 103 131 178 221 281 329 395
#
# _framework density 25.054831
#
# number of rings (size 3 to 8) (size 9 to 14) (size 15 to 20)
#    0.000    0.571    7.143    0.429    0.000    2.286 
#    2.571    0.000    0.000    2.571    0.000    0.000 
#    0.000    0.000    0.000    0.000    0.000    0.000 
#
# Total GULP energy -78247.604719 kJ/mol
# GULP energy per Si atom -5589.114623 kJ/mol
# Density = 2.499780 g / cm^3
# Si number density = 25.054831 Si / 1000 Ang^3
#
#
#
# Elastic Constant Matrix: (Units=GPa)
#
#
# Indices 1 2 3 4 5 6 
#
# 1 157.5435 8.2088 27.8037 3.6546 14.4282 -20.8631
# 2 8.2088 58.7493 34.6917 -24.8099 12.2752 -6.8465
# 3 27.8037 34.6917 82.1732 -17.4423 4.9455 -14.0820
# 4 3.6546 -24.8099 -17.4423 57.9474 -16.8840 0.5801
# 5 14.4282 12.2752 4.9455 -16.8840 33.1023 -9.2489
# 6 -20.8631 -6.8465 -14.0820 0.5801 -9.2489 35.5672
#
#
#
# Elastic Compliance Matrix: (Units=1/GPa)
#
#
# Indices 1 2 3 4 5 6 
#
# 1 0.007473 0.000652 -0.002566 -0.001977 -0.003385 0.002645
# 2 0.000652 0.026673 -0.009647 0.006987 -0.005098 0.000257
# 3 -0.002566 -0.009647 0.018310 0.002911 0.004872 0.005107
# 4 -0.001977 0.006987 0.002911 0.024546 0.011450 0.003915
# 5 -0.003385 -0.005098 0.004872 0.011450 0.041350 0.009528
# 6 0.002645 0.000257 0.005107 0.003915 0.009528 0.034152
#
#
# Mechanical properties :
#
#
# Convention : Reuss Voigt Hill
#
# Bulk Modulus (GPa) = 34.09214 48.87492 41.48353
# Shear Modulus (GPa) = 26.96796 40.50752 33.73774
#
# Velocity S-wave (km/s) = 3.28435 4.02525 3.67353
# Velocity P-wave (km/s) = 5.29331 6.41507 5.88100
#
# Compressibility (1/GPa) = 0.02933227
#
# Stress axis : x y z
#
# Youngs Moduli (GPa) = 133.82399 37.49121 54.61363
#
# Poissons Ratio (x) = -0.02443 0.14015
# Poissons Ratio (y) = -0.08721 0.52687
# Poissons Ratio (z) = 0.34343 0.36168
#
# Static dielectric constant tensor:
#      x y z
#    x 1.999080 -0.028910 0.003180 
#    y -0.028910 1.965060 -0.069940 
#    z 0.003180 -0.069940 2.087630 
# 
# From -- ./inp_files/352138.got.cif
#   From: 2010.05.17/outbox.cif.g08.bks.cpg/sg2_177_cif.got.tgz:352138.got - 2010.06.03 11:33:40.
