data_PCOD9057503
_publ_section_title
;
Structure prediction by ZEFSAII (Michael W. Deem and Ramdas Pophale) SiO2 
 PCOD9057503
Probable space group: P -1
;
_chemical_formula_sum "Si O2"
_cell_formula_units_Z 12
_cell_length_a 11.082628
_cell_length_b 11.664139
_cell_length_c 19.772297
_cell_angle_alpha 22.257451
_cell_angle_beta 137.349339
_cell_angle_gamma 127.006724
_cell_volume 624.245230
_symmetry_space_group_name_H-M "P -1"
_symmetry_group_IT_number 2
_symmetry_cell_setting 'triclinic'
loop_
_space_group_symop_operation_xyz
x,y,z
-x,-y,-z
loop_
_atom_site_type_symbol
_atom_site_label
_atom_site_fract_x
_atom_site_fract_y
_atom_site_fract_z
Si Si1 0.104789 0.722364 0.358697
Si Si2 0.379515 0.012950 0.877079
Si Si3 0.759789 0.829221 0.063824
Si Si4 0.723053 0.379077 0.651112
Si Si5 0.993053 0.813607 0.530120
Si Si6 0.962173 0.171594 0.178369
O O1 0.227109 0.358468 0.619464
O O2 0.213296 0.802224 0.295076
O O3 0.896929 0.759619 0.223818
O O4 0.083146 0.922562 0.308632
O O5 0.255913 0.778576 0.954291
O O6 0.500000 0.000000 0.000000
O O7 0.539909 0.928026 0.933205
O O8 0.829382 0.502878 0.229373
O O9 0.796321 0.123978 0.879675
O O10 0.500000 0.500000 0.500000
O O11 0.820148 0.660694 0.540841
O O12 0.991904 0.027164 0.345784
O O13 0.000000 0.000000 0.500000
O O14 0.000000 0.500000 0.000000
#
# Coordination Sequence:
#
# PCOD9057503 Si02
#       6
#     2   2   2   2   2   2
#     4  11  22  43  69  95 135 168 227 278 323 393
#     4  12  22  42  73  96 125 175 231 275 323 399
#     4  11  22  42  74  97 129 174 229 274 330 395
#     4  11  22  42  72 101 124 173 231 271 329 400
#     4  11  25  44  66  96 142 175 214 277 340 392
#     4  12  26  43  64 101 141 175 218 279 339 387
#
# _framework density 19.223215
#
# number of rings (size 3 to 8) (size 9 to 14) (size 15 to 20)
#    0.000    0.667    6.667    3.500    4.667    0.000 
#    3.000    3.333    0.000    0.000    0.000    0.000 
#    0.000    0.000    0.000    0.000    0.000    0.000 
#
# Total GULP energy -66934.656074 kJ/mol
# GULP energy per Si atom -5577.888006 kJ/mol
# Density = 1.917946 g / cm^3
# Si number density = 19.223215 Si / 1000 Ang^3
#
#
#
# Elastic Constant Matrix: (Units=GPa)
#
#
# Indices 1 2 3 4 5 6 
#
# 1 166.9117 84.5773 71.4243 -12.1270 8.7668 6.6720
# 2 84.5773 118.0587 73.5635 -12.6725 -7.1863 -11.6312
# 3 71.4243 73.5635 139.0826 -2.5572 -7.4997 6.5504
# 4 -12.1270 -12.6725 -2.5572 33.0166 0.1194 2.0018
# 5 8.7668 -7.1863 -7.4997 0.1194 37.1208 -1.7595
# 6 6.6720 -11.6312 6.5504 2.0018 -1.7595 46.2800
#
#
#
# Elastic Compliance Matrix: (Units=1/GPa)
#
#
# Indices 1 2 3 4 5 6 
#
# 1 0.010828 -0.007016 -0.001911 0.001351 -0.004461 -0.003282
# 2 -0.007016 0.018753 -0.006327 0.003713 0.004311 0.006623
# 3 -0.001911 -0.006327 0.011691 -0.002059 0.001461 -0.002825
# 4 0.001351 0.003713 -0.002059 0.032072 -0.000136 -0.000363
# 5 -0.004461 0.004311 0.001461 -0.000136 0.029248 0.002638
# 6 -0.003282 0.006623 -0.002825 -0.000363 0.002638 0.024261
#
#
# Mechanical properties :
#
#
# Convention : Reuss Voigt Hill
#
# Bulk Modulus (GPa) = 92.89671 98.13148 95.51410
# Shear Modulus (GPa) = 31.06577 36.24934 33.65756
#
# Velocity S-wave (km/s) = 4.02438 4.34718 4.18889
# Velocity P-wave (km/s) = 8.36806 8.73823 8.55514
#
# Compressibility (1/GPa) = 0.01076464
#
# Stress axis : x y z
#
# Youngs Moduli (GPa) = 92.35494 53.32566 85.53335
#
# Poissons Ratio (x) = 0.37416 0.16341
# Poissons Ratio (y) = 0.64801 0.54114
# Poissons Ratio (z) = 0.17644 0.33737
#
# Static dielectric constant tensor:
#      x y z
#    x 1.753360 -0.017500 -0.029900 
#    y -0.017500 1.671650 0.007480 
#    z -0.029900 0.007480 1.683360 
# 
# From -- ./inp_files/402487.got.cif
#   From: 2010.05.17/outbox.cif.g08.bks.cpg/sg2_202_cif.got.tgz:402487.got - 2010.06.03 11:33:40.
