data_PCOD9057463
_publ_section_title
;
Structure prediction by ZEFSAII (Michael W. Deem and Ramdas Pophale) SiO2 
 PCOD9057463
Probable space group: P -1
;
_chemical_formula_sum "Si O2"
_cell_formula_units_Z 16
_cell_length_a 24.366904
_cell_length_b 14.847651
_cell_length_c 8.906461
_cell_angle_alpha 147.167440
_cell_angle_beta 131.141821
_cell_angle_gamma 27.176692
_cell_volume 743.924995
_symmetry_space_group_name_H-M "P -1"
_symmetry_group_IT_number 2
_symmetry_cell_setting 'triclinic'
loop_
_space_group_symop_operation_xyz
x,y,z
-x,-y,-z
loop_
_atom_site_type_symbol
_atom_site_label
_atom_site_fract_x
_atom_site_fract_y
_atom_site_fract_z
Si Si1 0.717924 0.928693 0.329952
Si Si2 0.375285 0.831583 0.187814
Si Si3 0.687334 0.321026 0.659300
Si Si4 0.777403 0.141239 0.233901
Si Si5 0.023497 0.106376 0.309581
Si Si6 0.557139 0.034090 0.754449
Si Si7 0.000716 0.495818 0.674690
Si Si8 0.216640 0.495851 0.362068
O O1 0.856786 0.741782 0.348734
O O2 0.663041 0.996637 0.491321
O O3 0.654507 0.204466 0.515239
O O4 0.738672 0.725544 0.987200
O O5 0.395517 0.909189 0.190543
O O6 0.500000 0.500000 0.000000
O O7 0.278867 0.868810 0.013529
O O8 0.707526 0.253521 0.424403
O O9 0.563285 0.670408 0.951828
O O10 0.824746 0.143099 0.721184
O O11 0.774588 0.336299 0.452795
O O12 0.917987 0.797972 0.021203
O O13 0.966076 0.379616 0.510304
O O14 0.928843 0.253891 0.487092
O O15 0.000000 0.000000 0.000000
O O16 0.500000 0.000000 0.500000
O O17 0.678283 0.730887 0.635931
O O18 0.000000 0.500000 0.500000
#
# Coordination Sequence:
#
# PCOD9057463 Si02
#       8
#     2   2   2   2   2   2   2   2
#     4  11  25  45  72 105 138 183 232 294 354 417
#     4  12  25  45  75 100 142 187 232 284 358 426
#     4  11  26  46  71 102 142 184 234 294 353 420
#     4  12  27  46  70 105 142 188 235 288 346 422
#     4  11  24  44  74 107 143 181 233 298 355 417
#     4  12  27  47  73 105 143 185 236 290 356 418
#     4  11  22  42  71 102 139 184 231 282 354 421
#     4  12  28  45  71 107 144 182 241 291 346 415
#
# _framework density 21.507545
#
# number of rings (size 3 to 8) (size 9 to 14) (size 15 to 20)
#    0.000    0.500    2.500    5.250    5.250    6.500 
#    0.000    0.000    0.000    0.000    0.000    0.000 
#    0.000    0.000    0.000    0.000    0.000    0.000 
#
# Total GULP energy -89437.662435 kJ/mol
# GULP energy per Si atom -5589.853902 kJ/mol
# Density = 2.145859 g / cm^3
# Si number density = 21.507545 Si / 1000 Ang^3
#
#
#
# Elastic Constant Matrix: (Units=GPa)
#
#
# Indices 1 2 3 4 5 6 
#
# 1 83.2108 17.0330 33.5344 -1.3546 -0.4452 13.6650
# 2 17.0330 34.4956 3.0821 5.0651 7.1978 2.8894
# 3 33.5344 3.0821 118.8857 -3.1335 -5.0875 2.1620
# 4 -1.3546 5.0651 -3.1335 44.0597 -2.1213 0.4537
# 5 -0.4452 7.1978 -5.0875 -2.1213 46.0627 4.7208
# 6 13.6650 2.8894 2.1620 0.4537 4.7208 28.0587
#
#
#
# Elastic Compliance Matrix: (Units=1/GPa)
#
#
# Indices 1 2 3 4 5 6 
#
# 1 0.016513 -0.007709 -0.004221 0.001250 0.001696 -0.007229
# 2 -0.007709 0.034452 0.000900 -0.004419 -0.005681 0.001164
# 3 -0.004221 0.000900 0.009605 0.000477 0.000790 0.001082
# 4 0.001250 -0.004419 0.000477 0.023379 0.001923 -0.000892
# 5 0.001696 -0.005681 0.000790 0.001923 0.023224 -0.004241
# 6 -0.007229 0.001164 0.001082 -0.000892 -0.004241 0.039685
#
#
# Mechanical properties :
#
#
# Convention : Reuss Voigt Hill
#
# Bulk Modulus (GPa) = 25.96589 38.21012 32.08801
# Shear Modulus (GPa) = 27.50970 35.83239 31.67105
#
# Velocity S-wave (km/s) = 3.58029 4.08614 3.84155
# Velocity P-wave (km/s) = 5.40282 6.32981 5.88460
#
# Compressibility (1/GPa) = 0.03851206
#
# Stress axis : x y z
#
# Youngs Moduli (GPa) = 60.55737 29.02597 104.10742
#
# Poissons Ratio (x) = 0.22375 0.43945
# Poissons Ratio (y) = 0.46681 -0.09374
# Poissons Ratio (z) = 0.25562 -0.02614
#
# Static dielectric constant tensor:
#      x y z
#    x 1.758810 -0.254880 -0.106390 
#    y -0.254880 -0.426090 -0.927880 
#    z -0.106390 -0.927880 1.343710 
# 
# From -- ./inp_files/354615.got.cif
#   From: 2010.05.17/outbox.cif.g08.bks.cpg/sg2_178_cif.got.tgz:354615.got - 2010.06.03 11:33:40.
