data_PCOD9057358
_publ_section_title
;
Structure prediction by ZEFSAII (Michael W. Deem and Ramdas Pophale) SiO2 
 PCOD9057358
Probable space group: P -1
;
_chemical_formula_sum "Si O2"
_cell_formula_units_Z 16
_cell_length_a 8.987524
_cell_length_b 12.351139
_cell_length_c 9.957472
_cell_angle_alpha 117.331365
_cell_angle_beta 105.692485
_cell_angle_gamma 120.211569
_cell_volume 642.482982
_symmetry_space_group_name_H-M "P -1"
_symmetry_group_IT_number 2
_symmetry_cell_setting 'triclinic'
loop_
_space_group_symop_operation_xyz
x,y,z
-x,-y,-z
loop_
_atom_site_type_symbol
_atom_site_label
_atom_site_fract_x
_atom_site_fract_y
_atom_site_fract_z
Si Si1 0.852901 0.030114 0.440079
Si Si2 0.039152 0.681235 0.491420
Si Si3 0.919242 0.640541 0.033191
Si Si4 0.124976 0.105877 0.878567
Si Si5 0.145706 0.472188 0.354370
Si Si6 0.447807 0.981457 0.130574
Si Si7 0.644498 0.253410 0.811674
Si Si8 0.326255 0.177664 0.252008
O O1 0.770779 0.932960 0.217834
O O2 0.616366 0.909660 0.395667
O O3 0.017948 0.241503 0.577672
O O4 0.000000 0.000000 0.500000
O O5 0.013744 0.526077 0.358167
O O6 0.945293 0.645303 0.598981
O O7 0.310725 0.852130 0.649938
O O8 0.893367 0.607421 0.846000
O O9 0.725110 0.438968 0.929682
O O10 0.900427 0.774353 0.123558
O O11 0.155574 0.714996 0.186533
O O12 0.269936 0.198876 0.103867
O O13 0.877098 0.909589 0.746700
O O14 0.418538 0.644459 0.539272
O O15 0.353958 0.807689 0.076958
O O16 0.302606 0.017699 0.140542
O O17 0.500000 0.000000 0.000000
#
# Coordination Sequence:
#
# PCOD9057358 Si02
#       8
#     2   2   2   2   2   2   2   2
#     4  11  26  44  67  94 134 180 219 270 330 402
#     4   9  21  39  62  96 125 162 224 267 318 386
#     4  11  24  42  68  98 136 173 217 276 332 392
#     4  11  25  42  64  99 133 175 217 270 336 391
#     4  10  22  40  68  99 129 171 218 276 327 385
#     4  10  17  36  67  91 122 169 217 268 318 383
#     4  10  23  42  63  95 127 176 221 267 325 388
#     4  10  22  39  63  98 132 171 215 273 329 389
#
# _framework density 24.903381
#
# number of rings (size 3 to 8) (size 9 to 14) (size 15 to 20)
#    0.000    1.750    1.250    2.250    5.250    6.000 
#    0.000    2.500    0.000    0.000    0.000    0.000 
#    0.000    0.000    0.000    0.000    0.000    0.000 
#
# Total GULP energy -89405.397506 kJ/mol
# GULP energy per Si atom -5587.837344 kJ/mol
# Density = 2.484670 g / cm^3
# Si number density = 24.903381 Si / 1000 Ang^3
#
#
#
# Elastic Constant Matrix: (Units=GPa)
#
#
# Indices 1 2 3 4 5 6 
#
# 1 80.4026 29.9605 18.6851 10.2466 3.0202 -13.6155
# 2 29.9605 145.1172 27.1630 8.3192 3.0501 -14.0328
# 3 18.6851 27.1630 70.4452 11.7773 13.9399 0.2588
# 4 10.2466 8.3192 11.7773 33.4425 1.7973 4.0232
# 5 3.0202 3.0501 13.9399 1.7973 43.1013 0.9472
# 6 -13.6155 -14.0328 0.2588 4.0232 0.9472 40.8105
#
#
#
# Elastic Compliance Matrix: (Units=1/GPa)
#
#
# Indices 1 2 3 4 5 6 
#
# 1 0.015057 -0.001941 -0.002629 -0.003775 -0.000014 0.004745
# 2 -0.001941 0.008014 -0.002524 -0.000794 0.000370 0.002194
# 3 -0.002629 -0.002524 0.017609 -0.004335 -0.005123 -0.001310
# 4 -0.003775 -0.000794 -0.004335 0.033337 0.000438 -0.004801
# 5 -0.000014 0.000370 -0.005123 0.000438 0.024825 -0.000464
# 6 0.004745 0.002194 -0.001310 -0.004801 -0.000464 0.027333
#
#
# Mechanical properties :
#
#
# Convention : Reuss Voigt Hill
#
# Bulk Modulus (GPa) = 37.74631 49.73135 43.73883
# Shear Modulus (GPa) = 33.51365 38.14795 35.83080
#
# Velocity S-wave (km/s) = 3.67242 3.91812 3.79726
# Velocity P-wave (km/s) = 5.75954 6.36254 6.06853
#
# Compressibility (1/GPa) = 0.02649266
#
# Stress axis : x y z
#
# Youngs Moduli (GPa) = 66.41549 124.78171 56.78861
#
# Poissons Ratio (x) = 0.24220 0.14928
# Poissons Ratio (y) = 0.12891 0.14333
# Poissons Ratio (z) = 0.17459 0.31493
#
# Static dielectric constant tensor:
#      x y z
#    x 2.021980 -0.040600 0.021570 
#    y -0.040600 2.092460 -0.045800 
#    z 0.021570 -0.045800 2.034520 
# 
# From -- ./inp_files/391108.got.cif
#   From: 2010.05.17/outbox.cif.g08.bks.cpg/sg2_196_cif.got.tgz:391108.got - 2010.06.03 11:33:40.
