data_PCOD9057292
_publ_section_title
;
Structure prediction by ZEFSAII (Michael W. Deem and Ramdas Pophale) SiO2 
 PCOD9057292
Probable space group: P -1
;
_chemical_formula_sum "Si O2"
_cell_formula_units_Z 12
_cell_length_a 8.027513
_cell_length_b 11.884486
_cell_length_c 10.436607
_cell_angle_alpha 139.810738
_cell_angle_beta 130.221776
_cell_angle_gamma 46.300834
_cell_volume 449.435190
_symmetry_space_group_name_H-M "P -1"
_symmetry_group_IT_number 2
_symmetry_cell_setting 'triclinic'
loop_
_space_group_symop_operation_xyz
x,y,z
-x,-y,-z
loop_
_atom_site_type_symbol
_atom_site_label
_atom_site_fract_x
_atom_site_fract_y
_atom_site_fract_z
Si Si1 0.289991 0.871594 0.426929
Si Si2 0.731124 0.528825 0.858015
Si Si3 0.601627 0.658754 0.167761
Si Si4 0.848707 0.505206 0.618308
Si Si5 0.069748 0.901826 0.753406
Si Si6 0.303594 0.088749 0.209602
O O1 0.281892 0.676357 0.304702
O O2 0.464300 0.813460 0.339097
O O3 0.421005 0.960488 0.665129
O O4 0.042170 0.017428 0.371103
O O5 0.697715 0.580105 0.737618
O O6 0.576372 0.678700 0.018757
O O7 0.000000 0.500000 0.000000
O O8 0.876479 0.579634 0.274714
O O9 0.500000 0.500000 0.000000
O O10 0.798468 0.681021 0.653708
O O11 0.808736 0.326262 0.386863
O O12 0.851966 0.950704 0.789445
O O13 0.233019 0.005979 0.975307
#
# Coordination Sequence:
#
# PCOD9057292 Si02
#       6
#     2   2   2   2   2   2
#     4  11  22  42  68  98 133 173 226 275 327 394
#     4   9  20  39  65 100 132 176 219 270 333 401
#     4   9  18  35  65  98 122 171 223 267 316 393
#     4  11  22  42  66  96 137 177 213 275 342 388
#     4  11  24  42  67 102 134 173 221 279 332 388
#     4  11  24  42  67 100 135 172 225 276 326 397
#
# _framework density 26.700178999999999
#
# number of rings (size 3 to 8) (size 9 to 14) (size 15 to 20)
#    0.000    1.667    1.667    4.000    0.000    1.333 
#    3.000    2.500    0.000    0.000    0.000    0.000 
#    0.000    0.000    0.000    0.000    0.000    0.000 
#
# Total GULP energy -67259.275740 kJ/mol
# GULP energy per Si atom -5604.939645 kJ/mol
# Density = 2.663941 g / cm^3
# Si number density = 26.700179 Si / 1000 Ang^3
#
#
#
# Elastic Constant Matrix: (Units=GPa)
#
#
# Indices 1 2 3 4 5 6 
#
# 1 98.3081 -3.0747 18.2535 -6.6952 10.7076 -3.7563
# 2 -3.0747 100.2763 45.2725 -5.5332 24.0968 13.9220
# 3 18.2535 45.2725 205.1669 -0.8992 52.2287 -8.8765
# 4 -6.6952 -5.5332 -0.8992 46.4994 3.5949 8.0130
# 5 10.7076 24.0968 52.2287 3.5949 40.0179 0.2158
# 6 -3.7563 13.9220 -8.8765 8.0130 0.2158 30.9724
#
#
#
# Elastic Compliance Matrix: (Units=1/GPa)
#
#
# Indices 1 2 3 4 5 6 
#
# 1 0.010798 0.001429 -0.000396 0.001969 -0.003409 0.000068
# 2 0.001429 0.013598 -0.001761 0.003557 -0.006553 -0.007318
# 3 -0.000396 -0.001761 0.007692 0.000053 -0.008893 0.002996
# 4 0.001969 0.003557 0.000053 0.023878 -0.004843 -0.007489
# 5 -0.003409 -0.006553 -0.008893 -0.004843 0.041884 0.000944
# 6 0.000068 -0.007318 0.002996 -0.007489 0.000944 0.038374
#
#
# Mechanical properties :
#
#
# Convention : Reuss Voigt Hill
#
# Bulk Modulus (GPa) = 32.64659 58.29486 45.47072
# Shear Modulus (GPa) = 33.80848 46.38461 40.09654
#
# Velocity S-wave (km/s) = 3.56227 4.17254 3.87942
# Velocity P-wave (km/s) = 5.40123 6.71521 6.09374
#
# Compressibility (1/GPa) = 0.03063107
#
# Stress axis : x y z
#
# Youngs Moduli (GPa) = 92.60598 73.53974 130.01096
#
# Poissons Ratio (x) = -0.10505 0.05154
# Poissons Ratio (y) = -0.13229 0.22890
# Poissons Ratio (z) = 0.03671 0.12948
#
# Static dielectric constant tensor:
#      x y z
#    x 2.037160 -0.019410 -0.030940 
#    y -0.019410 2.128730 -0.016520 
#    z -0.030940 -0.016520 2.031390 
# 
# From -- ./inp_files/386371.got.cif
#   From: 2010.05.17/outbox.cif.g08.bks.cpg/sg2_194_cif.got.tgz:386371.got - 2010.06.03 11:33:40.
