data_PCOD9057246
_publ_section_title
;
Structure prediction by ZEFSAII (Michael W. Deem and Ramdas Pophale) SiO2 
 PCOD9057246
Probable space group: P -1
;
_chemical_formula_sum "Si O2"
_cell_formula_units_Z 14
_cell_length_a 7.986940
_cell_length_b 6.467433
_cell_length_c 15.918506
_cell_angle_alpha 93.173776
_cell_angle_beta 46.305649
_cell_angle_gamma 88.149848
_cell_volume 590.778705
_symmetry_space_group_name_H-M "P -1"
_symmetry_group_IT_number 2
_symmetry_cell_setting 'triclinic'
loop_
_space_group_symop_operation_xyz
x,y,z
-x,-y,-z
loop_
_atom_site_type_symbol
_atom_site_label
_atom_site_fract_x
_atom_site_fract_y
_atom_site_fract_z
Si Si1 0.566209 0.313140 0.905266
Si Si2 0.578112 0.928650 0.341616
Si Si3 0.334011 0.707682 0.553635
Si Si4 0.054838 0.270656 0.013824
Si Si5 0.940041 0.066877 0.883240
Si Si6 0.931718 0.482372 0.657073
Si Si7 0.828043 0.818049 0.558483
O O1 0.336136 0.249202 0.935244
O O2 0.724034 0.132620 0.898893
O O3 0.735191 0.396325 0.778556
O O4 0.500000 0.500000 0.000000
O O5 0.625471 0.101150 0.397745
O O6 0.422586 0.061833 0.331758
O O7 0.401185 0.778883 0.438722
O O8 0.830320 0.831144 0.225888
O O9 0.500000 0.500000 0.500000
O O10 0.079861 0.642652 0.656968
O O11 0.911488 0.154752 0.989492
O O12 0.000000 0.500000 0.000000
O O13 0.982922 0.176276 0.126861
O O14 0.846639 0.625708 0.611340
O O15 0.112031 0.294359 0.554604
O O16 0.000000 0.000000 0.500000
#
# Coordination Sequence:
#
# PCOD9057246 Si02
#       7
#     2   2   2   2   2   2   2
#     4  12  27  49  74 105 145 192 244 301 360 424
#     4  11  25  40  70  99 136 180 229 291 357 422
#     4  11  22  42  63  98 136 172 230 280 345 430
#     4  11  26  50  72 103 142 185 249 299 357 428
#     4  11  27  47  73 105 141 192 238 300 364 424
#     4  11  26  43  70 100 143 185 235 289 359 427
#     4  11  24  45  65 105 142 184 230 291 359 430
#
# _framework density 23.697534999999998
#
# number of rings (size 3 to 8) (size 9 to 14) (size 15 to 20)
#    0.000    0.857    4.286    1.286    8.000    1.143 
#    0.000    0.000    0.000    0.000    0.000    0.000 
#    0.000    0.000    0.000    0.000    0.000    0.000 
#
# Total GULP energy -77949.873226 kJ/mol
# GULP energy per Si atom -5567.848088 kJ/mol
# Density = 2.364360 g / cm^3
# Si number density = 23.697535 Si / 1000 Ang^3
#
#
#
# Elastic Constant Matrix: (Units=GPa)
#
#
# Indices 1 2 3 4 5 6 
#
# 1 120.2359 34.1370 38.8666 -15.5515 -20.7800 -20.8924
# 2 34.1370 78.3083 9.8286 -20.8751 10.0127 -19.7218
# 3 38.8666 9.8286 93.1500 -23.8091 -5.0291 -2.9456
# 4 -15.5515 -20.8751 -23.8091 37.0473 3.3508 -3.9665
# 5 -20.7800 10.0127 -5.0291 3.3508 35.8093 -2.8820
# 6 -20.8924 -19.7218 -2.9456 -3.9665 -2.8820 49.8818
#
#
#
# Elastic Compliance Matrix: (Units=1/GPa)
#
#
# Indices 1 2 3 4 5 6 
#
# 1 0.013597 -0.005939 -0.004726 -0.001139 0.009277 0.003513
# 2 -0.005939 0.021399 0.003302 0.013275 -0.009672 0.006664
# 3 -0.004726 0.003302 0.014718 0.009644 -0.002435 0.000821
# 4 -0.001139 0.013275 0.009644 0.041645 -0.006248 0.008291
# 5 0.009277 -0.009672 -0.002435 -0.006248 0.036379 0.001523
# 6 0.003513 0.006664 0.000821 0.008291 0.001523 0.024950
#
#
# Mechanical properties :
#
#
# Convention : Reuss Voigt Hill
#
# Bulk Modulus (GPa) = 28.58169 50.81761 39.69965
# Shear Modulus (GPa) = 27.92104 38.47183 33.19643
#
# Velocity S-wave (km/s) = 3.43625 4.03358 3.74684
# Velocity P-wave (km/s) = 5.27551 6.57144 5.95881
#
# Compressibility (1/GPa) = 0.03498744
#
# Stress axis : x y z
#
# Youngs Moduli (GPa) = 73.54374 46.73223 67.94247
#
# Poissons Ratio (x) = 0.27756 0.32109
# Poissons Ratio (y) = 0.43680 -0.22434
# Poissons Ratio (z) = 0.34756 -0.15430
#
# Static dielectric constant tensor:
#      x y z
#    x 2.017560 0.022140 -0.016450 
#    y 0.022140 1.917650 0.048320 
#    z -0.016450 0.048320 1.908500 
# 
# From -- ./inp_files/141002.got.cif
#   From: 2010.05.17/outbox.cif.g08.bks.cpg/sg2_71_cif.got.tgz:141002.got - 2010.06.03 11:33:40.
