data_PCOD9057062
_publ_section_title
;
Structure prediction by ZEFSAII (Michael W. Deem and Ramdas Pophale) SiO2 
 PCOD9057062
Probable space group: P -1
;
_chemical_formula_sum "Si O2"
_cell_formula_units_Z 16
_cell_length_a 5.997634
_cell_length_b 8.670124
_cell_length_c 14.001675
_cell_angle_alpha 97.442811
_cell_angle_beta 108.534948
_cell_angle_gamma 91.307937
_cell_volume 682.919939
_symmetry_space_group_name_H-M "P -1"
_symmetry_group_IT_number 2
_symmetry_cell_setting 'triclinic'
loop_
_space_group_symop_operation_xyz
x,y,z
-x,-y,-z
loop_
_atom_site_type_symbol
_atom_site_label
_atom_site_fract_x
_atom_site_fract_y
_atom_site_fract_z
Si Si1 0.628555 0.987576 0.684294
Si Si2 0.789217 0.077070 0.524760
Si Si3 0.091308 0.507203 0.754966
Si Si4 0.018663 0.311172 0.057009
Si Si5 0.941837 0.231087 0.835882
Si Si6 0.497562 0.726259 0.789434
Si Si7 0.261054 0.959594 0.908408
Si Si8 0.223452 0.546184 0.459815
O O1 0.417585 0.993075 0.580357
O O2 0.611395 0.824468 0.724401
O O3 0.825927 0.017229 0.633484
O O4 0.693347 0.131991 0.775753
O O5 0.772534 0.264449 0.532734
O O6 0.000000 0.000000 0.500000
O O7 0.330526 0.569348 0.739013
O O8 0.087034 0.594088 0.862968
O O9 0.038677 0.331133 0.767505
O O10 0.876293 0.534233 0.657739
O O11 0.298479 0.315155 0.112674
O O12 0.916915 0.137689 0.054586
O O13 0.935680 0.336115 0.939704
O O14 0.134928 0.109285 0.872343
O O15 0.329024 0.851166 0.821183
O O16 0.500000 0.000000 0.000000
O O17 0.500000 0.500000 0.500000
O O18 0.000000 0.500000 0.500000
#
# Coordination Sequence:
#
# PCOD9057062 Si02
#       8
#     2   2   2   2   2   2   2   2
#     4  11  25  45  77 106 146 193 260 319 395 469
#     4  11  28  50  78 113 148 198 265 339 400 472
#     4  11  28  47  71 111 150 199 252 315 394 471
#     4  11  24  45  71 100 153 193 248 297 386 462
#     4  12  23  47  71 107 145 194 249 317 374 470
#     4  11  24  44  69 103 145 200 238 310 375 472
#     4  11  22  41  69 103 143 190 254 304 375 445
#     4  12  30  53  83 118 164 211 266 338 415 485
#
# _framework density 23.428806000000002
#
# number of rings (size 3 to 8) (size 9 to 14) (size 15 to 20)
#    0.000    0.750    3.750    2.250    8.750    0.500 
#    4.500    0.000    0.000    0.000    0.000    0.000 
#    0.000    0.000    0.000    0.000    0.000    0.000 
#
# Total GULP energy -89193.164094 kJ/mol
# GULP energy per Si atom -5574.572756 kJ/mol
# Density = 2.337548 g / cm^3
# Si number density = 23.428806 Si / 1000 Ang^3
#
#
#
# Elastic Constant Matrix: (Units=GPa)
#
#
# Indices 1 2 3 4 5 6 
#
# 1 70.1724 44.1241 28.8648 -0.1674 3.7309 16.9869
# 2 44.1241 106.8588 34.1309 -13.4235 -0.6599 37.0333
# 3 28.8648 34.1309 135.7878 -2.5398 19.8721 25.8259
# 4 -0.1674 -13.4235 -2.5398 33.4163 11.4153 -2.1797
# 5 3.7309 -0.6599 19.8721 11.4153 46.1535 10.2100
# 6 16.9869 37.0333 25.8259 -2.1797 10.2100 35.4759
#
#
#
# Elastic Compliance Matrix: (Units=1/GPa)
#
#
# Indices 1 2 3 4 5 6 
#
# 1 0.020260 -0.008129 -0.002390 -0.003336 0.000031 0.000310
# 2 -0.008129 0.019302 -0.000357 0.005429 0.003427 -0.016650
# 3 -0.002390 -0.000357 0.009259 0.001368 -0.003204 -0.004217
# 4 -0.003336 0.005429 0.001368 0.035201 -0.008871 -0.000350
# 5 0.000031 0.003427 -0.003204 -0.008871 0.027433 -0.009701
# 6 0.000310 -0.016650 -0.004217 -0.000350 -0.009701 0.051261
#
#
# Mechanical properties :
#
#
# Convention : Reuss Voigt Hill
#
# Bulk Modulus (GPa) = 36.94102 58.56205 47.75154
# Shear Modulus (GPa) = 25.84099 36.72242 31.28170
#
# Velocity S-wave (km/s) = 3.32468 3.96334 3.65798
# Velocity P-wave (km/s) = 5.52627 6.78190 6.18602
#
# Compressibility (1/GPa) = 0.02707018
#
# Stress axis : x y z
#
# Youngs Moduli (GPa) = 49.35753 51.80712 108.00728
#
# Poissons Ratio (x) = 0.42115 0.25808
# Poissons Ratio (y) = 0.40123 0.03856
# Poissons Ratio (z) = 0.11794 0.01849
#
# Static dielectric constant tensor:
#      x y z
#    x 1.979010 -0.006440 0.041520 
#    y -0.006440 1.721130 0.139120 
#    z 0.041520 0.139120 1.900930 
# 
# From -- ./inp_files/480693.got.cif
#   From: 2010.05.17/outbox.cif.g08.bks.cpg/sg2_241_cif.got.tgz:480693.got - 2010.06.03 11:33:40.
