data_PCOD9057592
_publ_section_title
;
Structure prediction by ZEFSAII (Michael W. Deem and Ramdas Pophale) SiO2 
 PCOD9057592
Probable space group: P -1
;
_chemical_formula_sum "Si O2"
_cell_formula_units_Z 14
_cell_length_a 5.790857
_cell_length_b 21.163206
_cell_length_c 8.419354
_cell_angle_alpha 136.738827
_cell_angle_beta 99.619127
_cell_angle_gamma 52.304576
_cell_volume 480.294282
_symmetry_space_group_name_H-M "P -1"
_symmetry_group_IT_number 2
_symmetry_cell_setting 'triclinic'
loop_
_space_group_symop_operation_xyz
x,y,z
-x,-y,-z
loop_
_atom_site_type_symbol
_atom_site_label
_atom_site_fract_x
_atom_site_fract_y
_atom_site_fract_z
Si Si1 0.061715 0.658742 0.149759
Si Si2 0.257574 0.609818 0.534973
Si Si3 0.376942 0.084847 0.897025
Si Si4 0.486870 0.815374 0.125171
Si Si5 0.529123 0.118097 0.307617
Si Si6 0.235844 0.396681 0.482925
Si Si7 0.489949 0.309422 0.802644
O O1 0.849523 0.735941 0.104731
O O2 0.864566 0.769323 0.471496
O O3 0.911555 0.599294 0.055783
O O4 0.403161 0.617479 0.085250
O O5 0.500000 0.500000 0.500000
O O6 0.522947 0.587569 0.411432
O O7 0.984120 0.760431 0.846131
O O8 0.015767 0.594575 0.427761
O O9 0.570260 0.063022 0.040209
O O10 0.598250 0.060157 0.730391
O O11 0.311412 0.994733 0.747302
O O12 0.354430 0.783162 0.187881
O O13 0.527360 0.743462 0.839830
O O14 0.618018 0.200291 0.483756
O O15 0.000000 0.500000 0.500000
#
# Coordination Sequence:
#
# PCOD9057592 Si02
#       7
#     2   2   2   2   2   2   2
#     4   8  18  35  51  71 109 146 180 212 258 327
#     4   9  19  33  50  77 109 132 170 221 275 314
#     4  10  17  37  53  86 107 144 176 230 270 324
#     4   8  19  29  56  77 106 137 183 220 272 306
#     4   8  20  35  53  77 116 147 178 212 272 330
#     4   9  17  31  50  79 109 126 169 226 277 309
#     4   8  18  35  51  71 109 146 180 212 258 327
#
# _framework density 29.148796999999998
#
# number of rings (size 3 to 8) (size 9 to 14) (size 15 to 20)
#    1.714    1.429    0.000    0.000    4.000    2.286 
#   10.286    2.857    0.000    0.000    0.000   72.000 
#    0.000    0.000    0.000    0.000    0.000    0.000 
#
# Total GULP energy -78025.266365 kJ/mol
# GULP energy per Si atom -5573.233312 kJ/mol
# Density = 2.908245 g / cm^3
# Si number density = 29.148797 Si / 1000 Ang^3
#
#
#
# Elastic Constant Matrix: (Units=GPa)
#
#
# Indices 1 2 3 4 5 6 
#
# 1 319.4567 42.2436 70.4207 11.6579 18.8905 13.5369
# 2 42.2436 112.6866 13.2928 -5.6867 -3.2115 20.4789
# 3 70.4207 13.2928 71.0905 -2.6334 6.7675 -1.0921
# 4 11.6579 -5.6867 -2.6334 49.7737 1.0982 -4.4370
# 5 18.8905 -3.2115 6.7675 1.0982 56.3225 8.8462
# 6 13.5369 20.4789 -1.0921 -4.4370 8.8462 30.5452
#
#
#
# Elastic Compliance Matrix: (Units=1/GPa)
#
#
# Indices 1 2 3 4 5 6 
#
# 1 0.004320 -0.000977 -0.004099 -0.001448 -0.000765 -0.001395
# 2 -0.000977 0.010855 -0.001367 0.000683 0.002268 -0.007451
# 3 -0.004099 -0.001367 0.018686 0.002203 -0.001651 0.004199
# 4 -0.001448 0.000683 0.002203 0.020953 -0.000700 0.003509
# 5 -0.000765 0.002268 -0.001651 -0.000700 0.019448 -0.006975
# 6 -0.001395 -0.007451 0.004199 0.003509 -0.006975 0.041032
#
#
# Mechanical properties :
#
#
# Convention : Reuss Voigt Hill
#
# Bulk Modulus (GPa) = 47.67592 83.90536 65.79064
# Shear Modulus (GPa) = 36.98993 52.48006 44.73500
#
# Velocity S-wave (km/s) = 3.56617 4.24774 3.92179
# Velocity P-wave (km/s) = 5.77480 7.27361 6.56710
#
# Compressibility (1/GPa) = 0.02097495
#
# Stress axis : x y z
#
# Youngs Moduli (GPa) = 231.46296 92.12357 53.51641
#
# Poissons Ratio (x) = 0.09005 0.21937
# Poissons Ratio (y) = 0.22625 0.07313
# Poissons Ratio (z) = 0.94879 0.12589
#
# Static dielectric constant tensor:
#      x y z
#    x 2.344010 0.022160 -0.013140 
#    y 0.022160 2.304810 0.039940 
#    z -0.013140 0.039940 2.279830 
# 
# From -- ./inp_files/141509.got.cif
#   From: 2010.05.17/outbox.cif.g08.bks.cpg/sg2_71_cif.got.tgz:141509.got - 2010.06.03 11:33:40.
