data_PCOD9057493
_publ_section_title
;
Structure prediction by ZEFSAII (Michael W. Deem and Ramdas Pophale) SiO2 
 PCOD9057493
Probable space group: P -1
;
_chemical_formula_sum "Si O2"
_cell_formula_units_Z 16
_cell_length_a 12.399799
_cell_length_b 16.756564
_cell_length_c 9.007906
_cell_angle_alpha 133.314844
_cell_angle_beta 35.923376
_cell_angle_gamma 134.768103
_cell_volume 748.924372
_symmetry_space_group_name_H-M "P -1"
_symmetry_group_IT_number 2
_symmetry_cell_setting 'triclinic'
loop_
_space_group_symop_operation_xyz
x,y,z
-x,-y,-z
loop_
_atom_site_type_symbol
_atom_site_label
_atom_site_fract_x
_atom_site_fract_y
_atom_site_fract_z
Si Si1 0.682944 0.015861 0.975895
Si Si2 0.384304 0.137831 0.404856
Si Si3 0.451097 0.585787 0.452995
Si Si4 0.537434 0.178555 0.803509
Si Si5 0.126532 0.805525 0.781286
Si Si6 0.094673 0.559724 0.624951
Si Si7 0.173606 0.121267 0.925635
Si Si8 0.712336 0.439976 0.068650
O O1 0.583314 0.106494 0.141893
O O2 0.848607 0.088811 0.997955
O O3 0.517169 0.918549 0.132020
O O4 0.741139 0.945611 0.691035
O O5 0.431111 0.274827 0.501243
O O6 0.287764 0.107411 0.633926
O O7 0.302924 0.555328 0.440026
O O8 0.595006 0.512331 0.206967
O O9 0.330569 0.558515 0.707151
O O10 0.687255 0.160647 0.492630
O O11 0.333386 0.163589 0.930121
O O12 0.633317 0.307080 0.928967
O O13 0.120408 0.694121 0.740211
O O14 0.933586 0.786740 0.875878
O O15 0.000000 0.500000 0.500000
O O16 0.937641 0.500347 0.850917
O O17 0.000000 0.000000 0.000000
#
# Coordination Sequence:
#
# PCOD9057493 Si02
#       8
#     2   2   2   2   2   2   2   2
#     4  11  22  42  71  96 130 179 218 265 341 392
#     4  11  23  43  69  98 132 177 220 273 333 395
#     4  11  24  48  68  96 136 176 226 278 329 396
#     4  12  23  45  67  97 137 177 217 274 333 400
#     4  12  24  43  69  99 136 174 220 276 334 396
#     4  12  25  43  66 101 132 173 227 273 328 395
#     4  12  25  41  65 100 135 170 222 271 329 401
#     4  11  26  44  71  96 134 181 223 275 335 390
#
# _framework density 21.363972
#
# number of rings (size 3 to 8) (size 9 to 14) (size 15 to 20)
#    0.000    0.500    6.250    2.250    1.750    1.000 
#    0.000    0.000    0.000    0.000    0.000    0.000 
#    0.000    0.000    0.000    0.000    0.000    0.000 
#
# Total GULP energy -89507.071103 kJ/mol
# GULP energy per Si atom -5594.191944 kJ/mol
# Density = 2.131535 g / cm^3
# Si number density = 21.363972 Si / 1000 Ang^3
#
#
#
# Elastic Constant Matrix: (Units=GPa)
#
#
# Indices 1 2 3 4 5 6 
#
# 1 99.5249 4.4526 7.8613 17.2176 -9.9250 1.1857
# 2 4.4526 76.2450 3.4300 11.5298 11.3718 -15.3281
# 3 7.8613 3.4300 28.8671 4.1460 1.1519 4.2091
# 4 17.2176 11.5298 4.1460 30.6216 -3.7235 0.1946
# 5 -9.9250 11.3718 1.1519 -3.7235 33.4152 2.8340
# 6 1.1857 -15.3281 4.2091 0.1946 2.8340 22.9474
#
#
#
# Elastic Compliance Matrix: (Units=1/GPa)
#
#
# Indices 1 2 3 4 5 6 
#
# 1 0.011539 -0.000304 -0.002308 -0.005687 0.003036 -0.000703
# 2 -0.000304 0.018419 -0.002727 -0.007490 -0.008279 0.013905
# 3 -0.002308 -0.002727 0.037242 -0.002741 -0.000632 -0.008432
# 4 -0.005687 -0.007490 -0.002741 0.039789 0.005834 -0.005264
# 5 0.003036 -0.008279 -0.000632 0.005834 0.035163 -0.009963
# 6 -0.000703 0.013905 -0.008432 -0.005264 -0.009963 0.055724
#
#
# Mechanical properties :
#
#
# Convention : Reuss Voigt Hill
#
# Bulk Modulus (GPa) = 17.69239 26.23608 21.96424
# Shear Modulus (GPa) = 21.98827 29.98972 25.98899
#
# Velocity S-wave (km/s) = 3.21163 3.75073 3.49160
# Velocity P-wave (km/s) = 4.69597 5.57355 5.15348
#
# Compressibility (1/GPa) = 0.05652148
#
# Stress axis : x y z
#
# Youngs Moduli (GPa) = 86.66510 54.29224 26.85107
#
# Poissons Ratio (x) = 0.01651 0.06197
# Poissons Ratio (y) = 0.02636 0.07323
# Poissons Ratio (z) = 0.20002 0.14806
#
# Static dielectric constant tensor:
#      x y z
#    x 1.822330 0.016960 0.012620 
#    y 0.016960 1.772020 0.013410 
#    z 0.012620 0.013410 1.748020 
# 
# From -- ./inp_files/274259.got.cif
#   From: 2010.05.17/outbox.cif.g08.bks.cpg/sg2_138_cif.got.tgz:274259.got - 2010.06.03 11:33:40.
