data_PCOD9057467
_publ_section_title
;
Structure prediction by ZEFSAII (Michael W. Deem and Ramdas Pophale) SiO2 
 PCOD9057467
Probable space group: P -1
;
_chemical_formula_sum "Si O2"
_cell_formula_units_Z 14
_cell_length_a 13.753252
_cell_length_b 8.077759
_cell_length_c 8.124334
_cell_angle_alpha 88.410136
_cell_angle_beta 40.680000
_cell_angle_gamma 107.197806
_cell_volume 513.956623
_symmetry_space_group_name_H-M "P -1"
_symmetry_group_IT_number 2
_symmetry_cell_setting 'triclinic'
loop_
_space_group_symop_operation_xyz
x,y,z
-x,-y,-z
loop_
_atom_site_type_symbol
_atom_site_label
_atom_site_fract_x
_atom_site_fract_y
_atom_site_fract_z
Si Si1 0.393422 0.613901 0.458860
Si Si2 0.358986 0.781589 0.171886
Si Si3 0.128301 0.799657 0.179541
Si Si4 0.876555 0.095551 0.172595
Si Si5 0.215157 0.198081 0.148558
Si Si6 0.104767 0.451809 0.086646
Si Si7 0.358012 0.260116 0.325953
O O1 0.328127 0.703274 0.398672
O O2 0.600475 0.731842 0.183852
O O3 0.290398 0.585061 0.760358
O O4 0.345797 0.404943 0.461453
O O5 0.228599 0.784683 0.208713
O O6 0.448027 0.673348 0.971478
O O7 0.500000 0.000000 0.000000
O O8 0.197162 0.882997 0.905967
O O9 0.027590 0.578111 0.260024
O O10 0.100412 0.974918 0.264354
O O11 0.726393 0.946923 0.482019
O O12 0.987767 0.301010 0.104535
O O13 0.000000 0.000000 0.000000
O O14 0.132684 0.322339 0.187293
O O15 0.264159 0.240086 0.275115
#
# Coordination Sequence:
#
# PCOD9057467 Si02
#       7
#     2   2   2   2   2   2   2
#     4  11  22  42  71 102 142 177 229 289 350 409
#     4  11  23  44  69 107 136 171 228 291 356 403
#     4  12  25  45  71 101 141 179 233 289 345 411
#     4  12  26  49  67  98 143 191 235 277 337 412
#     4  11  23  43  69 106 136 179 231 288 353 403
#     4  12  26  45  69 103 141 187 236 277 340 415
#     4  11  23  44  75  97 143 183 226 292 343 408
#
# _framework density 27.239654999999999
#
# number of rings (size 3 to 8) (size 9 to 14) (size 15 to 20)
#    0.000    0.571    5.714    4.286    2.000    2.857 
#    0.000    1.429    0.000    0.000    0.000    0.000 
#    0.000    0.000    0.000    0.000    0.000    0.000 
#
# Total GULP energy -78440.452361 kJ/mol
# GULP energy per Si atom -5602.889454 kJ/mol
# Density = 2.717766 g / cm^3
# Si number density = 27.239655 Si / 1000 Ang^3
#
#
#
# Elastic Constant Matrix: (Units=GPa)
#
#
# Indices 1 2 3 4 5 6 
#
# 1 113.3905 28.1461 49.6674 -13.2262 30.0224 -13.4919
# 2 28.1461 217.7226 40.2476 -7.6571 -5.5438 -0.4079
# 3 49.6674 40.2476 104.8116 -8.8861 6.5360 -22.7008
# 4 -13.2262 -7.6571 -8.8861 44.5831 -11.0633 -2.2648
# 5 30.0224 -5.5438 6.5360 -11.0633 53.0467 -6.7061
# 6 -13.4919 -0.4079 -22.7008 -2.2648 -6.7061 41.7916
#
#
#
# Elastic Compliance Matrix: (Units=1/GPa)
#
#
# Indices 1 2 3 4 5 6 
#
# 1 0.013344 -0.000857 -0.005410 0.001087 -0.006705 0.000344
# 2 -0.000857 0.005082 -0.001789 0.000515 0.001221 -0.000975
# 3 -0.005410 -0.001789 0.014190 0.001817 0.002316 0.006414
# 4 0.001087 0.000515 0.001817 0.024562 0.004772 0.003440
# 5 -0.006705 0.001221 0.002316 0.004772 0.023888 0.003197
# 6 0.000344 -0.000975 0.006414 0.003440 0.003197 0.028213
#
#
# Mechanical properties :
#
#
# Convention : Reuss Voigt Hill
#
# Bulk Modulus (GPa) = 60.58624 74.67190 67.62907
# Shear Modulus (GPa) = 38.19918 49.07518 43.63718
#
# Velocity S-wave (km/s) = 3.74884 4.24914 4.00681
# Velocity P-wave (km/s) = 6.40536 7.17956 6.80348
#
# Compressibility (1/GPa) = 0.01650540
#
# Stress axis : x y z
#
# Youngs Moduli (GPa) = 74.93756 196.77810 70.47114
#
# Poissons Ratio (x) = 0.16863 0.38123
# Poissons Ratio (y) = 0.06422 0.12607
# Poissons Ratio (z) = 0.40539 0.35202
#
# Static dielectric constant tensor:
#      x y z
#    x 2.049730 -0.046150 -0.083640 
#    y -0.046150 2.106710 0.073150 
#    z -0.083640 0.073150 2.259450 
# 
# From -- ./inp_files/295151.got.cif
#   From: 2010.05.17/outbox.cif.g08.bks.cpg/sg2_148_cif.got.tgz:295151.got - 2010.06.03 11:33:40.
