data_PCOD9057507
_publ_section_title
;
Structure prediction by ZEFSAII (Michael W. Deem and Ramdas Pophale) SiO2 
 PCOD9057507
Probable space group: P -1
;
_chemical_formula_sum "Si O2"
_cell_formula_units_Z 14
_cell_length_a 10.141610
_cell_length_b 7.494602
_cell_length_c 19.118433
_cell_angle_alpha 56.777248
_cell_angle_beta 145.991017
_cell_angle_gamma 134.149336
_cell_volume 581.610893
_symmetry_space_group_name_H-M "P -1"
_symmetry_group_IT_number 2
_symmetry_cell_setting 'triclinic'
loop_
_space_group_symop_operation_xyz
x,y,z
-x,-y,-z
loop_
_atom_site_type_symbol
_atom_site_label
_atom_site_fract_x
_atom_site_fract_y
_atom_site_fract_z
Si Si1 0.576943 0.484279 0.760307
Si Si2 0.188366 0.293553 0.928184
Si Si3 0.305837 0.222373 0.386209
Si Si4 0.402902 0.783816 0.706593
Si Si5 0.180992 0.830833 0.080255
Si Si6 0.893606 0.309078 0.658917
Si Si7 0.034304 0.944097 0.448002
O O1 0.691250 0.596755 0.709872
O O2 0.587325 0.692704 0.769819
O O3 0.728235 0.341799 0.880400
O O4 0.252914 0.285731 0.653211
O O5 0.086586 0.316062 0.955930
O O6 0.985233 0.298418 0.780255
O O7 0.500000 0.500000 0.000000
O O8 0.170595 0.028441 0.982324
O O9 0.618508 0.317334 0.525009
O O10 0.172517 0.947414 0.352560
O O11 0.129490 0.174960 0.388564
O O12 0.272669 0.876637 0.570487
O O13 0.148231 0.547425 0.682888
O O14 0.576491 0.995444 0.794396
O O15 0.000000 0.000000 0.500000
#
# Coordination Sequence:
#
# PCOD9057507 Si02
#       7
#     2   2   2   2   2   2   2
#     4  12  25  43  69 105 143 183 231 285 354 422
#     4  11  24  47  74  98 138 184 237 292 346 411
#     4  11  24  41  68 104 144 177 230 286 350 421
#     4  12  22  45  71 101 149 181 229 293 348 415
#     4  11  26  46  72 103 135 186 236 289 350 410
#     4  11  22  42  72 102 135 190 231 282 354 412
#     4  12  24  40  66 105 143 187 229 285 350 422
#
# _framework density 24.071076000000001
#
# number of rings (size 3 to 8) (size 9 to 14) (size 15 to 20)
#    0.000    0.571    5.714    3.857    0.000    2.857 
#    0.000    7.143    0.000    0.000    0.000    0.000 
#    0.000    0.000    0.000    0.000    0.000    0.000 
#
# Total GULP energy -78506.184513 kJ/mol
# GULP energy per Si atom -5607.584608 kJ/mol
# Density = 2.401629 g / cm^3
# Si number density = 24.071076 Si / 1000 Ang^3
#
#
#
# Elastic Constant Matrix: (Units=GPa)
#
#
# Indices 1 2 3 4 5 6 
#
# 1 84.1094 39.4867 2.5689 3.6627 -5.7149 12.8891
# 2 39.4867 94.3301 32.7414 7.5974 11.0328 24.1471
# 3 2.5689 32.7414 100.2218 12.9381 -9.1122 0.2542
# 4 3.6627 7.5974 12.9381 49.4470 6.6645 5.1341
# 5 -5.7149 11.0328 -9.1122 6.6645 28.4947 -10.7324
# 6 12.8891 24.1471 0.2542 5.1341 -10.7324 56.6062
#
#
#
# Elastic Compliance Matrix: (Units=1/GPa)
#
#
# Indices 1 2 3 4 5 6 
#
# 1 0.016953 -0.010210 0.004138 -0.002423 0.010237 0.002637
# 2 -0.010210 0.022995 -0.009395 0.003427 -0.019037 -0.011362
# 3 0.004138 -0.009395 0.014713 -0.005008 0.012540 0.005831
# 4 -0.002423 0.003427 -0.005008 0.023153 -0.010720 -0.005020
# 5 0.010237 -0.019037 0.012540 -0.010720 0.057680 0.017642
# 6 0.002637 -0.011362 0.005831 -0.005020 0.017642 0.025686
#
#
# Mechanical properties :
#
#
# Convention : Reuss Voigt Hill
#
# Bulk Modulus (GPa) = 42.14632 47.58391 44.86511
# Shear Modulus (GPa) = 24.99702 40.50054 32.74878
#
# Velocity S-wave (km/s) = 3.22602 4.10633 3.69250
# Velocity P-wave (km/s) = 5.60566 6.50335 6.07112
#
# Compressibility (1/GPa) = 0.02372687
#
# Stress axis : x y z
#
# Youngs Moduli (GPa) = 58.98623 43.48770 67.96736
#
# Poissons Ratio (x) = 0.44401 -0.28124
# Poissons Ratio (y) = 0.60225 0.63855
# Poissons Ratio (z) = -0.24407 0.40856
#
# Static dielectric constant tensor:
#      x y z
#    x 1.947300 -0.011490 -0.006220 
#    y -0.011490 1.890580 0.003380 
#    z -0.006220 0.003380 1.931860 
# 
# From -- ./inp_files/400140.got.cif
#   From: 2010.05.17/outbox.cif.g08.bks.cpg/sg2_201_cif.got.tgz:400140.got - 2010.06.03 11:33:40.
