data_PCOD9057646
_publ_section_title
;
Structure prediction by ZEFSAII (Michael W. Deem and Ramdas Pophale) SiO2 
 PCOD9057646
Probable space group: P -1
;
_chemical_formula_sum "Si O2"
_cell_formula_units_Z 16
_cell_length_a 11.672121
_cell_length_b 9.156481
_cell_length_c 18.093448
_cell_angle_alpha 29.718582
_cell_angle_beta 126.583932
_cell_angle_gamma 123.543658
_cell_volume 766.795438
_symmetry_space_group_name_H-M "P -1"
_symmetry_group_IT_number 2
_symmetry_cell_setting 'triclinic'
loop_
_space_group_symop_operation_xyz
x,y,z
-x,-y,-z
loop_
_atom_site_type_symbol
_atom_site_label
_atom_site_fract_x
_atom_site_fract_y
_atom_site_fract_z
Si Si1 0.980652 0.827355 0.252085
Si Si2 0.152870 0.280334 0.602506
Si Si3 0.628056 0.404025 0.643145
Si Si4 0.243905 0.399041 0.853020
Si Si5 0.445590 0.641684 0.059686
Si Si6 0.830656 0.961447 0.439255
Si Si7 0.446073 0.326523 0.753677
Si Si8 0.775082 0.830148 0.896333
O O1 0.931188 0.891312 0.287906
O O2 0.843579 0.771313 0.171086
O O3 0.055168 0.519535 0.424969
O O4 0.093826 0.058851 0.154681
O O5 0.195914 0.076108 0.642146
O O6 0.297783 0.448405 0.617649
O O7 0.500000 0.500000 0.500000
O O8 0.754389 0.667322 0.575380
O O9 0.561330 0.359104 0.718385
O O10 0.689480 0.112692 0.761301
O O11 0.409462 0.341650 0.939917
O O12 0.234346 0.746632 0.685981
O O13 0.177844 0.300613 0.949859
O O14 0.490432 0.547515 0.200566
O O15 0.328076 0.416132 0.076595
O O16 0.402846 0.975759 0.902646
O O17 0.000000 0.000000 0.500000
#
# Coordination Sequence:
#
# PCOD9057646 Si02
#       8
#     2   2   2   2   2   2   2   2
#     4  11  24  43  67  96 134 178 216 267 335 395
#     4  11  22  43  67  90 137 176 209 272 331 388
#     4  12  23  41  68  96 133 171 220 272 323 388
#     4  12  23  44  68  98 134 175 221 269 331 395
#     4  11  25  42  68  98 131 174 222 271 337 386
#     4  12  24  41  64 101 131 172 219 266 326 387
#     4  11  23  45  67  96 133 176 218 274 332 391
#     4  12  24  43  67 102 130 172 226 273 324 393
#
# _framework density 20.866059
#
# number of rings (size 3 to 8) (size 9 to 14) (size 15 to 20)
#    0.000    0.500    6.250    2.250    0.000    1.000 
#    0.000    4.375    0.000    0.000    0.000    0.000 
#    0.000    0.000    0.000    0.000    0.000    0.000 
#
# Total GULP energy -89516.248466 kJ/mol
# GULP energy per Si atom -5594.765529 kJ/mol
# Density = 2.081857 g / cm^3
# Si number density = 20.866059 Si / 1000 Ang^3
#
#
#
# Elastic Constant Matrix: (Units=GPa)
#
#
# Indices 1 2 3 4 5 6 
#
# 1 92.5643 17.8015 -0.2487 -7.6754 -37.1877 4.8906
# 2 17.8015 74.7318 28.6433 4.9105 -27.3158 18.4029
# 3 -0.2487 28.6433 42.9975 -9.4372 -13.1682 3.1397
# 4 -7.6754 4.9105 -9.4372 27.4029 -5.9037 -5.8066
# 5 -37.1877 -27.3158 -13.1682 -5.9037 46.5945 4.6224
# 6 4.8906 18.4029 3.1397 -5.8066 4.6224 28.7925
#
#
#
# Elastic Compliance Matrix: (Units=1/GPa)
#
#
# Indices 1 2 3 4 5 6 
#
# 1 0.020897 -0.000868 0.010461 0.013158 0.021279 -0.004898
# 2 -0.000868 0.032760 -0.019188 -0.014856 0.013576 -0.023874
# 3 0.010461 -0.019188 0.045004 0.026406 0.012278 0.008934
# 4 0.013158 -0.014856 0.026406 0.058115 0.015264 0.013650
# 5 0.021279 0.013576 0.012278 0.015264 0.053710 -0.019175
# 6 -0.004898 -0.023874 0.008934 0.013650 -0.019175 0.055680
#
#
# Mechanical properties :
#
#
# Convention : Reuss Voigt Hill
#
# Bulk Modulus (GPa) = 12.58322 33.63176 23.10749
# Shear Modulus (GPa) = 16.03365 31.49784 23.76574
#
# Velocity S-wave (km/s) = 2.77503 3.88948 3.37852
# Velocity P-wave (km/s) = 4.03872 6.02691 5.13005
#
# Compressibility (1/GPa) = 0.07947091
#
# Stress axis : x y z
#
# Youngs Moduli (GPa) = 47.85399 30.52512 22.22043
#
# Poissons Ratio (x) = 0.02650 -0.23246
# Poissons Ratio (y) = 0.04154 0.42637
# Poissons Ratio (z) = -0.50062 0.58572
#
# Static dielectric constant tensor:
#      x y z
#    x 1.749200 -0.004540 0.007410 
#    y -0.004540 1.724910 0.022430 
#    z 0.007410 0.022430 1.768490 
# 
# From -- ./inp_files/186721.got.cif
#   From: 2010.05.17/outbox.cif.g08.bks.cpg/sg2_94_cif.got.tgz:186721.got - 2010.06.03 11:33:40.
