data_PCOD9057854
_publ_section_title
;
Structure prediction by ZEFSAII (Michael W. Deem and Ramdas Pophale) SiO2 
 PCOD9057854
Probable space group: P -1
;
_chemical_formula_sum "Si O2"
_cell_formula_units_Z 16
_cell_length_a 9.251998
_cell_length_b 14.838760
_cell_length_c 11.606288
_cell_angle_alpha 58.096094
_cell_angle_beta 78.921119
_cell_angle_gamma 38.734448
_cell_volume 770.325347
_symmetry_space_group_name_H-M "P -1"
_symmetry_group_IT_number 2
_symmetry_cell_setting 'triclinic'
loop_
_space_group_symop_operation_xyz
x,y,z
-x,-y,-z
loop_
_atom_site_type_symbol
_atom_site_label
_atom_site_fract_x
_atom_site_fract_y
_atom_site_fract_z
Si Si1 0.772251 0.415090 0.871258
Si Si2 0.868272 0.756396 0.856334
Si Si3 0.941996 0.970940 0.375552
Si Si4 0.013370 0.043897 0.090284
Si Si5 0.516735 0.088134 0.850184
Si Si6 0.593672 0.827856 0.640647
Si Si7 0.810837 0.260953 0.305482
Si Si8 0.958788 0.484475 0.646978
O O1 0.468262 0.594224 0.799730
O O2 0.845201 0.433872 0.729284
O O3 0.946013 0.369970 0.974881
O O4 0.838599 0.251730 0.982927
O O5 0.736326 0.748942 0.796631
O O6 0.057538 0.709778 0.775642
O O7 0.632341 0.966104 0.798938
O O8 0.961076 0.982101 0.231068
O O9 0.152081 0.775925 0.538595
O O10 0.664353 0.088851 0.367972
O O11 0.976127 0.069314 0.354489
O O12 0.285381 0.936503 0.137379
O O13 0.000000 0.000000 0.000000
O O14 0.248885 0.300864 0.760785
O O15 0.500000 0.000000 0.000000
O O16 0.783276 0.666259 0.626082
O O17 0.500000 0.000000 0.500000
O O18 0.000000 0.500000 0.500000
#
# Coordination Sequence:
#
# PCOD9057854 Si02
#       8
#     2   2   2   2   2   2   2   2
#     4  11  24  46  69 102 132 188 232 289 349 418
#     4  11  23  43  75  98 144 177 233 296 350 413
#     4  11  24  42  72  98 134 185 229 284 348 410
#     4  11  26  44  70 102 141 182 230 291 350 414
#     4  11  23  47  67  99 141 190 224 280 363 424
#     4  12  26  46  69 112 142 179 239 302 346 407
#     4  11  22  43  72  96 132 178 237 281 346 412
#     4  12  27  43  72 101 141 191 230 281 358 425
#
# _framework density 20.770444000000001
#
# number of rings (size 3 to 8) (size 9 to 14) (size 15 to 20)
#    0.000    0.750    7.500    1.125    3.500    2.500 
#    0.000    0.625    0.000    0.000    0.000    0.000 
#    0.000    0.000    0.000    0.000    0.000    0.000 
#
# Total GULP energy -89157.693512 kJ/mol
# GULP energy per Si atom -5572.355845 kJ/mol
# Density = 2.072317 g / cm^3
# Si number density = 20.770444 Si / 1000 Ang^3
#
#
#
# Elastic Constant Matrix: (Units=GPa)
#
#
# Indices 1 2 3 4 5 6 
#
# 1 70.2246 35.7493 23.2766 0.7317 3.2492 -4.3784
# 2 35.7493 103.0634 54.2546 2.7913 9.2943 -12.7028
# 3 23.2766 54.2546 132.3778 12.1316 -1.5788 -4.6369
# 4 0.7317 2.7913 12.1316 39.1794 -3.5404 8.3313
# 5 3.2492 9.2943 -1.5788 -3.5404 31.7187 8.6956
# 6 -4.3784 -12.7028 -4.6369 8.3313 8.6956 29.7520
#
#
#
# Elastic Compliance Matrix: (Units=1/GPa)
#
#
# Indices 1 2 3 4 5 6 
#
# 1 0.017356 -0.005603 -0.000785 0.000307 -0.000139 -0.000006
# 2 -0.005603 0.015971 -0.005226 -0.001623 -0.006623 0.007570
# 3 -0.000785 -0.005226 0.010053 -0.002391 0.002039 -0.000706
# 4 0.000307 -0.001623 -0.002391 0.029356 0.006670 -0.011190
# 5 -0.000139 -0.006623 0.002039 0.006670 0.038629 -0.015688
# 6 -0.000006 0.007570 -0.000706 -0.011190 -0.015688 0.044451
#
#
# Mechanical properties :
#
#
# Convention : Reuss Voigt Hill
#
# Bulk Modulus (GPa) = 49.62406 59.13634 54.38020
# Shear Modulus (GPa) = 26.91626 32.95573 29.93599
#
# Velocity S-wave (km/s) = 3.60376 3.98762 3.80054
# Velocity P-wave (km/s) = 6.42336 7.05228 6.74516
#
# Compressibility (1/GPa) = 0.02015152
#
# Stress axis : x y z
#
# Youngs Moduli (GPa) = 57.61829 62.61161 99.47609
#
# Poissons Ratio (x) = 0.35083 0.07811
# Poissons Ratio (y) = 0.32285 0.51983
# Poissons Ratio (z) = 0.04525 0.32719
#
# Static dielectric constant tensor:
#      x y z
#    x 1.738060 -0.184240 0.034800 
#    y -0.184240 4.797410 -0.266270 
#    z 0.034800 -0.266270 1.865300 
# 
# From -- ./inp_files/398562.got.cif
#   From: 2010.05.17/outbox.cif.g08.bks.cpg/sg2_200_cif.got.tgz:398562.got - 2010.06.03 11:33:40.
