data_PCOD9057815
_publ_section_title
;
Structure prediction by ZEFSAII (Michael W. Deem and Ramdas Pophale) SiO2 
 PCOD9057815
Probable space group: P -1
;
_chemical_formula_sum "Si O2"
_cell_formula_units_Z 16
_cell_length_a 18.594338
_cell_length_b 29.824172
_cell_length_c 12.164045
_cell_angle_alpha 151.411297
_cell_angle_beta 20.614732
_cell_angle_gamma 161.167728
_cell_volume 764.859251
_symmetry_space_group_name_H-M "P -1"
_symmetry_group_IT_number 2
_symmetry_cell_setting 'triclinic'
loop_
_space_group_symop_operation_xyz
x,y,z
-x,-y,-z
loop_
_atom_site_type_symbol
_atom_site_label
_atom_site_fract_x
_atom_site_fract_y
_atom_site_fract_z
Si Si1 0.603531 0.156483 0.371370
Si Si2 0.344309 0.877548 0.146639
Si Si3 0.308124 0.341614 0.435982
Si Si4 0.458741 0.218724 0.507880
Si Si5 0.212541 0.265911 0.664102
Si Si6 0.676304 0.477765 0.635697
Si Si7 0.611372 0.247629 0.788996
Si Si8 0.768596 0.942523 0.863570
O O1 0.548938 0.224824 0.516158
O O2 0.549644 0.165774 0.593402
O O3 0.384739 0.997445 0.306148
O O4 0.937946 0.227506 0.030817
O O5 0.992594 0.746527 0.395306
O O6 0.432887 0.832818 0.831070
O O7 0.565533 0.934619 0.055029
O O8 0.500000 0.500000 0.500000
O O9 0.212015 0.292011 0.593257
O O10 0.493791 0.312933 0.075755
O O11 0.623370 0.366168 0.543396
O O12 0.093626 0.099061 0.760554
O O13 0.516164 0.400009 0.581240
O O14 0.177560 0.141364 0.450723
O O15 0.027367 0.623146 0.431042
O O16 0.500000 0.500000 0.000000
O O17 0.425073 0.144407 0.936845
#
# Coordination Sequence:
#
# PCOD9057815 Si02
#       8
#     2   2   2   2   2   2   2   2
#     4  12  24  44  72 101 141 174 229 287 337 406
#     4  12  23  43  75 102 132 181 232 279 339 409
#     4  11  26  43  67 101 137 182 229 276 344 407
#     4  12  24  44  74 103 131 184 238 275 335 414
#     4  11  22  43  71  97 136 181 228 281 334 409
#     4  12  26  45  69 100 140 182 227 279 344 407
#     4  11  28  46  64 106 143 177 225 286 347 400
#     4  11  25  44  74 103 134 177 234 286 336 403
#
# _framework density 20.918883000000001
#
# number of rings (size 3 to 8) (size 9 to 14) (size 15 to 20)
#    0.000    0.500    5.000    3.750    1.750    5.000 
#    0.000    0.000    0.000    0.000    0.000    0.000 
#    0.000    0.000    0.000    0.000    0.000    0.000 
#
# Total GULP energy -89567.984045 kJ/mol
# GULP energy per Si atom -5597.999003 kJ/mol
# Density = 2.087127 g / cm^3
# Si number density = 20.918883 Si / 1000 Ang^3
#
#
#
# Elastic Constant Matrix: (Units=GPa)
#
#
# Indices 1 2 3 4 5 6 
#
# 1 71.8945 -3.7734 18.6065 4.0201 -4.9182 2.6941
# 2 -3.7734 56.9310 7.7863 -4.8849 -1.2284 -10.7235
# 3 18.6065 7.7863 94.6316 -8.6667 7.6436 1.5757
# 4 4.0201 -4.8849 -8.6667 41.8524 10.7157 -4.9549
# 5 -4.9182 -1.2284 7.6436 10.7157 29.6248 -0.5112
# 6 2.6941 -10.7235 1.5757 -4.9549 -0.5112 26.4252
#
#
#
# Elastic Compliance Matrix: (Units=1/GPa)
#
#
# Indices 1 2 3 4 5 6 
#
# 1 0.015553 0.001071 -0.003846 -0.003596 0.004893 -0.001501
# 2 0.001071 0.019727 -0.001782 0.002677 0.000634 0.008517
# 3 -0.003846 -0.001782 0.012277 0.004023 -0.005342 -0.000412
# 4 -0.003596 0.002677 0.004023 0.029217 -0.011980 0.006460
# 5 0.004893 0.000634 -0.005342 -0.011980 0.040282 -0.001390
# 6 -0.001501 0.008517 -0.000412 0.006460 -0.001390 0.042661
#
#
# Mechanical properties :
#
#
# Convention : Reuss Voigt Hill
#
# Bulk Modulus (GPa) = 26.01160 29.85508 27.93334
# Shear Modulus (GPa) = 27.52639 32.96965 30.24802
#
# Velocity S-wave (km/s) = 3.63142 3.97428 3.80671
# Velocity P-wave (km/s) = 5.48128 5.94666 5.71870
#
# Compressibility (1/GPa) = 0.03844439
#
# Stress axis : x y z
#
# Youngs Moduli (GPa) = 64.29686 50.69102 81.45441
#
# Poissons Ratio (x) = -0.05429 0.31325
# Poissons Ratio (y) = -0.06887 0.14512
# Poissons Ratio (z) = 0.24727 0.09031
#
# Static dielectric constant tensor:
#      x y z
#    x 1.732090 -0.004980 -0.012740 
#    y -0.004980 1.749100 -0.011580 
#    z -0.012740 -0.011580 1.738350 
# 
# From -- ./inp_files/216348.got.cif
#   From: 2010.05.17/outbox.cif.g08.bks.cpg/sg2_109_cif.got.tgz:216348.got - 2010.06.03 11:33:40.
