data_PCOD9057331
_publ_section_title
;
Structure prediction by ZEFSAII (Michael W. Deem and Ramdas Pophale) SiO2 
 PCOD9057331
Probable space group: P -1
;
_chemical_formula_sum "Si O2"
_cell_formula_units_Z 16
_cell_length_a 23.526461
_cell_length_b 9.540796
_cell_length_c 20.594999
_cell_angle_alpha 142.405777
_cell_angle_beta 159.417412
_cell_angle_gamma 28.830303
_cell_volume 773.092076
_symmetry_space_group_name_H-M "P -1"
_symmetry_group_IT_number 2
_symmetry_cell_setting 'triclinic'
loop_
_space_group_symop_operation_xyz
x,y,z
-x,-y,-z
loop_
_atom_site_type_symbol
_atom_site_label
_atom_site_fract_x
_atom_site_fract_y
_atom_site_fract_z
Si Si1 0.186483 0.827962 0.186927
Si Si2 0.404706 0.860624 0.976023
Si Si3 0.062181 0.211166 0.637324
Si Si4 0.364528 0.716485 0.540662
Si Si5 0.643741 0.194901 0.945922
Si Si6 0.670361 0.891285 0.471172
Si Si7 0.053446 0.719227 0.139410
Si Si8 0.190795 0.193749 0.623802
O O1 0.394332 0.517054 0.270461
O O2 0.098847 0.775688 0.137346
O O3 0.276456 0.993048 0.368505
O O4 0.000000 0.000000 0.000000
O O5 0.493252 0.550773 0.921724
O O6 0.221331 0.122574 0.832603
O O7 0.329214 0.887804 0.979012
O O8 0.602641 0.848242 0.185902
O O9 0.164545 0.175832 0.664831
O O10 0.860278 0.547150 0.545437
O O11 0.000000 0.000000 0.500000
O O12 0.264399 0.576955 0.352623
O O13 0.336796 0.929868 0.532352
O O14 0.225052 0.920366 0.525797
O O15 0.529530 0.092744 0.746721
O O16 0.864911 0.025552 0.084908
O O17 0.000000 0.500000 0.000000
O O18 0.000000 0.500000 0.500000
#
# Coordination Sequence:
#
# PCOD9057331 Si02
#       8
#     2   2   2   2   2   2   2   2
#     4  11  27  47  70 101 134 181 230 291 349 400
#     4  11  25  40  66 100 143 177 229 281 345 405
#     4  12  26  43  66 109 142 176 225 295 340 401
#     4  11  23  45  72  95 134 183 232 274 337 419
#     4  11  22  42  68 101 132 183 231 281 339 409
#     4  11  22  45  71  93 139 181 227 279 339 414
#     4  11  24  42  73  96 131 175 238 281 341 413
#     4  12  24  44  72 100 138 188 231 268 352 427
#
# _framework density 20.696111999999999
#
# number of rings (size 3 to 8) (size 9 to 14) (size 15 to 20)
#    0.000    0.750    3.750    4.125    7.000    1.000 
#    0.000    1.250    0.000    0.000    0.000    0.000 
#    0.000    0.000    0.000    0.000    0.000    0.000 
#
# Total GULP energy -89426.550007 kJ/mol
# GULP energy per Si atom -5589.159375 kJ/mol
# Density = 2.064901 g / cm^3
# Si number density = 20.696112 Si / 1000 Ang^3
#
#
#
# Elastic Constant Matrix: (Units=GPa)
#
#
# Indices 1 2 3 4 5 6 
#
# 1 66.2577 10.6816 21.7920 -15.5574 -1.1702 -13.2419
# 2 10.6816 83.4898 34.8242 -9.4493 -6.4762 -11.9002
# 3 21.7920 34.8242 138.5076 -17.8504 -12.2060 -0.5848
# 4 -15.5574 -9.4493 -17.8504 48.7061 1.6707 4.1340
# 5 -1.1702 -6.4762 -12.2060 1.6707 33.4781 -1.9549
# 6 -13.2419 -11.9002 -0.5848 4.1340 -1.9549 23.5236
#
#
#
# Elastic Compliance Matrix: (Units=1/GPa)
#
#
# Indices 1 2 3 4 5 6 
#
# 1 0.018865 0.000576 -0.002487 0.004360 0.000236 0.010102
# 2 0.000576 0.014707 -0.003443 0.001056 0.002004 0.007659
# 3 -0.002487 -0.003443 0.008916 0.001991 0.002218 -0.003086
# 4 0.004360 0.001056 0.001991 0.022948 -0.000121 -0.001005
# 5 0.000236 0.002004 0.002218 -0.000121 0.031304 0.003825
# 6 0.010102 0.007659 -0.003086 -0.001005 0.003825 0.052490
#
#
# Mechanical properties :
#
#
# Convention : Reuss Voigt Hill
#
# Bulk Modulus (GPa) = 31.46853 46.98342 39.22597
# Shear Modulus (GPa) = 29.32002 35.87205 32.59604
#
# Velocity S-wave (km/s) = 3.76798 4.16778 3.97291
# Velocity P-wave (km/s) = 5.84537 6.77579 6.32770
#
# Compressibility (1/GPa) = 0.03177778
#
# Stress axis : x y z
#
# Youngs Moduli (GPa) = 53.00876 67.99596 112.15924
#
# Poissons Ratio (x) = -0.03915 0.27899
# Poissons Ratio (y) = -0.03052 0.38618
# Poissons Ratio (z) = 0.13186 0.23412
#
# Static dielectric constant tensor:
#      x y z
#    x 1.727280 -0.061590 -0.000550 
#    y -0.061590 1.818990 0.031230 
#    z -0.000550 0.031230 1.758740 
# 
# From -- ./inp_files/274078.got.cif
#   From: 2010.05.17/outbox.cif.g08.bks.cpg/sg2_138_cif.got.tgz:274078.got - 2010.06.03 11:33:40.
