data_PCOD9057864
_publ_section_title
;
Structure prediction by ZEFSAII (Michael W. Deem and Ramdas Pophale) SiO2 
 PCOD9057864
Probable space group: P -1
;
_chemical_formula_sum "Si O2"
_cell_formula_units_Z 14
_cell_length_a 18.170041
_cell_length_b 7.242078
_cell_length_c 9.179834
_cell_angle_alpha 113.421412
_cell_angle_beta 37.705359
_cell_angle_gamma 96.598330
_cell_volume 633.606626
_symmetry_space_group_name_H-M "P -1"
_symmetry_group_IT_number 2
_symmetry_cell_setting 'triclinic'
loop_
_space_group_symop_operation_xyz
x,y,z
-x,-y,-z
loop_
_atom_site_type_symbol
_atom_site_label
_atom_site_fract_x
_atom_site_fract_y
_atom_site_fract_z
Si Si1 0.087976 0.723702 0.646341
Si Si2 0.126196 0.424263 0.960620
Si Si3 0.256852 0.403483 0.057611
Si Si4 0.941364 0.915908 0.426787
Si Si5 0.701815 0.536538 0.553550
Si Si6 0.657835 0.922447 0.948141
Si Si7 0.473852 0.589423 0.731639
O O1 0.961379 0.718636 0.923283
O O2 0.135649 0.527599 0.390976
O O3 0.203534 0.659180 0.561452
O O4 0.062041 0.935954 0.660054
O O5 0.212438 0.386914 0.670765
O O6 0.212430 0.399005 0.961664
O O7 0.029295 0.670628 0.183763
O O8 0.329137 0.167456 0.936171
O O9 0.350255 0.539949 0.964049
O O10 0.797138 0.932268 0.694156
O O11 0.000000 0.000000 0.500000
O O12 0.637356 0.736108 0.825028
O O13 0.594957 0.483393 0.612986
O O14 0.555752 0.156067 0.151861
O O15 0.500000 0.500000 0.500000
#
# Coordination Sequence:
#
# PCOD9057864 Si02
#       7
#     2   2   2   2   2   2   2
#     4  11  23  40  67 104 133 180 222 273 345 396
#     4  12  22  44  66 102 144 170 221 282 336 404
#     4  11  22  43  72  99 132 180 231 276 334 400
#     4  12  22  39  71 100 134 178 225 272 330 406
#     4  11  26  46  66 101 146 176 217 291 337 399
#     4  11  25  45  69 101 133 181 228 274 348 391
#     4  12  25  49  71  97 136 177 238 280 328 407
#
# _framework density 22.095731000000001
#
# number of rings (size 3 to 8) (size 9 to 14) (size 15 to 20)
#    0.000    0.571    7.143    2.143    0.000    3.429 
#    2.571    0.000    0.000    0.000    0.000    0.000 
#    0.000    0.000    0.000    0.000    0.000    0.000 
#
# Total GULP energy -78412.648312 kJ/mol
# GULP energy per Si atom -5600.903451 kJ/mol
# Density = 2.204544 g / cm^3
# Si number density = 22.095731 Si / 1000 Ang^3
#
#
#
# Elastic Constant Matrix: (Units=GPa)
#
#
# Indices 1 2 3 4 5 6 
#
# 1 166.5731 44.2421 16.2170 -3.8543 -4.2058 -27.2837
# 2 44.2421 125.0425 6.1823 -5.8577 -5.2399 -39.6236
# 3 16.2170 6.1823 45.5443 -6.2520 7.3691 -10.1724
# 4 -3.8543 -5.8577 -6.2520 9.7919 0.4890 2.7159
# 5 -4.2058 -5.2399 7.3691 0.4890 24.4146 -4.6547
# 6 -27.2837 -39.6236 -10.1724 2.7159 -4.6547 42.3716
#
#
#
# Elastic Compliance Matrix: (Units=1/GPa)
#
#
# Indices 1 2 3 4 5 6 
#
# 1 0.007116 -0.001369 -0.002049 -0.000283 0.002140 0.003063
# 2 -0.001369 0.012309 0.001232 0.004331 0.004062 0.011094
# 3 -0.002049 0.001232 0.026997 0.016327 -0.007722 0.004419
# 4 -0.000283 0.004331 0.016327 0.115438 -0.006420 -0.000316
# 5 0.002140 0.004062 -0.007722 -0.006420 0.046341 0.008825
# 6 0.003063 0.011094 0.004419 -0.000316 0.008825 0.037998
#
#
# Mechanical properties :
#
#
# Convention : Reuss Voigt Hill
#
# Bulk Modulus (GPa) = 23.78194 52.27142 38.02668
# Shear Modulus (GPa) = 18.89730 33.35019 26.12374
#
# Velocity S-wave (km/s) = 2.92763 3.88925 3.44219
# Velocity P-wave (km/s) = 4.71323 6.62393 5.74852
#
# Compressibility (1/GPa) = 0.04204871
#
# Stress axis : x y z
#
# Youngs Moduli (GPa) = 140.53469 81.23863 37.04170
#
# Poissons Ratio (x) = 0.11125 0.07589
# Poissons Ratio (y) = 0.19246 -0.04563
# Poissons Ratio (z) = 0.28793 -0.10007
#
# Static dielectric constant tensor:
#      x y z
#    x 1.803650 0.003310 -0.000840 
#    y 0.003310 1.793290 -0.005060 
#    z -0.000840 -0.005060 1.815190 
# 
# From -- ./inp_files/326361.got.cif
#   From: 2010.05.17/outbox.cif.g08.bks.cpg/sg2_164_cif.got.tgz:326361.got - 2010.06.03 11:33:40.
