data_PCOD9057829
_publ_section_title
;
Structure prediction by ZEFSAII (Michael W. Deem and Ramdas Pophale) SiO2 
 PCOD9057829
Probable space group: P -1
;
_chemical_formula_sum "Si O2"
_cell_formula_units_Z 15
_cell_length_a 11.340078
_cell_length_b 11.211701
_cell_length_c 12.805941
_cell_angle_alpha 123.779886
_cell_angle_beta 144.952501
_cell_angle_gamma 79.855903
_cell_volume 630.477635
_symmetry_space_group_name_H-M "P -1"
_symmetry_group_IT_number 2
_symmetry_cell_setting 'triclinic'
loop_
_space_group_symop_operation_xyz
x,y,z
-x,-y,-z
loop_
_atom_site_type_symbol
_atom_site_label
_atom_site_fract_x
_atom_site_fract_y
_atom_site_fract_z
Si Si1 0.029484 0.238250 0.234793
Si Si2 0.461417 0.124042 0.223017
Si Si3 0.000000 0.500000 0.500000
Si Si4 0.259506 0.031047 0.577987
Si Si5 0.665901 0.187808 0.772265
Si Si6 0.576363 0.362455 0.621602
Si Si7 0.554848 0.640532 0.022353
Si Si8 0.268762 0.287345 0.035283
O O1 0.058270 0.386064 0.404493
O O2 0.295074 0.271212 0.420324
O O3 0.908494 0.230942 0.031572
O O4 0.821675 0.047797 0.042393
O O5 0.639956 0.057827 0.319632
O O6 0.554180 0.257312 0.452027
O O7 0.442535 0.222233 0.159248
O O8 0.703144 0.378012 0.190638
O O9 0.478264 0.158021 0.714978
O O10 0.016019 0.881088 0.265648
O O11 0.228952 0.162570 0.685602
O O12 0.727136 0.334986 0.805043
O O13 0.500000 0.000000 0.500000
O O14 0.691111 0.566265 0.785240
O O15 0.649655 0.617739 0.971129
O O16 0.500000 0.500000 0.000000
#
# Coordination Sequence:
#
# PCOD9057829 Si02
#       8
#     2   2   1   2   2   2   2   2
#     4  11  24  43  74 101 135 181 236 289 338 402
#     4  11  25  44  66 102 141 179 229 279 352 410
#     4  12  24  46  74 104 130 176 238 298 332 402
#     4  11  25  46  68 104 141 180 226 287 349 407
#     4  11  22  43  72 102 132 182 237 278 335 404
#     4  12  24  43  68 104 138 184 232 280 339 415
#     4  12  27  49  73 101 133 178 242 288 344 412
#     4  12  28  42  68 100 140 188 221 286 351 416
#
# _framework density 23.791488000000001
#
# number of rings (size 3 to 8) (size 9 to 14) (size 15 to 20)
#    0.000    0.533    6.667    2.800    3.733    3.200 
#    0.000    0.000    0.000    0.000    0.000    0.000 
#    0.000    0.000    0.000    0.000    0.000    0.000 
#
# Total GULP energy -83751.798023 kJ/mol
# GULP energy per Si atom -5583.453202 kJ/mol
# Density = 2.373734 g / cm^3
# Si number density = 23.791488 Si / 1000 Ang^3
#
#
#
# Elastic Constant Matrix: (Units=GPa)
#
#
# Indices 1 2 3 4 5 6 
#
# 1 51.4737 9.9376 8.1540 4.6151 -12.4686 -1.2777
# 2 9.9376 125.2570 36.3300 -2.0429 -11.5256 7.4523
# 3 8.1540 36.3300 102.7346 21.6696 -24.0213 -3.4777
# 4 4.6151 -2.0429 21.6696 31.8860 -10.2418 -9.2397
# 5 -12.4686 -11.5256 -24.0213 -10.2418 37.5955 4.7774
# 6 -1.2777 7.4523 -3.4777 -9.2397 4.7774 30.9634
#
#
#
# Elastic Compliance Matrix: (Units=1/GPa)
#
#
# Indices 1 2 3 4 5 6 
#
# 1 0.021326 -0.001270 0.000636 -0.001512 0.006707 -0.000229
# 2 -0.001270 0.009430 -0.003669 0.003095 0.001223 -0.001999
# 3 0.000636 -0.003669 0.014080 -0.008242 0.005950 -0.000887
# 4 -0.001512 0.003095 -0.008242 0.041989 0.005353 0.009971
# 5 0.006707 0.001223 0.005950 0.005353 0.034856 -0.003130
# 6 -0.000229 -0.001999 -0.000887 0.009971 -0.003130 0.036127
#
#
# Mechanical properties :
#
#
# Convention : Reuss Voigt Hill
#
# Bulk Modulus (GPa) = 27.60031 43.14540 35.37286
# Shear Modulus (GPa) = 28.01257 35.09188 31.55222
#
# Velocity S-wave (km/s) = 3.43508 3.84471 3.64565
# Velocity P-wave (km/s) = 5.23059 6.15493 5.71149
#
# Compressibility (1/GPa) = 0.03623148
#
# Stress axis : x y z
#
# Youngs Moduli (GPa) = 46.89008 106.04055 71.02111
#
# Poissons Ratio (x) = 0.13471 -0.04517
# Poissons Ratio (y) = 0.05957 0.26054
# Poissons Ratio (z) = -0.02982 0.38901
#
# Static dielectric constant tensor:
#      x y z
#    x 1.944700 -0.005240 -0.018080 
#    y -0.005240 1.912440 0.012160 
#    z -0.018080 0.012160 1.896860 
# 
# From -- ./inp_files/418524.got.cif
#   From: 2010.05.17/outbox.cif.g08.bks.cpg/sg2_210_cif.got.tgz:418524.got - 2010.06.03 11:33:40.
