data_PCOD9057423
_publ_section_title
;
Structure prediction by ZEFSAII (Michael W. Deem and Ramdas Pophale) SiO2 
 PCOD9057423
Probable space group: P -1
;
_chemical_formula_sum "Si O2"
_cell_formula_units_Z 16
_cell_length_a 8.778345
_cell_length_b 17.888006
_cell_length_c 11.499376
_cell_angle_alpha 127.003663
_cell_angle_beta 43.326513
_cell_angle_gamma 93.232847
_cell_volume 710.377094
_symmetry_space_group_name_H-M "P -1"
_symmetry_group_IT_number 2
_symmetry_cell_setting 'triclinic'
loop_
_space_group_symop_operation_xyz
x,y,z
-x,-y,-z
loop_
_atom_site_type_symbol
_atom_site_label
_atom_site_fract_x
_atom_site_fract_y
_atom_site_fract_z
Si Si1 0.635108 0.308811 0.404990
Si Si2 0.732214 0.949312 0.108391
Si Si3 0.730004 0.043332 0.770720
Si Si4 0.267762 0.600501 0.938820
Si Si5 0.091541 0.846965 0.593150
Si Si6 0.143398 0.622570 0.294659
Si Si7 0.374827 0.232039 0.657966
Si Si8 0.418302 0.324361 0.284971
O O1 0.507971 0.444313 0.650765
O O2 0.476642 0.274784 0.539914
O O3 0.522720 0.333338 0.359169
O O4 0.002453 0.182013 0.089776
O O5 0.503986 0.944993 0.167998
O O6 0.528597 0.085624 0.414797
O O7 0.921616 0.940308 0.887520
O O8 0.572996 0.178184 0.043750
O O9 0.000000 0.000000 0.500000
O O10 0.892194 0.933307 0.674851
O O11 0.456224 0.640250 0.847120
O O12 0.104891 0.647668 0.200173
O O13 0.994154 0.668339 0.058221
O O14 0.075669 0.739674 0.507285
O O15 0.446607 0.777828 0.338049
O O16 0.941708 0.596340 0.430840
O O17 0.500000 0.500000 0.000000
#
# Coordination Sequence:
#
# PCOD9057423 Si02
#       8
#     2   2   2   2   2   2   2   2
#     4  11  24  45  70 101 142 182 231 292 348 411
#     4  11  22  42  70 101 133 181 236 282 346 418
#     4  12  25  43  67 103 144 180 229 294 351 413
#     4  12  27  47  71 105 141 185 236 287 347 420
#     4  11  23  41  69 100 135 181 231 286 349 411
#     4  12  26  46  71 101 142 188 233 284 349 418
#     4  11  22  42  74 102 135 179 237 287 345 412
#     4  12  26  46  72 101 143 185 230 290 348 412
#
# _framework density 22.523250999999998
#
# number of rings (size 3 to 8) (size 9 to 14) (size 15 to 20)
#    0.000    0.500    2.500    7.875    1.750    1.500 
#    2.250    2.500    0.000    0.000    0.000    0.000 
#    0.000    0.000    0.000    0.000    0.000    0.000 
#
# Total GULP energy -89528.491077 kJ/mol
# GULP energy per Si atom -5595.530692 kJ/mol
# Density = 2.247199 g / cm^3
# Si number density = 22.523251 Si / 1000 Ang^3
#
#
#
# Elastic Constant Matrix: (Units=GPa)
#
#
# Indices 1 2 3 4 5 6 
#
# 1 91.3572 14.6201 23.8765 5.2467 -23.2046 20.9117
# 2 14.6201 60.0313 35.2061 10.3865 -20.4561 28.1046
# 3 23.8765 35.2061 71.0982 9.7112 -31.5852 5.0294
# 4 5.2467 10.3865 9.7112 39.7139 8.8820 -5.3688
# 5 -23.2046 -20.4561 -31.5852 8.8820 46.0143 1.5506
# 6 20.9117 28.1046 5.0294 -5.3688 1.5506 18.0264
#
#
#
# Elastic Compliance Matrix: (Units=1/GPa)
#
#
# Indices 1 2 3 4 5 6 
#
# 1 0.004795 -0.019113 0.000902 0.009723 -0.008266 0.027591
# 2 -0.019113 -0.020626 -0.003748 0.023916 -0.028185 0.064923
# 3 0.000902 -0.003748 0.026028 -0.010733 0.018972 -0.007293
# 4 0.009723 0.023916 -0.010733 0.012957 0.007094 -0.042324
# 5 -0.008266 -0.028185 0.018972 0.007094 0.015034 0.049059
# 6 0.027591 0.064923 -0.007293 -0.042324 0.049059 -0.092544
#
#
# Mechanical properties :
#
#
# Convention : Reuss Voigt Hill
#
# Bulk Modulus (GPa) = -29.65486 41.09912 5.72213
# Shear Modulus (GPa) = -230.66427 30.66987 -99.99720
#
# Velocity S-wave (km/s) = -10.13084 3.69412 -6.67036
# Velocity P-wave (km/s) = 12.24909 6.04007 7.53518
#
# Compressibility (1/GPa) = -0.03372129
#
# Stress axis : x y z
#
# Youngs Moduli (GPa) = 208.53317 -48.48229 38.41949
#
# Poissons Ratio (x) = -0.92664 -0.03465
# Poissons Ratio (y) = 3.98571 0.14401
# Poissons Ratio (z) = -0.18806 -0.18173
#
# Static dielectric constant tensor:
#      x y z
#    x 2.056910 -0.032780 -0.046860 
#    y -0.032780 1.800210 -0.052930 
#    z -0.046860 -0.052930 1.794960 
# 
# From -- ./inp_files/190782.got.cif
#   From: 2010.05.17/outbox.cif.g08.bks.cpg/sg2_96_cif.got.tgz:190782.got - 2010.06.03 11:33:40.
