data_PCOD9057403
_publ_section_title
;
Structure prediction by ZEFSAII (Michael W. Deem and Ramdas Pophale) SiO2 
 PCOD9057403
Probable space group: P -1
;
_chemical_formula_sum "Si O2"
_cell_formula_units_Z 14
_cell_length_a 8.600379
_cell_length_b 12.351163
_cell_length_c 12.286437
_cell_angle_alpha 35.726347
_cell_angle_beta 127.476942
_cell_angle_gamma 117.869079
_cell_volume 603.796620
_symmetry_space_group_name_H-M "P -1"
_symmetry_group_IT_number 2
_symmetry_cell_setting 'triclinic'
loop_
_space_group_symop_operation_xyz
x,y,z
-x,-y,-z
loop_
_atom_site_type_symbol
_atom_site_label
_atom_site_fract_x
_atom_site_fract_y
_atom_site_fract_z
Si Si1 0.043273 0.590502 0.821856
Si Si2 0.323976 0.902435 0.717757
Si Si3 0.528592 0.255373 0.428929
Si Si4 0.077516 0.958262 0.189038
Si Si5 0.646770 0.482323 0.678563
Si Si6 0.289216 0.951942 0.908494
Si Si7 0.656508 0.710248 0.905504
O O1 0.132971 0.790581 0.703706
O O2 0.844052 0.591449 0.668333
O O3 0.203566 0.464914 0.925322
O O4 0.000000 0.500000 0.000000
O O5 0.291726 0.980276 0.759500
O O6 0.511790 0.751527 0.912420
O O7 0.393085 0.079240 0.536192
O O8 0.751859 0.203361 0.600889
O O9 0.455365 0.428844 0.329641
O O10 0.498178 0.280654 0.267489
O O11 0.191167 0.128415 0.149785
O O12 0.885791 0.935567 0.197355
O O13 0.000000 0.000000 0.000000
O O14 0.500000 0.500000 0.500000
O O15 0.721896 0.268402 0.896955
O O16 0.500000 0.000000 0.000000
#
# Coordination Sequence:
#
# PCOD9057403 Si02
#       7
#     2   2   2   2   2   2   2
#     4  12  22  44  71  97 138 184 226 285 346 415
#     4  11  23  41  71 102 131 182 232 279 342 412
#     4  11  25  45  70 102 140 176 229 293 338 406
#     4  11  22  42  69  96 136 182 221 277 346 400
#     4  12  25  46  67 100 140 176 228 289 345 397
#     4  12  24  45  71 100 138 183 234 276 342 421
#     4  11  22  45  68 100 138 179 232 286 339 409
#
# _framework density 23.186613999999999
#
# number of rings (size 3 to 8) (size 9 to 14) (size 15 to 20)
#    0.000    0.571    4.286    5.571    0.000    0.571 
#    7.714    0.714    0.000    0.000    0.000    0.000 
#    0.000    0.000    0.000    0.000    0.000    0.000 
#
# Total GULP energy -78283.205711 kJ/mol
# GULP energy per Si atom -5591.657551 kJ/mol
# Density = 2.313384 g / cm^3
# Si number density = 23.186614 Si / 1000 Ang^3
#
#
#
# Elastic Constant Matrix: (Units=GPa)
#
#
# Indices 1 2 3 4 5 6 
#
# 1 144.1053 24.8492 38.2810 17.0280 1.9494 7.0883
# 2 24.8492 70.1997 4.6598 25.1045 -2.2150 14.0227
# 3 38.2810 4.6598 69.8676 18.1851 16.7219 -2.7604
# 4 17.0280 25.1045 18.1851 42.1874 8.4520 5.5060
# 5 1.9494 -2.2150 16.7219 8.4520 21.8046 7.6809
# 6 7.0883 14.0227 -2.7604 5.5060 7.6809 49.9967
#
#
#
# Elastic Compliance Matrix: (Units=1/GPa)
#
#
# Indices 1 2 3 4 5 6 
#
# 1 0.008884 -0.002169 -0.005620 -0.000478 0.004019 -0.001526
# 2 -0.002169 0.020948 0.000910 -0.012993 0.008564 -0.005402
# 3 -0.005620 0.000910 0.022930 -0.005476 -0.016616 0.004963
# 4 -0.000478 -0.012993 -0.005476 0.036138 -0.011508 0.001198
# 5 0.004019 0.008564 -0.016616 -0.011508 0.068190 -0.013098
# 6 -0.001526 -0.005402 0.004963 0.001198 -0.013098 0.023887
#
#
# Mechanical properties :
#
#
# Convention : Reuss Voigt Hill
#
# Bulk Modulus (GPa) = 25.63896 46.63918 36.13907
# Shear Modulus (GPa) = 24.06900 37.22324 30.64612
#
# Velocity S-wave (km/s) = 3.22538 4.01106 3.63949
# Velocity P-wave (km/s) = 4.99524 6.45057 5.76898
#
# Compressibility (1/GPa) = 0.03900314
#
# Stress axis : x y z
#
# Youngs Moduli (GPa) = 112.56673 47.73647 43.61173
#
# Poissons Ratio (x) = 0.10353 0.24512
# Poissons Ratio (y) = 0.24414 -0.03969
# Poissons Ratio (z) = 0.63267 -0.04344
#
# Static dielectric constant tensor:
#      x y z
#    x 1.877630 0.007150 -0.038200 
#    y 0.007150 1.854330 -0.056080 
#    z -0.038200 -0.056080 1.947340 
# 
# From -- ./inp_files/189857.got.cif
#   From: 2010.05.17/outbox.cif.g08.bks.cpg/sg2_95_cif.got.tgz:189857.got - 2010.06.03 11:33:40.
