data_PCOD9057889
_publ_section_title
;
Structure prediction by ZEFSAII (Michael W. Deem and Ramdas Pophale) SiO2 
 PCOD9057889
Probable space group: P -1
;
_chemical_formula_sum "Si O2"
_cell_formula_units_Z 12
_cell_length_a 7.412157
_cell_length_b 7.629416
_cell_length_c 11.901955
_cell_angle_alpha 122.032368
_cell_angle_beta 119.896980
_cell_angle_gamma 56.035425
_cell_volume 453.259922
_symmetry_space_group_name_H-M "P -1"
_symmetry_group_IT_number 2
_symmetry_cell_setting 'triclinic'
loop_
_space_group_symop_operation_xyz
x,y,z
-x,-y,-z
loop_
_atom_site_type_symbol
_atom_site_label
_atom_site_fract_x
_atom_site_fract_y
_atom_site_fract_z
Si Si1 0.285614 0.243697 0.505487
Si Si2 0.571267 0.116558 0.955369
Si Si3 0.117985 0.639885 0.150904
Si Si4 0.365428 0.293099 0.297772
Si Si5 0.095945 0.918718 0.628213
Si Si6 0.600738 0.552599 0.174309
O O1 0.314254 0.337853 0.426809
O O2 0.295362 0.383202 0.663982
O O3 0.500000 0.000000 0.500000
O O4 0.052275 0.214481 0.424367
O O5 0.382254 0.299559 0.876291
O O6 0.684988 0.284216 0.091061
O O7 0.500000 0.000000 0.000000
O O8 0.697072 0.908520 0.840303
O O9 0.330301 0.641200 0.145827
O O10 0.960084 0.883547 0.229815
O O11 0.000000 0.500000 0.000000
O O12 0.233680 0.505224 0.253099
O O13 0.634773 0.208229 0.336671
O O14 0.000000 0.000000 0.500000
#
# Coordination Sequence:
#
# PCOD9057889 Si02
#       6
#     2   2   2   2   2   2
#     4  12  23  49  76 112 162 202 259 329 392 476
#     4  11  22  43  73 110 151 204 255 324 388 456
#     4  12  27  49  77 114 156 209 267 331 396 470
#     4  12  26  51  79 114 158 206 267 325 396 479
#     4  12  25  47  80 111 157 212 253 323 405 462
#     4  11  23  44  75 110 158 200 257 331 385 470
#
# _framework density 26.474876999999999
#
# number of rings (size 3 to 8) (size 9 to 14) (size 15 to 20)
#    0.000    0.333    6.667    1.000    0.000    4.000 
#    6.000    8.333    0.000    0.000    0.000    0.000 
#    0.000    0.000    0.000    0.000    0.000    0.000 
#
# Total GULP energy -67371.544346 kJ/mol
# GULP energy per Si atom -5614.295362 kJ/mol
# Density = 2.641462 g / cm^3
# Si number density = 26.474877 Si / 1000 Ang^3
#
#
#
# Elastic Constant Matrix: (Units=GPa)
#
#
# Indices 1 2 3 4 5 6 
#
# 1 146.8748 58.4706 75.9015 -6.9984 16.3284 4.0110
# 2 58.4706 159.6126 58.3884 -17.3458 -7.9214 22.5639
# 3 75.9015 58.3884 239.2016 11.5481 -6.5314 7.5506
# 4 -6.9984 -17.3458 11.5481 56.9722 4.9145 -2.8698
# 5 16.3284 -7.9214 -6.5314 4.9145 47.7474 -6.9773
# 6 4.0110 22.5639 7.5506 -2.8698 -6.9773 44.3272
#
#
#
# Elastic Compliance Matrix: (Units=1/GPa)
#
#
# Indices 1 2 3 4 5 6 
#
# 1 0.009779 -0.002747 -0.002622 0.001280 -0.004235 0.000377
# 2 -0.002747 0.008501 -0.001158 0.002183 0.001454 -0.003511
# 3 -0.002622 -0.001158 0.005432 -0.001916 0.001650 0.000037
# 4 0.001280 0.002183 -0.001916 0.018959 -0.002294 -0.000035
# 5 -0.004235 0.001454 0.001650 -0.002294 0.023521 0.002916
# 6 0.000377 -0.003511 0.000037 -0.000035 0.002916 0.024763
#
#
# Mechanical properties :
#
#
# Convention : Reuss Voigt Hill
#
# Bulk Modulus (GPa) = 93.83628 103.46776 98.65202
# Shear Modulus (GPa) = 46.48525 53.33792 49.91159
#
# Velocity S-wave (km/s) = 4.19480 4.49337 4.34665
# Velocity P-wave (km/s) = 7.67999 8.12938 7.90788
#
# Compressibility (1/GPa) = 0.01065686
#
# Stress axis : x y z
#
# Youngs Moduli (GPa) = 102.26413 117.63186 184.11069
#
# Poissons Ratio (x) = 0.32319 0.48266
# Poissons Ratio (y) = 0.28096 0.21323
# Poissons Ratio (z) = 0.26809 0.13624
#
# Static dielectric constant tensor:
#      x y z
#    x 2.080840 -0.003750 -0.019790 
#    y -0.003750 2.031490 0.017350 
#    z -0.019790 0.017350 2.057680 
# 
# From -- ./inp_files/170799.got.cif
#   From: 2010.05.17/outbox.cif.g08.bks.cpg/sg2_86_cif.got.tgz:170799.got - 2010.06.03 11:33:40.
