data_PCOD9057935
_publ_section_title
;
Structure prediction by ZEFSAII (Michael W. Deem and Ramdas Pophale) SiO2 
 PCOD9057935
Probable space group: P -1
;
_chemical_formula_sum "Si O2"
_cell_formula_units_Z 14
_cell_length_a 9.015306
_cell_length_b 7.219772
_cell_length_c 13.016936
_cell_angle_alpha 52.471981
_cell_angle_beta 59.539096
_cell_angle_gamma 67.070835
_cell_volume 575.118303
_symmetry_space_group_name_H-M "P -1"
_symmetry_group_IT_number 2
_symmetry_cell_setting 'triclinic'
loop_
_space_group_symop_operation_xyz
x,y,z
-x,-y,-z
loop_
_atom_site_type_symbol
_atom_site_label
_atom_site_fract_x
_atom_site_fract_y
_atom_site_fract_z
Si Si1 0.616421 0.527419 0.097780
Si Si2 0.831982 0.767718 0.079291
Si Si3 0.485061 0.891971 0.858006
Si Si4 0.706159 0.978490 0.458816
Si Si5 0.750761 0.459846 0.667674
Si Si6 0.654090 0.300226 0.543299
Si Si7 0.947152 0.874503 0.217122
O O1 0.776296 0.551821 0.107832
O O2 0.603779 0.285006 0.124883
O O3 0.440109 0.573004 0.211498
O O4 0.611298 0.727269 0.943947
O O5 0.872867 0.734539 0.196167
O O6 0.662475 0.961377 0.072667
O O7 0.982543 0.895412 0.932696
O O8 0.575625 0.078339 0.697614
O O9 0.742185 0.194953 0.444354
O O10 0.500000 0.000000 0.500000
O O11 0.762776 0.735639 0.581012
O O12 0.807166 0.952376 0.326032
O O13 0.762009 0.401259 0.562198
O O14 0.894111 0.291444 0.733066
O O15 0.500000 0.500000 0.500000
#
# Coordination Sequence:
#
# PCOD9057935 Si02
#       7
#     2   2   2   2   2   2   2
#     4  11  23  41  82 111 143 195 248 299 370 441
#     4  11  23  47  73 105 151 197 239 298 375 440
#     4  11  22  43  75 114 143 186 256 301 353 444
#     4  12  26  49  73 104 148 197 250 299 364 453
#     4  12  24  46  75 114 148 190 244 311 371 432
#     4  12  25  42  77 111 141 198 250 298 363 440
#     4  11  27  47  72 109 159 188 240 316 370 431
#
# _framework density 24.342817
#
# number of rings (size 3 to 8) (size 9 to 14) (size 15 to 20)
#    0.000    0.571    5.714    2.571    0.000    0.571 
#    0.000    5.714    0.000    0.000    0.000    0.000 
#    0.000    0.000    0.000    0.000    0.000    0.000 
#
# Total GULP energy -78536.369985 kJ/mol
# GULP energy per Si atom -5609.740713 kJ/mol
# Density = 2.428741 g / cm^3
# Si number density = 24.342817 Si / 1000 Ang^3
#
#
#
# Elastic Constant Matrix: (Units=GPa)
#
#
# Indices 1 2 3 4 5 6 
#
# 1 62.4474 47.1137 12.5813 -6.2745 10.2564 28.8213
# 2 47.1137 137.5368 41.9301 0.4041 6.4717 29.6507
# 3 12.5813 41.9301 114.6876 8.5381 8.1191 -0.2958
# 4 -6.2745 0.4041 8.5381 31.1396 -11.1979 0.2792
# 5 10.2564 6.4717 8.1191 -11.1979 38.3150 4.8287
# 6 28.8213 29.6507 -0.2958 0.2792 4.8287 45.5156
#
#
#
# Elastic Compliance Matrix: (Units=1/GPa)
#
#
# Indices 1 2 3 4 5 6 
#
# 1 0.028212 -0.006340 -0.000966 0.005033 -0.003111 -0.013441
# 2 -0.006340 0.011186 -0.003461 -0.000106 0.000938 -0.003393
# 3 -0.000966 -0.003461 0.010627 -0.004188 -0.003047 0.003284
# 4 0.005033 -0.000106 -0.004188 0.038404 0.011360 -0.004586
# 5 -0.003111 0.000938 -0.003047 0.011360 0.030994 -0.002018
# 6 -0.013441 -0.003393 0.003284 -0.004586 -0.002018 0.032956
#
#
# Mechanical properties :
#
#
# Convention : Reuss Voigt Hill
#
# Bulk Modulus (GPa) = 35.10116 57.54688 46.32402
# Shear Modulus (GPa) = 27.26158 37.19715 32.22937
#
# Velocity S-wave (km/s) = 3.35013 3.91327 3.64260
# Velocity P-wave (km/s) = 5.42358 6.64152 6.06321
#
# Compressibility (1/GPa) = 0.02848909
#
# Stress axis : x y z
#
# Youngs Moduli (GPa) = 35.44640 89.40075 94.10258
#
# Poissons Ratio (x) = 0.56682 0.09090
# Poissons Ratio (y) = 0.22474 0.32571
# Poissons Ratio (z) = 0.03424 0.30944
#
# Static dielectric constant tensor:
#      x y z
#    x 1.919300 0.017200 -0.002760 
#    y 0.017200 1.903000 0.003760 
#    z -0.002760 0.003760 1.959150 
# 
# From -- ./inp_files/511370.got.cif
#   From: 2010.05.17/outbox.cif.g08.bks.cpg/sg2_256_cif.got.tgz:511370.got - 2010.06.03 11:33:40.
