data_PCOD9057869
_publ_section_title
;
Structure prediction by ZEFSAII (Michael W. Deem and Ramdas Pophale) SiO2 
 PCOD9057869
Probable space group: P -1
;
_chemical_formula_sum "Si O2"
_cell_formula_units_Z 14
_cell_length_a 8.076611
_cell_length_b 12.094068
_cell_length_c 8.236971
_cell_angle_alpha 82.243006
_cell_angle_beta 52.079177
_cell_angle_gamma 97.891312
_cell_volume 603.411803
_symmetry_space_group_name_H-M "P -1"
_symmetry_group_IT_number 2
_symmetry_cell_setting 'triclinic'
loop_
_space_group_symop_operation_xyz
x,y,z
-x,-y,-z
loop_
_atom_site_type_symbol
_atom_site_label
_atom_site_fract_x
_atom_site_fract_y
_atom_site_fract_z
Si Si1 0.567738 0.634326 0.985506
Si Si2 0.767365 0.359193 0.303694
Si Si3 0.953257 0.225669 0.444912
Si Si4 0.217435 0.387395 0.820732
Si Si5 0.422537 0.803959 0.830451
Si Si6 0.728454 0.993736 0.442562
Si Si7 0.002527 0.166352 0.793386
O O1 0.798540 0.700107 0.750347
O O2 0.500000 0.500000 0.000000
O O3 0.610467 0.635970 0.150884
O O4 0.412609 0.707742 0.994177
O O5 0.805716 0.308507 0.463628
O O6 0.718590 0.482306 0.311187
O O7 0.598454 0.266356 0.312025
O O8 0.996878 0.376233 0.063353
O O9 0.875825 0.117014 0.390715
O O10 0.933465 0.180619 0.647687
O O11 0.155112 0.288861 0.742668
O O12 0.218376 0.856059 0.964762
O O13 0.643640 0.908090 0.665624
O O14 0.500000 0.000000 0.500000
O O15 0.869153 0.930466 0.261640
#
# Coordination Sequence:
#
# PCOD9057869 Si02
#       7
#     2   2   2   2   2   2   2
#     4  11  22  43  73 101 142 188 225 282 358 407
#     4   9  18  40  67  97 138 184 219 287 347 397
#     4  11  24  44  69 101 143 185 233 287 344 414
#     4   9  20  39  66 100 141 176 232 282 338 413
#     4  11  23  45  71 103 139 184 233 284 350 413
#     4  12  26  49  73  97 143 186 232 293 351 407
#     4  11  26  44  69 108 138 182 242 284 341 422
#
# _framework density 23.201401000000001
#
# number of rings (size 3 to 8) (size 9 to 14) (size 15 to 20)
#    0.000    1.429    4.286    0.429    2.000    2.857 
#    0.000    1.429    0.000    0.000    0.000    0.000 
#    0.000    0.000    0.000    0.000    0.000    0.000 
#
# Total GULP energy -78338.228111 kJ/mol
# GULP energy per Si atom -5595.587722 kJ/mol
# Density = 2.314859 g / cm^3
# Si number density = 23.201401 Si / 1000 Ang^3
#
#
#
# Elastic Constant Matrix: (Units=GPa)
#
#
# Indices 1 2 3 4 5 6 
#
# 1 100.7204 36.3496 24.9972 10.3438 7.1375 -13.0947
# 2 36.3496 117.9992 38.6289 -7.7755 -19.5826 -0.4142
# 3 24.9972 38.6289 57.7030 6.8347 -21.0411 -6.7843
# 4 10.3438 -7.7755 6.8347 34.8331 -4.7714 -1.1134
# 5 7.1375 -19.5826 -21.0411 -4.7714 46.3989 -2.6468
# 6 -13.0947 -0.4142 -6.7843 -1.1134 -2.6468 48.9682
#
#
#
# Elastic Compliance Matrix: (Units=1/GPa)
#
#
# Indices 1 2 3 4 5 6 
#
# 1 0.013859 -0.004101 -0.004691 -0.004898 -0.006347 0.002567
# 2 -0.004101 0.012786 -0.006307 0.005763 0.003672 -0.001533
# 3 -0.004691 -0.006307 0.028312 -0.004010 0.010663 0.003100
# 4 -0.004898 0.005763 -0.004010 0.032854 0.004699 -0.000816
# 5 -0.006347 0.003672 0.010663 0.004699 0.029484 0.001512
# 6 0.002567 -0.001533 0.003100 -0.000816 0.001512 0.021588
#
#
# Mechanical properties :
#
#
# Convention : Reuss Voigt Hill
#
# Bulk Modulus (GPa) = 40.38764 52.93043 46.65904
# Shear Modulus (GPa) = 28.19530 37.80318 32.99924
#
# Velocity S-wave (km/s) = 3.48981 4.04090 3.77542
# Velocity P-wave (km/s) = 5.80376 6.68093 6.25773
#
# Compressibility (1/GPa) = 0.02476005
#
# Stress axis : x y z
#
# Youngs Moduli (GPa) = 72.15426 78.20805 35.32010
#
# Poissons Ratio (x) = 0.32070 0.16570
# Poissons Ratio (y) = 0.29588 0.22277
# Poissons Ratio (z) = 0.33849 0.49327
#
# Static dielectric constant tensor:
#      x y z
#    x 1.905680 -0.040610 -0.010780 
#    y -0.040610 1.827150 -0.031940 
#    z -0.010780 -0.031940 1.888970 
# 
# From -- ./inp_files/178745.got.cif
#   From: 2010.05.17/outbox.cif.g08.bks.cpg/sg2_90_cif.got.tgz:178745.got - 2010.06.03 11:33:40.
