data_PCOD9057036
_publ_section_title
;
Structure prediction by ZEFSAII (Michael W. Deem and Ramdas Pophale) SiO2 
 PCOD9057036
Probable space group: P -1
;
_chemical_formula_sum "Si O2"
_cell_formula_units_Z 16
_cell_length_a 25.472884
_cell_length_b 5.164609
_cell_length_c 9.065074
_cell_angle_alpha 123.541901
_cell_angle_beta 125.983863
_cell_angle_gamma 60.751997
_cell_volume 780.198154
_symmetry_space_group_name_H-M "P -1"
_symmetry_group_IT_number 2
_symmetry_cell_setting 'triclinic'
loop_
_space_group_symop_operation_xyz
x,y,z
-x,-y,-z
loop_
_atom_site_type_symbol
_atom_site_label
_atom_site_fract_x
_atom_site_fract_y
_atom_site_fract_z
Si Si1 0.955157 0.344936 0.486134
Si Si2 0.156372 0.769467 0.951101
Si Si3 0.241712 0.214457 0.109754
Si Si4 0.328911 0.431730 0.551585
Si Si5 0.044684 0.240893 0.100877
Si Si6 0.411341 0.740992 0.558579
Si Si7 0.436485 0.382021 0.171619
Si Si8 0.357209 0.885148 0.975572
O O1 0.890150 0.305915 0.279526
O O2 0.937748 0.572065 0.670259
O O3 0.000000 0.500000 0.500000
O O4 0.000000 0.000000 0.500000
O O5 0.186219 0.457263 0.999518
O O6 0.214831 0.917288 0.029839
O O7 0.109105 0.038613 0.058978
O O8 0.264747 0.398587 0.343045
O O9 0.305962 0.085822 0.072185
O O10 0.380754 0.523054 0.549668
O O11 0.362227 0.089053 0.570178
O O12 0.318308 0.702784 0.743486
O O13 0.000000 0.500000 0.000000
O O14 0.000000 0.000000 0.000000
O O15 0.420046 0.579825 0.360204
O O16 0.484152 0.760209 0.741026
O O17 0.411974 0.622762 0.072893
O O18 0.394825 0.113369 0.022515
#
# Coordination Sequence:
#
# PCOD9057036 Si02
#       8
#     2   2   2   2   2   2   2   2
#     4  12  23  43  71 103 135 167 209 259 329 388
#     4  12  26  42  72  98 133 176 214 274 314 386
#     4  12  26  46  63  94 138 174 228 262 322 382
#     4  12  25  43  68  93 132 179 220 276 331 389
#     4  12  23  43  71 103 135 167 209 259 329 388
#     4  11  22  41  68  98 129 170 221 280 345 394
#     4  11  22  41  68  98 129 170 221 280 345 394
#     4  12  25  43  68  93 132 179 220 276 331 389
#
# _framework density 20.50761
#
# number of rings (size 3 to 8) (size 9 to 14) (size 15 to 20)
#    0.000    0.250    5.000    4.500    0.000    7.000 
#    0.000    0.000    0.000    0.000    0.000    0.000 
#    0.000    0.000    0.000    0.000    0.000    0.000 
#
# Total GULP energy -89623.612090 kJ/mol
# GULP energy per Si atom -5601.475756 kJ/mol
# Density = 2.046093 g / cm^3
# Si number density = 20.507610 Si / 1000 Ang^3
#
#
#
# Elastic Constant Matrix: (Units=GPa)
#
#
# Indices 1 2 3 4 5 6 
#
# 1 46.8378 -6.3910 2.6185 3.5644 4.6173 10.6251
# 2 -6.3910 89.4859 16.6748 -5.5778 -4.4816 6.6317
# 3 2.6185 16.6748 154.6539 11.2741 -6.1105 -10.8968
# 4 3.5644 -5.5778 11.2741 24.9159 1.2983 4.5388
# 5 4.6173 -4.4816 -6.1105 1.2983 31.5489 3.2986
# 6 10.6251 6.6317 -10.8968 4.5388 3.2986 25.5352
#
#
#
# Elastic Compliance Matrix: (Units=1/GPa)
#
#
# Indices 1 2 3 4 5 6 
#
# 1 0.024626 0.002785 -0.001611 0.000021 -0.002334 -0.011360
# 2 0.002785 0.012585 -0.002116 0.004450 0.001447 -0.006308
# 3 -0.001611 -0.002116 0.007456 -0.004597 0.001037 0.005085
# 4 0.000021 0.004450 -0.004597 0.045271 -0.000969 -0.011048
# 5 -0.002334 0.001447 0.001037 -0.000969 0.032801 -0.003027
# 6 -0.011360 -0.006308 0.005085 -0.011048 -0.003027 0.050051
#
#
# Mechanical properties :
#
#
# Convention : Reuss Voigt Hill
#
# Bulk Modulus (GPa) = 23.37360 35.19803 29.28582
# Shear Modulus (GPa) = 26.46403 34.93837 30.70120
#
# Velocity S-wave (km/s) = 3.59618 4.13204 3.87339
# Velocity P-wave (km/s) = 5.35403 6.32184 5.85796
#
# Compressibility (1/GPa) = 0.04278331
#
# Stress axis : x y z
#
# Youngs Moduli (GPa) = 40.60772 79.45670 134.12318
#
# Poissons Ratio (x) = -0.22131 0.21612
# Poissons Ratio (y) = -0.11310 0.28378
# Poissons Ratio (z) = 0.06543 0.16812
#
# Static dielectric constant tensor:
#      x y z
#    x 1.701010 -0.000730 -0.015790 
#    y -0.000730 1.684230 0.009690 
#    z -0.015790 0.009690 1.729630 
# 
# From -- ./inp_files/351122.got.cif
#   From: 2010.05.17/outbox.cif.g08.bks.cpg/sg2_176_cif.got.tgz:351122.got - 2010.06.03 11:33:40.
