data_PCOD9057555
_publ_section_title
;
Structure prediction by ZEFSAII (Michael W. Deem and Ramdas Pophale) SiO2 
 PCOD9057555
Probable space group: P -1
;
_chemical_formula_sum "Si O2"
_cell_formula_units_Z 16
_cell_length_a 9.260551
_cell_length_b 14.566152
_cell_length_c 14.216367
_cell_angle_alpha 150.417166
_cell_angle_beta 86.313680
_cell_angle_gamma 74.930760
_cell_volume 724.968678
_symmetry_space_group_name_H-M "P -1"
_symmetry_group_IT_number 2
_symmetry_cell_setting 'triclinic'
loop_
_space_group_symop_operation_xyz
x,y,z
-x,-y,-z
loop_
_atom_site_type_symbol
_atom_site_label
_atom_site_fract_x
_atom_site_fract_y
_atom_site_fract_z
Si Si1 0.790281 0.338269 0.074772
Si Si2 0.096451 0.555915 0.644380
Si Si3 0.637599 0.195318 0.521282
Si Si4 0.138782 0.647762 0.274246
Si Si5 0.188935 0.115851 0.360327
Si Si6 0.030169 0.265532 0.823681
Si Si7 0.701900 0.762036 0.814047
Si Si8 0.382816 0.137099 0.880956
O O1 0.833713 0.380934 0.214807
O O2 0.582687 0.573270 0.257483
O O3 0.803152 0.104327 0.868120
O O4 0.940739 0.294971 0.955280
O O5 0.226871 0.451546 0.453315
O O6 0.877435 0.762534 0.811178
O O7 0.110245 0.330348 0.480386
O O8 0.753017 0.290427 0.611807
O O9 0.655972 0.049647 0.298297
O O10 0.751133 0.978142 0.400243
O O11 0.095215 0.743235 0.255164
O O12 0.262624 0.360445 0.014778
O O13 0.941969 0.767601 0.439353
O O14 0.398963 0.009889 0.278097
O O15 0.000000 0.500000 0.000000
O O16 0.668696 0.744308 0.908503
O O17 0.500000 0.000000 0.000000
#
# Coordination Sequence:
#
# PCOD9057555 Si02
#       8
#     2   2   2   2   2   2   2   2
#     4  12  26  44  71 103 136 179 233 280 340 404
#     4  11  24  44  69 103 139 178 222 285 341 406
#     4  12  25  43  70  99 137 182 228 283 335 403
#     4  12  26  45  66 101 139 183 232 281 340 398
#     4  12  24  43  72  97 137 181 226 280 336 404
#     4  12  26  44  68  99 142 185 226 285 342 399
#     4  11  22  42  74 101 137 178 224 275 345 411
#     4  12  24  45  72  99 135 185 227 279 344 404
#
# _framework density 22.069917
#
# number of rings (size 3 to 8) (size 9 to 14) (size 15 to 20)
#    0.000    0.250    7.500    1.875    0.000    2.000 
#    0.000    4.375    0.000    0.000    0.000    0.000 
#    0.000    0.000    0.000    0.000    0.000    0.000 
#
# Total GULP energy -89358.085285 kJ/mol
# GULP energy per Si atom -5584.880330 kJ/mol
# Density = 2.201969 g / cm^3
# Si number density = 22.069917 Si / 1000 Ang^3
#
#
#
# Elastic Constant Matrix: (Units=GPa)
#
#
# Indices 1 2 3 4 5 6 
#
# 1 108.8612 24.5602 54.6734 -11.4780 -6.0123 -22.7155
# 2 24.5602 43.4089 11.7258 -1.9060 5.7735 -26.0180
# 3 54.6734 11.7258 91.9473 9.5175 -5.0275 -10.8563
# 4 -11.4780 -1.9060 9.5175 38.0667 -1.5449 0.0331
# 5 -6.0123 5.7735 -5.0275 -1.5449 58.1690 13.2129
# 6 -22.7155 -26.0180 -10.8563 0.0331 13.2129 35.8754
#
#
#
# Elastic Compliance Matrix: (Units=1/GPa)
#
#
# Indices 1 2 3 4 5 6 
#
# 1 0.016602 -0.003626 -0.009565 0.007225 0.000338 0.004856
# 2 -0.003626 0.051230 -0.000546 0.000982 -0.014580 0.040061
# 3 -0.009565 -0.000546 0.017240 -0.007192 0.000702 -0.001487
# 4 0.007225 0.000982 -0.007192 0.030299 0.000144 0.003029
# 5 0.000338 -0.014580 0.000702 0.000144 0.022964 -0.018606
# 6 0.004856 0.040061 -0.001487 0.003029 -0.018606 0.066403
#
#
# Mechanical properties :
#
#
# Convention : Reuss Voigt Hill
#
# Bulk Modulus (GPa) = 17.36188 47.34848 32.35518
# Shear Modulus (GPa) = 19.88769 36.63941 28.26355
#
# Velocity S-wave (km/s) = 3.00513 4.07892 3.58248
# Velocity P-wave (km/s) = 4.46373 6.60938 5.63954
#
# Compressibility (1/GPa) = 0.05759746
#
# Stress axis : x y z
#
# Youngs Moduli (GPa) = 60.23368 19.51988 58.00325
#
# Poissons Ratio (x) = 0.07078 0.55482
# Poissons Ratio (y) = 0.21842 0.03165
# Poissons Ratio (z) = 0.57616 0.01065
#
# Static dielectric constant tensor:
#      x y z
#    x 1.834370 -0.043860 0.025890 
#    y -0.043860 1.833040 -0.007020 
#    z 0.025890 -0.007020 1.851380 
# 
# From -- ./inp_files/505794.got.cif
#   From: 2010.05.17/outbox.cif.g08.bks.cpg/sg2_253_cif.got.tgz:505794.got - 2010.06.03 11:33:40.
