data_PCOD9057523
_publ_section_title
;
Structure prediction by ZEFSAII (Michael W. Deem and Ramdas Pophale) SiO2 
 PCOD9057523
Probable space group: P -1
;
_chemical_formula_sum "Si O2"
_cell_formula_units_Z 16
_cell_length_a 7.847882
_cell_length_b 12.995153
_cell_length_c 11.158193
_cell_angle_alpha 54.056734
_cell_angle_beta 127.830421
_cell_angle_gamma 103.714906
_cell_volume 714.092586
_symmetry_space_group_name_H-M "P -1"
_symmetry_group_IT_number 2
_symmetry_cell_setting 'triclinic'
loop_
_space_group_symop_operation_xyz
x,y,z
-x,-y,-z
loop_
_atom_site_type_symbol
_atom_site_label
_atom_site_fract_x
_atom_site_fract_y
_atom_site_fract_z
Si Si1 0.407269 0.872331 0.517238
Si Si2 0.395373 0.644176 0.814320
Si Si3 0.262737 0.184307 0.776854
Si Si4 0.128926 0.855528 0.191785
Si Si5 0.688199 0.252164 0.027109
Si Si6 0.050919 0.005642 0.657758
Si Si7 0.286633 0.597999 0.286460
Si Si8 0.021549 0.437637 0.420087
O O1 0.516565 0.737531 0.720799
O O2 0.346388 0.863722 0.358003
O O3 0.500000 0.000000 0.500000
O O4 0.164793 0.905684 0.445468
O O5 0.191447 0.618522 0.665555
O O6 0.500000 0.500000 0.000000
O O7 0.330852 0.717311 0.861698
O O8 0.482438 0.188702 0.941108
O O9 0.219455 0.315941 0.593238
O O10 0.060860 0.191941 0.778529
O O11 0.244468 0.071516 0.751305
O O12 0.224150 0.744361 0.213116
O O13 0.000000 0.000000 0.000000
O O14 0.686672 0.378190 0.859219
O O15 0.903074 0.141396 0.175706
O O16 0.000000 0.000000 0.500000
O O17 0.500000 0.500000 0.500000
O O18 0.080338 0.535080 0.279970
O O19 0.000000 0.500000 0.500000
#
# Coordination Sequence:
#
# PCOD9057523 Si02
#       8
#     2   2   2   2   2   2   2   2
#     4  11  25  46  71 101 139 188 235 289 349 423
#     4  12  27  45  72 104 142 189 237 283 352 437
#     4  11  22  42  72  95 137 189 228 275 353 422
#     4  11  25  45  72 103 134 183 245 286 344 431
#     4  12  26  44  69 107 139 179 234 292 357 416
#     4  11  22  45  67 101 141 175 230 288 350 410
#     4  12  26  42  71 107 139 176 236 301 348 417
#     4  12  22  48  74  95 138 189 229 282 353 426
#
# _framework density 22.406061000000001
#
# number of rings (size 3 to 8) (size 9 to 14) (size 15 to 20)
#    0.000    0.500    6.250    2.625    3.500    2.500 
#    2.250    0.000    0.000    0.000    0.000    0.000 
#    0.000    0.000    0.000    0.000    0.000    0.000 
#
# Total GULP energy -89269.843716 kJ/mol
# GULP energy per Si atom -5579.365232 kJ/mol
# Density = 2.235506 g / cm^3
# Si number density = 22.406061 Si / 1000 Ang^3
#
#
#
# Elastic Constant Matrix: (Units=GPa)
#
#
# Indices 1 2 3 4 5 6 
#
# 1 35.7050 20.4849 12.7082 3.4044 -12.5987 11.2230
# 2 20.4849 130.2439 47.0627 1.0319 -14.5580 7.6590
# 3 12.7082 47.0627 135.6595 -24.6937 -15.6572 -0.7170
# 4 3.4044 1.0319 -24.6937 50.3796 -5.5495 -2.1885
# 5 -12.5987 -14.5580 -15.6572 -5.5495 31.8305 -10.4974
# 6 11.2230 7.6590 -0.7170 -2.1885 -10.4974 35.3038
#
#
#
# Elastic Compliance Matrix: (Units=1/GPa)
#
#
# Indices 1 2 3 4 5 6 
#
# 1 0.036718 -0.003669 -0.001676 -0.002628 0.008782 -0.008462
# 2 -0.003669 0.009540 -0.003130 -0.001421 0.000860 -0.000799
# 3 -0.001676 -0.003130 0.010299 0.005930 0.005095 0.003303
# 4 -0.002628 -0.001421 0.005930 0.023943 0.006993 0.004828
# 5 0.008782 0.000860 0.005095 0.006993 0.042360 0.010154
# 6 -0.008462 -0.000799 0.003303 0.004828 0.010154 0.034575
#
#
# Mechanical properties :
#
#
# Convention : Reuss Voigt Hill
#
# Bulk Modulus (GPa) = 25.24801 51.34667 38.29734
# Shear Modulus (GPa) = 26.65423 38.25962 32.45693
#
# Velocity S-wave (km/s) = 3.45280 4.13674 3.81015
# Velocity P-wave (km/s) = 5.21427 6.76632 6.04035
#
# Compressibility (1/GPa) = 0.03960708
#
# Stress axis : x y z
#
# Youngs Moduli (GPa) = 27.23442 104.81850 97.09642
#
# Poissons Ratio (x) = 0.38462 0.16276
# Poissons Ratio (y) = 0.09993 0.30388
# Poissons Ratio (z) = 0.04565 0.32804
#
# Static dielectric constant tensor:
#      x y z
#    x 1.859000 0.011310 -0.044620 
#    y 0.011310 1.883940 0.000310 
#    z -0.044620 0.000310 1.979230 
# 
# From -- ./inp_files/217127.got.cif
#   From: 2010.05.17/outbox.cif.g08.bks.cpg/sg2_109_cif.got.tgz:217127.got - 2010.06.03 11:33:40.
