data_PCOD9057366
_publ_section_title
;
Structure prediction by ZEFSAII (Michael W. Deem and Ramdas Pophale) SiO2 
 PCOD9057366
Probable space group: P -1
;
_chemical_formula_sum "Si O2"
_cell_formula_units_Z 12
_cell_length_a 12.180738
_cell_length_b 7.111469
_cell_length_c 11.136020
_cell_angle_alpha 57.752075
_cell_angle_beta 113.924875
_cell_angle_gamma 67.591940
_cell_volume 473.101998
_symmetry_space_group_name_H-M "P -1"
_symmetry_group_IT_number 2
_symmetry_cell_setting 'triclinic'
loop_
_space_group_symop_operation_xyz
x,y,z
-x,-y,-z
loop_
_atom_site_type_symbol
_atom_site_label
_atom_site_fract_x
_atom_site_fract_y
_atom_site_fract_z
Si Si1 0.024004 0.300752 0.399753
Si Si2 0.911179 0.291663 0.601769
Si Si3 0.566253 0.794879 0.431347
Si Si4 0.548987 0.343652 0.207672
Si Si5 0.845963 0.758731 0.945116
Si Si6 0.770254 0.263015 0.902531
O O1 0.059202 0.498874 0.403279
O O2 0.942513 0.271722 0.481480
O O3 0.885371 0.530434 0.148806
O O4 0.231412 0.925440 0.578367
O O5 0.706739 0.513646 0.483658
O O6 0.077508 0.912395 0.866737
O O7 0.679026 0.593593 0.674278
O O8 0.526889 0.108665 0.282562
O O9 0.367813 0.953971 0.293428
O O10 0.396956 0.636408 0.139315
O O11 0.500000 0.500000 0.000000
O O12 0.000000 0.500000 0.000000
O O13 0.865001 0.970269 0.945055
#
# Coordination Sequence:
#
# PCOD9057366 Si02
#       6
#     2   2   2   2   2   2
#     4   9  19  39  62  90 132 168 210 268 315 381
#     4   9  19  37  64  95 122 168 220 262 317 374
#     4  11  24  39  66 102 133 169 220 265 328 397
#     4  11  22  42  68  99 130 168 224 269 320 386
#     4  11  25  44  65  94 138 175 213 269 334 390
#     4  11  22  42  69  94 133 174 215 274 323 382
#
# _framework density 25.364509999999999
#
# number of rings (size 3 to 8) (size 9 to 14) (size 15 to 20)
#    0.000    1.667    1.667    2.500    2.333    4.667 
#    0.000    0.833    0.000    0.000    0.000    0.000 
#    0.000    0.000    0.000    0.000    0.000    0.000 
#
# Total GULP energy -67279.299883 kJ/mol
# GULP energy per Si atom -5606.608324 kJ/mol
# Density = 2.530678 g / cm^3
# Si number density = 25.364510 Si / 1000 Ang^3
#
#
#
# Elastic Constant Matrix: (Units=GPa)
#
#
# Indices 1 2 3 4 5 6 
#
# 1 100.5486 40.6411 47.4259 2.1207 -9.4452 -28.2951
# 2 40.6411 126.5436 35.5568 -5.0243 -4.8928 -34.0746
# 3 47.4259 35.5568 158.9135 -3.6316 -17.5908 -22.8156
# 4 2.1207 -5.0243 -3.6316 25.9095 -18.9160 4.5827
# 5 -9.4452 -4.8928 -17.5908 -18.9160 54.1631 -0.1833
# 6 -28.2951 -34.0746 -22.8156 4.5827 -0.1833 63.6902
#
#
#
# Elastic Compliance Matrix: (Units=1/GPa)
#
#
# Indices 1 2 3 4 5 6 
#
# 1 0.013513 -0.002592 -0.002935 -0.002442 0.000329 0.003742
# 2 -0.002592 0.010105 -0.000786 0.002072 0.000942 0.003827
# 3 -0.002935 -0.000786 0.007895 0.003340 0.003151 0.000872
# 4 -0.002442 0.002072 0.003340 0.054692 0.019938 -0.002657
# 5 0.000329 0.000942 0.003151 0.019938 0.026593 0.000421
# 6 0.003742 0.003827 0.000872 -0.002657 0.000421 0.019915
#
#
# Mechanical properties :
#
#
# Convention : Reuss Voigt Hill
#
# Bulk Modulus (GPa) = 52.94861 70.36149 61.65505
# Shear Modulus (GPa) = 32.97392 46.24468 39.60930
#
# Velocity S-wave (km/s) = 3.60947 4.27453 3.95600
# Velocity P-wave (km/s) = 6.18800 7.22236 6.72510
#
# Compressibility (1/GPa) = 0.01888624
#
# Stress axis : x y z
#
# Youngs Moduli (GPa) = 74.00422 98.96212 126.66341
#
# Poissons Ratio (x) = 0.25649 0.37175
# Poissons Ratio (y) = 0.19180 0.09961
# Poissons Ratio (z) = 0.21720 0.07783
#
# Static dielectric constant tensor:
#      x y z
#    x 1.999090 0.049010 -0.008010 
#    y 0.049010 2.063790 -0.063700 
#    z -0.008010 -0.063700 1.962140 
# 
# From -- ./inp_files/158004.got.cif
#   From: 2010.05.17/outbox.cif.g08.bks.cpg/sg2_80_cif.got.tgz:158004.got - 2010.06.03 11:33:40.
