data_PCOD9057760
_publ_section_title
;
Structure prediction by ZEFSAII (Michael W. Deem and Ramdas Pophale) SiO2 
 PCOD9057760
Probable space group: P -1
;
_chemical_formula_sum "Si O2"
_cell_formula_units_Z 16
_cell_length_a 11.561630
_cell_length_b 9.866221
_cell_length_c 16.805038
_cell_angle_alpha 80.349264
_cell_angle_beta 123.981031
_cell_angle_gamma 54.547320
_cell_volume 887.558959
_symmetry_space_group_name_H-M "P -1"
_symmetry_group_IT_number 2
_symmetry_cell_setting 'triclinic'
loop_
_space_group_symop_operation_xyz
x,y,z
-x,-y,-z
loop_
_atom_site_type_symbol
_atom_site_label
_atom_site_fract_x
_atom_site_fract_y
_atom_site_fract_z
Si Si1 0.426287 0.946855 0.371535
Si Si2 0.963324 0.234050 0.902596
Si Si3 0.174988 0.536125 0.622132
Si Si4 0.246613 0.148925 0.698143
Si Si5 0.213788 0.198677 0.862209
Si Si6 0.678837 0.187504 0.788024
Si Si7 0.108768 0.293610 0.355226
Si Si8 0.734545 0.679674 0.843527
O O1 0.386158 0.846652 0.312145
O O2 0.707171 0.756079 0.519435
O O3 0.274535 0.068361 0.383055
O O4 0.330365 0.154662 0.263943
O O5 0.114693 0.178931 0.894079
O O6 0.823037 0.210379 0.824972
O O7 0.769885 0.502670 0.834796
O O8 0.149009 0.042270 0.064265
O O9 0.255460 0.308710 0.676645
O O10 0.419675 0.421727 0.709605
O O11 0.967685 0.723431 0.456815
O O12 0.050654 0.660617 0.647346
O O13 0.182857 0.169718 0.762942
O O14 0.510403 0.873737 0.800749
O O15 0.065601 0.462335 0.784543
O O16 0.500000 0.000000 0.000000
O O17 0.000000 0.500000 0.000000
#
# Coordination Sequence:
#
# PCOD9057760 Si02
#       8
#     2   2   2   2   2   2   2   2
#     4  11  20  36  60  87 114 151 191 239 281 335
#     4  11  24  38  57  88 117 147 191 238 287 351
#     4  10  17  37  56  83 111 155 186 232 283 346
#     4  10  20  32  59  85 112 144 199 236 277 332
#     4  11  21  34  56  88 116 143 189 243 282 326
#     4  11  22  40  59  80 118 158 183 229 305 348
#     4  10  21  33  60  89 114 143 200 240 275 328
#     4  12  19  36  61  87 112 146 198 243 279 327
#
# _framework density 18.026972000000001
#
# number of rings (size 3 to 8) (size 9 to 14) (size 15 to 20)
#    0.000    1.250    5.000    3.750    0.000    0.000 
#    0.000    4.375    0.000    3.750    0.000    0.000 
#    0.000    0.000    0.000    0.000    0.000    0.000 
#
# Total GULP energy -89355.667013 kJ/mol
# GULP energy per Si atom -5584.729188 kJ/mol
# Density = 1.798594 g / cm^3
# Si number density = 18.026972 Si / 1000 Ang^3
#
#
#
# Elastic Constant Matrix: (Units=GPa)
#
#
# Indices 1 2 3 4 5 6 
#
# 1 101.4574 39.2157 23.8622 2.9987 7.1617 -20.2455
# 2 39.2157 76.2370 17.9735 1.3799 3.4815 -19.0619
# 3 23.8622 17.9735 75.8678 -8.5880 11.9809 4.0041
# 4 2.9987 1.3799 -8.5880 27.6824 -5.0458 3.9024
# 5 7.1617 3.4815 11.9809 -5.0458 26.3741 -4.0998
# 6 -20.2455 -19.0619 4.0041 3.9024 -4.0998 26.9329
#
#
#
# Elastic Compliance Matrix: (Units=1/GPa)
#
#
# Indices 1 2 3 4 5 6 
#
# 1 0.014450 -0.003975 -0.004444 -0.004180 -0.000750 0.009201
# 2 -0.003975 0.019248 -0.004621 -0.003324 0.001881 0.012090
# 3 -0.004444 -0.004621 0.018115 0.006670 -0.006896 -0.011320
# 4 -0.004180 -0.003324 0.006670 0.041313 0.004618 -0.011769
# 5 -0.000750 0.001881 -0.006896 0.004618 0.043082 0.007682
# 6 0.009201 0.012090 -0.011320 -0.011769 0.007682 0.057160
#
#
# Mechanical properties :
#
#
# Convention : Reuss Voigt Hill
#
# Bulk Modulus (GPa) = 38.85938 46.18501 42.52219
# Shear Modulus (GPa) = 21.92731 27.69858 24.81294
#
# Velocity S-wave (km/s) = 3.49142 3.92408 3.71406
# Velocity P-wave (km/s) = 6.15276 6.79756 6.48318
#
# Compressibility (1/GPa) = 0.02573381
#
# Stress axis : x y z
#
# Youngs Moduli (GPa) = 69.20197 51.95212 55.20364
#
# Poissons Ratio (x) = 0.20651 0.24530
# Poissons Ratio (y) = 0.27508 0.25511
# Poissons Ratio (z) = 0.30750 0.24009
#
# Static dielectric constant tensor:
#      x y z
#    x 1.609580 -0.033520 -0.004870 
#    y -0.033520 1.628490 0.001750 
#    z -0.004870 0.001750 1.636480 
# 
# From -- ./inp_files/277786.got.cif
#   From: 2010.05.17/outbox.cif.g08.bks.cpg/sg2_139_cif.got.tgz:277786.got - 2010.06.03 11:33:40.
