data_PCOD9057664
_publ_section_title
;
Structure prediction by ZEFSAII (Michael W. Deem and Ramdas Pophale) SiO2 
 PCOD9057664
Probable space group: P -1
;
_chemical_formula_sum "Si O2"
_cell_formula_units_Z 16
_cell_length_a 9.218206
_cell_length_b 9.832673
_cell_length_c 11.799274
_cell_angle_alpha 99.206520
_cell_angle_beta 87.386914
_cell_angle_gamma 44.119408
_cell_volume 714.621539
_symmetry_space_group_name_H-M "P -1"
_symmetry_group_IT_number 2
_symmetry_cell_setting 'triclinic'
loop_
_space_group_symop_operation_xyz
x,y,z
-x,-y,-z
loop_
_atom_site_type_symbol
_atom_site_label
_atom_site_fract_x
_atom_site_fract_y
_atom_site_fract_z
Si Si1 0.296563 0.516576 0.911256
Si Si2 0.820145 0.792707 0.269440
Si Si3 0.940193 0.675871 0.598371
Si Si4 0.386794 0.759935 0.929253
Si Si5 0.279416 0.322524 0.204991
Si Si6 0.620427 0.665066 0.348287
Si Si7 0.188555 0.186771 0.993177
Si Si8 0.177891 0.991539 0.517615
O O1 0.267664 0.699081 0.914002
O O2 0.415034 0.369508 0.780079
O O3 0.437476 0.392042 0.000218
O O4 0.064023 0.613431 0.950755
O O5 0.670498 0.792513 0.345692
O O6 0.761578 0.831498 0.144073
O O7 0.059230 0.561988 0.238840
O O8 0.825875 0.937358 0.348048
O O9 0.157072 0.555605 0.644459
O O10 0.000000 0.500000 0.500000
O O11 0.752582 0.758327 0.700432
O O12 0.875007 0.846056 0.544397
O O13 0.523620 0.710115 0.807626
O O14 0.243025 0.991108 0.995600
O O15 0.302266 0.213239 0.077137
O O16 0.419063 0.777826 0.449983
O O17 0.000000 0.000000 0.500000
#
# Coordination Sequence:
#
# PCOD9057664 Si02
#       8
#     2   2   2   2   2   2   2   2
#     4  11  24  44  63 101 146 178 220 288 345 408
#     4  11  23  45  69  99 142 177 229 293 331 411
#     4  11  24  45  73  97 136 182 235 286 339 410
#     4  11  26  38  66 101 140 183 223 277 351 407
#     4  11  22  43  68 100 133 178 233 277 336 406
#     4  11  25  44  74  97 137 185 233 281 349 406
#     4  12  23  43  70 100 134 182 231 277 343 409
#     4  12  29  46  71 106 139 182 234 290 349 410
#
# _framework density 22.389475999999998
#
# number of rings (size 3 to 8) (size 9 to 14) (size 15 to 20)
#    0.000    0.750    6.250    2.250    5.250    1.500 
#    0.000    0.000    0.000    0.000    0.000    0.000 
#    0.000    0.000    0.000    0.000    0.000    0.000 
#
# Total GULP energy -89549.661355 kJ/mol
# GULP energy per Si atom -5596.853835 kJ/mol
# Density = 2.233852 g / cm^3
# Si number density = 22.389476 Si / 1000 Ang^3
#
#
#
# Elastic Constant Matrix: (Units=GPa)
#
#
# Indices 1 2 3 4 5 6 
#
# 1 76.5529 2.0474 29.1454 7.1028 -7.4926 8.6110
# 2 2.0474 62.2006 4.8651 -2.8706 -10.9585 6.4423
# 3 29.1454 4.8651 107.8388 7.5452 -9.7037 10.1910
# 4 7.1028 -2.8706 7.5452 39.3654 1.7339 -3.5477
# 5 -7.4926 -10.9585 -9.7037 1.7339 24.0826 9.3604
# 6 8.6110 6.4423 10.1910 -3.5477 9.3604 32.0543
#
#
#
# Elastic Compliance Matrix: (Units=1/GPa)
#
#
# Indices 1 2 3 4 5 6 
#
# 1 0.015762 0.001397 -0.002933 -0.003017 0.006877 -0.005925
# 2 0.001397 0.019011 0.000677 -0.000277 0.012526 -0.008100
# 3 -0.002933 0.000677 0.011195 -0.002272 0.005976 -0.004904
# 4 -0.003017 -0.000277 -0.002272 0.027232 -0.006464 0.006490
# 5 0.006877 0.012526 0.005976 -0.006464 0.061985 -0.025081
# 6 -0.005925 -0.008100 -0.004904 0.006490 -0.025081 0.044018
#
#
# Mechanical properties :
#
#
# Convention : Reuss Voigt Hill
#
# Bulk Modulus (GPa) = 22.59933 35.41199 29.00566
# Shear Modulus (GPa) = 25.55288 33.13610 29.34449
#
# Velocity S-wave (km/s) = 3.38196 3.85123 3.62420
# Velocity P-wave (km/s) = 5.03645 5.96881 5.52234
#
# Compressibility (1/GPa) = 0.04424910
#
# Stress axis : x y z
#
# Youngs Moduli (GPa) = 63.44518 52.60085 89.32171
#
# Poissons Ratio (x) = -0.07347 0.26199
# Poissons Ratio (y) = -0.08861 -0.06046
# Poissons Ratio (z) = 0.18609 -0.03560
#
# Static dielectric constant tensor:
#      x y z
#    x 1.841810 -0.014980 0.007200 
#    y -0.014980 1.857050 -0.028800 
#    z 0.007200 -0.028800 1.834000 
# 
# From -- ./inp_files/307454.got.cif
#   From: 2010.05.17/outbox.cif.g08.bks.cpg/sg2_154_cif.got.tgz:307454.got - 2010.06.03 11:33:40.
