data_PCOD9057025
_publ_section_title
;
Structure prediction by ZEFSAII (Michael W. Deem and Ramdas Pophale) SiO2 
 PCOD9057025
Probable space group: P -1
;
_chemical_formula_sum "Si O2"
_cell_formula_units_Z 14
_cell_length_a 9.229093
_cell_length_b 12.857265
_cell_length_c 8.931749
_cell_angle_alpha 56.593805
_cell_angle_beta 132.299729
_cell_angle_gamma 103.080300
_cell_volume 636.288859
_symmetry_space_group_name_H-M "P -1"
_symmetry_group_IT_number 2
_symmetry_cell_setting 'triclinic'
loop_
_space_group_symop_operation_xyz
x,y,z
-x,-y,-z
loop_
_atom_site_type_symbol
_atom_site_label
_atom_site_fract_x
_atom_site_fract_y
_atom_site_fract_z
Si Si1 0.074526 0.874010 0.551355
Si Si2 0.378319 0.889064 0.483405
Si Si3 0.636743 0.863866 0.154777
Si Si4 0.369199 0.499854 0.761282
Si Si5 0.638123 0.320232 0.870363
Si Si6 0.831213 0.256706 0.745217
Si Si7 0.273370 0.251859 0.000738
O O1 0.206663 0.901073 0.481470
O O2 0.868457 0.841053 0.380176
O O3 0.214002 0.764735 0.836751
O O4 0.000000 0.000000 0.500000
O O5 0.270958 0.859837 0.278916
O O6 0.500000 0.000000 0.500000
O O7 0.558562 0.764761 0.741573
O O8 0.531939 0.755889 0.229509
O O9 0.633590 0.846442 0.988042
O O10 0.500000 0.000000 0.000000
O O11 0.522201 0.448075 0.771717
O O12 0.232775 0.636023 0.513070
O O13 0.244952 0.391667 0.795758
O O14 0.500000 0.500000 0.000000
O O15 0.759296 0.321782 0.801731
O O16 0.071380 0.217849 0.943056
#
# Coordination Sequence:
#
# PCOD9057025 Si02
#       7
#     2   2   2   2   2   2   2
#     4  12  23  43  67  96 139 184 224 270 339 408
#     4  12  27  43  69 104 139 176 229 278 335 410
#     4  11  22  41  68  95 136 184 217 269 339 407
#     4  11  22  50  74  92 135 182 230 282 338 401
#     4  11  26  42  68 104 136 174 228 281 341 401
#     4  12  26  44  70 102 139 177 226 289 338 397
#     4  11  24  44  71 100 131 183 229 271 345 405
#
# _framework density 22.002585
#
# number of rings (size 3 to 8) (size 9 to 14) (size 15 to 20)
#    0.000    0.571    7.143    0.857    6.000    0.571 
#    0.000    0.714    0.000    0.000    0.000    0.000 
#    0.000    0.000    0.000    0.000    0.000    0.000 
#
# Total GULP energy -78280.667859 kJ/mol
# GULP energy per Si atom -5591.476276 kJ/mol
# Density = 2.195251 g / cm^3
# Si number density = 22.002585 Si / 1000 Ang^3
#
#
#
# Elastic Constant Matrix: (Units=GPa)
#
#
# Indices 1 2 3 4 5 6 
#
# 1 113.5748 25.7526 20.3789 19.8483 17.9309 -0.9934
# 2 25.7526 81.9314 6.1772 10.9892 9.8794 0.5860
# 3 20.3789 6.1772 55.0444 14.3808 18.5435 16.3838
# 4 19.8483 10.9892 14.3808 38.0914 4.5031 1.4830
# 5 17.9309 9.8794 18.5435 4.5031 38.3664 7.2381
# 6 -0.9934 0.5860 16.3838 1.4830 7.2381 34.2020
#
#
#
# Elastic Compliance Matrix: (Units=1/GPa)
#
#
# Indices 1 2 3 4 5 6 
#
# 1 0.010993 -0.002371 -0.002369 -0.003843 -0.003380 0.002377
# 2 -0.002371 0.013547 0.000943 -0.002730 -0.002496 -0.000106
# 3 -0.002369 0.000943 0.027393 -0.007844 -0.009403 -0.010877
# 4 -0.003843 -0.002730 -0.007844 0.031669 0.002225 0.001849
# 5 -0.003380 -0.002496 -0.009403 0.002225 0.033069 -0.002646
# 6 0.002377 -0.000106 -0.010877 0.001849 -0.002646 0.034999
#
#
# Mechanical properties :
#
#
# Convention : Reuss Voigt Hill
#
# Bulk Modulus (GPa) = 22.55283 39.46313 31.00798
# Shear Modulus (GPa) = 28.72829 35.34808 32.03818
#
# Velocity S-wave (km/s) = 3.61734 4.01252 3.82004
# Velocity P-wave (km/s) = 5.26490 6.28026 5.79486
#
# Compressibility (1/GPa) = 0.04434033
#
# Stress axis : x y z
#
# Youngs Moduli (GPa) = 90.96409 73.81560 36.50594
#
# Poissons Ratio (x) = 0.17500 0.08647
# Poissons Ratio (y) = 0.21566 -0.03443
# Poissons Ratio (z) = 0.21547 -0.06961
#
# Static dielectric constant tensor:
#      x y z
#    x 1.800930 0.034890 -0.041490 
#    y 0.034890 1.847200 -0.022120 
#    z -0.041490 -0.022120 1.863670 
# 
# From -- ./inp_files/175781.got.cif
#   From: 2010.05.17/outbox.cif.g08.bks.cpg/sg2_88_cif.got.tgz:175781.got - 2010.06.03 11:33:40.
