data_PCOD9057759
_publ_section_title
;
Structure prediction by ZEFSAII (Michael W. Deem and Ramdas Pophale) SiO2 
 PCOD9057759
Probable space group: P -1
;
_chemical_formula_sum "Si O2"
_cell_formula_units_Z 12
_cell_length_a 5.111729
_cell_length_b 5.115010
_cell_length_c 21.918129
_cell_angle_alpha 58.902505
_cell_angle_beta 114.631283
_cell_angle_gamma 93.538032
_cell_volume 437.307595
_symmetry_space_group_name_H-M "P -1"
_symmetry_group_IT_number 2
_symmetry_cell_setting 'triclinic'
loop_
_space_group_symop_operation_xyz
x,y,z
-x,-y,-z
loop_
_atom_site_type_symbol
_atom_site_label
_atom_site_fract_x
_atom_site_fract_y
_atom_site_fract_z
Si Si1 0.064217 0.228651 0.203827
Si Si2 0.032004 0.153782 0.069276
Si Si3 0.296987 0.944352 0.572777
Si Si4 0.583208 0.550028 0.266803
Si Si5 0.400226 0.680101 0.362034
Si Si6 0.589829 0.775829 0.113759
O O1 0.147299 0.148800 0.150994
O O2 0.281566 0.446737 0.226231
O O3 0.735316 0.440420 0.140975
O O4 0.108958 0.939841 0.290575
O O5 0.252106 0.917869 0.076094
O O6 0.731934 0.032296 0.062940
O O7 0.000000 0.500000 0.000000
O O8 0.234873 0.773599 0.650500
O O9 0.551567 0.692780 0.593653
O O10 0.426738 0.234193 0.573370
O O11 0.000000 0.000000 0.500000
O O12 0.548511 0.735736 0.304391
O O13 0.703513 0.711001 0.202584
#
# Coordination Sequence:
#
# PCOD9057759 Si02
#       6
#     2   2   2   2   2   2
#     4  11  22  43  70  93 143 180 248 288 359 420
#     4  12  28  45  69 104 142 184 236 298 365 428
#     4   9  17  32  63 103 145 185 234 293 358 416
#     4   9  21  40  64 101 130 189 235 286 345 421
#     4   9  18  35  63  97 141 187 241 288 352 422
#     4  12  24  46  68 101 138 187 239 292 357 430
#
# _framework density 27.440640999999999
#
# number of rings (size 3 to 8) (size 9 to 14) (size 15 to 20)
#    1.000    0.667    3.333    1.000    2.333    1.333 
#    0.000    0.000    0.000    5.000    0.000    0.000 
#    0.000    0.000    0.000    0.000    0.000    0.000 
#
# Total GULP energy -67028.202021 kJ/mol
# GULP energy per Si atom -5585.683502 kJ/mol
# Density = 2.737818 g / cm^3
# Si number density = 27.440641 Si / 1000 Ang^3
#
#
#
# Elastic Constant Matrix: (Units=GPa)
#
#
# Indices 1 2 3 4 5 6 
#
# 1 135.9984 39.0113 39.2549 1.4652 8.8413 -7.1990
# 2 39.0113 149.6509 33.1485 18.5275 16.3769 -12.1282
# 3 39.2549 33.1485 116.7220 10.1404 10.3586 8.6835
# 4 1.4652 18.5275 10.1404 54.2951 4.9380 5.1622
# 5 8.8413 16.3769 10.3586 4.9380 31.3285 9.5668
# 6 -7.1990 -12.1282 8.6835 5.1622 9.5668 29.9045
#
#
#
# Elastic Compliance Matrix: (Units=1/GPa)
#
#
# Indices 1 2 3 4 5 6 
#
# 1 0.008771 -0.001340 -0.002669 0.000619 -0.001854 0.002830
# 2 -0.001340 0.008783 -0.001799 -0.002727 -0.004966 0.005821
# 3 -0.002669 -0.001799 0.010386 -0.000829 -0.000347 -0.004134
# 4 0.000619 -0.002727 -0.000829 0.019904 -0.000382 -0.004030
# 5 -0.001854 -0.004966 -0.000347 -0.000382 0.039803 -0.015027
# 6 0.002830 0.005821 -0.004134 -0.004030 -0.015027 0.043185
#
#
# Mechanical properties :
#
#
# Convention : Reuss Voigt Hill
#
# Bulk Modulus (GPa) = 61.25740 69.46674 65.36207
# Shear Modulus (GPa) = 33.80872 42.50273 38.15572
#
# Velocity S-wave (km/s) = 3.51389 3.93987 3.73296
# Velocity P-wave (km/s) = 6.23180 6.78727 6.51546
#
# Compressibility (1/GPa) = 0.01632456
#
# Stress axis : x y z
#
# Youngs Moduli (GPa) = 114.00685 113.85892 96.27969
#
# Poissons Ratio (x) = 0.15253 0.25699
# Poissons Ratio (y) = 0.15273 0.17323
# Poissons Ratio (z) = 0.30430 0.20486
#
# Static dielectric constant tensor:
#      x y z
#    x 2.187900 -0.003770 0.063790 
#    y -0.003770 2.319350 -0.100920 
#    z 0.063790 -0.100920 2.206260 
# 
# From -- ./inp_files/6573.got.cif
#   From: 2010.05.17/outbox.cif.g08.bks.cpg/sg2_4_cif.got.tgz:6573.got - 2010.06.03 11:33:40.
