data_PCOD9057348
_publ_section_title
;
Structure prediction by ZEFSAII (Michael W. Deem and Ramdas Pophale) SiO2 
 PCOD9057348
Probable space group: P -1
;
_chemical_formula_sum "Si O2"
_cell_formula_units_Z 16
_cell_length_a 8.526478
_cell_length_b 12.296108
_cell_length_c 18.444393
_cell_angle_alpha 141.812695
_cell_angle_beta 44.239260
_cell_angle_gamma 142.185205
_cell_volume 709.337498
_symmetry_space_group_name_H-M "P -1"
_symmetry_group_IT_number 2
_symmetry_cell_setting 'triclinic'
loop_
_space_group_symop_operation_xyz
x,y,z
-x,-y,-z
loop_
_atom_site_type_symbol
_atom_site_label
_atom_site_fract_x
_atom_site_fract_y
_atom_site_fract_z
Si Si1 0.793646 0.154489 0.452791
Si Si2 0.265544 0.777210 0.983510
Si Si3 0.577078 0.733250 0.078764
Si Si4 0.162825 0.822921 0.713281
Si Si5 0.985906 0.602927 0.225324
Si Si6 0.152340 0.219853 0.769813
Si Si7 0.385790 0.376332 0.143010
Si Si8 0.225963 0.496771 0.595043
O O1 0.765605 0.207151 0.407079
O O2 0.999040 0.348740 0.534689
O O3 0.500000 0.000000 0.500000
O O4 0.916652 0.010890 0.332427
O O5 0.126663 0.633135 0.885193
O O6 0.396760 0.670312 0.926207
O O7 0.051908 0.773831 0.104902
O O8 0.500000 0.000000 0.000000
O O9 0.295991 0.718535 0.165671
O O10 0.751955 0.939973 0.175588
O O11 0.500000 0.500000 0.000000
O O12 0.710456 0.751446 0.966212
O O13 0.274155 0.724469 0.681792
O O14 0.848690 0.694629 0.761132
O O15 0.867305 0.701604 0.262431
O O16 0.903495 0.591651 0.329696
O O17 0.445720 0.374740 0.786714
O O18 0.500000 0.500000 0.500000
#
# Coordination Sequence:
#
# PCOD9057348 Si02
#       8
#     2   2   2   2   2   2   2   2
#     4  12  28  51  76 100 146 205 258 302 368 438
#     4  11  23  39  74 107 145 186 234 297 383 446
#     4  12  24  42  71 106 151 187 232 291 382 457
#     4  12  28  47  74 105 148 195 249 307 368 447
#     4  11  25  45  70 106 151 184 241 309 371 443
#     4  11  23  45  76 108 145 192 240 306 375 441
#     4  11  22  42  68 108 145 184 231 293 378 453
#     4  12  31  48  74 108 144 198 262 313 359 427
#
# _framework density 22.556260000000002
#
# number of rings (size 3 to 8) (size 9 to 14) (size 15 to 20)
#    0.000    0.500    2.500    5.250   12.250    0.500 
#    0.000    0.000    0.000    0.000    0.000    0.000 
#    0.000    0.000    0.000    0.000    0.000    0.000 
#
# Total GULP energy -89450.927474 kJ/mol
# GULP energy per Si atom -5590.682967 kJ/mol
# Density = 2.250492 g / cm^3
# Si number density = 22.556260 Si / 1000 Ang^3
#
#
#
# Elastic Constant Matrix: (Units=GPa)
#
#
# Indices 1 2 3 4 5 6 
#
# 1 52.9167 13.5322 19.6046 -1.1493 10.0351 -2.3013
# 2 13.5322 104.0595 18.9020 -2.9467 10.2774 11.7924
# 3 19.6046 18.9020 77.5267 -7.4742 7.8676 1.3511
# 4 -1.1493 -2.9467 -7.4742 51.6240 -3.8135 -3.1312
# 5 10.0351 10.2774 7.8676 -3.8135 45.3626 -4.1487
# 6 -2.3013 11.7924 1.3511 -3.1312 -4.1487 36.8993
#
#
#
# Elastic Compliance Matrix: (Units=1/GPa)
#
#
# Indices 1 2 3 4 5 6 
#
# 1 0.021869 -0.001833 -0.004805 -0.000467 -0.003473 0.001696
# 2 -0.001833 0.010820 -0.001907 -0.000079 -0.002064 -0.003741
# 3 -0.004805 -0.001907 0.014857 0.001854 -0.000942 -0.000183
# 4 -0.000467 -0.000079 0.001854 0.019854 0.001633 0.001796
# 5 -0.003473 -0.002064 -0.000942 0.001633 0.023883 0.003301
# 6 0.001696 -0.003741 -0.000183 0.001796 0.003301 0.028932
#
#
# Mechanical properties :
#
#
# Convention : Reuss Voigt Hill
#
# Bulk Modulus (GPa) = 32.83672 37.62005 35.22839
# Shear Modulus (GPa) = 33.90773 38.94144 36.42458
#
# Velocity S-wave (km/s) = 3.88138 4.15952 4.02286
# Velocity P-wave (km/s) = 5.88865 6.30740 6.10162
#
# Compressibility (1/GPa) = 0.03045371
#
# Stress axis : x y z
#
# Youngs Moduli (GPa) = 45.72687 92.41832 67.31030
#
# Poissons Ratio (x) = 0.16944 0.32344
# Poissons Ratio (y) = 0.08384 0.12839
# Poissons Ratio (z) = 0.21973 0.17629
#
# Static dielectric constant tensor:
#      x y z
#    x 1.903020 -0.014470 0.028990 
#    y -0.014470 1.881930 0.063860 
#    z 0.028990 0.063860 1.857910 
# 
# From -- ./inp_files/560007.got.cif
#   From: 2010.05.17/outbox.cif.g08.bks.cpg/sg2_281_cif.got.tgz:560007.got - 2010.06.03 11:33:40.
