data_PCOD9057103
_publ_section_title
;
Structure prediction by ZEFSAII (Michael W. Deem and Ramdas Pophale) SiO2 
 PCOD9057103
Probable space group: P -1
;
_chemical_formula_sum "Si O2"
_cell_formula_units_Z 16
_cell_length_a 17.403024
_cell_length_b 21.839042
_cell_length_c 12.313687
_cell_angle_alpha 151.152978
_cell_angle_beta 31.526885
_cell_angle_gamma 162.572117
_cell_volume 671.747658
_symmetry_space_group_name_H-M "P -1"
_symmetry_group_IT_number 2
_symmetry_cell_setting 'triclinic'
loop_
_space_group_symop_operation_xyz
x,y,z
-x,-y,-z
loop_
_atom_site_type_symbol
_atom_site_label
_atom_site_fract_x
_atom_site_fract_y
_atom_site_fract_z
Si Si1 0.522833 0.656844 0.667380
Si Si2 0.245622 0.947499 0.615494
Si Si3 0.072500 0.117648 0.746079
Si Si4 0.203777 0.332000 0.124815
Si Si5 0.367916 0.725984 0.520868
Si Si6 0.644006 0.268634 0.833545
Si Si7 0.094816 0.754457 0.954019
Si Si8 0.485250 0.215118 0.326374
O O1 0.500000 0.500000 0.500000
O O2 0.373951 0.603769 0.657367
O O3 0.825640 0.876682 0.616778
O O4 0.481124 0.738930 0.931430
O O5 0.365915 0.091154 0.583371
O O6 0.449491 0.126367 0.744227
O O7 0.270292 0.812759 0.366467
O O8 0.956315 0.781688 0.745289
O O9 0.088195 0.267114 0.908072
O O10 0.313590 0.201368 0.567878
O O11 0.041176 0.124383 0.920896
O O12 0.208854 0.484120 0.321298
O O13 0.500000 0.500000 0.000000
O O14 0.390771 0.755837 0.670579
O O15 0.227068 0.757560 0.709649
O O16 0.901749 0.528953 0.901210
O O17 0.312253 0.985464 0.118521
#
# Coordination Sequence:
#
# PCOD9057103 Si02
#       8
#     2   2   2   2   2   2   2   2
#     4  11  22  41  70 102 138 182 236 291 341 416
#     4  11  25  44  72 102 142 178 238 294 348 424
#     4  11  22  43  68  98 133 185 238 281 351 410
#     4  12  25  48  69  99 143 183 235 296 352 418
#     4  12  26  46  69 105 142 191 224 288 366 415
#     4  11  22  42  69 109 135 176 242 297 343 409
#     4  11  23  42  73  99 141 186 231 290 349 415
#     4  11  24  45  65 100 145 185 232 284 352 427
#
# _framework density 23.818467999999999
#
# number of rings (size 3 to 8) (size 9 to 14) (size 15 to 20)
#    0.000    0.750    3.750    5.625    1.750    1.500 
#    4.500    1.250    0.000    0.000    0.000    0.000 
#    0.000    0.000    0.000    0.000    0.000    0.000 
#
# Total GULP energy -89292.025899 kJ/mol
# GULP energy per Si atom -5580.751619 kJ/mol
# Density = 2.376426 g / cm^3
# Si number density = 23.818468 Si / 1000 Ang^3
#
#
#
# Elastic Constant Matrix: (Units=GPa)
#
#
# Indices 1 2 3 4 5 6 
#
# 1 75.6325 27.0841 27.8089 2.6305 -0.7207 -14.0317
# 2 27.0841 95.1387 16.1492 -16.9422 -4.4752 -21.6451
# 3 27.8089 16.1492 141.4247 -6.7867 -6.3628 -7.6337
# 4 2.6305 -16.9422 -6.7867 44.6809 1.1994 -6.6466
# 5 -0.7207 -4.4752 -6.3628 1.1994 32.1688 -2.4664
# 6 -14.0317 -21.6451 -7.6337 -6.6466 -2.4664 34.9396
#
#
#
# Elastic Compliance Matrix: (Units=1/GPa)
#
#
# Indices 1 2 3 4 5 6 
#
# 1 0.016269 -0.003929 -0.002721 -0.002401 -0.000399 0.003021
# 2 -0.003929 0.015187 0.000008 0.007323 0.002474 0.009400
# 3 -0.002721 0.000008 0.007796 0.001456 0.001505 0.000999
# 4 -0.002401 0.007323 0.001456 0.026843 0.000947 0.009064
# 5 -0.000399 0.002474 0.001505 0.000947 0.032001 0.004140
# 6 0.003021 0.009400 0.000999 0.009064 0.004140 0.037892
#
#
# Mechanical properties :
#
#
# Convention : Reuss Voigt Hill
#
# Bulk Modulus (GPa) = 38.50473 50.47557 44.49015
# Shear Modulus (GPa) = 31.66008 38.43477 35.04743
#
# Velocity S-wave (km/s) = 3.64981 4.02139 3.84010
# Velocity P-wave (km/s) = 5.82773 6.54216 6.19525
#
# Compressibility (1/GPa) = 0.02597084
#
# Stress axis : x y z
#
# Youngs Moduli (GPa) = 61.46611 65.84525 128.26469
#
# Poissons Ratio (x) = 0.25869 0.34895
# Poissons Ratio (y) = 0.24149 -0.00109
# Poissons Ratio (z) = 0.16722 -0.00056
#
# Static dielectric constant tensor:
#      x y z
#    x 2.088710 0.017280 -0.023770 
#    y 0.017280 1.962940 -0.081260 
#    z -0.023770 -0.081260 1.960110 
# 
# From -- ./inp_files/357085.got.cif
#   From: 2010.05.17/outbox.cif.g08.bks.cpg/sg2_179_cif.got.tgz:357085.got - 2010.06.03 11:33:40.
