data_PCOD9057695
_publ_section_title
;
Structure prediction by ZEFSAII (Michael W. Deem and Ramdas Pophale) SiO2 
 PCOD9057695
Probable space group: P -1
;
_chemical_formula_sum "Si O2"
_cell_formula_units_Z 16
_cell_length_a 31.301006
_cell_length_b 10.005811
_cell_length_c 11.457511
_cell_angle_alpha 132.517555
_cell_angle_beta 149.767662
_cell_angle_gamma 27.691501
_cell_volume 776.204898
_symmetry_space_group_name_H-M "P -1"
_symmetry_group_IT_number 2
_symmetry_cell_setting 'triclinic'
loop_
_space_group_symop_operation_xyz
x,y,z
-x,-y,-z
loop_
_atom_site_type_symbol
_atom_site_label
_atom_site_fract_x
_atom_site_fract_y
_atom_site_fract_z
Si Si1 0.877912 0.155432 0.211957
Si Si2 0.329156 0.149631 0.908384
Si Si3 0.695383 0.303055 0.063590
Si Si4 0.652974 0.712851 0.381040
Si Si5 0.365284 0.903658 0.598219
Si Si6 0.097754 0.657423 0.059492
Si Si7 0.163137 0.262234 0.787194
Si Si8 0.076551 0.205531 0.075854
O O1 0.781765 0.490312 0.142048
O O2 0.775867 0.198133 0.070071
O O3 0.000000 0.000000 0.500000
O O4 0.948188 0.934109 0.137497
O O5 0.271229 0.111520 0.845670
O O6 0.325169 0.069473 0.723382
O O7 0.494557 0.931237 0.185235
O O8 0.692699 0.493013 0.246635
O O9 0.775478 0.009158 0.151452
O O10 0.528231 0.548089 0.785897
O O11 0.772129 0.515744 0.647660
O O12 0.641791 0.927151 0.416846
O O13 0.246518 0.955427 0.330639
O O14 0.156552 0.453432 0.964176
O O15 0.994382 0.695792 0.907518
O O16 0.000000 0.000000 0.000000
O O17 0.000000 0.500000 0.500000
O O18 0.000000 0.500000 0.000000
#
# Coordination Sequence:
#
# PCOD9057695 Si02
#       8
#     2   2   2   2   2   2   2   2
#     4  12  22  38  65  95 126 168 219 261 317 388
#     4  11  23  43  68  93 129 176 214 258 330 390
#     4  11  23  41  67  97 129 173 211 268 326 379
#     4  11  22  44  69  94 134 168 215 271 321 392
#     4  11  22  43  68  98 133 164 219 270 323 384
#     4  12  26  45  66  93 134 174 213 266 332 385
#     4  12  26  44  64  97 134 168 219 271 320 389
#     4  12  24  39  65  95 128 171 214 271 320 374
#
# _framework density 20.613113999999999
#
# number of rings (size 3 to 8) (size 9 to 14) (size 15 to 20)
#    0.000    0.500    3.750    6.000    0.000    5.000 
#    0.000    0.000    0.000    0.000    0.000    0.000 
#    0.000    0.000    0.000    0.000    0.000    0.000 
#
# Total GULP energy -89574.877399 kJ/mol
# GULP energy per Si atom -5598.429837 kJ/mol
# Density = 2.056620 g / cm^3
# Si number density = 20.613114 Si / 1000 Ang^3
#
#
#
# Elastic Constant Matrix: (Units=GPa)
#
#
# Indices 1 2 3 4 5 6 
#
# 1 48.9397 -18.7362 -3.1475 -1.6466 4.2568 -3.1661
# 2 -18.7362 60.9103 -3.1424 -17.9455 -12.4504 7.6261
# 3 -3.1475 -3.1424 130.0361 -11.7721 -7.0175 -6.9297
# 4 -1.6466 -17.9455 -11.7721 24.3167 4.5603 -5.2260
# 5 4.2568 -12.4504 -7.0175 4.5603 31.6753 -3.1676
# 6 -3.1661 7.6261 -6.9297 -5.2260 -3.1676 38.6479
#
#
#
# Elastic Compliance Matrix: (Units=1/GPa)
#
#
# Indices 1 2 3 4 5 6 
#
# 1 0.025224 0.010888 0.001967 0.011092 -0.000095 0.001763
# 2 0.010888 0.027714 0.003213 0.021312 0.007019 -0.000544
# 3 0.001967 0.003213 0.008659 0.006757 0.002161 0.002171
# 4 0.011092 0.021312 0.006757 0.062225 0.000058 0.006334
# 5 -0.000095 0.007019 0.002161 0.000058 0.035000 0.001871
# 6 0.001763 -0.000544 0.002171 0.006334 0.001871 0.027525
#
#
# Mechanical properties :
#
#
# Convention : Reuss Voigt Hill
#
# Bulk Modulus (GPa) = 10.66865 21.09264 15.88064
# Shear Modulus (GPa) = 26.96041 36.58879 31.77460
#
# Velocity S-wave (km/s) = 3.62045 4.21768 3.93042
# Velocity P-wave (km/s) = 4.76065 5.82866 5.32151
#
# Compressibility (1/GPa) = 0.09373262
#
# Stress axis : x y z
#
# Youngs Moduli (GPa) = 39.64513 36.08221 115.48065
#
# Poissons Ratio (x) = -0.39287 -0.22711
# Poissons Ratio (y) = -0.43167 -0.37098
# Poissons Ratio (z) = -0.07797 -0.11592
#
# Static dielectric constant tensor:
#      x y z
#    x 1.706740 -0.012700 0.033810 
#    y -0.012700 1.712880 -0.000620 
#    z 0.033810 -0.000620 1.763340 
# 
# From -- ./inp_files/187816.got.cif
#   From: 2010.05.17/outbox.cif.g08.bks.cpg/sg2_94_cif.got.tgz:187816.got - 2010.06.03 11:33:40.
