data_PCOD9057252
_publ_section_title
;
Structure prediction by ZEFSAII (Michael W. Deem and Ramdas Pophale) SiO2 
 PCOD9057252
Probable space group: P -1
;
_chemical_formula_sum "Si O2"
_cell_formula_units_Z 14
_cell_length_a 9.034718
_cell_length_b 9.778111
_cell_length_c 10.847315
_cell_angle_alpha 115.248598
_cell_angle_beta 76.050421
_cell_angle_gamma 137.152082
_cell_volume 585.410061
_symmetry_space_group_name_H-M "P -1"
_symmetry_group_IT_number 2
_symmetry_cell_setting 'triclinic'
loop_
_space_group_symop_operation_xyz
x,y,z
-x,-y,-z
loop_
_atom_site_type_symbol
_atom_site_label
_atom_site_fract_x
_atom_site_fract_y
_atom_site_fract_z
Si Si1 0.105765 0.463592 0.289833
Si Si2 0.630825 0.582600 0.137547
Si Si3 0.960341 0.938831 0.843086
Si Si4 0.240786 0.645014 0.059533
Si Si5 0.279742 0.996279 0.239991
Si Si6 0.863050 0.755939 0.389443
Si Si7 0.716772 0.378857 0.426389
O O1 0.088200 0.271537 0.237334
O O2 0.218300 0.577231 0.180616
O O3 0.240663 0.623120 0.439811
O O4 0.867124 0.369616 0.314007
O O5 0.639217 0.615322 0.298776
O O6 0.500000 0.500000 0.000000
O O7 0.667167 0.428054 0.064417
O O8 0.818645 0.842368 0.177485
O O9 0.774762 0.915066 0.815277
O O10 0.000000 0.000000 0.000000
O O11 0.352202 0.887715 0.127246
O O12 0.000000 0.500000 0.000000
O O13 0.466126 0.184085 0.366013
O O14 0.049974 0.807899 0.286795
O O15 0.803900 0.605850 0.456838
O O16 0.000000 0.000000 0.500000
#
# Coordination Sequence:
#
# PCOD9057252 Si02
#       7
#     2   2   2   2   2   2   2
#     4  11  24  44  67  98 137 174 227 288 333 404
#     4  11  25  40  67 103 136 176 230 281 346 401
#     4  11  22  42  64  95 131 171 222 282 333 397
#     4  12  21  47  68  93 140 179 220 285 340 402
#     4  11  25  43  71  99 131 186 223 273 347 402
#     4  11  24  47  70  98 144 178 226 284 342 410
#     4  11  25  44  69 101 135 177 234 274 341 413
#
# _framework density 23.914860000000001
#
# number of rings (size 3 to 8) (size 9 to 14) (size 15 to 20)
#    0.000    0.857    5.714    1.714    4.000    4.000 
#    0.000    2.143    0.000    0.000    0.000    0.000 
#    0.000    0.000    0.000    0.000    0.000    0.000 
#
# Total GULP energy -78138.516346 kJ/mol
# GULP energy per Si atom -5581.322596 kJ/mol
# Density = 2.386043 g / cm^3
# Si number density = 23.914860 Si / 1000 Ang^3
#
#
#
# Elastic Constant Matrix: (Units=GPa)
#
#
# Indices 1 2 3 4 5 6 
#
# 1 81.2004 27.2543 29.5698 18.2916 23.5812 -15.3832
# 2 27.2543 74.1987 17.7875 13.1126 4.0822 -15.9493
# 3 29.5698 17.7875 117.4430 10.6305 15.5954 -6.8086
# 4 18.2916 13.1126 10.6305 49.1938 -9.7993 -2.8723
# 5 23.5812 4.0822 15.5954 -9.7993 52.3050 12.7952
# 6 -15.3832 -15.9493 -6.8086 -2.8723 12.7952 37.7701
#
#
#
# Elastic Compliance Matrix: (Units=1/GPa)
#
#
# Indices 1 2 3 4 5 6 
#
# 1 0.022162 -0.002870 -0.001830 -0.009148 -0.013734 0.011441
# 2 -0.002870 0.016732 -0.000925 -0.003201 -0.001830 0.006106
# 3 -0.001830 -0.000925 0.009691 -0.001611 -0.002632 0.001380
# 4 -0.009148 -0.003201 -0.001611 0.026828 0.011661 -0.007278
# 5 -0.013734 -0.001830 -0.002632 0.011661 0.032579 -0.016991
# 6 0.011441 0.006106 0.001380 -0.007278 -0.016991 0.039166
#
#
# Mechanical properties :
#
#
# Convention : Reuss Voigt Hill
#
# Bulk Modulus (GPa) = 26.78461 46.89615 36.84038
# Shear Modulus (GPa) = 29.26497 41.06916 35.16706
#
# Velocity S-wave (km/s) = 3.50196 4.14854 3.83888
# Velocity P-wave (km/s) = 5.25128 6.52682 5.92348
#
# Compressibility (1/GPa) = 0.03733488
#
# Stress axis : x y z
#
# Youngs Moduli (GPa) = 45.12280 59.76526 103.18989
#
# Poissons Ratio (x) = 0.17153 0.18884
# Poissons Ratio (y) = 0.12950 0.09544
# Poissons Ratio (z) = 0.08258 0.05528
#
# Static dielectric constant tensor:
#      x y z
#    x 2.039520 -0.013970 -0.075910 
#    y -0.013970 1.889240 0.019220 
#    z -0.075910 0.019220 1.969000 
# 
# From -- ./inp_files/262540.got.cif
#   From: 2010.05.17/outbox.cif.g08.bks.cpg/sg2_132_cif.got.tgz:262540.got - 2010.06.03 11:33:40.
