data_PCOD9057231
_publ_section_title
;
Structure prediction by ZEFSAII (Michael W. Deem and Ramdas Pophale) SiO2 
 PCOD9057231
Probable space group: P -1
;
_chemical_formula_sum "Si O2"
_cell_formula_units_Z 15
_cell_length_a 9.292431
_cell_length_b 11.192831
_cell_length_c 8.241089
_cell_angle_alpha 123.615010
_cell_angle_beta 102.614460
_cell_angle_gamma 95.839721
_cell_volume 669.926788
_symmetry_space_group_name_H-M "P -1"
_symmetry_group_IT_number 2
_symmetry_cell_setting 'triclinic'
loop_
_space_group_symop_operation_xyz
x,y,z
-x,-y,-z
loop_
_atom_site_type_symbol
_atom_site_label
_atom_site_fract_x
_atom_site_fract_y
_atom_site_fract_z
Si Si1 0.784127 0.915428 0.743166
Si Si2 0.156725 0.746553 0.445543
Si Si3 0.781370 0.528094 0.912573
Si Si4 0.532531 0.454500 0.294287
Si Si5 0.952604 0.826028 0.029703
Si Si6 0.527752 0.154322 0.212910
Si Si7 0.839262 0.659695 0.383265
Si Si8 0.000000 0.000000 0.500000
O O1 0.606118 0.865459 0.700599
O O2 0.823890 0.830823 0.527740
O O3 0.865710 0.857507 0.870618
O O4 0.867156 0.091080 0.889800
O O5 0.182862 0.626751 0.232692
O O6 0.310264 0.800623 0.625365
O O7 0.014701 0.672129 0.475529
O O8 0.101050 0.876708 0.444321
O O9 0.603009 0.516483 0.825835
O O10 0.889998 0.651726 0.915750
O O11 0.817544 0.593310 0.148847
O O12 0.500000 0.500000 0.500000
O O13 0.520303 0.280686 0.175737
O O14 0.701381 0.554132 0.368216
O O15 0.914895 0.913871 0.243380
O O16 0.500000 0.000000 0.000000
#
# Coordination Sequence:
#
# PCOD9057231 Si02
#       8
#     2   2   2   2   2   2   2   1
#     4  11  23  45  74 108 147 192 245 292 375 432
#     4  12  27  46  73 107 147 193 247 303 362 443
#     4  12  24  47  77 106 150 188 248 304 361 436
#     4  12  24  49  73 105 148 192 237 313 363 425
#     4  11  22  41  79 103 142 195 234 298 360 434
#     4  12  27  47  71 108 147 187 245 305 363 437
#     4  12  25  43  75 109 145 198 244 291 373 439
#     4  12  24  48  70 100 150 190 234 304 372 418
#
# _framework density 22.390506999999999
#
# number of rings (size 3 to 8) (size 9 to 14) (size 15 to 20)
#    0.000    0.267    6.667    1.600    1.867    1.600 
#    0.000    0.667    0.000    0.000    0.000    0.000 
#    0.000    0.000    0.000    0.000    0.000    0.000 
#
# Total GULP energy -83692.959754 kJ/mol
# GULP energy per Si atom -5579.530650 kJ/mol
# Density = 2.233954 g / cm^3
# Si number density = 22.390507 Si / 1000 Ang^3
#
#
#
# Elastic Constant Matrix: (Units=GPa)
#
#
# Indices 1 2 3 4 5 6 
#
# 1 191.7297 37.4149 45.2750 7.3029 28.6512 4.0861
# 2 37.4149 75.1154 21.6797 24.8214 -3.8911 -13.4427
# 3 45.2750 21.6797 119.5215 20.6146 -0.3371 -22.4979
# 4 7.3029 24.8214 20.6146 42.4399 -2.9039 -2.1657
# 5 28.6512 -3.8911 -0.3371 -2.9039 33.3538 12.5515
# 6 4.0861 -13.4427 -22.4979 -2.1657 12.5515 36.2605
#
#
#
# Elastic Compliance Matrix: (Units=1/GPa)
#
#
# Indices 1 2 3 4 5 6 
#
# 1 0.007616 -0.004333 -0.002848 0.002085 -0.006150 -0.001978
# 2 -0.004333 0.020219 0.001278 -0.011166 0.002380 0.007286
# 3 -0.002848 0.001278 0.011673 -0.005574 -0.000771 0.007972
# 4 0.002085 -0.011166 -0.005574 0.032250 0.002162 -0.006655
# 5 -0.006150 0.002380 -0.000771 0.002162 0.040542 -0.012808
# 6 -0.001978 0.007286 0.007972 -0.006655 -0.012808 0.039484
#
#
# Mechanical properties :
#
#
# Convention : Reuss Voigt Hill
#
# Bulk Modulus (GPa) = 36.09906 66.12287 51.11097
# Shear Modulus (GPa) = 28.93090 41.21064 35.07077
#
# Velocity S-wave (km/s) = 3.59849 4.29481 3.96197
# Velocity P-wave (km/s) = 5.78126 7.36136 6.61863
#
# Compressibility (1/GPa) = 0.02770155
#
# Stress axis : x y z
#
# Youngs Moduli (GPa) = 131.30940 49.45785 85.66418
#
# Poissons Ratio (x) = 0.21430 0.24400
# Poissons Ratio (y) = 0.56897 -0.10947
# Poissons Ratio (z) = 0.37401 -0.06320
#
# Static dielectric constant tensor:
#      x y z
#    x 1.368800 0.807600 0.082740 
#    y 0.807600 -0.334640 -0.112980 
#    z 0.082740 -0.112980 1.821820 
# 
# From -- ./inp_files/190936.got.cif
#   From: 2010.05.17/outbox.cif.g08.bks.cpg/sg2_96_cif.got.tgz:190936.got - 2010.06.03 11:33:40.
