data_PCOD9057772
_publ_section_title
;
Structure prediction by ZEFSAII (Michael W. Deem and Ramdas Pophale) SiO2 
 PCOD9057772
Probable space group: P -1
;
_chemical_formula_sum "Si O2"
_cell_formula_units_Z 16
_cell_length_a 11.478141
_cell_length_b 8.305566
_cell_length_c 8.054635
_cell_angle_alpha 85.111656
_cell_angle_beta 121.295825
_cell_angle_gamma 97.309918
_cell_volume 650.642328
_symmetry_space_group_name_H-M "P -1"
_symmetry_group_IT_number 2
_symmetry_cell_setting 'triclinic'
loop_
_space_group_symop_operation_xyz
x,y,z
-x,-y,-z
loop_
_atom_site_type_symbol
_atom_site_label
_atom_site_fract_x
_atom_site_fract_y
_atom_site_fract_z
Si Si1 0.060593 0.888905 0.732958
Si Si2 0.757868 0.857346 0.942281
Si Si3 0.257257 0.709073 0.677148
Si Si4 0.824061 0.062879 0.639647
Si Si5 0.526980 0.817786 0.008144
Si Si6 0.087409 0.668606 0.081585
Si Si7 0.629633 0.587654 0.364993
Si Si8 0.318864 0.460201 0.221437
O O1 0.123476 0.766749 0.662409
O O2 0.042641 0.784959 0.896110
O O3 0.914887 0.959747 0.595542
O O4 0.165218 0.040776 0.860467
O O5 0.779697 0.668938 0.946277
O O6 0.780704 0.960861 0.781156
O O7 0.601628 0.827843 0.886234
O O8 0.289802 0.855089 0.555367
O O9 0.264531 0.535184 0.613643
O O10 0.379835 0.716024 0.898838
O O11 0.914440 0.224736 0.762390
O O12 0.617800 0.737304 0.219865
O O13 0.500000 0.000000 0.000000
O O14 0.243879 0.623154 0.177361
O O15 0.000000 0.500000 0.000000
O O16 0.473541 0.500598 0.267334
O O17 0.669466 0.622776 0.581539
#
# Coordination Sequence:
#
# PCOD9057772 Si02
#       8
#     2   2   2   2   2   2   2   2
#     4  11  24  44  69  98 137 178 226 280 331 398
#     4  11  24  41  72  96 134 178 223 275 333 398
#     4  12  24  46  68  98 141 176 218 287 334 399
#     4  11  25  45  67 102 133 178 237 271 333 394
#     4  12  26  44  68 103 136 179 219 274 350 403
#     4  11  22  43  70  97 134 176 226 273 336 397
#     4  11  26  44  65 102 139 175 224 275 340 405
#     4  11  23  42  70  99 136 178 222 281 330 402
#
# _framework density 24.591083000000001
#
# number of rings (size 3 to 8) (size 9 to 14) (size 15 to 20)
#    0.000    0.750    3.750    4.500    5.250    0.500 
#    0.000    0.625    0.000    0.000    0.000    0.000 
#    0.000    0.000    0.000    0.000    0.000    0.000 
#
# Total GULP energy -89370.886823 kJ/mol
# GULP energy per Si atom -5585.680426 kJ/mol
# Density = 2.453511 g / cm^3
# Si number density = 24.591083 Si / 1000 Ang^3
#
#
#
# Elastic Constant Matrix: (Units=GPa)
#
#
# Indices 1 2 3 4 5 6 
#
# 1 102.4718 40.7310 24.7065 -6.8777 -6.2701 -32.4691
# 2 40.7310 119.1144 17.9941 2.5993 1.0477 -27.5447
# 3 24.7065 17.9941 69.5728 -21.2716 1.3916 -6.1069
# 4 -6.8777 2.5993 -21.2716 46.6499 -5.1476 10.8523
# 5 -6.2701 1.0477 1.3916 -5.1476 28.4233 0.7687
# 6 -32.4691 -27.5447 -6.1069 10.8523 0.7687 43.3429
#
#
#
# Elastic Compliance Matrix: (Units=1/GPa)
#
#
# Indices 1 2 3 4 5 6 
#
# 1 0.014735 -0.002209 -0.004372 -0.001541 0.003014 0.009351
# 2 -0.002209 0.011015 -0.002644 -0.003700 -0.001594 0.005928
# 3 -0.004372 -0.002644 0.019035 0.009250 0.000000 -0.004589
# 4 -0.001541 -0.003700 0.009250 0.028337 0.004729 -0.009381
# 5 0.003014 -0.001594 0.000000 0.004729 0.036778 -0.000592
# 6 0.009351 0.005928 -0.004589 -0.009381 -0.000592 0.035557
#
#
# Mechanical properties :
#
#
# Convention : Reuss Voigt Hill
#
# Bulk Modulus (GPa) = 37.96965 50.89137 44.43051
# Shear Modulus (GPa) = 28.95439 37.53171 33.24305
#
# Velocity S-wave (km/s) = 3.43510 3.91094 3.68072
# Velocity P-wave (km/s) = 5.58634 6.41357 6.01419
#
# Compressibility (1/GPa) = 0.02633682
#
# Stress axis : x y z
#
# Youngs Moduli (GPa) = 67.86720 90.78128 52.53457
#
# Poissons Ratio (x) = 0.20050 0.22968
# Poissons Ratio (y) = 0.14989 0.13889
# Poissons Ratio (z) = 0.29671 0.24000
#
# Static dielectric constant tensor:
#      x y z
#    x 2.782400 -0.513140 0.241880 
#    y -0.513140 2.295890 -0.125080 
#    z 0.241880 -0.125080 2.072340 
# 
# From -- ./inp_files/238693.got.cif
#   From: 2010.05.17/outbox.cif.g08.bks.cpg/sg2_120_cif.got.tgz:238693.got - 2010.06.03 11:33:40.
