data_PCOD9057913
_publ_section_title
;
Structure prediction by ZEFSAII (Michael W. Deem and Ramdas Pophale) SiO2 
 PCOD9057913
Probable space group: P -1
;
_chemical_formula_sum "Si O2"
_cell_formula_units_Z 16
_cell_length_a 11.580118
_cell_length_b 13.174187
_cell_length_c 12.133287
_cell_angle_alpha 35.063714
_cell_angle_beta 86.932030
_cell_angle_gamma 111.812322
_cell_volume 732.397594
_symmetry_space_group_name_H-M "P -1"
_symmetry_group_IT_number 2
_symmetry_cell_setting 'triclinic'
loop_
_space_group_symop_operation_xyz
x,y,z
-x,-y,-z
loop_
_atom_site_type_symbol
_atom_site_label
_atom_site_fract_x
_atom_site_fract_y
_atom_site_fract_z
Si Si1 0.586483 0.928087 0.368770
Si Si2 0.309987 0.168986 0.043992
Si Si3 0.117777 0.244236 0.354391
Si Si4 0.967724 0.472505 0.896015
Si Si5 0.329858 0.360551 0.440998
Si Si6 0.758513 0.302206 0.488783
Si Si7 0.185727 0.279737 0.756089
Si Si8 0.385801 0.508552 0.931606
O O1 0.608410 0.772946 0.434953
O O2 0.436149 0.880178 0.371796
O O3 0.509493 0.777307 0.623081
O O4 0.775766 0.205318 0.120784
O O5 0.227441 0.884543 0.304849
O O6 0.509777 0.357422 0.862314
O O7 0.265667 0.233819 0.881238
O O8 0.286783 0.279443 0.049868
O O9 0.189463 0.221352 0.476702
O O10 0.023396 0.315028 0.331072
O O11 0.266984 0.464249 0.067393
O O12 0.000000 0.000000 0.500000
O O13 0.112886 0.532954 0.767291
O O14 0.000000 0.500000 0.000000
O O15 0.271948 0.364911 0.557215
O O16 0.805699 0.511140 0.384574
O O17 0.000000 0.000000 0.000000
O O18 0.500000 0.500000 0.000000
#
# Coordination Sequence:
#
# PCOD9057913 Si02
#       8
#     2   2   2   2   2   2   2   2
#     4  11  24  46  74 103 153 189 240 304 370 436
#     4  11  25  47  74 107 143 189 249 295 367 443
#     4  12  25  43  73 106 148 190 237 307 367 437
#     4  12  28  43  69 113 149 190 247 300 366 447
#     4  11  24  48  74 106 139 197 246 294 374 437
#     4  12  27  50  74 108 146 195 246 306 371 435
#     4  12  28  49  75 103 148 191 246 313 365 436
#     4  11  22  43  74 106 142 192 239 290 370 438
#
# _framework density 21.846056999999998
#
# number of rings (size 3 to 8) (size 9 to 14) (size 15 to 20)
#    0.000    0.500    5.000    4.125    5.250    2.000 
#    2.250    0.000    0.000    0.000    0.000    0.000 
#    0.000    0.000    0.000    0.000    0.000    0.000 
#
# Total GULP energy -89452.528088 kJ/mol
# GULP energy per Si atom -5590.783005 kJ/mol
# Density = 2.179633 g / cm^3
# Si number density = 21.846057 Si / 1000 Ang^3
#
#
#
# Elastic Constant Matrix: (Units=GPa)
#
#
# Indices 1 2 3 4 5 6 
#
# 1 100.9724 58.4690 30.6523 -3.4001 -3.9538 -11.7338
# 2 58.4690 144.0012 53.9619 9.1350 -10.1346 -9.2908
# 3 30.6523 53.9619 96.0578 -21.8661 -0.9778 -16.6027
# 4 -3.4001 9.1350 -21.8661 38.4538 -1.0240 -14.9907
# 5 -3.9538 -10.1346 -0.9778 -1.0240 40.2479 5.3676
# 6 -11.7338 -9.2908 -16.6027 -14.9907 5.3676 43.4073
#
#
#
# Elastic Compliance Matrix: (Units=1/GPa)
#
#
# Indices 1 2 3 4 5 6 
#
# 1 0.013767 -0.005962 0.000835 0.004853 -0.000607 0.004516
# 2 -0.005962 0.013415 -0.009408 -0.011606 0.003167 -0.006739
# 3 0.000835 -0.009408 0.022589 0.020676 -0.003130 0.014380
# 4 0.004853 -0.011606 0.020676 0.050452 -0.003947 0.024648
# 5 -0.000607 0.003167 -0.003130 -0.003947 0.026111 -0.005275
# 6 0.004516 -0.006739 0.014380 0.024648 -0.005275 0.037480
#
#
# Mechanical properties :
#
#
# Convention : Reuss Voigt Hill
#
# Bulk Modulus (GPa) = 48.30635 69.68865 58.99750
# Shear Modulus (GPa) = 25.02695 37.61834 31.32264
#
# Velocity S-wave (km/s) = 3.38835 4.15417 3.79065
# Velocity P-wave (km/s) = 6.12112 7.41476 6.79877
#
# Compressibility (1/GPa) = 0.02070121
#
# Stress axis : x y z
#
# Youngs Moduli (GPa) = 72.63791 74.54309 44.26905
#
# Poissons Ratio (x) = 0.44442 -0.03697
# Poissons Ratio (y) = 0.43307 0.41649
# Poissons Ratio (z) = -0.06066 0.70131
#
# Static dielectric constant tensor:
#      x y z
#    x 1.844230 0.092780 0.011470 
#    y 0.092780 2.067370 0.051380 
#    z 0.011470 0.051380 1.871940 
# 
# From -- ./inp_files/427395.got.cif
#   From: 2010.05.17/outbox.cif.g08.bks.cpg/sg2_214_cif.got.tgz:427395.got - 2010.06.03 11:33:40.
