data_PCOD9057104
_publ_section_title
;
Structure prediction by ZEFSAII (Michael W. Deem and Ramdas Pophale) SiO2 
 PCOD9057104
Probable space group: P -1
;
_chemical_formula_sum "Si O2"
_cell_formula_units_Z 16
_cell_length_a 9.287879
_cell_length_b 10.429883
_cell_length_c 16.149506
_cell_angle_alpha 56.463633
_cell_angle_beta 147.402924
_cell_angle_gamma 109.853191
_cell_volume 674.359385
_symmetry_space_group_name_H-M "P -1"
_symmetry_group_IT_number 2
_symmetry_cell_setting 'triclinic'
loop_
_space_group_symop_operation_xyz
x,y,z
-x,-y,-z
loop_
_atom_site_type_symbol
_atom_site_label
_atom_site_fract_x
_atom_site_fract_y
_atom_site_fract_z
Si Si1 0.002495 0.953793 0.775094
Si Si2 0.668343 0.541097 0.832541
Si Si3 0.239753 0.911120 0.085964
Si Si4 0.091025 0.559500 0.756036
Si Si5 0.467582 0.877381 0.612733
Si Si6 0.546107 0.312315 0.990070
Si Si7 0.343115 0.541847 0.320285
Si Si8 0.233542 0.093002 0.570834
O O1 0.749197 0.870680 0.699935
O O2 0.809488 0.107516 0.580546
O O3 0.130595 0.962200 0.923421
O O4 0.261573 0.863956 0.875568
O O5 0.544740 0.710318 0.757595
O O6 0.597558 0.404809 0.899833
O O7 0.543669 0.554431 0.674339
O O8 0.000000 0.500000 0.000000
O O9 0.290826 0.723973 0.199984
O O10 0.524723 0.953072 0.228060
O O11 0.000000 0.000000 0.000000
O O12 0.223677 0.400331 0.822873
O O13 0.939185 0.501423 0.779131
O O14 0.890199 0.714266 0.558114
O O15 0.309758 0.638740 0.876594
O O16 0.388811 0.028815 0.582049
O O17 0.500000 0.500000 0.500000
O O18 0.000000 0.000000 0.500000
#
# Coordination Sequence:
#
# PCOD9057104 Si02
#       8
#     2   2   2   2   2   2   2   2
#     4  11  22  42  66 105 136 185 241 291 355 423
#     4  12  22  40  69 104 135 184 245 287 348 427
#     4  12  26  44  74 106 145 184 240 307 356 426
#     4  11  24  43  72 104 144 189 235 296 364 427
#     4  11  23  40  72  98 141 187 236 293 350 431
#     4  11  22  41  70 102 141 183 239 295 351 432
#     4  12  25  43  70 106 139 182 237 292 359 425
#     4  12  26  47  70 105 147 191 237 292 371 427
#
# _framework density 23.726220999999999
#
# number of rings (size 3 to 8) (size 9 to 14) (size 15 to 20)
#    0.000    0.500    7.500    0.750    3.500    2.000 
#    0.000    4.375    0.000    0.000    0.000    0.000 
#    0.000    0.000    0.000    0.000    0.000    0.000 
#
# Total GULP energy -89320.486092 kJ/mol
# GULP energy per Si atom -5582.530381 kJ/mol
# Density = 2.367222 g / cm^3
# Si number density = 23.726221 Si / 1000 Ang^3
#
#
#
# Elastic Constant Matrix: (Units=GPa)
#
#
# Indices 1 2 3 4 5 6 
#
# 1 88.1834 17.7563 33.0850 -11.1015 5.9797 -16.3397
# 2 17.7563 49.5738 41.1018 -6.8732 19.3267 -12.0552
# 3 33.0850 41.1018 159.3210 9.8249 -0.0146 -23.2319
# 4 -11.1015 -6.8732 9.8249 35.0636 -14.8188 0.1257
# 5 5.9797 19.3267 -0.0146 -14.8188 31.2698 -2.0480
# 6 -16.3397 -12.0552 -23.2319 0.1257 -2.0480 44.1198
#
#
#
# Elastic Compliance Matrix: (Units=1/GPa)
#
#
# Indices 1 2 3 4 5 6 
#
# 1 0.013752 -0.002154 -0.002111 0.005073 0.001330 0.003440
# 2 -0.002154 0.038140 -0.008789 -0.000549 -0.023168 0.003922
# 3 -0.002111 -0.008789 0.009472 -0.003162 0.004474 0.002021
# 4 0.005073 -0.000549 -0.003162 0.038333 0.017584 0.000771
# 5 0.001330 -0.023168 0.004474 0.017584 0.054314 -0.001011
# 6 0.003440 0.003922 0.002021 0.000771 -0.001011 0.026026
#
#
# Mechanical properties :
#
#
# Convention : Reuss Voigt Hill
#
# Bulk Modulus (GPa) = 28.36304 53.44052 40.90178
# Shear Modulus (GPa) = 22.94669 35.76631 29.35650
#
# Velocity S-wave (km/s) = 3.11327 3.88681 3.52135
# Velocity P-wave (km/s) = 4.99034 6.53573 5.81461
#
# Compressibility (1/GPa) = 0.03525715
#
# Stress axis : x y z
#
# Youngs Moduli (GPa) = 72.71867 26.21924 105.56931
#
# Poissons Ratio (x) = 0.05647 0.22288
# Poissons Ratio (y) = 0.15662 0.92780
# Poissons Ratio (z) = 0.15352 0.23043
#
# Static dielectric constant tensor:
#      x y z
#    x 1.919010 0.039290 0.009730 
#    y 0.039290 1.873190 0.154700 
#    z 0.009730 0.154700 1.857930 
# 
# From -- ./inp_files/499020.got.cif
#   From: 2010.05.17/outbox.cif.g08.bks.cpg/sg2_250_cif.got.tgz:499020.got - 2010.06.03 11:33:40.
