data_PCOD9057807
_publ_section_title
;
Structure prediction by ZEFSAII (Michael W. Deem and Ramdas Pophale) SiO2 
 PCOD9057807
Probable space group: P -1
;
_chemical_formula_sum "Si O2"
_cell_formula_units_Z 14
_cell_length_a 8.552093
_cell_length_b 14.246974
_cell_length_c 13.184949
_cell_angle_alpha 32.031974
_cell_angle_beta 131.311702
_cell_angle_gamma 136.910370
_cell_volume 578.330177
_symmetry_space_group_name_H-M "P -1"
_symmetry_group_IT_number 2
_symmetry_cell_setting 'triclinic'
loop_
_space_group_symop_operation_xyz
x,y,z
-x,-y,-z
loop_
_atom_site_type_symbol
_atom_site_label
_atom_site_fract_x
_atom_site_fract_y
_atom_site_fract_z
Si Si1 0.760612 0.806478 0.100593
Si Si2 0.114475 0.146327 0.508658
Si Si3 0.021721 0.403247 0.493846
Si Si4 0.960925 0.487771 0.832061
Si Si5 0.268789 0.965418 0.378820
Si Si6 0.604143 0.055299 0.105883
Si Si7 0.490857 0.621619 0.981204
O O1 0.811481 0.704755 0.314952
O O2 0.579996 0.897393 0.955801
O O3 0.618862 0.612511 0.146957
O O4 0.000000 0.000000 0.000000
O O5 0.150374 0.369898 0.304317
O O6 0.333805 0.112072 0.668130
O O7 0.000000 0.000000 0.500000
O O8 0.930839 0.077419 0.585778
O O9 0.057399 0.509672 0.302397
O O10 0.000000 0.500000 0.500000
O O11 0.781549 0.217496 0.545644
O O12 0.223641 0.583795 0.899577
O O13 0.832712 0.261575 0.014590
O O14 0.325010 0.158682 0.165170
O O15 0.500000 0.000000 0.500000
O O16 0.500000 0.000000 0.000000
O O17 0.500000 0.500000 0.000000
#
# Coordination Sequence:
#
# PCOD9057807 Si02
#       7
#     2   2   2   2   2   2   2
#     4  12  28  46  73 110 144 185 251 303 357 437
#     4  11  25  46  75 105 146 194 239 298 369 431
#     4  11  24  44  74 106 144 190 243 300 362 427
#     4  11  26  50  70 110 148 191 252 291 365 451
#     4  11  22  43  71 105 144 185 242 295 353 429
#     4  12  29  49  74 104 153 196 235 309 373 428
#     4  12  24  42  76 106 146 189 238 305 358 429
#
# _framework density 24.207626999999999
#
# number of rings (size 3 to 8) (size 9 to 14) (size 15 to 20)
#    0.000    0.571    4.286    4.286    4.000    5.714 
#    0.000    0.000    0.000    0.000    0.000    0.000 
#    0.000    0.000    0.000    0.000    0.000    0.000 
#
# Total GULP energy -78202.914055 kJ/mol
# GULP energy per Si atom -5585.922433 kJ/mol
# Density = 2.415253 g / cm^3
# Si number density = 24.207627 Si / 1000 Ang^3
#
#
#
# Elastic Constant Matrix: (Units=GPa)
#
#
# Indices 1 2 3 4 5 6 
#
# 1 77.5338 45.7907 13.4470 -1.6473 8.5825 -12.9924
# 2 45.7907 172.4064 21.7050 13.1533 7.1560 -35.3457
# 3 13.4470 21.7050 83.3243 16.3060 17.0283 1.1510
# 4 -1.6473 13.1533 16.3060 57.3623 1.1107 -0.0439
# 5 8.5825 7.1560 17.0283 1.1107 40.2988 -4.9238
# 6 -12.9924 -35.3457 1.1510 -0.0439 -4.9238 52.6148
#
#
#
# Elastic Compliance Matrix: (Units=1/GPa)
#
#
# Indices 1 2 3 4 5 6 
#
# 1 0.015886 -0.003838 -0.001535 0.001811 -0.001957 0.001197
# 2 -0.003838 0.008010 -0.001334 -0.001575 0.000554 0.004513
# 3 -0.001535 -0.001334 0.014534 -0.003760 -0.005734 -0.002133
# 4 0.001811 -0.001575 -0.003760 0.018897 0.000910 -0.000427
# 5 -0.001957 0.000554 -0.005734 0.000910 0.027851 0.002621
# 6 0.001197 0.004513 -0.002133 -0.000427 0.002621 0.022625
#
#
# Mechanical properties :
#
#
# Convention : Reuss Voigt Hill
#
# Bulk Modulus (GPa) = 39.97567 55.01667 47.49617
# Shear Modulus (GPa) = 38.59336 46.87662 42.73499
#
# Velocity S-wave (km/s) = 3.99716 4.40527 4.20617
# Velocity P-wave (km/s) = 6.15244 6.97507 6.57663
#
# Compressibility (1/GPa) = 0.02501522
#
# Stress axis : x y z
#
# Youngs Moduli (GPa) = 62.94879 124.84554 68.80483
#
# Poissons Ratio (x) = 0.47911 0.10562
# Poissons Ratio (y) = 0.24157 0.09182
# Poissons Ratio (z) = 0.09663 0.16660
#
# Static dielectric constant tensor:
#      x y z
#    x 1.907310 0.038270 -0.079610 
#    y 0.038270 1.911530 0.050670 
#    z -0.079610 0.050670 2.120090 
# 
# From -- ./inp_files/437427.got.cif
#   From: 2010.05.17/outbox.cif.g08.bks.cpg/sg2_219_cif.got.tgz:437427.got - 2010.06.03 11:33:40.
