data_PCOD9057077
_publ_section_title
;
Structure prediction by ZEFSAII (Michael W. Deem and Ramdas Pophale) SiO2 
 PCOD9057077
Probable space group: P -1
;
_chemical_formula_sum "Si O2"
_cell_formula_units_Z 14
_cell_length_a 13.551720
_cell_length_b 4.988479
_cell_length_c 10.793783
_cell_angle_alpha 63.728083
_cell_angle_beta 114.156771
_cell_angle_gamma 92.925693
_cell_volume 589.417713
_symmetry_space_group_name_H-M "P -1"
_symmetry_group_IT_number 2
_symmetry_cell_setting 'triclinic'
loop_
_space_group_symop_operation_xyz
x,y,z
-x,-y,-z
loop_
_atom_site_type_symbol
_atom_site_label
_atom_site_fract_x
_atom_site_fract_y
_atom_site_fract_z
Si Si1 0.604011 0.642005 0.575393
Si Si2 0.861064 0.662994 0.133591
Si Si3 0.010178 0.797051 0.862222
Si Si4 0.336459 0.251223 0.168738
Si Si5 0.702699 0.508656 0.285704
Si Si6 0.437137 0.951234 0.749760
Si Si7 0.225039 0.801674 0.366017
O O1 0.500000 0.500000 0.500000
O O2 0.614464 0.547194 0.744985
O O3 0.575239 0.962570 0.421766
O O4 0.726587 0.511021 0.614376
O O5 0.794556 0.640169 0.229373
O O6 0.951463 0.366512 0.214859
O O7 0.907362 0.981282 0.090996
O O8 0.773462 0.643124 0.983103
O O9 0.895530 0.021886 0.753965
O O10 0.000000 0.500000 0.000000
O O11 0.433753 0.136836 0.148486
O O12 0.305828 0.007714 0.302451
O O13 0.619724 0.765794 0.259561
O O14 0.760812 0.282125 0.466521
O O15 0.630361 0.318350 0.204754
#
# Coordination Sequence:
#
# PCOD9057077 Si02
#       7
#     2   2   2   2   2   2   2
#     4  11  22  41  69 112 144 181 239 298 351 419
#     4  12  30  48  73 104 150 188 244 299 360 429
#     4  12  28  49  74 107 139 189 248 306 355 419
#     4  12  24  40  73 110 140 195 235 298 354 420
#     4  11  26  48  69 107 146 191 234 295 361 439
#     4  11  23  42  72 103 147 185 239 288 357 429
#     4  11  25  42  75 104 139 190 243 295 358 412
#
# _framework density 23.752253
#
# number of rings (size 3 to 8) (size 9 to 14) (size 15 to 20)
#    0.000    0.571    4.286    3.429    4.000    2.286 
#    0.000    0.000    0.000    0.000    0.000    0.000 
#    0.000    0.000    0.000    0.000    0.000    0.000 
#
# Total GULP energy -78178.136143 kJ/mol
# GULP energy per Si atom -5584.152582 kJ/mol
# Density = 2.369819 g / cm^3
# Si number density = 23.752253 Si / 1000 Ang^3
#
#
#
# Elastic Constant Matrix: (Units=GPa)
#
#
# Indices 1 2 3 4 5 6 
#
# 1 155.7226 40.6134 47.1354 -14.2128 13.0695 -3.9242
# 2 40.6134 92.5309 19.4534 -8.8310 15.0640 12.2159
# 3 47.1354 19.4534 75.8838 -9.0474 3.7901 4.5272
# 4 -14.2128 -8.8310 -9.0474 22.2586 -6.1657 -1.3566
# 5 13.0695 15.0640 3.7901 -6.1657 36.4812 -8.6361
# 6 -3.9242 12.2159 4.5272 -1.3566 -8.6361 39.9057
#
#
#
# Elastic Compliance Matrix: (Units=1/GPa)
#
#
# Indices 1 2 3 4 5 6 
#
# 1 0.008911 -0.002906 -0.004581 0.002666 -0.000531 0.002261
# 2 -0.002906 0.014127 -0.001022 0.001379 -0.005803 -0.005703
# 3 -0.004581 -0.001022 0.016789 0.003517 0.000483 -0.001818
# 4 0.002666 0.001379 0.003517 0.050810 0.007351 0.002759
# 5 -0.000531 -0.005803 0.000483 0.007351 0.033353 0.009137
# 6 0.002261 -0.005703 -0.001818 0.002759 0.009137 0.029305
#
#
# Mechanical properties :
#
#
# Convention : Reuss Voigt Hill
#
# Bulk Modulus (GPa) = 43.84120 59.83799 51.83959
# Shear Modulus (GPa) = 28.10341 34.19144 31.14742
#
# Velocity S-wave (km/s) = 3.44348 3.79819 3.62518
# Velocity P-wave (km/s) = 5.85729 6.66950 6.27655
#
# Compressibility (1/GPa) = 0.02280959
#
# Stress axis : x y z
#
# Youngs Moduli (GPa) = 112.22235 70.78757 59.56290
#
# Poissons Ratio (x) = 0.20570 0.27284
# Poissons Ratio (y) = 0.32610 0.06088
# Poissons Ratio (z) = 0.51405 0.07235
#
# Static dielectric constant tensor:
#      x y z
#    x 1.908470 -0.004160 -0.011650 
#    y -0.004160 2.649660 0.163670 
#    z -0.011650 0.163670 1.920580 
# 
# From -- ./inp_files/117594.got.cif
#   From: 2010.05.17/outbox.cif.g08.bks.cpg/sg2_59_cif.got.tgz:117594.got - 2010.06.03 11:33:40.
