data_PCOD9057878
_publ_section_title
;
Structure prediction by ZEFSAII (Michael W. Deem and Ramdas Pophale) SiO2 
 PCOD9057878
Probable space group: P -1
;
_chemical_formula_sum "Si O2"
_cell_formula_units_Z 16
_cell_length_a 11.983929
_cell_length_b 14.752775
_cell_length_c 11.569702
_cell_angle_alpha 29.518064
_cell_angle_beta 118.971049
_cell_angle_gamma 100.075616
_cell_volume 723.222079
_symmetry_space_group_name_H-M "P -1"
_symmetry_group_IT_number 2
_symmetry_cell_setting 'triclinic'
loop_
_space_group_symop_operation_xyz
x,y,z
-x,-y,-z
loop_
_atom_site_type_symbol
_atom_site_label
_atom_site_fract_x
_atom_site_fract_y
_atom_site_fract_z
Si Si1 0.136091 0.984426 0.657764
Si Si2 0.780722 0.509204 0.419865
Si Si3 0.294629 0.853132 0.548319
Si Si4 0.973665 0.446121 0.378621
Si Si5 0.047023 0.984875 0.874977
Si Si6 0.212879 0.237601 0.265494
Si Si7 0.453980 0.355771 0.288891
Si Si8 0.483812 0.564273 0.285883
O O1 0.110453 0.968023 0.797015
O O2 0.140831 0.190071 0.390024
O O3 0.305251 0.766116 0.955571
O O4 0.000000 0.000000 0.500000
O O5 0.823128 0.567186 0.254355
O O6 0.602866 0.628892 0.235914
O O7 0.892275 0.526698 0.544108
O O8 0.847897 0.247113 0.748614
O O9 0.410659 0.802003 0.558841
O O10 0.125395 0.952392 0.300723
O O11 0.277596 0.029001 0.439264
O O12 0.361080 0.609842 0.908362
O O13 0.040018 0.187338 0.705983
O O14 0.914094 0.546810 0.111225
O O15 0.341799 0.274628 0.328612
O O16 0.513427 0.371737 0.426112
O O17 0.500000 0.500000 0.500000
#
# Coordination Sequence:
#
# PCOD9057878 Si02
#       8
#     2   2   2   2   2   2   2   2
#     4  12  25  47  73 100 144 190 234 293 353 423
#     4  11  25  47  69 100 146 185 237 297 355 424
#     4  11  22  43  73 103 147 178 240 302 359 416
#     4  11  25  43  73 107 136 189 240 295 355 424
#     4  12  22  46  69 100 137 195 237 282 361 422
#     4  12  24  44  72 109 142 181 243 301 355 427
#     4  11  25  43  71 107 137 193 236 299 363 424
#     4  12  26  49  73 101 147 193 237 291 359 427
#
# _framework density 22.123218000000001
#
# number of rings (size 3 to 8) (size 9 to 14) (size 15 to 20)
#    0.000    0.500    6.250    1.500    1.750    2.500 
#    2.250    1.250    0.000    0.000    0.000    0.000 
#    0.000    0.000    0.000    0.000    0.000    0.000 
#
# Total GULP energy -89561.425384 kJ/mol
# GULP energy per Si atom -5597.589086 kJ/mol
# Density = 2.207286 g / cm^3
# Si number density = 22.123218 Si / 1000 Ang^3
#
#
#
# Elastic Constant Matrix: (Units=GPa)
#
#
# Indices 1 2 3 4 5 6 
#
# 1 118.4949 -14.6712 51.4083 -43.1422 14.6871 23.2941
# 2 -14.6712 -5.8388 45.2586 -78.1748 7.6672 22.1225
# 3 51.4083 45.2586 53.6214 34.0720 3.6586 2.5048
# 4 -43.1422 -78.1748 34.0720 -55.5597 7.0127 -7.5844
# 5 14.6871 7.6672 3.6586 7.0127 36.1270 1.9942
# 6 23.2941 22.1225 2.5048 -7.5844 1.9942 43.3195
#
#
#
# Elastic Compliance Matrix: (Units=1/GPa)
#
#
# Indices 1 2 3 4 5 6 
#
# 1 0.008732 -0.002772 -0.002962 -0.004380 -0.001602 -0.003802
# 2 -0.002772 0.013432 0.001019 -0.014828 0.001498 -0.008093
# 3 -0.002962 0.001019 0.014765 0.009346 -0.002430 0.001967
# 4 -0.004380 -0.014828 0.009346 0.010634 0.001299 0.011189
# 5 -0.001602 0.001498 -0.002430 0.001299 0.028053 -0.000827
# 6 -0.003802 -0.008093 0.001967 0.011189 -0.000827 0.031145
#
#
# Mechanical properties :
#
#
# Convention : Reuss Voigt Hill
#
# Bulk Modulus (GPa) = 36.36727 36.69655 36.53191
# Shear Modulus (GPa) = 39.88566 10.39616 25.14091
#
# Velocity S-wave (km/s) = 4.25065 2.17012 3.37472
# Velocity P-wave (km/s) = 6.36906 4.78566 5.63327
#
# Compressibility (1/GPa) = 0.02749725
#
# Stress axis : x y z
#
# Youngs Moduli (GPa) = 114.51654 74.44847 67.72925
#
# Poissons Ratio (x) = 0.20640 0.20063
# Poissons Ratio (y) = 0.31749 -0.06899
# Poissons Ratio (z) = 0.33922 -0.07584
#
# Static dielectric constant tensor:
#      x y z
#    x 1.800520 -0.035650 0.005980 
#    y -0.035650 1.793270 -0.030370 
#    z 0.005980 -0.030370 1.797530 
# 
# From -- ./inp_files/283200.got.cif
#   From: 2010.05.17/outbox.cif.g08.bks.cpg/sg2_142_cif.got.tgz:283200.got - 2010.06.03 11:33:40.
