data_PCOD9057604
_publ_section_title
;
Structure prediction by ZEFSAII (Michael W. Deem and Ramdas Pophale) SiO2 
 PCOD9057604
Probable space group: P -1
;
_chemical_formula_sum "Si O2"
_cell_formula_units_Z 14
_cell_length_a 7.799367
_cell_length_b 20.347487
_cell_length_c 7.342858
_cell_angle_alpha 58.408982
_cell_angle_beta 37.903438
_cell_angle_gamma 74.090754
_cell_volume 587.811312
_symmetry_space_group_name_H-M "P -1"
_symmetry_group_IT_number 2
_symmetry_cell_setting 'triclinic'
loop_
_space_group_symop_operation_xyz
x,y,z
-x,-y,-z
loop_
_atom_site_type_symbol
_atom_site_label
_atom_site_fract_x
_atom_site_fract_y
_atom_site_fract_z
Si Si1 0.680485 0.442254 0.353164
Si Si2 0.210623 0.044652 0.003134
Si Si3 0.290764 0.557127 0.092988
Si Si4 0.336656 0.279514 0.833369
Si Si5 0.272319 0.109023 0.264719
Si Si6 0.297044 0.881998 0.783960
Si Si7 0.255422 0.718778 0.845999
O O1 0.500000 0.500000 0.500000
O O2 0.542286 0.352410 0.672188
O O3 0.672009 0.420358 0.181242
O O4 0.000000 0.500000 0.000000
O O5 0.004360 0.094783 0.012097
O O6 0.484206 0.057119 0.624468
O O7 0.006452 0.955473 0.327666
O O8 0.693066 0.922627 0.922506
O O9 0.000000 0.500000 0.500000
O O10 0.500000 0.500000 0.000000
O O11 0.319569 0.645948 0.014862
O O12 0.512837 0.257452 0.545869
O O13 0.225300 0.197423 0.156383
O O14 0.063418 0.307466 0.942678
O O15 0.544055 0.115692 0.160075
O O16 0.258716 0.794586 0.856456
#
# Coordination Sequence:
#
# PCOD9057604 Si02
#       7
#     2   2   2   2   2   2   2
#     4  11  23  42  66  95 132 173 220 285 334 403
#     4  11  26  45  65 103 146 173 236 293 338 402
#     4  11  23  40  65  92 130 175 216 276 350 399
#     4  11  23  44  65  94 135 178 224 279 351 400
#     4  11  25  43  73 100 135 194 226 281 354 413
#     4  12  24  44  69 100 137 184 235 282 342 410
#     4  11  22  43  64  92 134 177 221 290 335 402
#
# _framework density 23.817170000000001
#
# number of rings (size 3 to 8) (size 9 to 14) (size 15 to 20)
#    0.000    0.857    2.857    5.143    0.000    8.000 
#    0.000    0.000    0.000    0.000    0.000    0.000 
#    0.000    0.000    0.000    0.000    0.000    0.000 
#
# Total GULP energy -78212.546114 kJ/mol
# GULP energy per Si atom -5586.610437 kJ/mol
# Density = 2.376296 g / cm^3
# Si number density = 23.817170 Si / 1000 Ang^3
#
#
#
# Elastic Constant Matrix: (Units=GPa)
#
#
# Indices 1 2 3 4 5 6 
#
# 1 109.9198 21.4062 12.1364 -3.4589 -0.1673 8.4376
# 2 21.4062 169.7274 56.3945 -35.3569 -9.1268 -1.9765
# 3 12.1364 56.3945 93.4781 0.8693 -15.8082 -5.5440
# 4 -3.4589 -35.3569 0.8693 68.0904 -1.7949 -3.3649
# 5 -0.1673 -9.1268 -15.8082 -1.7949 31.9086 3.1087
# 6 8.4376 -1.9765 -5.5440 -3.3649 3.1087 24.8219
#
#
#
# Elastic Compliance Matrix: (Units=1/GPa)
#
#
# Indices 1 2 3 4 5 6 
#
# 1 0.009662 -0.001022 -0.000907 -0.000213 -0.000357 -0.003553
# 2 -0.001022 0.008671 -0.005084 0.004544 0.000163 0.000498
# 3 -0.000907 -0.005084 0.014984 -0.002621 0.005604 0.002193
# 4 -0.000213 0.004544 -0.002621 0.017192 0.000764 0.002084
# 5 -0.000357 0.000163 0.005604 0.000764 0.034479 -0.002829
# 6 -0.003553 0.000498 0.002193 0.002084 -0.002829 0.042661
#
#
# Mechanical properties :
#
#
# Convention : Reuss Voigt Hill
#
# Bulk Modulus (GPa) = 51.83393 61.44438 56.63916
# Shear Modulus (GPa) = 33.75967 43.84338 38.80153
#
# Velocity S-wave (km/s) = 3.76899 4.29514 4.04064
# Velocity P-wave (km/s) = 6.38364 7.10296 6.75289
#
# Compressibility (1/GPa) = 0.01929238
#
# Stress axis : x y z
#
# Youngs Moduli (GPa) = 103.49608 115.32560 66.73626
#
# Poissons Ratio (x) = 0.11790 0.06051
# Poissons Ratio (y) = 0.10581 0.33926
# Poissons Ratio (z) = 0.09384 0.58626
#
# Static dielectric constant tensor:
#      x y z
#    x 1.962540 -0.254250 0.129270 
#    y -0.254250 -6.501980 5.454510 
#    z 0.129270 5.454510 -1.662680 
# 
# From -- ./inp_files/222065.got.cif
#   From: 2010.05.17/outbox.cif.g08.bks.cpg/sg2_112_cif.got.tgz:222065.got - 2010.06.03 11:33:40.
