data_PCOD9057114
_publ_section_title
;
Structure prediction by ZEFSAII (Michael W. Deem and Ramdas Pophale) SiO2 
 PCOD9057114
Probable space group: P -1
;
_chemical_formula_sum "Si O2"
_cell_formula_units_Z 14
_cell_length_a 11.984501
_cell_length_b 12.524202
_cell_length_c 22.703737
_cell_angle_alpha 160.579713
_cell_angle_beta 34.937226
_cell_angle_gamma 136.733306
_cell_volume 630.525208
_symmetry_space_group_name_H-M "P -1"
_symmetry_group_IT_number 2
_symmetry_cell_setting 'triclinic'
loop_
_space_group_symop_operation_xyz
x,y,z
-x,-y,-z
loop_
_atom_site_type_symbol
_atom_site_label
_atom_site_fract_x
_atom_site_fract_y
_atom_site_fract_z
Si Si1 0.955167 0.360974 0.353099
Si Si2 0.384612 0.215401 0.217462
Si Si3 0.573030 0.815133 0.432420
Si Si4 0.674383 0.807797 0.974314
Si Si5 0.413702 0.332497 0.866915
Si Si6 0.007634 0.384608 0.004740
Si Si7 0.315686 0.799826 0.718645
O O1 0.850078 0.670414 0.601493
O O2 0.818067 0.335609 0.341814
O O3 0.164615 0.376811 0.239774
O O4 0.983307 0.004035 0.188535
O O5 0.429259 0.571100 0.376530
O O6 0.500000 0.000000 0.000000
O O7 0.503008 0.040993 0.131424
O O8 0.794885 0.593061 0.227060
O O9 0.500000 0.000000 0.500000
O O10 0.538203 0.090723 0.639223
O O11 0.551805 0.586794 0.948273
O O12 0.769910 0.028319 0.093015
O O13 0.382308 0.093920 0.808364
O O14 0.195907 0.468905 0.001340
O O15 0.000000 0.500000 0.000000
O O16 0.500000 0.500000 0.500000
#
# Coordination Sequence:
#
# PCOD9057114 Si02
#       7
#     2   2   2   2   2   2   2
#     4  11  24  45  72 103 134 188 234 281 356 415
#     4  12  25  43  70 102 141 180 232 287 349 418
#     4  12  21  43  67  97 139 187 227 281 346 415
#     4  12  25  44  70 105 140 175 236 297 345 410
#     4  11  25  43  68 104 140 177 235 288 347 412
#     4  11  22  41  70  95 137 189 228 273 349 419
#     4  11  22  48  75  92 140 189 232 288 351 413
#
# _framework density 22.203711999999999
#
# number of rings (size 3 to 8) (size 9 to 14) (size 15 to 20)
#    0.000    0.571    7.143    1.714    0.000    1.714 
#    0.000    0.714    0.000    0.000    0.000    0.000 
#    0.000    0.000    0.000    0.000    0.000    0.000 
#
# Total GULP energy -78128.762172 kJ/mol
# GULP energy per Si atom -5580.625869 kJ/mol
# Density = 2.215318 g / cm^3
# Si number density = 22.203712 Si / 1000 Ang^3
#
#
#
# Elastic Constant Matrix: (Units=GPa)
#
#
# Indices 1 2 3 4 5 6 
#
# 1 99.7468 17.3602 57.3145 0.4148 -13.3087 -6.3426
# 2 17.3602 58.9276 2.3023 -4.9676 -24.1421 6.9888
# 3 57.3145 2.3023 110.8710 -34.7976 -20.1145 -4.4586
# 4 0.4148 -4.9676 -34.7976 42.9789 -1.1586 -3.0022
# 5 -13.3087 -24.1421 -20.1145 -1.1586 47.0232 0.7006
# 6 -6.3426 6.9888 -4.4586 -3.0022 0.7006 30.0058
#
#
#
# Elastic Compliance Matrix: (Units=1/GPa)
#
#
# Indices 1 2 3 4 5 6 
#
# 1 0.019888 -0.009231 -0.015363 -0.013662 -0.006061 0.002846
# 2 -0.009231 0.027823 0.010753 0.012040 0.016658 -0.006018
# 3 -0.015363 0.010753 0.026352 0.023090 0.013012 0.000170
# 4 -0.013662 0.012040 0.023090 0.043970 0.013248 0.001829
# 5 -0.006061 0.016658 0.013012 0.013248 0.034035 -0.002697
# 6 0.002846 -0.006018 0.000170 0.001829 -0.002697 0.035601
#
#
# Mechanical properties :
#
#
# Convention : Reuss Voigt Hill
#
# Bulk Modulus (GPa) = 21.56011 47.05549 34.30780
# Shear Modulus (GPa) = 21.66265 36.83947 29.25106
#
# Velocity S-wave (km/s) = 3.12690 4.07770 3.63353
# Velocity P-wave (km/s) = 4.77157 6.58853 5.75225
#
# Compressibility (1/GPa) = 0.04638196
#
# Stress axis : x y z
#
# Youngs Moduli (GPa) = 50.28045 35.94186 37.94763
#
# Poissons Ratio (x) = 0.33179 0.58297
# Poissons Ratio (y) = 0.46415 -0.40806
# Poissons Ratio (z) = 0.77244 -0.38649
#
# Static dielectric constant tensor:
#      x y z
#    x 1.717920 0.182090 -0.270420 
#    y 0.182090 1.285400 1.147620 
#    z -0.270420 1.147620 -0.423160 
# 
# From -- ./inp_files/499802.got.cif
#   From: 2010.05.17/outbox.cif.g08.bks.cpg/sg2_250_cif.got.tgz:499802.got - 2010.06.03 11:33:40.
