data_PCOD9057668
_publ_section_title
;
Structure prediction by ZEFSAII (Michael W. Deem and Ramdas Pophale) SiO2 
 PCOD9057668
Probable space group: P -1
;
_chemical_formula_sum "Si O2"
_cell_formula_units_Z 14
_cell_length_a 8.972036
_cell_length_b 11.829535
_cell_length_c 8.633266
_cell_angle_alpha 64.555763
_cell_angle_beta 132.647045
_cell_angle_gamma 105.168124
_cell_volume 608.000607
_symmetry_space_group_name_H-M "P -1"
_symmetry_group_IT_number 2
_symmetry_cell_setting 'triclinic'
loop_
_space_group_symop_operation_xyz
x,y,z
-x,-y,-z
loop_
_atom_site_type_symbol
_atom_site_label
_atom_site_fract_x
_atom_site_fract_y
_atom_site_fract_z
Si Si1 0.139824 0.589258 0.955172
Si Si2 0.615722 0.131524 0.503274
Si Si3 0.477204 0.377922 0.373870
Si Si4 0.999900 0.069300 0.620108
Si Si5 0.634957 0.758521 0.297527
Si Si6 0.777372 0.157318 0.950094
Si Si7 0.849596 0.539894 0.504775
O O1 0.009856 0.601060 0.699829
O O2 0.342486 0.498240 0.149927
O O3 0.151674 0.717468 0.986041
O O4 0.000000 0.500000 0.000000
O O5 0.476390 0.260090 0.324720
O O6 0.724202 0.153513 0.732934
O O7 0.785101 0.126886 0.492060
O O8 0.500000 0.000000 0.500000
O O9 0.393215 0.320057 0.512195
O O10 0.706439 0.428276 0.526627
O O11 0.176273 0.161754 0.658066
O O12 0.000000 0.000000 0.500000
O O13 0.067994 0.959304 0.850354
O O14 0.438141 0.850981 0.108031
O O15 0.679941 0.646276 0.275642
O O16 0.000000 0.500000 0.500000
#
# Coordination Sequence:
#
# PCOD9057668 Si02
#       7
#     2   2   2   2   2   2   2
#     4  12  24  43  81 107 140 200 237 295 378 430
#     4  11  26  47  72 105 145 191 243 305 362 430
#     4  11  24  48  73 106 148 186 247 296 361 442
#     4  12  25  45  69 104 144 190 243 297 362 435
#     4  11  22  43  68 100 144 186 235 297 354 426
#     4  11  25  46  75 103 143 191 249 297 365 439
#     4  12  25  45  70 111 151 184 242 304 363 431
#
# _framework density 23.026294
#
# number of rings (size 3 to 8) (size 9 to 14) (size 15 to 20)
#    0.000    0.571    2.857    6.429    2.000    0.571 
#    7.714    0.000    0.000    0.000    0.000    0.000 
#    0.000    0.000    0.000    0.000    0.000    0.000 
#
# Total GULP energy -77951.810558 kJ/mol
# GULP energy per Si atom -5567.986468 kJ/mol
# Density = 2.297389 g / cm^3
# Si number density = 23.026294 Si / 1000 Ang^3
#
#
#
# Elastic Constant Matrix: (Units=GPa)
#
#
# Indices 1 2 3 4 5 6 
#
# 1 142.5549 48.9339 -7.6989 22.4971 19.7002 -5.2753
# 2 48.9339 177.3248 17.6546 21.7527 9.1014 11.6601
# 3 -7.6989 17.6546 50.4395 8.3617 2.4746 -4.8385
# 4 22.4971 21.7527 8.3617 37.4690 -8.9171 10.1540
# 5 19.7002 9.1014 2.4746 -8.9171 28.8250 4.0961
# 6 -5.2753 11.6601 -4.8385 10.1540 4.0961 48.4360
#
#
#
# Elastic Compliance Matrix: (Units=1/GPa)
#
#
# Indices 1 2 3 4 5 6 
#
# 1 0.011803 -0.002148 0.005641 -0.011607 -0.012293 0.005839
# 2 -0.002148 0.006867 -0.002542 -0.001870 -0.000822 -0.001680
# 3 0.005641 -0.002542 0.024647 -0.011614 -0.009748 0.006948
# 4 -0.011607 -0.001870 -0.011614 0.047396 0.026189 -0.014125
# 5 -0.012293 -0.000822 -0.009748 0.026189 0.054022 -0.012174
# 6 0.005839 -0.001680 0.006948 -0.014125 -0.012174 0.026371
#
#
# Mechanical properties :
#
#
# Convention : Reuss Voigt Hill
#
# Bulk Modulus (GPa) = 22.11480 54.23314 38.17397
# Shear Modulus (GPa) = 27.13303 43.70798 35.42050
#
# Velocity S-wave (km/s) = 3.43643 4.36153 3.92632
# Velocity P-wave (km/s) = 5.03691 6.99770 6.09665
#
# Compressibility (1/GPa) = 0.04521858
#
# Stress axis : x y z
#
# Youngs Moduli (GPa) = 84.72078 145.61808 40.57351
#
# Poissons Ratio (x) = 0.31279 -0.22887
# Poissons Ratio (y) = 0.18198 0.10315
# Poissons Ratio (z) = -0.47790 0.37020
#
# Static dielectric constant tensor:
#      x y z
#    x 1.817760 -0.034840 0.101640 
#    y -0.034840 1.853130 0.069640 
#    z 0.101640 0.069640 2.200550 
# 
# From -- ./inp_files/177006.got.cif
#   From: 2010.05.17/outbox.cif.g08.bks.cpg/sg2_89_cif.got.tgz:177006.got - 2010.06.03 11:33:40.
