data_PCOD9057010
_publ_section_title
;
Structure prediction by ZEFSAII (Michael W. Deem and Ramdas Pophale) SiO2 
 PCOD9057010
Probable space group: P -1
;
_chemical_formula_sum "Si O2"
_cell_formula_units_Z 14
_cell_length_a 27.074738
_cell_length_b 15.395670
_cell_length_c 14.844964
_cell_angle_alpha 160.280295
_cell_angle_beta 161.639309
_cell_angle_gamma 17.880907
_cell_volume 550.062049
_symmetry_space_group_name_H-M "P -1"
_symmetry_group_IT_number 2
_symmetry_cell_setting 'triclinic'
loop_
_space_group_symop_operation_xyz
x,y,z
-x,-y,-z
loop_
_atom_site_type_symbol
_atom_site_label
_atom_site_fract_x
_atom_site_fract_y
_atom_site_fract_z
Si Si1 0.369924 0.668121 0.715017
Si Si2 0.979964 0.689429 0.237837
Si Si3 0.925695 0.594922 0.242576
Si Si4 0.227286 0.779591 0.168181
Si Si5 0.307419 0.232130 0.647815
Si Si6 0.408637 0.344085 0.640769
Si Si7 0.306048 0.691391 0.414300
O O1 0.427428 0.387835 0.608849
O O2 0.373441 0.615738 0.562434
O O3 0.162110 0.944835 0.655946
O O4 0.504682 0.795243 0.087645
O O5 0.902827 0.596777 0.097821
O O6 0.191503 0.564206 0.505098
O O7 0.000000 0.500000 0.000000
O O8 0.141623 0.397527 0.450181
O O9 0.835693 0.938755 0.456861
O O10 0.809876 0.465542 0.956130
O O11 0.359986 0.694690 0.404298
O O12 0.290846 0.957348 0.387602
O O13 0.256564 0.471306 0.875784
O O14 0.000000 0.000000 0.000000
O O15 0.500000 0.000000 0.500000
O O16 0.500000 0.500000 0.000000
#
# Coordination Sequence:
#
# PCOD9057010 Si02
#       7
#     2   2   2   2   2   2   2
#     4  11  28  49  71 115 155 196 252 309 392 441
#     4  11  25  48  77 106 153 199 246 311 384 448
#     4  11  22  41  68 103 136 194 248 301 361 438
#     4  12  23  44  74 109 148 195 257 300 373 439
#     4  12  25  43  75 107 150 193 250 315 358 450
#     4  12  27  49  78 107 144 194 254 309 363 448
#     4  11  24  43  71 101 149 193 243 304 370 442
#
# _framework density 25.451674000000001
#
# number of rings (size 3 to 8) (size 9 to 14) (size 15 to 20)
#    0.000    0.571    2.857    4.286    0.000   12.571 
#    0.000    0.000    0.000    0.000    0.000    0.000 
#    0.000    0.000    0.000    0.000    0.000    0.000 
#
# Total GULP energy -78321.775043 kJ/mol
# GULP energy per Si atom -5594.412503 kJ/mol
# Density = 2.539374 g / cm^3
# Si number density = 25.451674 Si / 1000 Ang^3
#
#
#
# Elastic Constant Matrix: (Units=GPa)
#
#
# Indices 1 2 3 4 5 6 
#
# 1 700.3898 456.3374 1174.4881 -185.1550 -103.2439 -556.0701
# 2 456.3374 500.5351 938.7293 -172.9905 -55.3332 -422.7251
# 3 1174.4881 938.7293 2698.5049 -437.6407 -205.2522-1287.1441
# 4 -185.1550 -172.9905 -437.6407 129.4915 29.4793 224.4039
# 5 -103.2439 -55.3332 -205.2522 29.4793 82.3327 104.5455
# 6 -556.0701 -422.7251-1287.1441 224.4039 104.5455 710.5198
#
#
#
# Elastic Compliance Matrix: (Units=1/GPa)
#
#
# Indices 1 2 3 4 5 6 
#
# 1 0.005928 -0.001972 -0.001806 -0.001226 0.001606 0.000345
# 2 -0.001972 0.007139 -0.002273 0.003176 -0.001734 -0.002162
# 3 -0.001806 -0.002273 0.004718 0.000729 0.000812 0.005432
# 4 -0.001226 0.003176 0.000729 0.019416 0.000481 -0.003952
# 5 0.001606 -0.001734 0.000812 0.000481 0.015846 -0.000788
# 6 0.000345 -0.002162 0.005432 -0.003952 -0.000788 0.011595
#
#
# Mechanical properties :
#
#
# Convention : Reuss Voigt Hill
#
# Bulk Modulus (GPa) = 175.95768 1004.28214 590.11991
# Shear Modulus (GPa) = 63.58118 273.12712 168.35415
#
# Velocity S-wave (km/s) = 5.00354 10.37039 8.14188
# Velocity P-wave (km/s) = 10.13235 23.21280 17.90947
#
# Compressibility (1/GPa) = 0.00568318
#
# Stress axis : x y z
#
# Youngs Moduli (GPa) = 168.69095 140.07176 211.93906
#
# Poissons Ratio (x) = 0.27620 0.38280
# Poissons Ratio (y) = 0.33264 0.48177
# Poissons Ratio (z) = 0.30468 0.31840
#
# Static dielectric constant tensor:
#      x y z
#    x 2.081490 -0.092970 -0.020480 
#    y -0.092970 2.204480 -0.020720 
#    z -0.020480 -0.020720 1.863710 
# 
# From -- ./inp_files/544243.got.cif
#   From: 2010.05.17/outbox.cif.g08.bks.cpg/sg2_273_cif.got.tgz:544243.got - 2010.06.03 11:33:40.
