data_PCOD9057123
_publ_section_title
;
Structure prediction by ZEFSAII (Michael W. Deem and Ramdas Pophale) SiO2 
 PCOD9057123
Probable space group: P -1
;
_chemical_formula_sum "Si O2"
_cell_formula_units_Z 16
_cell_length_a 11.603372
_cell_length_b 12.341370
_cell_length_c 12.983108
_cell_angle_alpha 71.103816
_cell_angle_beta 140.289078
_cell_angle_gamma 77.993032
_cell_volume 735.262171
_symmetry_space_group_name_H-M "P -1"
_symmetry_group_IT_number 2
_symmetry_cell_setting 'triclinic'
loop_
_space_group_symop_operation_xyz
x,y,z
-x,-y,-z
loop_
_atom_site_type_symbol
_atom_site_label
_atom_site_fract_x
_atom_site_fract_y
_atom_site_fract_z
Si Si1 0.255222 0.888715 0.955902
Si Si2 0.389461 0.279667 0.570448
Si Si3 0.819972 0.979636 0.498147
Si Si4 0.936101 0.762718 0.284147
Si Si5 0.951751 0.334809 0.369500
Si Si6 0.556086 0.722098 0.007925
Si Si7 0.800388 0.390549 0.700486
Si Si8 0.381561 0.036827 0.294161
O O1 0.468310 0.750043 0.056824
O O2 0.967162 0.976956 0.691477
O O3 0.234368 0.036882 0.900540
O O4 0.363418 0.790184 0.168292
O O5 0.201552 0.470358 0.338986
O O6 0.208202 0.289485 0.520963
O O7 0.527731 0.133048 0.626249
O O8 0.025370 0.788214 0.647343
O O9 0.704666 0.116588 0.288136
O O10 0.555913 0.038718 0.340941
O O11 0.028662 0.705778 0.483836
O O12 0.156578 0.663625 0.373696
O O13 0.761235 0.732702 0.147423
O O14 0.692555 0.542189 0.114050
O O15 0.500000 0.500000 0.500000
O O16 0.059802 0.215087 0.995870
O O17 0.500000 0.000000 0.500000
#
# Coordination Sequence:
#
# PCOD9057123 Si02
#       8
#     2   2   2   2   2   2   2   2
#     4  12  24  39  70 107 140 181 219 289 348 421
#     4  11  23  46  74 101 133 180 236 281 350 416
#     4  11  25  43  63 101 145 178 229 277 356 416
#     4  12  21  43  68 103 139 178 233 283 348 414
#     4  11  22  41  71 100 135 185 222 285 347 425
#     4  12  21  41  67  98 141 181 223 275 354 414
#     4  12  27  46  73 104 132 180 245 290 332 412
#     4  11  26  49  73  96 137 187 231 289 350 409
#
# _framework density 21.760943000000001
#
# number of rings (size 3 to 8) (size 9 to 14) (size 15 to 20)
#    0.000    0.500    6.250    2.625    1.750    2.500 
#    2.250    0.000    0.000    0.000    0.000    0.000 
#    0.000    0.000    0.000    0.000    0.000    0.000 
#
# Total GULP energy -89504.150491 kJ/mol
# GULP energy per Si atom -5594.009406 kJ/mol
# Density = 2.171141 g / cm^3
# Si number density = 21.760943 Si / 1000 Ang^3
#
#
#
# Elastic Constant Matrix: (Units=GPa)
#
#
# Indices 1 2 3 4 5 6 
#
# 1 75.5858 32.6159 25.4519 -1.9455 8.9985 -17.3990
# 2 32.6159 116.7343 73.0055 -31.2312 -9.8428 -15.5662
# 3 25.4519 73.0055 71.2948 -17.3178 -4.0639 -17.2105
# 4 -1.9455 -31.2312 -17.3178 40.8421 -0.4638 -7.6843
# 5 8.9985 -9.8428 -4.0639 -0.4638 33.4166 -1.1517
# 6 -17.3990 -15.5662 -17.2105 -7.6843 -1.1517 33.9987
#
#
#
# Elastic Compliance Matrix: (Units=1/GPa)
#
#
# Indices 1 2 3 4 5 6 
#
# 1 0.017516 -0.004497 -0.001133 -0.002089 -0.006013 0.005655
# 2 -0.004497 0.029297 -0.024662 0.012114 0.007065 0.001605
# 3 -0.001133 -0.024662 0.042071 0.000703 -0.001504 0.009533
# 4 -0.002089 0.012114 0.000703 0.036500 0.005180 0.013258
# 5 -0.006013 0.007065 -0.001504 0.005180 0.033573 0.001704
# 6 0.005655 0.001605 0.009533 0.013258 0.001704 0.040922
#
#
# Mechanical properties :
#
#
# Convention : Reuss Voigt Hill
#
# Bulk Modulus (GPa) = 35.33620 58.41795 46.87708
# Shear Modulus (GPa) = 18.52558 30.48759 24.50658
#
# Velocity S-wave (km/s) = 2.92091 3.74709 3.35949
# Velocity P-wave (km/s) = 5.25825 6.75459 6.05284
#
# Compressibility (1/GPa) = 0.02829959
#
# Stress axis : x y z
#
# Youngs Moduli (GPa) = 57.09042 34.13270 23.76948
#
# Poissons Ratio (x) = 0.15351 0.02693
# Poissons Ratio (y) = 0.25676 0.58620
# Poissons Ratio (z) = 0.06467 0.84178
#
# Static dielectric constant tensor:
#      x y z
#    x 1.842830 0.023050 0.025240 
#    y 0.023050 1.766840 -0.000360 
#    z 0.025240 -0.000360 1.794270 
# 
# From -- ./inp_files/306967.got.cif
#   From: 2010.05.17/outbox.cif.g08.bks.cpg/sg2_154_cif.got.tgz:306967.got - 2010.06.03 11:33:40.
