data_PCOD9057381
_publ_section_title
;
Structure prediction by ZEFSAII (Michael W. Deem and Ramdas Pophale) SiO2 
 PCOD9057381
Probable space group: P -1
;
_chemical_formula_sum "Si O2"
_cell_formula_units_Z 14
_cell_length_a 7.348466
_cell_length_b 10.821704
_cell_length_c 11.109448
_cell_angle_alpha 76.764101
_cell_angle_beta 78.260966
_cell_angle_gamma 136.525417
_cell_volume 493.442685
_symmetry_space_group_name_H-M "P -1"
_symmetry_group_IT_number 2
_symmetry_cell_setting 'triclinic'
loop_
_space_group_symop_operation_xyz
x,y,z
-x,-y,-z
loop_
_atom_site_type_symbol
_atom_site_label
_atom_site_fract_x
_atom_site_fract_y
_atom_site_fract_z
Si Si1 0.273344 0.059040 0.577679
Si Si2 0.506125 0.207058 0.256068
Si Si3 0.176161 0.623337 0.166346
Si Si4 0.311958 0.445700 0.300697
Si Si5 0.144222 0.101833 0.132264
Si Si6 0.994404 0.778557 0.067347
Si Si7 0.840600 0.247050 0.604661
O O1 0.988603 0.798971 0.656424
O O2 0.136574 0.075948 0.693114
O O3 0.342552 0.154608 0.416491
O O4 0.595111 0.176301 0.559642
O O5 0.866624 0.390318 0.200528
O O6 0.456051 0.270979 0.135093
O O7 0.330023 0.980163 0.296408
O O8 0.200285 0.765327 0.051004
O O9 0.376569 0.608755 0.176482
O O10 0.130824 0.659985 0.297115
O O11 0.651740 0.565559 0.222953
O O12 0.174628 0.410037 0.456992
O O13 0.062562 0.190331 0.061945
O O14 0.145529 0.981619 0.071816
#
# Coordination Sequence:
#
# PCOD9057381 Si02
#       7
#     2   2   2   2   2   2   2
#     4  11  22  43  71 100 140 173 218 289 342 395
#     4  11  22  42  69 102 136 173 226 278 345 397
#     4  12  23  42  73 103 135 182 225 275 342 404
#     4  11  23  43  69 102 138 174 227 279 335 408
#     4  11  25  48  64  95 144 178 229 288 325 405
#     4  11  27  46  67  99 136 188 232 270 338 403
#     4  11  22  43  67 104 143 168 223 281 342 405
#
# _framework density 28.372088999999999
#
# number of rings (size 3 to 8) (size 9 to 14) (size 15 to 20)
#    0.000    0.857    4.286    3.429    2.000    4.000 
#    2.571    3.571    0.000    0.000    0.000    0.000 
#    0.000    0.000    0.000    0.000    0.000    0.000 
#
# Total GULP energy -78521.088076 kJ/mol
# GULP energy per Si atom -5608.649148 kJ/mol
# Density = 2.830751 g / cm^3
# Si number density = 28.372089 Si / 1000 Ang^3
#
#
#
# Elastic Constant Matrix: (Units=GPa)
#
#
# Indices 1 2 3 4 5 6 
#
# 1 131.5888 22.6207 37.8473 -1.9769 18.8749 1.6571
# 2 22.6207 101.1649 43.5303 -19.4130 18.5147 6.0872
# 3 37.8473 43.5303 117.8601 -1.0596 32.0782 0.8305
# 4 -1.9769 -19.4130 -1.0596 54.2989 7.2208 8.7815
# 5 18.8749 18.5147 32.0782 7.2208 55.3149 -8.4864
# 6 1.6571 6.0872 0.8305 8.7815 -8.4864 42.8184
#
#
#
# Elastic Compliance Matrix: (Units=1/GPa)
#
#
# Indices 1 2 3 4 5 6 
#
# 1 0.008548 -0.000614 -0.002059 0.000370 -0.001659 -0.000608
# 2 -0.000614 0.013649 -0.003817 0.005849 -0.003481 -0.003732
# 3 -0.002059 -0.003817 0.011898 -0.000473 -0.004933 -0.000489
# 4 0.000370 0.005849 -0.000473 0.022334 -0.005731 -0.006553
# 5 -0.001659 -0.003481 -0.004933 -0.005731 0.024442 0.006675
# 6 -0.000608 -0.003732 -0.000489 -0.006553 0.006675 0.026585
#
#
# Mechanical properties :
#
#
# Convention : Reuss Voigt Hill
#
# Bulk Modulus (GPa) = 47.36311 62.06783 54.71547
# Shear Modulus (GPa) = 39.22326 46.92749 43.07537
#
# Velocity S-wave (km/s) = 3.72218 4.07135 3.90067
# Velocity P-wave (km/s) = 5.93318 6.63514 6.29395
#
# Compressibility (1/GPa) = 0.02111348
#
# Stress axis : x y z
#
# Youngs Moduli (GPa) = 116.98056 73.26556 84.05126
#
# Poissons Ratio (x) = 0.04499 0.17307
# Poissons Ratio (y) = 0.07184 0.32087
# Poissons Ratio (z) = 0.24088 0.27969
#
# Static dielectric constant tensor:
#      x y z
#    x 2.225920 -0.031190 -0.032550 
#    y -0.031190 2.188530 -0.004110 
#    z -0.032550 -0.004110 2.239270 
# 
# From -- ./inp_files/180236.got.cif
#   From: 2010.05.17/outbox.cif.g08.bks.cpg/sg2_91_cif.got.tgz:180236.got - 2010.06.03 11:33:40.
