data_PCOD9057849
_publ_section_title
;
Structure prediction by ZEFSAII (Michael W. Deem and Ramdas Pophale) SiO2 
 PCOD9057849
Probable space group: P -1
;
_chemical_formula_sum "Si O2"
_cell_formula_units_Z 15
_cell_length_a 12.753061
_cell_length_b 19.392734
_cell_length_c 9.020937
_cell_angle_alpha 63.967143
_cell_angle_beta 145.687283
_cell_angle_gamma 142.968650
_cell_volume 575.932826
_symmetry_space_group_name_H-M "P -1"
_symmetry_group_IT_number 2
_symmetry_cell_setting 'triclinic'
loop_
_space_group_symop_operation_xyz
x,y,z
-x,-y,-z
loop_
_atom_site_type_symbol
_atom_site_label
_atom_site_fract_x
_atom_site_fract_y
_atom_site_fract_z
Si Si1 0.598720 0.461001 0.054523
Si Si2 0.622972 0.209337 0.320470
Si Si3 0.500000 0.000000 0.500000
Si Si4 0.860497 0.552507 0.958700
Si Si5 0.725040 0.143419 0.926648
Si Si6 0.413245 0.132985 0.814760
Si Si7 0.647255 0.731906 0.537336
Si Si8 0.595843 0.747975 0.777032
O O1 0.424323 0.327373 0.058582
O O2 0.034900 0.612883 0.432520
O O3 0.500000 0.500000 0.000000
O O4 0.567613 0.454344 0.845974
O O5 0.323646 0.147655 0.130346
O O6 0.669683 0.142675 0.504164
O O7 0.592392 0.191603 0.127268
O O8 0.538341 0.975018 0.400769
O O9 0.655977 0.440194 0.687917
O O10 0.024766 0.694453 0.983432
O O11 0.207293 0.624504 0.351806
O O12 0.511706 0.096216 0.864187
O O13 0.003948 0.171922 0.240405
O O14 0.504605 0.242056 0.725188
O O15 0.000000 0.000000 0.500000
O O16 0.822872 0.803854 0.841330
#
# Coordination Sequence:
#
# PCOD9057849 Si02
#       8
#     2   2   1   2   2   2   2   2
#     4  11  23  40  70 111 146 186 238 295 370 437
#     4  11  25  46  75  99 145 195 243 301 358 435
#     4  12  24  50  72  98 144 192 248 302 346 426
#     4  11  22  45  68 110 146 187 237 300 372 435
#     4  12  27  47  74 107 142 191 253 297 362 435
#     4  12  28  51  70 105 145 198 248 301 365 427
#     4  12  25  43  78 107 148 189 232 310 373 432
#     4  11  22  43  72 110 145 191 234 292 374 436
#
# _framework density 26.044703999999999
#
# number of rings (size 3 to 8) (size 9 to 14) (size 15 to 20)
#    0.000    0.533    4.000    5.600    3.733    3.200 
#    0.000    2.667    0.000    0.000    0.000    0.000 
#    0.000    0.000    0.000    0.000    0.000    0.000 
#
# Total GULP energy -83738.397817 kJ/mol
# GULP energy per Si atom -5582.559854 kJ/mol
# Density = 2.598542 g / cm^3
# Si number density = 26.044704 Si / 1000 Ang^3
#
#
#
# Elastic Constant Matrix: (Units=GPa)
#
#
# Indices 1 2 3 4 5 6 
#
# 1 250.9666 42.2649 31.0001 -3.3047 -22.8509 -9.9371
# 2 42.2649 117.5254 -3.2269 -13.9670 1.4791 -3.4007
# 3 31.0001 -3.2269 22.7950 -3.6302 -14.6142 0.2849
# 4 -3.3047 -13.9670 -3.6302 36.1199 -6.2922 3.1042
# 5 -22.8509 1.4791 -14.6142 -6.2922 56.3101 -1.0008
# 6 -9.9371 -3.4007 0.2849 3.1042 -1.0008 46.2288
#
#
#
# Elastic Compliance Matrix: (Units=1/GPa)
#
#
# Indices 1 2 3 4 5 6 
#
# 1 0.005360 -0.002257 -0.007754 -0.001240 0.000103 0.001119
# 2 -0.002257 0.009984 0.005680 0.004367 0.000783 -0.000062
# 3 -0.007754 0.005680 0.066762 0.011028 0.015227 -0.002071
# 4 -0.001240 0.004367 0.011028 0.031540 0.005733 -0.002007
# 5 0.000103 0.000783 0.015227 0.005733 0.022374 0.000085
# 6 0.001119 -0.000062 -0.002071 -0.002007 0.000085 0.022017
#
#
# Mechanical properties :
#
#
# Convention : Reuss Voigt Hill
#
# Bulk Modulus (GPa) = 13.61548 59.04036 36.32792
# Shear Modulus (GPa) = 26.15357 49.14834 37.65096
#
# Velocity S-wave (km/s) = 3.17232 4.34876 3.80627
# Velocity P-wave (km/s) = 4.31940 6.92342 5.77022
#
# Compressibility (1/GPa) = 0.07344583
#
# Stress axis : x y z
#
# Youngs Moduli (GPa) = 186.57431 100.16418 14.97855
#
# Poissons Ratio (x) = 0.22603 0.11614
# Poissons Ratio (y) = 0.42103 -0.08509
# Poissons Ratio (z) = 1.44664 -0.56898
#
# Static dielectric constant tensor:
#      x y z
#    x 2.427020 0.616100 -1.635870 
#    y 0.616100 1.481440 2.667050 
#    z -1.635870 2.667050 -10.008530 
# 
# From -- ./inp_files/279342.got.cif
#   From: 2010.05.17/outbox.cif.g08.bks.cpg/sg2_140_cif.got.tgz:279342.got - 2010.06.03 11:33:40.
