data_PCOD9057608
_publ_section_title
;
Structure prediction by ZEFSAII (Michael W. Deem and Ramdas Pophale) SiO2 
 PCOD9057608
Probable space group: P -1
;
_chemical_formula_sum "Si O2"
_cell_formula_units_Z 16
_cell_length_a 9.680942
_cell_length_b 9.280829
_cell_length_c 14.577621
_cell_angle_alpha 95.644662
_cell_angle_beta 111.911989
_cell_angle_gamma 134.948645
_cell_volume 717.496399
_symmetry_space_group_name_H-M "P -1"
_symmetry_group_IT_number 2
_symmetry_cell_setting 'triclinic'
loop_
_space_group_symop_operation_xyz
x,y,z
-x,-y,-z
loop_
_atom_site_type_symbol
_atom_site_label
_atom_site_fract_x
_atom_site_fract_y
_atom_site_fract_z
Si Si1 0.140023 0.315434 0.133725
Si Si2 0.869029 0.935332 0.367415
Si Si3 0.313679 0.705993 0.682749
Si Si4 0.565278 0.879212 0.016709
Si Si5 0.732816 0.283363 0.544336
Si Si6 0.287303 0.408848 0.380657
Si Si7 0.537873 0.426607 0.172878
Si Si8 0.467582 0.813371 0.197998
O O1 0.266210 0.366557 0.264851
O O2 0.284814 0.325109 0.098322
O O3 0.202956 0.532083 0.137352
O O4 0.845556 0.075823 0.060232
O O5 0.757212 0.709300 0.273320
O O6 0.644629 0.873602 0.320550
O O7 0.000000 0.000000 0.500000
O O8 0.045710 0.158859 0.356290
O O9 0.292257 0.702222 0.568619
O O10 0.470753 0.692075 0.752600
O O11 0.028586 0.469620 0.638433
O O12 0.466980 0.967533 0.768379
O O13 0.540732 0.823606 0.114059
O O14 0.411984 0.640523 0.904709
O O15 0.500000 0.000000 0.000000
O O16 0.703456 0.412060 0.595911
O O17 0.500000 0.000000 0.500000
O O18 0.500000 0.500000 0.500000
#
# Coordination Sequence:
#
# PCOD9057608 Si02
#       8
#     2   2   2   2   2   2   2   2
#     4  11  25  46  71 104 139 183 242 293 359 425
#     4  11  23  42  69 103 142 189 232 289 361 423
#     4  11  22  43  64  99 144 182 236 296 352 419
#     4  12  25  50  74 103 143 188 245 297 357 420
#     4  11  24  38  64  99 140 189 233 285 354 429
#     4  12  23  42  66 100 144 184 231 289 350 427
#     4  11  26  45  71 104 140 188 240 297 356 420
#     4  11  23  46  73 100 141 191 229 300 360 418
#
# _framework density 22.299762999999999
#
# number of rings (size 3 to 8) (size 9 to 14) (size 15 to 20)
#    0.000    0.750    3.750    4.125    3.500    2.500 
#    2.250    0.000    0.000    0.000    0.000    0.000 
#    0.000    0.000    0.000    0.000    0.000    0.000 
#
# Total GULP energy -89347.466477 kJ/mol
# GULP energy per Si atom -5584.216655 kJ/mol
# Density = 2.224901 g / cm^3
# Si number density = 22.299763 Si / 1000 Ang^3
#
#
#
# Elastic Constant Matrix: (Units=GPa)
#
#
# Indices 1 2 3 4 5 6 
#
# 1 88.9214 23.1203 27.9098 7.5834 -15.3236 -24.6416
# 2 23.1203 131.7848 19.2345 13.4317 -5.5025 -14.3383
# 3 27.9098 19.2345 71.8500 3.4966 -10.7725 -8.8944
# 4 7.5834 13.4317 3.4966 31.8772 -7.0423 -7.1875
# 5 -15.3236 -5.5025 -10.7725 -7.0423 33.4045 1.5614
# 6 -24.6416 -14.3383 -8.8944 -7.1875 1.5614 39.6051
#
#
#
# Elastic Compliance Matrix: (Units=1/GPa)
#
#
# Indices 1 2 3 4 5 6 
#
# 1 0.016115 -0.001093 -0.004091 0.000224 0.005541 0.008534
# 2 -0.001093 0.008451 -0.001553 -0.002849 -0.000282 0.001525
# 3 -0.004091 -0.001553 0.016455 0.000681 0.003290 0.000582
# 4 0.000224 -0.002849 0.000681 0.035206 0.007024 0.005373
# 5 0.005541 -0.000282 0.003290 0.007024 0.034787 0.003988
# 6 0.008534 0.001525 0.000582 0.005373 0.003988 0.032060
#
#
# Mechanical properties :
#
#
# Convention : Reuss Voigt Hill
#
# Bulk Modulus (GPa) = 36.30055 48.12061 42.21058
# Shear Modulus (GPa) = 30.16970 35.79679 32.98324
#
# Velocity S-wave (km/s) = 3.68219 4.01091 3.85006
# Velocity P-wave (km/s) = 5.86445 6.56321 6.22364
#
# Compressibility (1/GPa) = 0.02754780
#
# Stress axis : x y z
#
# Youngs Moduli (GPa) = 62.05454 118.32888 60.77248
#
# Poissons Ratio (x) = 0.12934 0.24860
# Poissons Ratio (y) = 0.06783 0.09436
# Poissons Ratio (z) = 0.25385 0.18372
#
# Static dielectric constant tensor:
#      x y z
#    x 1.848880 0.015100 0.033280 
#    y 0.015100 1.841540 0.054670 
#    z 0.033280 0.054670 1.962720 
# 
# From -- ./inp_files/495270.got.cif
#   From: 2010.05.17/outbox.cif.g08.bks.cpg/sg2_248_cif.got.tgz:495270.got - 2010.06.03 11:33:40.
