data_PCOD9057839
_publ_section_title
;
Structure prediction by ZEFSAII (Michael W. Deem and Ramdas Pophale) SiO2 
 PCOD9057839
Probable space group: P -1
;
_chemical_formula_sum "Si O2"
_cell_formula_units_Z 14
_cell_length_a 8.661578
_cell_length_b 12.125390
_cell_length_c 14.685789
_cell_angle_alpha 149.217333
_cell_angle_beta 67.524374
_cell_angle_gamma 123.254544
_cell_volume 645.727816
_symmetry_space_group_name_H-M "P -1"
_symmetry_group_IT_number 2
_symmetry_cell_setting 'triclinic'
loop_
_space_group_symop_operation_xyz
x,y,z
-x,-y,-z
loop_
_atom_site_type_symbol
_atom_site_label
_atom_site_fract_x
_atom_site_fract_y
_atom_site_fract_z
Si Si1 0.703173 0.237421 0.127944
Si Si2 0.075528 0.992258 0.189426
Si Si3 0.763036 0.685080 0.310188
Si Si4 0.195086 0.546025 0.536942
Si Si5 0.111800 0.769279 0.204500
Si Si6 0.334957 0.248176 0.822379
Si Si7 0.489865 0.066607 0.389488
O O1 0.691416 0.436470 0.205628
O O2 0.769299 0.352174 0.295196
O O3 0.852373 0.155541 0.995807
O O4 0.500000 0.000000 0.000000
O O5 0.124155 0.957828 0.257864
O O6 0.847835 0.872377 0.155673
O O7 0.180762 0.278278 0.348318
O O8 0.728483 0.687309 0.212230
O O9 0.639738 0.813674 0.462883
O O10 0.991269 0.780730 0.326202
O O11 0.362979 0.745603 0.580883
O O12 0.000000 0.500000 0.500000
O O13 0.324114 0.823087 0.211412
O O14 0.000000 0.500000 0.000000
O O15 0.401477 0.038988 0.646396
O O16 0.500000 0.500000 0.000000
#
# Coordination Sequence:
#
# PCOD9057839 Si02
#       7
#     2   2   2   2   2   2   2
#     4  12  27  46  78 108 143 198 256 295 363 445
#     4  11  24  48  72 105 150 191 245 305 365 435
#     4  11  25  44  71 109 136 186 243 299 369 425
#     4  12  28  49  71 108 152 198 242 306 367 431
#     4  11  22  43  72 105 143 181 238 305 362 430
#     4  11  26  44  73 105 146 189 236 302 376 432
#     4  12  24  46  71 102 148 186 243 298 364 436
#
# _framework density 21.680962000000001
#
# number of rings (size 3 to 8) (size 9 to 14) (size 15 to 20)
#    0.000    0.571    2.857    5.143    2.000    4.571 
#    0.000    0.000    0.000    0.000    0.000    0.000 
#    0.000    0.000    0.000    0.000    0.000    0.000 
#
# Total GULP energy -78148.011507 kJ/mol
# GULP energy per Si atom -5582.000822 kJ/mol
# Density = 2.163162 g / cm^3
# Si number density = 21.680962 Si / 1000 Ang^3
#
#
#
# Elastic Constant Matrix: (Units=GPa)
#
#
# Indices 1 2 3 4 5 6 
#
# 1 123.7863 67.0582 53.4544 11.2733 -17.9872 12.3356
# 2 67.0582 140.6602 64.5729 14.7093 -9.3104 10.7886
# 3 53.4544 64.5729 134.0147 6.2379 -27.8609 5.0311
# 4 11.2733 14.7093 6.2379 32.5788 -0.9191 -9.2606
# 5 -17.9872 -9.3104 -27.8609 -0.9191 45.6764 7.6548
# 6 12.3356 10.7886 5.0311 -9.2606 7.6548 49.7933
#
#
#
# Elastic Compliance Matrix: (Units=1/GPa)
#
#
# Indices 1 2 3 4 5 6 
#
# 1 0.012193 -0.004209 -0.001938 -0.002683 0.003194 -0.002903
# 2 -0.004209 0.011233 -0.003850 -0.003314 -0.001552 -0.001380
# 3 -0.001938 -0.003850 0.011225 0.000240 0.005406 -0.000606
# 4 -0.002683 -0.003314 0.000240 0.035364 -0.002263 0.008283
# 5 0.003194 -0.001552 0.005406 -0.002263 0.027021 -0.005576
# 6 -0.002903 -0.001380 -0.000606 0.008283 -0.005576 0.023560
#
#
# Mechanical properties :
#
#
# Convention : Reuss Voigt Hill
#
# Bulk Modulus (GPa) = 68.22088 85.40358 76.81223
# Shear Modulus (GPa) = 34.36996 39.83476 37.10236
#
# Velocity S-wave (km/s) = 3.98585 4.29104 4.14126
# Velocity P-wave (km/s) = 7.26063 8.00170 7.64016
#
# Compressibility (1/GPa) = 0.01465827
#
# Stress axis : x y z
#
# Youngs Moduli (GPa) = 82.01514 89.02316 89.08461
#
# Poissons Ratio (x) = 0.37467 0.17260
# Poissons Ratio (y) = 0.34518 0.34300
# Poissons Ratio (z) = 0.15891 0.34276
#
# Static dielectric constant tensor:
#      x y z
#    x 1.876410 0.040960 0.007460 
#    y 0.040960 1.768550 -0.015880 
#    z 0.007460 -0.015880 1.894460 
# 
# From -- ./inp_files/418774.got.cif
#   From: 2010.05.17/outbox.cif.g08.bks.cpg/sg2_210_cif.got.tgz:418774.got - 2010.06.03 11:33:40.
