data_PCOD9057045
_publ_section_title
;
Structure prediction by ZEFSAII (Michael W. Deem and Ramdas Pophale) SiO2 
 PCOD9057045
Probable space group: P -1
;
_chemical_formula_sum "Si O2"
_cell_formula_units_Z 16
_cell_length_a 10.444008
_cell_length_b 20.271652
_cell_length_c 6.713188
_cell_angle_alpha 97.817292
_cell_angle_beta 93.766236
_cell_angle_gamma 146.461674
_cell_volume 735.158861
_symmetry_space_group_name_H-M "P -1"
_symmetry_group_IT_number 2
_symmetry_cell_setting 'triclinic'
loop_
_space_group_symop_operation_xyz
x,y,z
-x,-y,-z
loop_
_atom_site_type_symbol
_atom_site_label
_atom_site_fract_x
_atom_site_fract_y
_atom_site_fract_z
Si Si1 0.861869 0.779736 0.946071
Si Si2 0.672418 0.072996 0.857244
Si Si3 0.943614 0.035683 0.281707
Si Si4 0.613443 0.478062 0.437935
Si Si5 0.297554 0.199984 0.739334
Si Si6 0.041522 0.608459 0.275619
Si Si7 0.180105 0.527508 0.205834
Si Si8 0.487168 0.099902 0.543727
O O1 0.611954 0.654964 0.756120
O O2 0.802452 0.777355 0.161411
O O3 0.004448 0.897368 0.876538
O O4 0.048281 0.801253 0.990528
O O5 0.621919 0.105911 0.700372
O O6 0.608416 0.975854 0.698308
O O7 0.500000 0.000000 0.000000
O O8 0.817563 0.909004 0.181038
O O9 0.747077 0.982261 0.386887
O O10 0.189142 0.138917 0.483404
O O11 0.500000 0.500000 0.500000
O O12 0.848364 0.571267 0.353628
O O13 0.698912 0.471853 0.632568
O O14 0.588231 0.334532 0.822059
O O15 0.965853 0.474626 0.713157
O O16 0.313503 0.754906 0.411208
O O17 0.979503 0.580172 0.021924
#
# Coordination Sequence:
#
# PCOD9057045 Si02
#       8
#     2   2   2   2   2   2   2   2
#     4  12  24  43  67  99 134 174 220 277 336 402
#     4  11  25  41  64  97 137 174 220 274 335 403
#     4  11  22  41  68  99 130 169 217 274 340 394
#     4  12  29  45  69 102 137 183 229 282 334 404
#     4  11  22  42  67  99 132 167 220 277 338 398
#     4  11  26  47  71  98 137 182 232 277 337 401
#     4  11  24  48  71  98 136 182 229 283 334 403
#     4  11  24  42  67  97 131 180 219 272 334 402
#
# _framework density 21.764002000000001
#
# number of rings (size 3 to 8) (size 9 to 14) (size 15 to 20)
#    0.000    0.750    6.250    0.750    3.500    1.500 
#    2.250    0.000    0.000    0.000    0.000    0.000 
#    0.000    0.000    0.000    0.000    0.000    0.000 
#
# Total GULP energy -89340.422307 kJ/mol
# GULP energy per Si atom -5583.776394 kJ/mol
# Density = 2.171447 g / cm^3
# Si number density = 21.764002 Si / 1000 Ang^3
#
#
#
# Elastic Constant Matrix: (Units=GPa)
#
#
# Indices 1 2 3 4 5 6 
#
# 1 95.9029 -0.1246 28.5953 1.6014 -6.1408 5.5393
# 2 -0.1246 47.0658 13.9205 8.6749 -5.6359 8.6390
# 3 28.5953 13.9205 77.2871 3.7178 -1.9088 4.6343
# 4 1.6014 8.6749 3.7178 22.9551 7.9006 -0.0870
# 5 -6.1408 -5.6359 -1.9088 7.9006 50.0666 0.1856
# 6 5.5393 8.6390 4.6343 -0.0870 0.1856 33.5867
#
#
#
# Elastic Compliance Matrix: (Units=1/GPa)
#
#
# Indices 1 2 3 4 5 6 
#
# 1 0.012068 0.002270 -0.004636 -0.001581 0.001816 -0.001948
# 2 0.002270 0.026441 -0.004552 -0.011111 0.004859 -0.006603
# 3 -0.004636 -0.004552 0.015490 -0.000315 -0.000440 -0.000200
# 4 -0.001581 -0.011111 -0.000315 0.051224 -0.009552 0.003347
# 5 0.001816 0.004859 -0.000440 -0.009552 0.022240 -0.001636
# 6 -0.001948 -0.006603 -0.000200 0.003347 -0.001636 0.031839
#
#
# Mechanical properties :
#
#
# Convention : Reuss Voigt Hill
#
# Bulk Modulus (GPa) = 24.89893 33.89313 29.39603
# Shear Modulus (GPa) = 26.80620 33.17933 29.99277
#
# Velocity S-wave (km/s) = 3.51333 3.90873 3.71629
# Velocity P-wave (km/s) = 5.28425 5.99814 5.65248
#
# Compressibility (1/GPa) = 0.04016237
#
# Stress axis : x y z
#
# Youngs Moduli (GPa) = 82.86614 37.82043 64.55734
#
# Poissons Ratio (x) = -0.08584 0.29928
# Poissons Ratio (y) = -0.18807 0.29384
# Poissons Ratio (z) = 0.38416 0.17215
#
# Static dielectric constant tensor:
#      x y z
#    x 1.895800 -0.016150 -0.001710 
#    y -0.016150 1.779670 0.001480 
#    z -0.001710 0.001480 1.758880 
# 
# From -- ./inp_files/83245.got.cif
#   From: 2010.05.17/outbox.cif.g08.bks.cpg/sg2_42_cif.got.tgz:83245.got - 2010.06.03 11:33:40.
