data_PCOD9057924
_publ_section_title
;
Structure prediction by ZEFSAII (Michael W. Deem and Ramdas Pophale) SiO2 
 PCOD9057924
Probable space group: P -1
;
_chemical_formula_sum "Si O2"
_cell_formula_units_Z 14
_cell_length_a 12.232749
_cell_length_b 22.680996
_cell_length_c 9.341003
_cell_angle_alpha 33.187532
_cell_angle_beta 49.777264
_cell_angle_gamma 27.673034
_cell_volume 610.703682
_symmetry_space_group_name_H-M "P -1"
_symmetry_group_IT_number 2
_symmetry_cell_setting 'triclinic'
loop_
_space_group_symop_operation_xyz
x,y,z
-x,-y,-z
loop_
_atom_site_type_symbol
_atom_site_label
_atom_site_fract_x
_atom_site_fract_y
_atom_site_fract_z
Si Si1 0.886985 0.058759 0.820284
Si Si2 0.112417 0.147585 0.935035
Si Si3 0.907454 0.662880 0.835462
Si Si4 0.504005 0.022750 0.251485
Si Si5 0.370819 0.465450 0.354649
Si Si6 0.785745 0.009307 0.523524
Si Si7 0.604938 0.558311 0.957783
O O1 0.584158 0.256635 0.665031
O O2 0.969388 0.893902 0.021185
O O3 0.991796 0.085950 0.571289
O O4 0.000000 0.000000 0.000000
O O5 0.117396 0.090647 0.202251
O O6 0.390045 0.009339 0.927247
O O7 0.901402 0.370922 0.670961
O O8 0.758172 0.838467 0.501019
O O9 0.689971 0.778664 0.905458
O O10 0.000000 0.500000 0.000000
O O11 0.145118 0.571651 0.897176
O O12 0.358053 0.000695 0.405638
O O13 0.341848 0.464476 0.211042
O O14 0.480073 0.519387 0.169540
O O15 0.596004 0.225328 0.270759
#
# Coordination Sequence:
#
# PCOD9057924 Si02
#       7
#     2   2   2   2   2   2   2
#     4  12  28  44  73 107 140 180 241 300 354 421
#     4  12  26  46  72 106 140 189 237 290 356 426
#     4  11  24  45  71 101 147 190 233 290 359 421
#     4  11  27  44  71 105 144 189 235 290 356 422
#     4  11  24  45  72 100 141 183 240 296 352 416
#     4  12  23  50  73 101 146 190 236 295 353 423
#     4  11  22  43  75 102 133 195 240 287 355 423
#
# _framework density 22.924374
#
# number of rings (size 3 to 8) (size 9 to 14) (size 15 to 20)
#    0.000    0.571    4.286    4.286    6.000    2.857 
#    0.000    1.429    0.000    0.000    0.000    0.000 
#    0.000    0.000    0.000    0.000    0.000    0.000 
#
# Total GULP energy -78403.939411 kJ/mol
# GULP energy per Si atom -5600.281387 kJ/mol
# Density = 2.287220 g / cm^3
# Si number density = 22.924374 Si / 1000 Ang^3
#
#
#
# Elastic Constant Matrix: (Units=GPa)
#
#
# Indices 1 2 3 4 5 6 
#
# 1 125.3875 25.5581 27.3572 -10.5051 8.7070 14.7504
# 2 25.5581 150.8632 41.6152 -19.5909 -16.3607 11.2415
# 3 27.3572 41.6152 47.6080 -18.6747 8.3268 11.5117
# 4 -10.5051 -19.5909 -18.6747 47.7700 -1.7888 -8.7360
# 5 8.7070 -16.3607 8.3268 -1.7888 37.2569 1.3178
# 6 14.7504 11.2415 11.5117 -8.7360 1.3178 34.8328
#
#
#
# Elastic Compliance Matrix: (Units=1/GPa)
#
#
# Indices 1 2 3 4 5 6 
#
# 1 0.009352 -0.000390 -0.004330 -0.000289 -0.001317 -0.002426
# 2 -0.000390 0.010144 -0.009581 0.000571 0.006716 -0.000053
# 3 -0.004330 -0.009581 0.038538 0.008818 -0.011202 -0.005175
# 4 -0.000289 0.000571 0.008818 0.025143 -0.000564 0.003351
# 5 -0.001317 0.006716 -0.011202 -0.000564 0.032549 0.000719
# 6 -0.002426 -0.000053 -0.005175 0.003351 0.000719 0.032277
#
#
# Mechanical properties :
#
#
# Convention : Reuss Voigt Hill
#
# Bulk Modulus (GPa) = 33.97583 56.99107 45.48345
# Shear Modulus (GPa) = 26.82206 39.26048 33.04127
#
# Velocity S-wave (km/s) = 3.42427 4.14286 3.80059
# Velocity P-wave (km/s) = 5.52152 6.91367 6.25644
#
# Compressibility (1/GPa) = 0.02943269
#
# Stress axis : x y z
#
# Youngs Moduli (GPa) = 106.92874 98.58193 25.94873
#
# Poissons Ratio (x) = 0.03840 0.11235
# Poissons Ratio (y) = 0.04165 0.24862
# Poissons Ratio (z) = 0.46298 0.94452
#
# Static dielectric constant tensor:
#      x y z
#    x 1.825980 -0.018660 -0.005580 
#    y -0.018660 1.913250 0.005460 
#    z -0.005580 0.005460 1.861300 
# 
# From -- ./inp_files/263788.got.cif
#   From: 2010.05.17/outbox.cif.g08.bks.cpg/sg2_132_cif.got.tgz:263788.got - 2010.06.03 11:33:40.
