data_PCOD9057995
_publ_section_title
;
Structure prediction by ZEFSAII (Michael W. Deem and Ramdas Pophale) SiO2 
 PCOD9057995
Probable space group: P -1
;
_chemical_formula_sum "Si O2"
_cell_formula_units_Z 15
_cell_length_a 12.799475
_cell_length_b 17.733763
_cell_length_c 14.920967
_cell_angle_alpha 151.599265
_cell_angle_beta 47.222886
_cell_angle_gamma 151.079455
_cell_volume 715.757518
_symmetry_space_group_name_H-M "P -1"
_symmetry_group_IT_number 2
_symmetry_cell_setting 'triclinic'
loop_
_space_group_symop_operation_xyz
x,y,z
-x,-y,-z
loop_
_atom_site_type_symbol
_atom_site_label
_atom_site_fract_x
_atom_site_fract_y
_atom_site_fract_z
Si Si1 0.000000 0.000000 0.500000
Si Si2 0.267800 0.746576 0.634290
Si Si3 0.668501 0.573982 0.904394
Si Si4 0.946462 0.692860 0.356111
Si Si5 0.539005 0.960426 0.532168
Si Si6 0.821278 0.854420 0.741149
Si Si7 0.529464 0.891645 0.943666
Si Si8 0.438185 0.538234 0.351446
O O1 0.001139 0.170773 0.623577
O O2 0.284395 0.232184 0.557625
O O3 0.424412 0.947217 0.669585
O O4 0.356382 0.649770 0.511030
O O5 0.000000 0.500000 0.500000
O O6 0.306817 0.896085 0.851174
O O7 0.600282 0.329400 0.689318
O O8 0.619400 0.584620 0.842158
O O9 0.500000 0.500000 0.000000
O O10 0.933333 0.847741 0.062690
O O11 0.881267 0.771195 0.548299
O O12 0.726525 0.380628 0.154313
O O13 0.186224 0.823461 0.385090
O O14 0.500000 0.000000 0.500000
O O15 0.652033 0.839266 0.782981
O O16 0.697537 0.670991 0.708821
O O17 0.500000 0.000000 0.000000
#
# Coordination Sequence:
#
# PCOD9057995 Si02
#       8
#     1   2   2   2   2   2   2   2
#     4  12  22  48  70  98 144 182 242 288 368 422
#     4  11  26  49  71 102 145 190 237 293 363 434
#     4  11  22  44  68 103 134 182 241 289 351 420
#     4  12  26  48  72 102 144 190 241 299 366 432
#     4  11  26  46  69 103 145 188 233 302 361 425
#     4  12  25  44  72 102 139 187 239 295 357 433
#     4  12  28  44  72 110 141 187 240 297 370 433
#     4  11  24  44  72 100 142 186 237 301 356 433
#
# _framework density 20.956817999999998
#
# number of rings (size 3 to 8) (size 9 to 14) (size 15 to 20)
#    0.000    0.533    5.333    3.200    7.467    1.600 
#    2.400    0.000    0.000    0.000    0.000    0.000 
#    0.000    0.000    0.000    0.000    0.000    0.000 
#
# Total GULP energy -83675.067300 kJ/mol
# GULP energy per Si atom -5578.337820 kJ/mol
# Density = 2.090912 g / cm^3
# Si number density = 20.956818 Si / 1000 Ang^3
#
#
#
# Elastic Constant Matrix: (Units=GPa)
#
#
# Indices 1 2 3 4 5 6 
#
# 1 108.3129 31.3209 -3.9589 16.7747 1.3991 8.4327
# 2 31.3209 109.7106 22.7864 33.6459 4.1043 17.9019
# 3 -3.9589 22.7864 67.1578 16.8704 18.4038 2.1511
# 4 16.7747 33.6459 16.8704 48.8026 4.9123 3.1227
# 5 1.3991 4.1043 18.4038 4.9123 16.6501 10.1193
# 6 8.4327 17.9019 2.1511 3.1227 10.1193 50.3675
#
#
#
# Elastic Compliance Matrix: (Units=1/GPa)
#
#
# Indices 1 2 3 4 5 6 
#
# 1 0.010557 -0.002707 0.002850 -0.002481 -0.002469 -0.000277
# 2 -0.002707 0.013711 -0.004912 -0.007254 0.007635 -0.005294
# 3 0.002850 -0.004912 0.025813 -0.003876 -0.030373 0.006509
# 4 -0.002481 -0.007254 -0.003876 0.027874 -0.003204 0.002075
# 5 -0.002469 0.007635 -0.030373 -0.003204 0.106382 -0.022177
# 6 -0.000277 -0.005294 0.006509 0.002075 -0.022177 0.025831
#
#
# Mechanical properties :
#
#
# Convention : Reuss Voigt Hill
#
# Bulk Modulus (GPa) = 24.66572 42.83090 33.74831
# Shear Modulus (GPa) = 21.43878 38.83289 30.13584
#
# Velocity S-wave (km/s) = 3.20190 4.30931 3.79621
# Velocity P-wave (km/s) = 5.04628 6.72624 5.94589
#
# Compressibility (1/GPa) = 0.04054210
#
# Stress axis : x y z
#
# Youngs Moduli (GPa) = 94.72133 72.93476 38.73945
#
# Poissons Ratio (x) = 0.19746 -0.11040
# Poissons Ratio (y) = 0.25644 0.19030
# Poissons Ratio (z) = -0.26993 0.35827
#
# Static dielectric constant tensor:
#      x y z
#    x 1.739400 0.000930 0.001860 
#    y 0.000930 1.748860 -0.054070 
#    z 0.001860 -0.054070 1.774340 
# 
# From -- ./inp_files/238804.got.cif
#   From: 2010.05.17/outbox.cif.g08.bks.cpg/sg2_120_cif.got.tgz:238804.got - 2010.06.03 11:33:40.
