data_PCOD9057442
_publ_section_title
;
Structure prediction by ZEFSAII (Michael W. Deem and Ramdas Pophale) SiO2 
 PCOD9057442
Probable space group: P -1
;
_chemical_formula_sum "Si O2"
_cell_formula_units_Z 16
_cell_length_a 13.188947
_cell_length_b 20.732856
_cell_length_c 5.078722
_cell_angle_alpha 92.984242
_cell_angle_beta 91.819434
_cell_angle_gamma 25.663205
_cell_volume 600.254288
_symmetry_space_group_name_H-M "P -1"
_symmetry_group_IT_number 2
_symmetry_cell_setting 'triclinic'
loop_
_space_group_symop_operation_xyz
x,y,z
-x,-y,-z
loop_
_atom_site_type_symbol
_atom_site_label
_atom_site_fract_x
_atom_site_fract_y
_atom_site_fract_z
Si Si1 0.939712 0.246694 0.140091
Si Si2 0.152749 0.826197 0.183614
Si Si3 0.423774 0.469973 0.540809
Si Si4 0.246151 0.244369 0.387228
Si Si5 0.467879 0.761644 0.104737
Si Si6 0.760965 0.554177 0.601215
Si Si7 0.740410 0.013400 0.516679
Si Si8 0.254333 0.158590 0.880461
O O1 0.099806 0.184053 0.913177
O O2 0.760822 0.406679 0.220804
O O3 0.098756 0.134900 0.376127
O O4 0.826916 0.245245 0.030778
O O5 0.339133 0.701048 0.396578
O O6 0.255120 0.832440 0.069148
O O7 0.900426 0.967072 0.333669
O O8 0.500000 0.500000 0.500000
O O9 0.288408 0.494619 0.358662
O O10 0.503110 0.127494 0.380982
O O11 0.171194 0.262939 0.096691
O O12 0.034782 0.406377 0.532518
O O13 0.270586 0.172868 0.588410
O O14 0.623028 0.650227 0.343470
O O15 0.349552 0.895594 0.215804
O O16 0.640159 0.661970 0.850110
O O17 0.500000 0.000000 0.000000
#
# Coordination Sequence:
#
# PCOD9057442 Si02
#       8
#     2   2   2   2   2   2   2   2
#     4  12  25  42  71 109 143 189 231 293 372 433
#     4  11  26  45  71 107 144 190 242 298 365 428
#     4  11  22  42  70 105 142 184 239 294 361 435
#     4  12  27  46  74 107 148 191 242 298 361 432
#     4  11  28  50  76 102 146 192 252 304 351 423
#     4  11  26  49  73 107 141 197 245 301 361 417
#     4  12  28  47  72 108 143 196 243 297 365 431
#     4  12  25  43  70 107 154 184 232 292 366 440
#
# _framework density 26.655367999999999
#
# number of rings (size 3 to 8) (size 9 to 14) (size 15 to 20)
#    0.000    0.500    3.750    3.375    8.750    1.500 
#    0.000    0.000    0.000    0.000    0.000    0.000 
#    0.000    0.000    0.000    0.000    0.000    0.000 
#
# Total GULP energy -89681.550541 kJ/mol
# GULP energy per Si atom -5605.096909 kJ/mol
# Density = 2.659470 g / cm^3
# Si number density = 26.655368 Si / 1000 Ang^3
#
#
#
# Elastic Constant Matrix: (Units=GPa)
#
#
# Indices 1 2 3 4 5 6 
#
# 1 64.8467 19.1172 11.7876 -4.4445 4.2540 -17.3360
# 2 19.1172 114.1470 26.8853 19.3877 -13.7162 -38.0536
# 3 11.7876 26.8853 119.1406 23.4689 3.7309 -1.7671
# 4 -4.4445 19.3877 23.4689 45.4589 6.6926 -2.5125
# 5 4.2540 -13.7162 3.7309 6.6926 43.2288 -0.4422
# 6 -17.3360 -38.0536 -1.7671 -2.5125 -0.4422 33.1635
#
#
#
# Elastic Compliance Matrix: (Units=1/GPa)
#
#
# Indices 1 2 3 4 5 6 
#
# 1 0.018980 -0.000384 -0.002388 0.004127 -0.002324 0.009635
# 2 -0.000384 0.018068 -0.002729 -0.006286 0.007184 0.020006
# 3 -0.002388 -0.002729 0.010072 -0.004373 -0.000866 -0.004186
# 4 0.004127 -0.006286 -0.004373 0.028104 -0.006408 -0.003245
# 5 -0.002324 0.007184 -0.000866 -0.006408 0.026778 0.006854
# 6 0.009635 0.020006 -0.004186 -0.003245 0.006854 0.057768
#
#
# Mechanical properties :
#
#
# Convention : Reuss Voigt Hill
#
# Bulk Modulus (GPa) = 27.68860 45.96828 36.82844
# Shear Modulus (GPa) = 27.35045 40.39320 33.87182
#
# Velocity S-wave (km/s) = 3.20672 3.89702 3.56860
# Velocity P-wave (km/s) = 4.91130 6.12633 5.55215
#
# Compressibility (1/GPa) = 0.03611594
#
# Stress axis : x y z
#
# Youngs Moduli (GPa) = 52.68832 55.34605 99.28403
#
# Poissons Ratio (x) = 0.02128 0.23713
# Poissons Ratio (y) = 0.02025 0.27096
# Poissons Ratio (z) = 0.12584 0.15105
#
# Static dielectric constant tensor:
#      x y z
#    x 2.136230 0.024520 0.023900 
#    y 0.024520 2.129360 0.031710 
#    z 0.023900 0.031710 2.098170 
# 
# From -- ./inp_files/101232.got.cif
#   From: 2010.05.17/outbox.cif.g08.bks.cpg/sg2_51_cif.got.tgz:101232.got - 2010.06.03 11:33:40.
