data_PCOD9057131
_publ_section_title
;
Structure prediction by ZEFSAII (Michael W. Deem and Ramdas Pophale) SiO2 
 PCOD9057131
Probable space group: P -1
;
_chemical_formula_sum "Si O2"
_cell_formula_units_Z 14
_cell_length_a 8.274669
_cell_length_b 14.085410
_cell_length_c 8.841005
_cell_angle_alpha 52.060439
_cell_angle_beta 50.216649
_cell_angle_gamma 60.953177
_cell_volume 617.254523
_symmetry_space_group_name_H-M "P -1"
_symmetry_group_IT_number 2
_symmetry_cell_setting 'triclinic'
loop_
_space_group_symop_operation_xyz
x,y,z
-x,-y,-z
loop_
_atom_site_type_symbol
_atom_site_label
_atom_site_fract_x
_atom_site_fract_y
_atom_site_fract_z
Si Si1 0.713459 0.408456 0.413257
Si Si2 0.246518 0.248247 0.618727
Si Si3 0.544429 0.013194 0.142831
Si Si4 0.141138 0.821741 0.252019
Si Si5 0.861510 0.026276 0.407383
Si Si6 0.001493 0.553393 0.277413
Si Si7 0.677294 0.308991 0.199060
O O1 0.500000 0.500000 0.500000
O O2 0.741461 0.275426 0.605080
O O3 0.922125 0.464564 0.288468
O O4 0.708336 0.377170 0.271141
O O5 0.326577 0.115201 0.761398
O O6 0.192210 0.334606 0.710047
O O7 0.427802 0.294120 0.361413
O O8 0.023353 0.244307 0.675738
O O9 0.348283 0.024911 0.363613
O O10 0.500000 0.000000 0.000000
O O11 0.672684 0.122536 0.995379
O O12 0.994598 0.941983 0.287607
O O13 0.803611 0.169684 0.263380
O O14 0.000000 0.000000 0.500000
O O15 0.000000 0.500000 0.500000
O O16 0.217850 0.607922 0.063289
#
# Coordination Sequence:
#
# PCOD9057131 Si02
#       7
#     2   2   2   2   2   2   2
#     4  12  25  47  71 104 138 185 241 284 344 421
#     4  11  25  45  68 103 144 179 234 286 354 416
#     4  11  23  40  70 102 135 181 224 285 347 412
#     4  12  24  44  68 104 139 181 230 286 350 415
#     4  11  22  41  71 102 137 177 229 284 354 415
#     4  12  26  47  70 101 140 191 236 291 348 408
#     4  11  25  46  73 100 141 184 235 295 345 416
#
# _framework density 22.681082
#
# number of rings (size 3 to 8) (size 9 to 14) (size 15 to 20)
#    0.000    0.571    5.714    2.571    0.000    4.000 
#    2.571    0.000    0.000    0.000    0.000    0.000 
#    0.000    0.000    0.000    0.000    0.000    0.000 
#
# Total GULP energy -78218.749407 kJ/mol
# GULP energy per Si atom -5587.053529 kJ/mol
# Density = 2.262946 g / cm^3
# Si number density = 22.681082 Si / 1000 Ang^3
#
#
#
# Elastic Constant Matrix: (Units=GPa)
#
#
# Indices 1 2 3 4 5 6 
#
# 1 86.4335 3.7426 47.3202 -10.0308 -14.1238 11.3150
# 2 3.7426 89.3035 21.7958 -0.8204 -11.2710 6.7707
# 3 47.3202 21.7958 169.2226 -21.8955 -28.5975 1.6685
# 4 -10.0308 -0.8204 -21.8955 21.1424 13.1381 -3.1984
# 5 -14.1238 -11.2710 -28.5975 13.1381 30.5797 -5.3691
# 6 11.3150 6.7707 1.6685 -3.1984 -5.3691 32.5258
#
#
#
# Elastic Compliance Matrix: (Units=1/GPa)
#
#
# Indices 1 2 3 4 5 6 
#
# 1 0.014633 0.000942 -0.003619 0.000989 0.002490 -0.004593
# 2 0.000942 0.012287 -0.001525 -0.004032 0.004848 -0.002403
# 3 -0.003619 -0.001525 0.008382 0.004798 0.003943 0.002269
# 4 0.000989 -0.004032 0.004798 0.068960 -0.025680 0.002791
# 5 0.002490 0.004848 0.003943 -0.025680 0.051029 0.003821
# 6 -0.004593 -0.002403 0.002269 0.002791 0.003821 0.033632
#
#
# Mechanical properties :
#
#
# Convention : Reuss Voigt Hill
#
# Bulk Modulus (GPa) = 37.17642 54.51965 45.84804
# Shear Modulus (GPa) = 24.23719 34.98963 29.61341
#
# Velocity S-wave (km/s) = 3.27250 3.93196 3.61729
# Velocity P-wave (km/s) = 5.54126 6.68606 6.14040
#
# Compressibility (1/GPa) = 0.02689877
#
# Stress axis : x y z
#
# Youngs Moduli (GPa) = 68.33840 81.38368 119.29623
#
# Poissons Ratio (x) = -0.07663 0.43175
# Poissons Ratio (y) = -0.06435 0.18187
# Poissons Ratio (z) = 0.24733 0.12407
#
# Static dielectric constant tensor:
#      x y z
#    x 2.029810 0.001030 -0.025250 
#    y 0.001030 1.966580 -0.002200 
#    z -0.025250 -0.002200 1.842410 
# 
# From -- ./inp_files/199230.got.cif
#   From: 2010.05.17/outbox.cif.g08.bks.cpg/sg2_100_cif.got.tgz:199230.got - 2010.06.03 11:33:40.
