data_PCOD9057145
_publ_section_title
;
Structure prediction by ZEFSAII (Michael W. Deem and Ramdas Pophale) SiO2 
 PCOD9057145
Probable space group: P -1
;
_chemical_formula_sum "Si O2"
_cell_formula_units_Z 16
_cell_length_a 10.681447
_cell_length_b 5.052308
_cell_length_c 12.967418
_cell_angle_alpha 72.617197
_cell_angle_beta 112.129168
_cell_angle_gamma 104.331814
_cell_volume 611.388565
_symmetry_space_group_name_H-M "P -1"
_symmetry_group_IT_number 2
_symmetry_cell_setting 'triclinic'
loop_
_space_group_symop_operation_xyz
x,y,z
-x,-y,-z
loop_
_atom_site_type_symbol
_atom_site_label
_atom_site_fract_x
_atom_site_fract_y
_atom_site_fract_z
Si Si1 0.755969 0.866765 0.678632
Si Si2 0.133067 0.739587 0.513653
Si Si3 0.525883 0.293190 0.124284
Si Si4 0.571096 0.309232 0.621417
Si Si5 0.883171 0.312340 0.047301
Si Si6 0.233603 0.160448 0.079871
Si Si7 0.816592 0.094159 0.254884
Si Si8 0.349148 0.402232 0.681704
O O1 0.852008 0.022377 0.598947
O O2 0.628265 0.042033 0.625823
O O3 0.696418 0.538342 0.678658
O O4 0.811979 0.901283 0.809235
O O5 0.142890 0.862284 0.618667
O O6 0.269815 0.594341 0.563543
O O7 0.000000 0.500000 0.500000
O O8 0.384679 0.084878 0.116279
O O9 0.668679 0.179683 0.170088
O O10 0.545082 0.445976 0.222264
O O11 0.500000 0.500000 0.000000
O O12 0.500000 0.500000 0.500000
O O13 0.439570 0.218581 0.665333
O O14 0.766266 0.510758 0.978494
O O15 0.853491 0.020679 0.012213
O O16 0.914598 0.254122 0.182390
O O17 0.000000 0.500000 0.000000
O O18 0.776562 0.760465 0.271175
#
# Coordination Sequence:
#
# PCOD9057145 Si02
#       8
#     2   2   2   2   2   2   2   2
#     4  12  26  45  73 109 147 189 242 302 365 439
#     4  11  28  48  70 103 144 200 251 297 359 436
#     4  11  22  41  71 107 146 177 236 298 371 431
#     4  12  23  42  72 104 150 184 234 297 373 431
#     4  12  29  50  75 105 149 196 250 297 360 434
#     4  12  26  47  76 111 145 194 239 305 369 434
#     4  11  26  46  75 104 146 192 241 309 366 433
#     4  11  24  43  70 107 144 189 233 303 368 433
#
# _framework density 26.169936
#
# number of rings (size 3 to 8) (size 9 to 14) (size 15 to 20)
#    0.000    0.500    3.750    3.750    7.000    2.500 
#    0.000    0.000    0.000    0.000    0.000    0.000 
#    0.000    0.000    0.000    0.000    0.000    0.000 
#
# Total GULP energy -89519.782071 kJ/mol
# GULP energy per Si atom -5594.986379 kJ/mol
# Density = 2.611037 g / cm^3
# Si number density = 26.169936 Si / 1000 Ang^3
#
#
#
# Elastic Constant Matrix: (Units=GPa)
#
#
# Indices 1 2 3 4 5 6 
#
# 1 94.8417 14.3118 31.0534 -8.3167 -18.5147 9.1216
# 2 14.3118 92.0903 31.2641 4.0396 -12.7646 15.9187
# 3 31.0534 31.2641 164.0146 -27.6443 -19.2350 13.3877
# 4 -8.3167 4.0396 -27.6443 41.0852 12.4640 1.4718
# 5 -18.5147 -12.7646 -19.2350 12.4640 45.3060 -16.6291
# 6 9.1216 15.9187 13.3877 1.4718 -16.6291 45.6600
#
#
#
# Elastic Compliance Matrix: (Units=1/GPa)
#
#
# Indices 1 2 3 4 5 6 
#
# 1 0.011981 -0.000749 -0.001610 0.000264 0.003828 -0.000275
# 2 -0.000749 0.012725 -0.002412 -0.003625 0.002287 -0.002630
# 3 -0.001610 -0.002412 0.007855 0.005213 0.000096 -0.001274
# 4 0.000264 -0.003625 0.005213 0.031136 -0.008946 -0.004579
# 5 0.003828 0.002287 0.000096 -0.008946 0.030364 0.009756
# 6 -0.000275 -0.002630 -0.001274 -0.004579 0.009756 0.026947
#
#
# Mechanical properties :
#
#
# Convention : Reuss Voigt Hill
#
# Bulk Modulus (GPa) = 43.44055 56.02279 49.73167
# Shear Modulus (GPa) = 36.17369 44.69807 40.43588
#
# Velocity S-wave (km/s) = 3.72191 4.13727 3.93507
# Velocity P-wave (km/s) = 5.92500 6.65406 6.30008
#
# Compressibility (1/GPa) = 0.02301997
#
# Stress axis : x y z
#
# Youngs Moduli (GPa) = 83.46639 78.58704 127.29957
#
# Poissons Ratio (x) = 0.05886 0.20491
# Poissons Ratio (y) = 0.06251 0.30704
# Poissons Ratio (z) = 0.13435 0.18954
#
# Static dielectric constant tensor:
#      x y z
#    x 2.224340 0.011450 -0.007620 
#    y 0.011450 2.100100 -0.061120 
#    z -0.007620 -0.061120 2.103970 
# 
# From -- ./inp_files/410127.got.cif
#   From: 2010.05.17/outbox.cif.g08.bks.cpg/sg2_206_cif.got.tgz:410127.got - 2010.06.03 11:33:40.
