data_PCOD9057556
_publ_section_title
;
Structure prediction by ZEFSAII (Michael W. Deem and Ramdas Pophale) SiO2 
 PCOD9057556
Probable space group: P -1
;
_chemical_formula_sum "Si O2"
_cell_formula_units_Z 14
_cell_length_a 9.458884
_cell_length_b 9.717755
_cell_length_c 8.548691
_cell_angle_alpha 45.671606
_cell_angle_beta 85.783708
_cell_angle_gamma 83.957130
_cell_volume 558.987393
_symmetry_space_group_name_H-M "P -1"
_symmetry_group_IT_number 2
_symmetry_cell_setting 'triclinic'
loop_
_space_group_symop_operation_xyz
x,y,z
-x,-y,-z
loop_
_atom_site_type_symbol
_atom_site_label
_atom_site_fract_x
_atom_site_fract_y
_atom_site_fract_z
Si Si1 0.316280 0.351338 0.250855
Si Si2 0.803249 0.336811 0.578726
Si Si3 0.448800 0.810341 0.080134
Si Si4 0.901995 0.759510 0.236562
Si Si5 0.379025 0.528440 0.771965
Si Si6 0.063094 0.639866 0.012012
Si Si7 0.742417 0.030098 0.274755
O O1 0.471433 0.378141 0.289331
O O2 0.183447 0.496856 0.201644
O O3 0.281520 0.134472 0.466611
O O4 0.329487 0.425906 0.013268
O O5 0.680737 0.265730 0.753460
O O6 0.951475 0.219590 0.696871
O O7 0.741042 0.334083 0.410556
O O8 0.797320 0.922772 0.194711
O O9 0.576741 0.647327 0.207696
O O10 0.500000 0.000000 0.000000
O O11 0.399528 0.848876 0.873197
O O12 0.949428 0.735197 0.070342
O O13 0.839879 0.555083 0.432942
O O14 0.147251 0.818314 0.802946
O O15 0.000000 0.500000 0.000000
#
# Coordination Sequence:
#
# PCOD9057556 Si02
#       7
#     2   2   2   2   2   2   2
#     4  11  25  47  71 101 148 191 238 301 364 433
#     4  11  22  42  74 104 143 186 242 300 363 424
#     4  12  24  41  69 110 142 184 245 301 358 430
#     4  11  23  45  75 108 140 189 243 304 362 427
#     4  11  23  46  69 102 145 193 237 297 366 426
#     4  12  26  48  71 106 151 191 237 304 370 429
#     4  12  25  46  75 107 144 188 246 300 357 441
#
# _framework density 25.045286000000001
#
# number of rings (size 3 to 8) (size 9 to 14) (size 15 to 20)
#    0.000    0.571    2.857    6.000    0.000    1.143 
#    5.143    0.000    0.000    0.000    0.000    0.000 
#    0.000    0.000    0.000    0.000    0.000    0.000 
#
# Total GULP energy -78376.533453 kJ/mol
# GULP energy per Si atom -5598.323818 kJ/mol
# Density = 2.498828 g / cm^3
# Si number density = 25.045286 Si / 1000 Ang^3
#
#
#
# Elastic Constant Matrix: (Units=GPa)
#
#
# Indices 1 2 3 4 5 6 
#
# 1 77.9140 47.3602 8.7885 10.8246 -7.9871 9.8001
# 2 47.3602 106.7782 44.8951 -7.0114 -18.2723 29.4331
# 3 8.7885 44.8951 104.6411 -2.2152 -30.6903 16.1716
# 4 10.8246 -7.0114 -2.2152 37.8450 18.4558 -0.4640
# 5 -7.9871 -18.2723 -30.6903 18.4558 42.0836 -10.8497
# 6 9.8001 29.4331 16.1716 -0.4640 -10.8497 42.8942
#
#
#
# Elastic Compliance Matrix: (Units=1/GPa)
#
#
# Indices 1 2 3 4 5 6 
#
# 1 0.021868 -0.012141 0.005241 -0.012613 0.009144 0.003535
# 2 -0.012141 0.020256 -0.007666 0.009444 -0.005711 -0.009578
# 3 0.005241 -0.007666 0.015935 -0.008481 0.013352 0.001341
# 4 -0.012613 0.009444 -0.008481 0.043483 -0.025172 -0.006298
# 5 0.009144 -0.005711 0.013352 -0.025172 0.045891 0.008131
# 6 0.003535 -0.009578 0.001341 -0.006298 0.008131 0.030561
#
#
# Mechanical properties :
#
#
# Convention : Reuss Voigt Hill
#
# Bulk Modulus (GPa) = 34.56949 54.60233 44.58591
# Shear Modulus (GPa) = 23.06617 37.11718 30.09167
#
# Velocity S-wave (km/s) = 3.03806 3.85385 3.47001
# Velocity P-wave (km/s) = 5.11264 6.45381 5.82198
#
# Compressibility (1/GPa) = 0.02892724
#
# Stress axis : x y z
#
# Youngs Moduli (GPa) = 45.72795 49.36745 62.75681
#
# Poissons Ratio (x) = 0.59937 -0.32889
# Poissons Ratio (y) = 0.55518 0.48108
# Poissons Ratio (z) = -0.23965 0.37844
#
# Static dielectric constant tensor:
#      x y z
#    x 2.064800 -0.036600 0.042210 
#    y -0.036600 2.000870 0.060610 
#    z 0.042210 0.060610 1.993150 
# 
# From -- ./inp_files/256014.got.cif
#   From: 2010.05.17/outbox.cif.g08.bks.cpg/sg2_129_cif.got.tgz:256014.got - 2010.06.03 11:33:40.
