data_PCOD9057733
_publ_section_title
;
Structure prediction by ZEFSAII (Michael W. Deem and Ramdas Pophale) SiO2 
 PCOD9057733
Probable space group: P -1
;
_chemical_formula_sum "Si O2"
_cell_formula_units_Z 16
_cell_length_a 8.736729
_cell_length_b 14.329818
_cell_length_c 12.418109
_cell_angle_alpha 127.217144
_cell_angle_beta 73.851358
_cell_angle_gamma 139.884754
_cell_volume 744.422113
_symmetry_space_group_name_H-M "P -1"
_symmetry_group_IT_number 2
_symmetry_cell_setting 'triclinic'
loop_
_space_group_symop_operation_xyz
x,y,z
-x,-y,-z
loop_
_atom_site_type_symbol
_atom_site_label
_atom_site_fract_x
_atom_site_fract_y
_atom_site_fract_z
Si Si1 0.725827 0.054691 0.821415
Si Si2 0.563803 0.711494 0.636075
Si Si3 0.045934 0.886819 0.408789
Si Si4 0.977363 0.782218 0.913732
Si Si5 0.428862 0.553477 0.786003
Si Si6 0.081367 0.416196 0.398690
Si Si7 0.556620 0.860002 0.062739
Si Si8 0.885176 0.090341 0.351375
O O1 0.582569 0.095204 0.883197
O O2 0.802681 0.065026 0.692841
O O3 0.558298 0.847987 0.748019
O O4 0.958758 0.192245 0.956046
O O5 0.455111 0.587293 0.676540
O O6 0.381683 0.578084 0.478718
O O7 0.853304 0.835049 0.651554
O O8 0.783334 0.663924 0.301183
O O9 0.180232 0.931660 0.526697
O O10 0.000000 0.000000 0.500000
O O11 0.702734 0.676537 0.866846
O O12 0.982995 0.663467 0.763889
O O13 0.197288 0.987655 0.958080
O O14 0.377952 0.651940 0.915641
O O15 0.000000 0.500000 0.500000
O O16 0.945114 0.246313 0.387298
O O17 0.671321 0.907220 0.192393
#
# Coordination Sequence:
#
# PCOD9057733 Si02
#       8
#     2   2   2   2   2   2   2   2
#     4  12  27  43  69 102 151 184 224 292 356 419
#     4  12  20  41  73 101 132 183 239 292 342 406
#     4  12  28  47  69 101 144 190 235 284 350 426
#     4  11  23  42  69 108 134 177 235 291 346 413
#     4  12  24  43  75 102 135 186 236 291 346 418
#     4  11  23  37  67 109 137 170 232 296 347 397
#     4  11  24  43  71 107 137 178 236 297 355 400
#     4  11  22  43  69  98 136 180 234 286 343 413
#
# _framework density 21.493181
#
# number of rings (size 3 to 8) (size 9 to 14) (size 15 to 20)
#    0.000    0.500    6.250    4.125    1.750    1.500 
#    0.000    0.000    0.000    0.000    0.000    0.000 
#    0.000    0.000    0.000    0.000    0.000    0.000 
#
# Total GULP energy -89544.477854 kJ/mol
# GULP energy per Si atom -5596.529866 kJ/mol
# Density = 2.144426 g / cm^3
# Si number density = 21.493181 Si / 1000 Ang^3
#
#
#
# Elastic Constant Matrix: (Units=GPa)
#
#
# Indices 1 2 3 4 5 6 
#
# 1 77.3691 26.8325 27.1478 0.9520 -22.4786 -4.8602
# 2 26.8325 51.6437 17.0869 8.9470 -2.5829 -9.7206
# 3 27.1478 17.0869 121.4210 4.3919 1.5214 -13.6565
# 4 0.9520 8.9470 4.3919 41.1678 -12.9689 -0.9939
# 5 -22.4786 -2.5829 1.5214 -12.9689 50.7845 7.7739
# 6 -4.8602 -9.7206 -13.6565 -0.9939 7.7739 15.3013
#
#
#
# Elastic Compliance Matrix: (Units=1/GPa)
#
#
# Indices 1 2 3 4 5 6 
#
# 1 0.021669 -0.012234 -0.004746 0.006307 0.012409 -0.011020
# 2 -0.012234 0.030260 0.001232 -0.008867 -0.009331 0.020602
# 3 -0.004746 0.001232 0.010490 -0.002478 -0.004644 0.010836
# 4 0.006307 -0.008867 -0.002478 0.029723 0.011498 -0.009753
# 5 0.012409 -0.009331 -0.004644 0.011498 0.031021 -0.021145
# 6 -0.011020 0.020602 0.010836 -0.009753 -0.021145 0.094722
#
#
# Mechanical properties :
#
#
# Convention : Reuss Voigt Hill
#
# Bulk Modulus (GPa) = 32.34024 43.61868 37.97946
# Shear Modulus (GPa) = 19.25375 33.40849 26.33112
#
# Velocity S-wave (km/s) = 2.99625 3.94684 3.50393
# Velocity P-wave (km/s) = 5.20091 6.41157 5.83771
#
# Compressibility (1/GPa) = 0.03092123
#
# Stress axis : x y z
#
# Youngs Moduli (GPa) = 46.14929 33.04729 95.32677
#
# Poissons Ratio (x) = 0.40432 0.45244
# Poissons Ratio (y) = 0.56461 -0.11743
# Poissons Ratio (z) = 0.21903 -0.04071
#
# Static dielectric constant tensor:
#      x y z
#    x 1.791730 0.008540 -0.013940 
#    y 0.008540 1.771500 0.001650 
#    z -0.013940 0.001650 1.820270 
# 
# From -- ./inp_files/256481.got.cif
#   From: 2010.05.17/outbox.cif.g08.bks.cpg/sg2_129_cif.got.tgz:256481.got - 2010.06.03 11:33:40.
