data_PCOD9057821
_publ_section_title
;
Structure prediction by ZEFSAII (Michael W. Deem and Ramdas Pophale) SiO2 
 PCOD9057821
Probable space group: P -1
;
_chemical_formula_sum "Si O2"
_cell_formula_units_Z 16
_cell_length_a 9.507844
_cell_length_b 14.074885
_cell_length_c 8.821464
_cell_angle_alpha 101.819747
_cell_angle_beta 102.703596
_cell_angle_gamma 132.277515
_cell_volume 743.365448
_symmetry_space_group_name_H-M "P -1"
_symmetry_group_IT_number 2
_symmetry_cell_setting 'triclinic'
loop_
_space_group_symop_operation_xyz
x,y,z
-x,-y,-z
loop_
_atom_site_type_symbol
_atom_site_label
_atom_site_fract_x
_atom_site_fract_y
_atom_site_fract_z
Si Si1 0.364137 0.911597 0.131219
Si Si2 0.249429 0.362677 0.939253
Si Si3 0.923607 0.675700 0.789746
Si Si4 0.854028 0.251398 0.664319
Si Si5 0.088661 0.069402 0.794855
Si Si6 0.842284 0.094825 0.334571
Si Si7 0.662307 0.870429 0.822019
Si Si8 0.784222 0.409074 0.519086
O O1 0.304601 0.860949 0.275050
O O2 0.598613 0.986751 0.176579
O O3 0.366651 0.028250 0.148788
O O4 0.163897 0.767510 0.939694
O O5 0.157360 0.212253 0.812836
O O6 0.098337 0.369075 0.829918
O O7 0.500000 0.500000 0.000000
O O8 0.203421 0.345028 0.103146
O O9 0.805723 0.523151 0.642947
O O10 0.979424 0.781257 0.706819
O O11 0.851250 0.172851 0.501813
O O12 0.783864 0.320176 0.608643
O O13 0.125496 0.002507 0.661517
O O14 0.237359 0.116525 0.992424
O O15 0.842370 0.943787 0.758155
O O16 0.432463 0.706727 0.671383
O O17 0.000000 0.500000 0.500000
#
# Coordination Sequence:
#
# PCOD9057821 Si02
#       8
#     2   2   2   2   2   2   2   2
#     4  11  22  43  71  98 142 180 232 298 350 406
#     4  11  27  48  67  97 151 189 228 291 356 423
#     4  11  23  44  68 103 136 185 240 281 354 423
#     4  11  25  44  65 103 144 176 235 297 352 408
#     4  11  24  43  72 101 134 192 238 275 350 431
#     4  12  23  39  75 105 134 182 241 290 344 418
#     4  11  22  45  70  98 141 183 231 294 341 417
#     4  12  26  41  71 108 142 180 239 297 356 407
#
# _framework density 21.523731999999999
#
# number of rings (size 3 to 8) (size 9 to 14) (size 15 to 20)
#    0.000    0.750    6.250    1.500    3.500    4.500 
#    0.000    1.875    0.000    0.000    0.000    0.000 
#    0.000    0.000    0.000    0.000    0.000    0.000 
#
# Total GULP energy -89550.762274 kJ/mol
# GULP energy per Si atom -5596.922642 kJ/mol
# Density = 2.147474 g / cm^3
# Si number density = 21.523732 Si / 1000 Ang^3
#
#
#
# Elastic Constant Matrix: (Units=GPa)
#
#
# Indices 1 2 3 4 5 6 
#
# 1 94.0387 25.4067 13.7653 15.6044 -1.0311 4.7026
# 2 25.4067 81.7052 40.7317 7.7140 -1.2333 15.4132
# 3 13.7653 40.7317 62.6443 21.1283 -1.8002 6.7081
# 4 15.6044 7.7140 21.1283 38.3989 1.3332 3.7456
# 5 -1.0311 -1.2333 -1.8002 1.3332 34.9814 5.1245
# 6 4.7026 15.4132 6.7081 3.7456 5.1245 40.3535
#
#
#
# Elastic Compliance Matrix: (Units=1/GPa)
#
#
# Indices 1 2 3 4 5 6 
#
# 1 0.012390 -0.004328 0.001830 -0.005221 0.000457 0.000331
# 2 -0.004328 0.021208 -0.014169 0.005847 0.000525 -0.005850
# 3 0.001830 -0.014169 0.029486 -0.014311 0.001405 0.001447
# 4 -0.005221 0.005847 -0.014311 0.035146 -0.001688 -0.002294
# 5 0.000457 0.000525 0.001405 -0.001688 0.029350 -0.004058
# 6 0.000331 -0.005850 0.001447 -0.002294 -0.004058 0.027464
#
#
# Mechanical properties :
#
#
# Convention : Reuss Voigt Hill
#
# Bulk Modulus (GPa) = 33.61324 44.24397 38.92861
# Shear Modulus (GPa) = 25.21494 33.31239 29.26367
#
# Velocity S-wave (km/s) = 3.42642 3.93836 3.69128
# Velocity P-wave (km/s) = 5.59505 6.42506 6.02437
#
# Compressibility (1/GPa) = 0.02975018
#
# Stress axis : x y z
#
# Youngs Moduli (GPa) = 80.71004 47.15226 33.91425
#
# Poissons Ratio (x) = 0.20406 -0.06205
# Poissons Ratio (y) = 0.34929 0.48053
# Poissons Ratio (z) = -0.14768 0.66810
#
# Static dielectric constant tensor:
#      x y z
#    x 1.753360 -0.006180 0.009900 
#    y -0.006180 1.769260 -0.020530 
#    z 0.009900 -0.020530 1.812110 
# 
# From -- ./inp_files/208414.got.cif
#   From: 2010.05.17/outbox.cif.g08.bks.cpg/sg2_105_cif.got.tgz:208414.got - 2010.06.03 11:33:40.
