data_PCOD9057832
_publ_section_title
;
Structure prediction by ZEFSAII (Michael W. Deem and Ramdas Pophale) SiO2 
 PCOD9057832
Probable space group: P -1
;
_chemical_formula_sum "Si O2"
_cell_formula_units_Z 13
_cell_length_a 16.268305
_cell_length_b 9.818329
_cell_length_c 9.520399
_cell_angle_alpha 114.747893
_cell_angle_beta 111.066929
_cell_angle_gamma 26.452933
_cell_volume 614.745701
_symmetry_space_group_name_H-M "P -1"
_symmetry_group_IT_number 2
_symmetry_cell_setting 'triclinic'
loop_
_space_group_symop_operation_xyz
x,y,z
-x,-y,-z
loop_
_atom_site_type_symbol
_atom_site_label
_atom_site_fract_x
_atom_site_fract_y
_atom_site_fract_z
Si Si1 0.830799 0.175944 0.386478
Si Si2 0.863126 0.805175 0.140708
Si Si3 0.510364 0.273864 0.941743
Si Si4 0.624929 0.748970 0.344632
Si Si5 0.071421 0.479563 0.670122
Si Si6 0.303185 0.794305 0.200516
Si Si7 0.500000 0.500000 0.500000
O O1 0.744340 0.432985 0.344235
O O2 0.667038 0.353250 0.460770
O O3 0.899220 0.928358 0.231859
O O4 0.000000 0.000000 0.500000
O O5 0.869333 0.728207 0.266853
O O6 0.000000 0.500000 0.000000
O O7 0.665576 0.071033 0.065116
O O8 0.494768 0.133247 0.807848
O O9 0.569606 0.285122 0.849187
O O10 0.325370 0.605874 0.048213
O O11 0.757375 0.678205 0.338613
O O12 0.500000 0.000000 0.500000
O O13 0.000000 0.500000 0.500000
O O14 0.902539 0.834314 0.771188
O O15 0.382290 0.672449 0.353222
#
# Coordination Sequence:
#
# PCOD9057832 Si02
#       7
#     2   2   2   2   2   2   1
#     4  12  27  48  75 113 147 200 257 312 376 455
#     4  12  26  48  76 108 153 198 245 312 389 447
#     4  11  23  46  71 101 148 199 235 310 381 445
#     4  12  28  47  73 109 151 192 260 319 373 457
#     4  12  27  46  74 110 147 197 247 314 382 452
#     4  11  22  43  72 102 143 193 245 295 387 442
#     4  12  22  44  78 104 146 196 252 308 376 446
#
# _framework density 21.146955999999999
#
# number of rings (size 3 to 8) (size 9 to 14) (size 15 to 20)
#    0.000    0.308    4.615    4.615    4.308    1.231 
#    2.769    0.000    0.000    0.000    0.000    0.000 
#    0.000    0.000    0.000    0.000    0.000    0.000 
#
# Total GULP energy -72446.012270 kJ/mol
# GULP energy per Si atom -5572.770175 kJ/mol
# Density = 2.109882 g / cm^3
# Si number density = 21.146956 Si / 1000 Ang^3
#
#
#
# Elastic Constant Matrix: (Units=GPa)
#
#
# Indices 1 2 3 4 5 6 
#
# 1 70.6704 9.1233 30.9673 0.7107 10.0478 6.6463
# 2 9.1233 76.1229 38.8241 8.6419 11.4631 16.1152
# 3 30.9673 38.8241 119.4392 -13.1691 23.0924 18.6137
# 4 0.7107 8.6419 -13.1691 51.4077 9.6234 -2.9563
# 5 10.0478 11.4631 23.0924 9.6234 50.5467 -11.4443
# 6 6.6463 16.1152 18.6137 -2.9563 -11.4443 31.5899
#
#
#
# Elastic Compliance Matrix: (Units=1/GPa)
#
#
# Indices 1 2 3 4 5 6 
#
# 1 0.016258 0.000994 -0.003888 -0.001152 -0.002022 -0.002477
# 2 0.000994 0.018111 -0.004687 -0.004126 -0.003246 -0.008249
# 3 -0.003888 -0.004687 0.014002 0.005365 -0.007201 -0.007148
# 4 -0.001152 -0.004126 0.005365 0.022570 -0.005762 -0.000790
# 5 -0.002022 -0.003246 -0.007201 -0.005762 0.028997 0.016290
# 6 -0.002477 -0.008249 -0.007148 -0.000790 0.016290 0.046424
#
#
# Mechanical properties :
#
#
# Convention : Reuss Voigt Hill
#
# Bulk Modulus (GPa) = 30.11199 47.11799 38.61499
# Shear Modulus (GPa) = 28.96997 39.19670 34.08334
#
# Velocity S-wave (km/s) = 3.70528 4.30994 4.01900
# Velocity P-wave (km/s) = 5.70752 6.86273 6.31161
#
# Compressibility (1/GPa) = 0.03320937
#
# Stress axis : x y z
#
# Youngs Moduli (GPa) = 61.50899 55.21432 71.41965
#
# Poissons Ratio (x) = -0.05490 0.27771
# Poissons Ratio (y) = -0.06116 0.33472
# Poissons Ratio (z) = 0.23917 0.25877
#
# Static dielectric constant tensor:
#      x y z
#    x 1.739090 0.029440 0.031980 
#    y 0.029440 1.836780 0.068480 
#    z 0.031980 0.068480 1.806890 
# 
# From -- ./inp_files/191220.got.cif
#   From: 2010.05.17/outbox.cif.g08.bks.cpg/sg2_96_cif.got.tgz:191220.got - 2010.06.03 11:33:40.
