data_PCOD9057694
_publ_section_title
;
Structure prediction by ZEFSAII (Michael W. Deem and Ramdas Pophale) SiO2 
 PCOD9057694
Probable space group: P -1
;
_chemical_formula_sum "Si O2"
_cell_formula_units_Z 10
_cell_length_a 7.360514
_cell_length_b 12.583021
_cell_length_c 9.156596
_cell_angle_alpha 49.593640
_cell_angle_beta 94.173073
_cell_angle_gamma 61.239494
_cell_volume 462.671199
_symmetry_space_group_name_H-M "P -1"
_symmetry_group_IT_number 2
_symmetry_cell_setting 'triclinic'
loop_
_space_group_symop_operation_xyz
x,y,z
-x,-y,-z
loop_
_atom_site_type_symbol
_atom_site_label
_atom_site_fract_x
_atom_site_fract_y
_atom_site_fract_z
Si Si1 0.262896 0.604880 0.787575
Si Si2 0.618285 0.760142 0.868646
Si Si3 0.646758 0.062660 0.998637
Si Si4 0.792998 0.193643 0.664679
Si Si5 0.184835 0.046128 0.361553
O O1 0.320196 0.630007 0.606703
O O2 0.033344 0.814672 0.656280
O O3 0.500000 0.500000 0.000000
O O4 0.208555 0.469007 0.909659
O O5 0.763446 0.828490 0.811920
O O6 0.445909 0.850560 0.922340
O O7 0.500000 0.000000 0.000000
O O8 0.613279 0.211498 0.754076
O O9 0.048165 0.118857 0.817962
O O10 0.875180 0.024797 0.710293
O O11 0.563862 0.140405 0.372794
#
# Coordination Sequence:
#
# PCOD9057694 Si02
#       5
#     2   2   2   2   2
#     4  12  23  39  67 104 130 163 225 276 323 387
#     4  11  23  41  70  95 133 175 217 276 322 387
#     4  11  23  44  68  93 133 180 218 260 333 393
#     4  11  23  42  71  95 131 177 216 269 330 391
#     4  11  22  43  68  97 131 174 221 268 331 384
#
# _framework density 21.613619
#
# number of rings (size 3 to 8) (size 9 to 14) (size 15 to 20)
#    0.000    0.800    6.000    2.400    0.000    0.800 
#    3.600    1.000    0.000    0.000    0.000    0.000 
#    0.000    0.000    0.000    0.000    0.000    0.000 
#
# Total GULP energy -55903.976275 kJ/mol
# GULP energy per Si atom -5590.397628 kJ/mol
# Density = 2.156443 g / cm^3
# Si number density = 21.613619 Si / 1000 Ang^3
#
#
#
# Elastic Constant Matrix: (Units=GPa)
#
#
# Indices 1 2 3 4 5 6 
#
# 1 119.0822 9.3567 39.0578 9.6802 -22.2658 20.9131
# 2 9.3567 45.3350 5.9660 5.2485 -8.4961 12.0944
# 3 39.0578 5.9660 128.7900 11.5738 -32.7843 13.7200
# 4 9.6802 5.2485 11.5738 35.0055 -4.8111 -11.0136
# 5 -22.2658 -8.4961 -32.7843 -4.8111 44.8188 6.5374
# 6 20.9131 12.0944 13.7200 -11.0136 6.5374 34.7535
#
#
#
# Elastic Compliance Matrix: (Units=1/GPa)
#
#
# Indices 1 2 3 4 5 6 
#
# 1 0.012199 0.002780 -0.000080 -0.006417 0.007552 -0.011731
# 2 0.002780 0.029377 0.003618 -0.010759 0.011190 -0.018839
# 3 -0.000080 0.003618 0.011735 -0.006062 0.009986 -0.009644
# 4 -0.006417 -0.010759 -0.006062 0.040441 -0.008893 0.024488
# 5 0.007552 0.011190 0.009986 -0.008893 0.037789 -0.022307
# 6 -0.011731 -0.018839 -0.009644 0.024488 -0.022307 0.058153
#
#
# Mechanical properties :
#
#
# Convention : Reuss Voigt Hill
#
# Bulk Modulus (GPa) = 15.16326 44.66313 29.91319
# Shear Modulus (GPa) = 25.12064 38.83734 31.97899
#
# Velocity S-wave (km/s) = 3.41289 4.24358 3.85070
# Velocity P-wave (km/s) = 4.74987 6.68728 5.80005
#
# Compressibility (1/GPa) = 0.06594889
#
# Stress axis : x y z
#
# Youngs Moduli (GPa) = 81.97363 34.04076 85.21227
#
# Poissons Ratio (x) = -0.09465 0.00679
# Poissons Ratio (y) = -0.22792 -0.30832
# Poissons Ratio (z) = 0.00653 -0.12317
#
# Static dielectric constant tensor:
#      x y z
#    x 1.809340 0.005200 -0.031010 
#    y 0.005200 1.777150 -0.009700 
#    z -0.031010 -0.009700 1.812290 
# 
# From -- ./inp_files/75374.got.cif
#   From: 2010.05.17/outbox.cif.g08.bks.cpg/sg2_38_cif.got.tgz:75374.got - 2010.06.03 11:33:40.
