data_PCOD9057158
_publ_section_title
;
Structure prediction by ZEFSAII (Michael W. Deem and Ramdas Pophale) SiO2 
 PCOD9057158
Probable space group: P -1
;
_chemical_formula_sum "Si O2"
_cell_formula_units_Z 12
_cell_length_a 14.666982
_cell_length_b 7.829304
_cell_length_c 11.386415
_cell_angle_alpha 88.535130
_cell_angle_beta 153.068286
_cell_angle_gamma 107.390849
_cell_volume 469.219364
_symmetry_space_group_name_H-M "P -1"
_symmetry_group_IT_number 2
_symmetry_cell_setting 'triclinic'
loop_
_space_group_symop_operation_xyz
x,y,z
-x,-y,-z
loop_
_atom_site_type_symbol
_atom_site_label
_atom_site_fract_x
_atom_site_fract_y
_atom_site_fract_z
Si Si1 0.758371 0.484817 0.259001
Si Si2 0.022958 0.894617 0.144398
Si Si3 0.258526 0.525324 0.286195
Si Si4 0.707331 0.820112 0.133604
Si Si5 0.461304 0.050077 0.286965
Si Si6 0.078903 0.265536 0.313142
O O1 0.704050 0.614313 0.107710
O O2 0.830826 0.611287 0.463677
O O3 0.000000 0.500000 0.500000
O O4 0.494750 0.254419 0.990664
O O5 0.042223 0.041899 0.267896
O O6 0.287674 0.929955 0.443375
O O7 0.000000 0.000000 0.000000
O O8 0.796653 0.636832 0.878998
O O9 0.481113 0.778190 0.550043
O O10 0.252788 0.415349 0.403201
O O11 0.000000 0.500000 0.000000
O O12 0.608728 0.888681 0.915107
O O13 0.000000 0.000000 0.500000
O O14 0.209599 0.816450 0.034963
#
# Coordination Sequence:
#
# PCOD9057158 Si02
#       6
#     2   2   2   2   2   2
#     4  11  26  46  70 101 144 187 236 295 348 417
#     4   9  22  41  67  98 134 176 227 287 342 412
#     4   9  20  41  64  97 131 173 228 281 339 411
#     4  11  24  47  69 105 140 184 240 288 350 425
#     4  11  22  41  71  98 137 182 226 287 352 416
#     4  11  22  43  66  99 137 180 227 287 354 413
#
# _framework density 25.574393000000001
#
# number of rings (size 3 to 8) (size 9 to 14) (size 15 to 20)
#    0.000    1.667    3.333    0.000    0.000   11.333 
#    0.000    0.000    0.000    0.000    0.000    0.000 
#    0.000    0.000    0.000    0.000    0.000    0.000 
#
# Total GULP energy -67132.440679 kJ/mol
# GULP energy per Si atom -5594.370057 kJ/mol
# Density = 2.551618 g / cm^3
# Si number density = 25.574393 Si / 1000 Ang^3
#
#
#
# Elastic Constant Matrix: (Units=GPa)
#
#
# Indices 1 2 3 4 5 6 
#
# 1 106.5413 34.9122 48.3665 -12.9304 3.7297 -19.2184
# 2 34.9122 81.1606 44.4398 -29.5559 2.8057 8.1013
# 3 48.3665 44.4398 182.6882 -8.2726 4.7775 -0.7010
# 4 -12.9304 -29.5559 -8.2726 59.5016 -8.8515 3.3144
# 5 3.7297 2.8057 4.7775 -8.8515 53.4042 4.5239
# 6 -19.2184 8.1013 -0.7010 3.3144 4.5239 47.7240
#
#
#
# Elastic Compliance Matrix: (Units=1/GPa)
#
#
# Indices 1 2 3 4 5 6 
#
# 1 0.013225 -0.005296 -0.002186 -0.000574 -0.001082 0.006335
# 2 -0.005296 0.020213 -0.003172 0.009047 0.001633 -0.006393
# 3 -0.002186 -0.003172 0.006783 -0.001172 -0.000472 -0.000116
# 4 -0.000574 0.009047 -0.001172 0.021748 0.003582 -0.003634
# 5 -0.001082 0.001633 -0.000472 0.003582 0.019590 -0.002825
# 6 0.006335 -0.006393 -0.000116 -0.003634 -0.002825 0.025109
#
#
# Mechanical properties :
#
#
# Convention : Reuss Voigt Hill
#
# Bulk Modulus (GPa) = 52.87731 69.53634 61.20682
# Shear Modulus (GPa) = 37.23549 48.30408 42.76979
#
# Velocity S-wave (km/s) = 3.81985 4.35071 4.09390
# Velocity P-wave (km/s) = 6.33844 7.24480 6.80672
#
# Compressibility (1/GPa) = 0.01891170
#
# Stress axis : x y z
#
# Youngs Moduli (GPa) = 75.61532 49.47373 147.42297
#
# Poissons Ratio (x) = 0.26200 0.32233
# Poissons Ratio (y) = 0.40044 0.46768
# Poissons Ratio (z) = 0.16533 0.15695
#
# Static dielectric constant tensor:
#      x y z
#    x 2.047030 0.029610 -0.008830 
#    y 0.029610 2.087080 0.030230 
#    z -0.008830 0.030230 2.073330 
# 
# From -- ./inp_files/446002.got.cif
#   From: 2010.05.17/outbox.cif.g08.bks.cpg/sg2_224_cif.got.tgz:446002.got - 2010.06.03 11:33:40.
