data_PCOD9057094
_publ_section_title
;
Structure prediction by ZEFSAII (Michael W. Deem and Ramdas Pophale) SiO2 
 PCOD9057094
Probable space group: P -1
;
_chemical_formula_sum "Si O2"
_cell_formula_units_Z 14
_cell_length_a 13.103302
_cell_length_b 6.228131
_cell_length_c 12.298915
_cell_angle_alpha 68.394207
_cell_angle_beta 114.604163
_cell_angle_gamma 135.957738
_cell_volume 630.625815
_symmetry_space_group_name_H-M "P -1"
_symmetry_group_IT_number 2
_symmetry_cell_setting 'triclinic'
loop_
_space_group_symop_operation_xyz
x,y,z
-x,-y,-z
loop_
_atom_site_type_symbol
_atom_site_label
_atom_site_fract_x
_atom_site_fract_y
_atom_site_fract_z
Si Si1 0.268710 0.934273 0.195296
Si Si2 0.316464 0.109404 0.421680
Si Si3 0.502799 0.168500 0.670587
Si Si4 0.840738 0.828068 0.025102
Si Si5 0.197067 0.644742 0.745296
Si Si6 0.984148 0.285098 0.193530
Si Si7 0.970289 0.080833 0.586931
O O1 0.398963 0.923638 0.243666
O O2 0.112444 0.621172 0.138034
O O3 0.243125 0.914162 0.316607
O O4 0.277863 0.203751 0.099495
O O5 0.427598 0.081490 0.533392
O O6 0.405399 0.463850 0.358410
O O7 0.182156 0.981110 0.469761
O O8 0.360650 0.961106 0.726301
O O9 0.791255 0.526704 0.119668
O O10 0.869344 0.039187 0.099037
O O11 0.000000 0.000000 0.000000
O O12 0.097437 0.707195 0.743319
O O13 0.108204 0.405951 0.647185
O O14 0.066460 0.172370 0.296737
O O15 0.000000 0.000000 0.500000
#
# Coordination Sequence:
#
# PCOD9057094 Si02
#       7
#     2   2   2   2   2   2   2
#     4  12  23  42  72  93 131 181 220 264 338 392
#     4  11  24  45  65  99 134 179 221 267 329 407
#     4  11  27  42  66  98 140 174 214 275 338 392
#     4  11  24  42  72 102 129 168 232 277 320 397
#     4  11  25  44  66 102 134 172 222 282 324 385
#     4  11  22  41  70 100 127 174 224 272 328 388
#     4  11  23  39  69 100 132 172 231 269 320 397
#
# _framework density 22.200168999999999
#
# number of rings (size 3 to 8) (size 9 to 14) (size 15 to 20)
#    0.000    0.857    4.286    2.571    2.000    6.286 
#    0.000    1.429    0.000    0.000    0.000    0.000 
#    0.000    0.000    0.000    0.000    0.000    0.000 
#
# Total GULP energy -78181.060895 kJ/mol
# GULP energy per Si atom -5584.361492 kJ/mol
# Density = 2.214964 g / cm^3
# Si number density = 22.200169 Si / 1000 Ang^3
#
#
#
# Elastic Constant Matrix: (Units=GPa)
#
#
# Indices 1 2 3 4 5 6 
#
# 1 119.3242 21.0270 23.3324 -5.4752 19.0000 13.0311
# 2 21.0270 37.3137 8.5588 -20.1952 3.9710 12.8231
# 3 23.3324 8.5588 87.7703 -14.6516 18.3812 2.5400
# 4 -5.4752 -20.1952 -14.6516 41.2966 -7.9473 -7.3136
# 5 19.0000 3.9710 18.3812 -7.9473 34.1317 -1.4875
# 6 13.0311 12.8231 2.5400 -7.3136 -1.4875 28.5784
#
#
#
# Elastic Compliance Matrix: (Units=1/GPa)
#
#
# Indices 1 2 3 4 5 6 
#
# 1 0.010827 -0.006017 -0.001681 -0.003739 -0.005438 -0.003328
# 2 -0.006017 0.044568 0.000440 0.019351 0.001900 -0.012242
# 3 -0.001681 0.000440 0.013586 0.003749 -0.005558 0.000031
# 4 -0.003739 0.019351 0.003749 0.036130 0.006323 0.002264
# 5 -0.005438 0.001900 -0.005558 0.006323 0.036816 0.005655
# 6 -0.003328 -0.012242 0.000031 0.002264 0.005655 0.042873
#
#
# Mechanical properties :
#
#
# Convention : Reuss Voigt Hill
#
# Bulk Modulus (GPa) = 18.36016 38.91608 28.63812
# Shear Modulus (GPa) = 22.99164 33.56733 28.27948
#
# Velocity S-wave (km/s) = 3.22165 3.89270 3.57296
# Velocity P-wave (km/s) = 4.70392 6.14588 5.47260
#
# Compressibility (1/GPa) = 0.05446576
#
# Stress axis : x y z
#
# Youngs Moduli (GPa) = 92.36033 22.43778 73.60494
#
# Poissons Ratio (x) = 0.13502 0.12370
# Poissons Ratio (y) = 0.55577 -0.03241
# Poissons Ratio (z) = 0.15522 -0.00988
#
# Static dielectric constant tensor:
#      x y z
#    x 1.795080 -0.015220 0.032720 
#    y -0.015220 1.827850 0.012550 
#    z 0.032720 0.012550 1.869430 
# 
# From -- ./inp_files/53782.got.cif
#   From: 2010.05.17/outbox.cif.g08.bks.cpg/sg2_27_cif.got.tgz:53782.got - 2010.06.03 11:33:40.
