data_PCOD9057187
_publ_section_title
;
Structure prediction by ZEFSAII (Michael W. Deem and Ramdas Pophale) SiO2 
 PCOD9057187
Probable space group: P -1
;
_chemical_formula_sum "Si O2"
_cell_formula_units_Z 12
_cell_length_a 6.159922
_cell_length_b 13.668841
_cell_length_c 9.208181
_cell_angle_alpha 42.303116
_cell_angle_beta 86.564782
_cell_angle_gamma 97.183823
_cell_volume 504.069529
_symmetry_space_group_name_H-M "P -1"
_symmetry_group_IT_number 2
_symmetry_cell_setting 'triclinic'
loop_
_space_group_symop_operation_xyz
x,y,z
-x,-y,-z
loop_
_atom_site_type_symbol
_atom_site_label
_atom_site_fract_x
_atom_site_fract_y
_atom_site_fract_z
Si Si1 0.260986 0.870636 0.150817
Si Si2 0.906467 0.936613 0.284774
Si Si3 0.582842 0.384464 0.727836
Si Si4 0.467294 0.156329 0.397870
Si Si5 0.171095 0.212131 0.106605
Si Si6 0.142712 0.595038 0.019624
O O1 0.286353 0.710692 0.271219
O O2 0.093763 0.854526 0.313833
O O3 0.500000 0.000000 0.000000
O O4 0.117974 0.936048 0.967305
O O5 0.649713 0.858374 0.424163
O O6 0.023856 0.043155 0.292129
O O7 0.500000 0.500000 0.500000
O O8 0.369123 0.254130 0.935387
O O9 0.711984 0.451645 0.800520
O O10 0.291605 0.225047 0.240881
O O11 0.695529 0.274672 0.224435
O O12 0.500000 0.000000 0.500000
O O13 0.025618 0.330156 0.968408
O O14 0.000000 0.500000 0.000000
#
# Coordination Sequence:
#
# PCOD9057187 Si02
#       6
#     2   2   2   2   2   2
#     4  11  23  43  70 106 151 187 245 312 365 442
#     4  11  22  41  72 109 142 187 246 308 378 431
#     4  11  25  49  74 107 150 199 249 305 374 450
#     4  11  23  41  75 108 140 189 248 309 371 438
#     4  11  22  45  71 101 150 186 246 313 372 431
#     4  11  26  50  74 104 151 198 246 308 376 449
#
# _framework density 23.806241
#
# number of rings (size 3 to 8) (size 9 to 14) (size 15 to 20)
#    0.000    1.000    5.000    1.500    0.000    3.333 
#    9.000    0.000    0.000    0.000    0.000    0.000 
#    0.000    0.000    0.000    0.000    0.000    0.000 
#
# Total GULP energy -66897.040967 kJ/mol
# GULP energy per Si atom -5574.753414 kJ/mol
# Density = 2.375206 g / cm^3
# Si number density = 23.806241 Si / 1000 Ang^3
#
#
#
# Elastic Constant Matrix: (Units=GPa)
#
#
# Indices 1 2 3 4 5 6 
#
# 1 100.0320 54.3554 17.0491 -2.2921 11.6493 -10.0282
# 2 54.3554 126.3404 37.9617 2.7702 1.3305 1.6568
# 3 17.0491 37.9617 84.2805 3.3679 31.5175 1.1157
# 4 -2.2921 2.7702 3.3679 21.4220 5.5425 -8.1692
# 5 11.6493 1.3305 31.5175 5.5425 25.9807 -0.9389
# 6 -10.0282 1.6568 1.1157 -8.1692 -0.9389 51.1687
#
#
#
# Elastic Compliance Matrix: (Units=1/GPa)
#
#
# Indices 1 2 3 4 5 6 
#
# 1 0.016259 -0.008975 0.006405 0.007683 -0.016086 0.004269
# 2 -0.008975 0.015351 -0.011929 -0.007074 0.019118 -0.002775
# 3 0.006405 -0.011929 0.031291 0.008792 -0.042038 0.001592
# 4 0.007683 -0.007074 0.008792 0.057591 -0.025663 0.010267
# 5 -0.016086 0.019118 -0.042038 -0.025663 0.101011 -0.005099
# 6 0.004269 -0.002775 0.001592 0.010267 -0.005099 0.021981
#
#
# Mechanical properties :
#
#
# Convention : Reuss Voigt Hill
#
# Bulk Modulus (GPa) = 29.49489 58.82059 44.15774
# Shear Modulus (GPa) = 17.61924 33.13338 25.37631
#
# Velocity S-wave (km/s) = 2.72345 3.73472 3.26843
# Velocity P-wave (km/s) = 4.72292 6.58477 5.72998
#
# Compressibility (1/GPa) = 0.03390418
#
# Stress axis : x y z
#
# Youngs Moduli (GPa) = 61.50387 65.14343 31.95857
#
# Poissons Ratio (x) = 0.58465 -0.20470
# Poissons Ratio (y) = 0.55199 0.38122
# Poissons Ratio (z) = -0.39395 0.77707
#
# Static dielectric constant tensor:
#      x y z
#    x 1.889400 0.013560 -0.034870 
#    y 0.013560 2.050810 0.101650 
#    z -0.034870 0.101650 1.981980 
# 
# From -- ./inp_files/27139.got.cif
#   From: 2010.05.17/outbox.cif.g08.bks.cpg/sg2_14_cif.got.tgz:27139.got - 2010.06.03 11:33:40.
