data_PCOD9057207
_publ_section_title
;
Structure prediction by ZEFSAII (Michael W. Deem and Ramdas Pophale) SiO2 
 PCOD9057207
Probable space group: P -1
;
_chemical_formula_sum "Si O2"
_cell_formula_units_Z 16
_cell_length_a 17.230869
_cell_length_b 11.561821
_cell_length_c 13.998005
_cell_angle_alpha 126.940497
_cell_angle_beta 147.972653
_cell_angle_gamma 30.930838
_cell_volume 673.725162
_symmetry_space_group_name_H-M "P -1"
_symmetry_group_IT_number 2
_symmetry_cell_setting 'triclinic'
loop_
_space_group_symop_operation_xyz
x,y,z
-x,-y,-z
loop_
_atom_site_type_symbol
_atom_site_label
_atom_site_fract_x
_atom_site_fract_y
_atom_site_fract_z
Si Si1 0.864931 0.839234 0.507167
Si Si2 0.338334 0.276710 0.461295
Si Si3 0.114493 0.439783 0.732540
Si Si4 0.232666 0.883980 0.088673
Si Si5 0.711035 0.434169 0.911953
Si Si6 0.101246 0.171070 0.924440
Si Si7 0.120462 0.895810 0.468961
Si Si8 0.676173 0.708415 0.765414
O O1 0.764694 0.800835 0.307423
O O2 0.035928 0.609883 0.646968
O O3 0.963714 0.897711 0.581012
O O4 0.618024 0.092017 0.434212
O O5 0.538582 0.241745 0.669483
O O6 0.241688 0.357624 0.292758
O O7 0.127489 0.431700 0.399649
O O8 0.500000 0.000000 0.500000
O O9 0.252537 0.430489 0.948788
O O10 0.269567 0.683117 0.031128
O O11 0.956212 0.165116 0.978600
O O12 0.262333 0.935371 0.043538
O O13 0.431697 0.645010 0.677151
O O14 0.984567 0.165590 0.718459
O O15 0.861573 0.435813 0.864546
O O16 0.269080 0.176389 0.080380
O O17 0.000000 0.000000 0.500000
#
# Coordination Sequence:
#
# PCOD9057207 Si02
#       8
#     2   2   2   2   2   2   2   2
#     4  11  25  45  69 101 139 178 233 280 351 406
#     4  12  20  41  71 106 140 169 229 275 353 407
#     4  11  24  43  71 105 136 182 223 289 340 421
#     4  11  22  41  73 104 132 176 227 296 334 414
#     4  11  24  43  67 101 136 179 232 279 350 401
#     4  11  24  43  68 100 138 176 236 279 349 397
#     4  12  30  49  63  98 144 196 227 285 343 411
#     4  11  23  42  73 105 134 182 224 292 336 418
#
# _framework density 23.748556000000001
#
# number of rings (size 3 to 8) (size 9 to 14) (size 15 to 20)
#    0.000    0.750    3.750    2.250    5.250    5.500 
#    0.000    1.250    0.000    0.000    0.000    0.000 
#    0.000    0.000    0.000    0.000    0.000    0.000 
#
# Total GULP energy -89409.830569 kJ/mol
# GULP energy per Si atom -5588.114411 kJ/mol
# Density = 2.369450 g / cm^3
# Si number density = 23.748556 Si / 1000 Ang^3
#
#
#
# Elastic Constant Matrix: (Units=GPa)
#
#
# Indices 1 2 3 4 5 6 
#
# 1 106.4620 34.8225 20.5012 -4.2138 6.4773 11.3678
# 2 34.8225 68.0005 21.2832 25.6335 4.0842 10.7057
# 3 20.5012 21.2832 106.4052 18.7356 1.1662 -11.1148
# 4 -4.2138 25.6335 18.7356 30.6279 6.5909 -5.3422
# 5 6.4773 4.0842 1.1662 6.5909 23.8377 -1.2175
# 6 11.3678 10.7057 -11.1148 -5.3422 -1.2175 37.3188
#
#
#
# Elastic Compliance Matrix: (Units=1/GPa)
#
#
# Indices 1 2 3 4 5 6 
#
# 1 0.014933 -0.012122 -0.003097 0.015407 -0.006089 0.000013
# 2 -0.012122 0.035276 0.000133 -0.034555 0.006229 -0.011131
# 3 -0.003097 0.000133 0.011632 -0.007610 0.002526 0.003363
# 4 0.015407 -0.034555 -0.007610 0.074451 -0.017813 0.013030
# 5 -0.006089 0.006229 0.002526 -0.017813 0.047330 -0.000186
# 6 0.000013 -0.011131 0.003363 0.013030 -0.000186 0.032846
#
#
# Mechanical properties :
#
#
# Convention : Reuss Voigt Hill
#
# Bulk Modulus (GPa) = 31.57759 48.23129 39.90444
# Shear Modulus (GPa) = 19.44047 31.97427 25.70737
#
# Velocity S-wave (km/s) = 2.86422 3.67327 3.29368
# Velocity P-wave (km/s) = 4.92583 6.19223 5.59498
#
# Compressibility (1/GPa) = 0.03166803
#
# Stress axis : x y z
#
# Youngs Moduli (GPa) = 66.96439 28.34815 85.97223
#
# Poissons Ratio (x) = 0.34364 0.26628
# Poissons Ratio (y) = 0.81174 -0.01144
# Poissons Ratio (z) = 0.20741 -0.00377
#
# Static dielectric constant tensor:
#      x y z
#    x 2.167720 -0.005170 0.091280 
#    y -0.005170 1.881160 -0.026710 
#    z 0.091280 -0.026710 2.286150 
# 
# From -- ./inp_files/538470.got.cif
#   From: 2010.05.17/outbox.cif.g08.bks.cpg/sg2_270_cif.got.tgz:538470.got - 2010.06.03 11:33:40.
