data_PCOD9057253
_publ_section_title
;
Structure prediction by ZEFSAII (Michael W. Deem and Ramdas Pophale) SiO2 
 PCOD9057253
Probable space group: P -1
;
_chemical_formula_sum "Si O2"
_cell_formula_units_Z 14
_cell_length_a 13.589961
_cell_length_b 22.434578
_cell_length_c 11.491856
_cell_angle_alpha 156.442376
_cell_angle_beta 45.683730
_cell_angle_gamma 147.242267
_cell_volume 714.149568
_symmetry_space_group_name_H-M "P -1"
_symmetry_group_IT_number 2
_symmetry_cell_setting 'triclinic'
loop_
_space_group_symop_operation_xyz
x,y,z
-x,-y,-z
loop_
_atom_site_type_symbol
_atom_site_label
_atom_site_fract_x
_atom_site_fract_y
_atom_site_fract_z
Si Si1 0.657777 0.872707 0.786588
Si Si2 0.351354 0.863240 0.554336
Si Si3 0.970806 0.414976 0.126789
Si Si4 0.017971 0.022188 0.886996
Si Si5 0.239297 0.889090 0.438865
Si Si6 0.962807 0.142818 0.820339
Si Si7 0.773305 0.550747 0.645950
O O1 0.455962 0.640740 0.511345
O O2 0.810299 0.886401 0.755335
O O3 0.620911 0.988157 0.105605
O O4 0.772945 0.006303 0.814306
O O5 0.193278 0.627794 0.309405
O O6 0.269502 0.875674 0.525676
O O7 0.552345 0.943080 0.493990
O O8 0.868120 0.467304 0.378089
O O9 0.873680 0.326104 0.921522
O O10 0.943798 0.238712 0.899610
O O11 0.121558 0.951034 0.633919
O O12 0.145956 0.261323 0.171394
O O13 0.000000 0.000000 0.000000
O O14 0.000000 0.000000 0.500000
O O15 0.139504 0.336493 0.100100
#
# Coordination Sequence:
#
# PCOD9057253 Si02
#       7
#     2   2   2   2   2   2   2
#     4  11  23  44  66  97 135 172 218 272 325 390
#     4  11  23  42  67  99 136 169 221 268 324 392
#     4  12  22  42  71  96 127 178 221 269 328 386
#     4  11  22  42  64  96 139 173 213 268 320 384
#     4  11  24  41  66 101 134 171 218 272 320 391
#     4  11  26  45  67  96 134 168 224 277 328 391
#     4  11  24  41  68  97 129 175 220 266 333 388
#
# _framework density 19.603736999999999
#
# number of rings (size 3 to 8) (size 9 to 14) (size 15 to 20)
#    0.000    0.857    5.714    2.571    0.000    5.143 
#    0.000    0.000    0.000    0.000    0.000    0.000 
#    0.000    0.000    0.000    0.000    0.000    0.000 
#
# Total GULP energy -78284.076909 kJ/mol
# GULP energy per Si atom -5591.719779 kJ/mol
# Density = 1.955912 g / cm^3
# Si number density = 19.603737 Si / 1000 Ang^3
#
#
#
# Elastic Constant Matrix: (Units=GPa)
#
#
# Indices 1 2 3 4 5 6 
#
# 1 37.4169 42.5154 25.2884 2.7459 7.3759 -3.0098
# 2 42.5154 113.4684 41.3060 1.1285 12.6732 7.7134
# 3 25.2884 41.3060 112.2562 -13.2602 15.9736 9.9506
# 4 2.7459 1.1285 -13.2602 37.7329 14.5628 7.5050
# 5 7.3759 12.6732 15.9736 14.5628 36.3589 -0.5352
# 6 -3.0098 7.7134 9.9506 7.5050 -0.5352 29.2912
#
#
#
# Elastic Compliance Matrix: (Units=1/GPa)
#
#
# Indices 1 2 3 4 5 6 
#
# 1 0.056077 -0.019229 -0.009046 -0.011695 0.004234 0.016973
# 2 -0.019229 0.016993 -0.000383 0.003502 -0.003364 -0.007279
# 3 -0.009046 -0.000383 0.014395 0.010860 -0.008833 -0.008663
# 4 -0.011695 0.003502 0.010860 0.042534 -0.020907 -0.017093
# 5 0.004234 -0.003364 -0.008833 -0.020907 0.040225 0.010413
# 6 0.016973 -0.007279 -0.008663 -0.017093 0.010413 0.045314
#
#
# Mechanical properties :
#
#
# Convention : Reuss Voigt Hill
#
# Bulk Modulus (GPa) = 33.16859 53.48455 43.32657
# Shear Modulus (GPa) = 17.67389 30.94541 24.30965
#
# Velocity S-wave (km/s) = 3.00585 3.97740 3.52526
# Velocity P-wave (km/s) = 5.38545 6.95953 6.22247
#
# Compressibility (1/GPa) = 0.03014900
#
# Stress axis : x y z
#
# Youngs Moduli (GPa) = 17.83247 58.84697 69.47047
#
# Poissons Ratio (x) = 1.13157 0.62841
# Poissons Ratio (y) = 0.34290 0.02664
# Poissons Ratio (z) = 0.16131 0.02256
#
# Static dielectric constant tensor:
#      x y z
#    x 1.698220 -0.007080 0.018470 
#    y -0.007080 1.672690 -0.011350 
#    z 0.018470 -0.011350 1.670220 
# 
# From -- ./inp_files/458165.got.cif
#   From: 2010.05.17/outbox.cif.g08.bks.cpg/sg2_230_cif.got.tgz:458165.got - 2010.06.03 11:33:40.
