data_PCOD9057174
_publ_section_title
;
Structure prediction by ZEFSAII (Michael W. Deem and Ramdas Pophale) SiO2 
 PCOD9057174
Probable space group: P -1
;
_chemical_formula_sum "Si O2"
_cell_formula_units_Z 15
_cell_length_a 11.337948
_cell_length_b 9.080328
_cell_length_c 14.798542
_cell_angle_alpha 86.778853
_cell_angle_beta 149.599943
_cell_angle_gamma 85.957107
_cell_volume 748.103703
_symmetry_space_group_name_H-M "P -1"
_symmetry_group_IT_number 2
_symmetry_cell_setting 'triclinic'
loop_
_space_group_symop_operation_xyz
x,y,z
-x,-y,-z
loop_
_atom_site_type_symbol
_atom_site_label
_atom_site_fract_x
_atom_site_fract_y
_atom_site_fract_z
Si Si1 0.225151 0.006972 0.342367
Si Si2 0.417566 0.172097 0.904979
Si Si3 0.883722 0.669330 0.954627
Si Si4 0.000000 0.000000 0.000000
Si Si5 0.903147 0.277570 0.223912
Si Si6 0.317425 0.729892 0.547788
Si Si7 0.946945 0.612650 0.209044
Si Si8 0.993617 0.824305 0.500016
O O1 0.097556 0.169274 0.293245
O O2 0.500000 0.000000 0.500000
O O3 0.092429 0.968392 0.166892
O O4 0.221458 0.886980 0.424437
O O5 0.243307 0.267697 0.861367
O O6 0.260524 0.182600 0.710448
O O7 0.649852 0.236261 0.042010
O O8 0.500000 0.000000 0.000000
O O9 0.601169 0.699968 0.743549
O O10 0.921182 0.658764 0.087073
O O11 0.000000 0.500000 0.000000
O O12 0.974099 0.817765 0.977827
O O13 0.890900 0.450220 0.189017
O O14 0.968296 0.243156 0.373082
O O15 0.208818 0.610831 0.423050
O O16 0.198655 0.743315 0.568074
O O17 0.000000 0.000000 0.500000
#
# Coordination Sequence:
#
# PCOD9057174 Si02
#       8
#     2   2   2   1   2   2   2   2
#     4  12  25  44  70 103 133 184 239 286 346 423
#     4  11  23  41  70 101 135 179 229 282 352 425
#     4  12  27  46  71 103 140 190 244 289 354 417
#     4  12  26  46  74  96 138 190 242 288 350 408
#     4  12  25  43  70 103 141 179 232 289 358 418
#     4  11  24  45  70  99 142 178 231 290 349 420
#     4  11  26  44  67 102 143 180 224 301 352 418
#     4  11  22  41  72 103 130 180 226 281 351 418
#
# _framework density 20.050695999999999
#
# number of rings (size 3 to 8) (size 9 to 14) (size 15 to 20)
#    0.000    0.533    5.333    2.800    0.000    5.867 
#    0.000    0.000    0.000    0.000    0.000    0.000 
#    0.000    0.000    0.000    0.000    0.000    0.000 
#
# Total GULP energy -83628.647064 kJ/mol
# GULP energy per Si atom -5575.243138 kJ/mol
# Density = 2.000506 g / cm^3
# Si number density = 20.050696 Si / 1000 Ang^3
#
#
#
# Elastic Constant Matrix: (Units=GPa)
#
#
# Indices 1 2 3 4 5 6 
#
# 1 83.1050 42.4712 57.1229 4.5855 -11.1994 -6.5129
# 2 42.4712 162.5786 61.6256 9.3851 2.5321 10.0432
# 3 57.1229 61.6256 122.3924 10.6279 -8.0048 -15.2478
# 4 4.5855 9.3851 10.6279 28.7780 3.9056 -4.5408
# 5 -11.1994 2.5321 -8.0048 3.9056 27.4789 -1.8589
# 6 -6.5129 10.0432 -15.2478 -4.5408 -1.8589 34.5583
#
#
#
# Elastic Compliance Matrix: (Units=1/GPa)
#
#
# Indices 1 2 3 4 5 6 
#
# 1 0.019110 -0.002493 -0.007059 -0.000214 0.006095 0.001511
# 2 -0.002493 0.008748 -0.003963 -0.001374 -0.003127 -0.005109
# 3 -0.007059 -0.003963 0.014584 -0.002346 0.002482 0.006081
# 4 -0.000214 -0.001374 -0.002346 0.037494 -0.005706 0.003943
# 5 0.006095 -0.003127 0.002482 -0.005706 0.041009 0.004608
# 6 0.001511 -0.005109 0.006081 0.003943 0.004608 0.034156
#
#
# Mechanical properties :
#
#
# Convention : Reuss Voigt Hill
#
# Bulk Modulus (GPa) = 64.87794 76.72393 70.80093
# Shear Modulus (GPa) = 26.69985 31.95346 29.32666
#
# Velocity S-wave (km/s) = 3.65309 3.99636 3.82858
# Velocity P-wave (km/s) = 7.08665 7.72286 7.41159
#
# Compressibility (1/GPa) = 0.01541356
#
# Stress axis : x y z
#
# Youngs Moduli (GPa) = 52.32816 114.31404 68.56908
#
# Poissons Ratio (x) = 0.28494 0.48400
# Poissons Ratio (y) = 0.13043 0.27174
# Poissons Ratio (z) = 0.36936 0.45302
#
# Static dielectric constant tensor:
#      x y z
#    x 2.474860 -0.111270 -0.420940 
#    y -0.111270 1.718030 0.070010 
#    z -0.420940 0.070010 1.946400 
# 
# From -- ./inp_files/241614.got.cif
#   From: 2010.05.17/outbox.cif.g08.bks.cpg/sg2_121_cif.got.tgz:241614.got - 2010.06.03 11:33:40.
