data_PCOD9057571
_publ_section_title
;
Structure prediction by ZEFSAII (Michael W. Deem and Ramdas Pophale) SiO2 
 PCOD9057571
Probable space group: P -1
;
_chemical_formula_sum "Si O2"
_cell_formula_units_Z 15
_cell_length_a 12.873104
_cell_length_b 8.513998
_cell_length_c 11.224604
_cell_angle_alpha 76.251429
_cell_angle_beta 146.551843
_cell_angle_gamma 90.341927
_cell_volume 614.686425
_symmetry_space_group_name_H-M "P -1"
_symmetry_group_IT_number 2
_symmetry_cell_setting 'triclinic'
loop_
_space_group_symop_operation_xyz
x,y,z
-x,-y,-z
loop_
_atom_site_type_symbol
_atom_site_label
_atom_site_fract_x
_atom_site_fract_y
_atom_site_fract_z
Si Si1 0.911699 0.639827 0.496179
Si Si2 0.744687 0.069499 0.000347
Si Si3 0.429837 0.476347 0.806237
Si Si4 0.233051 0.454728 0.025657
Si Si5 0.734179 0.378129 0.759943
Si Si6 0.000000 0.000000 0.500000
Si Si7 0.860147 0.202498 0.661016
Si Si8 0.476565 0.942955 0.623050
O O1 0.675309 0.665421 0.273663
O O2 0.000000 0.500000 0.500000
O O3 0.953989 0.816715 0.492501
O O4 0.031887 0.534682 0.743711
O O5 0.759282 0.216997 0.899107
O O6 0.824243 0.073910 0.209596
O O7 0.913257 0.895069 0.140718
O O8 0.533208 0.050471 0.762805
O O9 0.610774 0.457895 0.892669
O O10 0.255449 0.656682 0.572422
O O11 0.500000 0.500000 0.000000
O O12 0.181818 0.500500 0.105055
O O13 0.369305 0.254346 0.180672
O O14 0.500000 0.500000 0.500000
O O15 0.826736 0.300058 0.737041
O O16 0.745720 0.064987 0.577230
O O17 0.500000 0.000000 0.500000
#
# Coordination Sequence:
#
# PCOD9057571 Si02
#       8
#     2   2   2   2   2   1   2   2
#     4  12  24  47  74 104 151 197 248 314 380 441
#     4  12  26  48  71 107 150 188 251 311 368 455
#     4  11  23  41  73 105 139 197 250 296 376 450
#     4  11  23  44  68 103 147 190 243 307 370 451
#     4  12  22  46  73 100 151 189 238 316 369 443
#     4  12  28  48  76 112 150 202 252 310 382 454
#     4  11  25  45  72 108 146 197 247 304 382 449
#     4  11  22  42  75 105 143 197 246 305 381 436
#
# _framework density 24.402685999999999
#
# number of rings (size 3 to 8) (size 9 to 14) (size 15 to 20)
#    0.000    0.533    6.667    2.800    1.867    0.000 
#    2.400    5.333    0.000    0.000    0.000    0.000 
#    0.000    0.000    0.000    0.000    0.000    0.000 
#
# Total GULP energy -83673.103654 kJ/mol
# GULP energy per Si atom -5578.206910 kJ/mol
# Density = 2.434714 g / cm^3
# Si number density = 24.402686 Si / 1000 Ang^3
#
#
#
# Elastic Constant Matrix: (Units=GPa)
#
#
# Indices 1 2 3 4 5 6 
#
# 1 72.9844 35.7876 41.6134 24.0903 -5.7431 3.9304
# 2 35.7876 92.5509 34.7561 12.7656 5.8961 23.6195
# 3 41.6134 34.7561 147.6542 13.2963 -28.7613 3.1311
# 4 24.0903 12.7656 13.2963 66.8256 13.6577 3.2356
# 5 -5.7431 5.8961 -28.7613 13.6577 38.7865 -0.2719
# 6 3.9304 23.6195 3.1311 3.2356 -0.2719 34.9926
#
#
#
# Elastic Compliance Matrix: (Units=1/GPa)
#
#
# Indices 1 2 3 4 5 6 
#
# 1 0.021418 -0.007481 -0.002828 -0.006852 0.004649 0.003567
# 2 -0.007481 0.018077 -0.003488 0.001958 -0.007211 -0.011287
# 3 -0.002828 -0.003488 0.010187 -0.002164 0.008442 0.002027
# 4 -0.006852 0.001958 -0.002164 0.019611 -0.009838 -0.002248
# 5 0.004649 -0.007211 0.008442 -0.009838 0.037325 0.004790
# 6 0.003567 -0.011287 0.002027 -0.002248 0.004790 0.035859
#
#
# Mechanical properties :
#
#
# Convention : Reuss Voigt Hill
#
# Bulk Modulus (GPa) = 45.27563 59.72263 52.49913
# Shear Modulus (GPa) = 28.17941 41.52312 34.85127
#
# Velocity S-wave (km/s) = 3.40187 4.12950 3.78322
# Velocity P-wave (km/s) = 5.83302 6.87488 6.37527
#
# Compressibility (1/GPa) = 0.02208694
#
# Stress axis : x y z
#
# Youngs Moduli (GPa) = 46.68987 55.31764 98.16319
#
# Poissons Ratio (x) = 0.41384 0.27763
# Poissons Ratio (y) = 0.34929 0.34243
# Poissons Ratio (z) = 0.13205 0.19297
#
# Static dielectric constant tensor:
#      x y z
#    x 1.936020 -0.056150 -0.048340 
#    y -0.056150 2.042350 0.005010 
#    z -0.048340 0.005010 1.828700 
# 
# From -- ./inp_files/447259.got.cif
#   From: 2010.05.17/outbox.cif.g08.bks.cpg/sg2_224_cif.got.tgz:447259.got - 2010.06.03 11:33:40.
