data_PCOD9057680
_publ_section_title
;
Structure prediction by ZEFSAII (Michael W. Deem and Ramdas Pophale) SiO2 
 PCOD9057680
Probable space group: P -1
;
_chemical_formula_sum "Si O2"
_cell_formula_units_Z 16
_cell_length_a 12.301874
_cell_length_b 8.703356
_cell_length_c 13.299445
_cell_angle_alpha 31.412063
_cell_angle_beta 66.574289
_cell_angle_gamma 73.498885
_cell_volume 676.410582
_symmetry_space_group_name_H-M "P -1"
_symmetry_group_IT_number 2
_symmetry_cell_setting 'triclinic'
loop_
_space_group_symop_operation_xyz
x,y,z
-x,-y,-z
loop_
_atom_site_type_symbol
_atom_site_label
_atom_site_fract_x
_atom_site_fract_y
_atom_site_fract_z
Si Si1 0.901140 0.742817 0.716794
Si Si2 0.700651 0.852603 0.048409
Si Si3 0.250381 0.532960 0.240922
Si Si4 0.245225 0.859629 0.338472
Si Si5 0.041714 0.299396 0.002833
Si Si6 0.599397 0.245801 0.464597
Si Si7 0.352747 0.068757 0.578109
Si Si8 0.873961 0.726069 0.385661
O O1 0.787374 0.647878 0.742663
O O2 0.844483 0.892731 0.749115
O O3 0.000000 0.000000 0.500000
O O4 0.970310 0.456413 0.856395
O O5 0.599952 0.600054 0.261797
O O6 0.819882 0.688182 0.082302
O O7 0.723967 0.118269 0.970912
O O8 0.684622 0.024792 0.852888
O O9 0.355257 0.384637 0.341711
O O10 0.138714 0.440752 0.408757
O O11 0.327325 0.831906 0.421193
O O12 0.169049 0.538843 0.526581
O O13 0.991500 0.952992 0.214046
O O14 0.000000 0.500000 0.000000
O O15 0.466779 0.074872 0.602709
O O16 0.651679 0.160410 0.384002
O O17 0.230857 0.056338 0.690938
#
# Coordination Sequence:
#
# PCOD9057680 Si02
#       8
#     2   2   2   2   2   2   2   2
#     4  12  24  38  63  90 128 170 209 249 314 380
#     4  11  25  41  61  96 127 161 212 256 312 371
#     4   9  22  42  59  90 126 158 206 258 307 371
#     4  11  23  41  64  92 125 167 205 265 308 368
#     4  12  23  37  63  90 125 165 201 257 306 372
#     4  11  22  43  68  89 127 164 213 255 317 371
#     4   9  21  43  66  88 125 170 198 268 313 362
#     4   9  22  41  61  91 125 160 208 253 315 366
#
# _framework density 23.654271999999999
#
# number of rings (size 3 to 8) (size 9 to 14) (size 15 to 20)
#    0.750    0.750    2.500    2.250    3.500    2.500 
#    0.000    3.750    0.000    0.000    0.000    0.000 
#    0.000    0.000    0.000    0.000    0.000    0.000 
#
# Total GULP energy -89269.607039 kJ/mol
# GULP energy per Si atom -5579.350440 kJ/mol
# Density = 2.360043 g / cm^3
# Si number density = 23.654272 Si / 1000 Ang^3
#
#
#
# Elastic Constant Matrix: (Units=GPa)
#
#
# Indices 1 2 3 4 5 6 
#
# 1 74.2425 17.1574 8.9183 -10.8796 0.1777 23.8268
# 2 17.1574 63.0251 6.8516 -17.5134 -2.3496 16.4371
# 3 8.9183 6.8516 75.4206 -20.9334 3.3572 12.3816
# 4 -10.8796 -17.5134 -20.9334 26.9422 1.0130 2.1972
# 5 0.1777 -2.3496 3.3572 1.0130 21.0781 -3.5321
# 6 23.8268 16.4371 12.3816 2.1972 -3.5321 29.8705
#
#
#
# Elastic Compliance Matrix: (Units=1/GPa)
#
#
# Indices 1 2 3 4 5 6 
#
# 1 0.022912 0.005430 0.007183 0.020756 -0.006170 -0.026498
# 2 0.005430 0.028889 0.010053 0.031171 -0.004486 -0.027219
# 3 0.007183 0.010053 0.024462 0.030771 -0.008448 -0.024664
# 4 0.020756 0.031171 0.030771 0.094755 -0.015414 -0.055257
# 5 -0.006170 -0.004486 -0.008448 -0.015414 0.052129 0.018189
# 6 -0.026498 -0.027219 -0.024664 -0.055257 0.018189 0.086031
#
#
# Mechanical properties :
#
#
# Convention : Reuss Voigt Hill
#
# Bulk Modulus (GPa) = 8.22395 30.94921 19.58658
# Shear Modulus (GPa) = 16.42703 27.56224 21.99464
#
# Velocity S-wave (km/s) = 2.63813 3.41722 3.05263
# Velocity P-wave (km/s) = 3.57266 5.35558 4.55226
#
# Compressibility (1/GPa) = 0.12159606
#
# Stress axis : x y z
#
# Youngs Moduli (GPa) = 43.64517 34.61542 40.87972
#
# Poissons Ratio (x) = -0.18797 -0.29364
# Poissons Ratio (y) = -0.23700 -0.41098
# Poissons Ratio (z) = -0.31351 -0.34800
#
# Static dielectric constant tensor:
#      x y z
#    x 1.959970 0.085320 0.033360 
#    y 0.085320 2.146660 -0.011880 
#    z 0.033360 -0.011880 1.891340 
# 
# From -- ./inp_files/528032.got.cif
#   From: 2010.05.17/outbox.cif.g08.bks.cpg/sg2_265_cif.got.tgz:528032.got - 2010.06.03 11:33:40.
