data_PCOD9057079
_publ_section_title
;
Structure prediction by ZEFSAII (Michael W. Deem and Ramdas Pophale) SiO2 
 PCOD9057079
Probable space group: P -1
;
_chemical_formula_sum "Si O2"
_cell_formula_units_Z 16
_cell_length_a 18.825227
_cell_length_b 10.938858
_cell_length_c 5.012164
_cell_angle_alpha 63.417823
_cell_angle_beta 104.955863
_cell_angle_gamma 124.486905
_cell_volume 760.800202
_symmetry_space_group_name_H-M "P -1"
_symmetry_group_IT_number 2
_symmetry_cell_setting 'triclinic'
loop_
_space_group_symop_operation_xyz
x,y,z
-x,-y,-z
loop_
_atom_site_type_symbol
_atom_site_label
_atom_site_fract_x
_atom_site_fract_y
_atom_site_fract_z
Si Si1 0.138128 0.564105 0.601868
Si Si2 0.043222 0.754774 0.364405
Si Si3 0.440453 0.819007 0.023671
Si Si4 0.245885 0.588435 0.184964
Si Si5 0.745751 0.730965 0.562966
Si Si6 0.517749 0.302648 0.317548
Si Si7 0.071498 0.959363 0.690029
Si Si8 0.360249 0.318707 0.988117
O O1 0.105210 0.687359 0.426104
O O2 0.212971 0.599223 0.432681
O O3 0.054809 0.389874 0.630732
O O4 0.174865 0.570222 0.923775
O O5 0.058281 0.818361 0.617599
O O6 0.061677 0.896565 0.042165
O O7 0.339258 0.740634 0.057875
O O8 0.469142 0.721320 0.338110
O O9 0.455565 0.794995 0.754864
O O10 0.500000 0.000000 0.000000
O O11 0.252923 0.430927 0.322875
O O12 0.718634 0.737490 0.831478
O O13 0.836633 0.883611 0.427137
O O14 0.674532 0.724971 0.301647
O O15 0.421355 0.255130 0.200770
O O16 0.581342 0.488714 0.126528
O O17 0.000000 0.000000 0.500000
#
# Coordination Sequence:
#
# PCOD9057079 Si02
#       8
#     2   2   2   2   2   2   2   2
#     4  11  24  43  71  93 127 181 211 267 307 383
#     4  11  24  46  65  97 136 167 220 255 324 385
#     4  12  25  45  64  96 134 169 214 273 319 388
#     4  12  23  43  67  97 125 169 229 256 319 383
#     4  12  23  41  66  97 131 167 219 270 318 379
#     4  11  22  44  67  93 127 167 218 263 332 380
#     4  12  25  43  66 100 136 170 206 270 329 378
#     4  11  22  41  69  93 125 170 215 272 313 388
#
# _framework density 21.030488999999999
#
# number of rings (size 3 to 8) (size 9 to 14) (size 15 to 20)
#    0.000    0.500    2.500    6.750    0.000    4.000 
#   13.500    0.000    0.000    0.000    0.000    0.000 
#    0.000    0.000    0.000    0.000    0.000    0.000 
#
# Total GULP energy -89595.486578 kJ/mol
# GULP energy per Si atom -5599.717911 kJ/mol
# Density = 2.098262 g / cm^3
# Si number density = 21.030489 Si / 1000 Ang^3
#
#
#
# Elastic Constant Matrix: (Units=GPa)
#
#
# Indices 1 2 3 4 5 6 
#
# 1 59.2137 4.3305 -5.1303 -21.4750 0.9387 9.9656
# 2 4.3305 77.6438 -15.8403 -5.1219 3.9139 18.2962
# 3 -5.1303 -15.8403 60.5946 13.2901 5.6019 5.8827
# 4 -21.4750 -5.1219 13.2901 23.6781 0.1445 -2.4425
# 5 0.9387 3.9139 5.6019 0.1445 26.3489 16.7039
# 6 9.9656 18.2962 5.8827 -2.4425 16.7039 26.3725
#
#
#
# Elastic Compliance Matrix: (Units=1/GPa)
#
#
# Indices 1 2 3 4 5 6 
#
# 1 0.028260 0.002945 -0.001753 0.025616 0.008524 -0.015358
# 2 0.002945 0.018509 0.006048 0.001056 0.009179 -0.021019
# 3 -0.001753 0.006048 0.021822 -0.013613 0.001211 -0.010429
# 4 0.025616 0.001056 -0.013613 0.073056 0.003025 -0.002526
# 5 0.008524 0.009179 0.001211 0.003025 0.070319 -0.054118
# 6 -0.015358 -0.021019 -0.010429 -0.002526 -0.054118 0.094674
#
#
# Mechanical properties :
#
#
# Convention : Reuss Voigt Hill
#
# Bulk Modulus (GPa) = 12.03759 18.24133 15.13946
# Shear Modulus (GPa) = 15.63240 29.55270 22.59255
#
# Velocity S-wave (km/s) = 2.72935 3.75271 3.28117
# Velocity P-wave (km/s) = 3.95838 5.24115 4.64427
#
# Compressibility (1/GPa) = 0.08307310
#
# Stress axis : x y z
#
# Youngs Moduli (GPa) = 35.38535 54.02811 45.82514
#
# Poissons Ratio (x) = -0.15913 0.08031
# Poissons Ratio (y) = -0.10422 -0.27716
# Poissons Ratio (z) = 0.06202 -0.32678
#
# Static dielectric constant tensor:
#      x y z
#    x 1.743240 0.044330 0.023470 
#    y 0.044330 1.886200 0.011900 
#    z 0.023470 0.011900 1.726330 
# 
# From -- ./inp_files/109527.got.cif
#   From: 2010.05.17/outbox.cif.g08.bks.cpg/sg2_55_cif.got.tgz:109527.got - 2010.06.03 11:33:40.
