data_PCOD9057938
_publ_section_title
;
Structure prediction by ZEFSAII (Michael W. Deem and Ramdas Pophale) SiO2 
 PCOD9057938
Probable space group: P -1
;
_chemical_formula_sum "Si O2"
_cell_formula_units_Z 16
_cell_length_a 28.694853
_cell_length_b 15.313524
_cell_length_c 5.162954
_cell_angle_alpha 73.924973
_cell_angle_beta 82.317141
_cell_angle_gamma 17.297711
_cell_volume 576.413977
_symmetry_space_group_name_H-M "P -1"
_symmetry_group_IT_number 2
_symmetry_cell_setting 'triclinic'
loop_
_space_group_symop_operation_xyz
x,y,z
-x,-y,-z
loop_
_atom_site_type_symbol
_atom_site_label
_atom_site_fract_x
_atom_site_fract_y
_atom_site_fract_z
Si Si1 0.117045 0.428723 0.427876
Si Si2 0.047934 0.124898 0.433698
Si Si3 0.646478 0.486757 0.947057
Si Si4 0.614932 0.024684 0.853837
Si Si5 0.793133 0.384074 0.745536
Si Si6 0.155652 0.190843 0.931899
Si Si7 0.340675 0.684130 0.305629
Si Si8 0.266033 0.392973 0.916148
O O1 0.072342 0.602230 0.482922
O O2 0.937423 0.706897 0.277754
O O3 0.219100 0.255590 0.224553
O O4 0.207268 0.187134 0.752501
O O5 0.929586 0.287704 0.195168
O O6 0.199445 0.784767 0.736022
O O7 0.154281 0.004622 0.308573
O O8 0.451991 0.863437 0.888810
O O9 0.709833 0.439509 0.723068
O O10 0.658957 0.360765 0.942648
O O11 0.483728 0.351901 0.604703
O O12 0.611409 0.923026 0.879685
O O13 0.697792 0.605783 0.882004
O O14 0.750802 0.523953 0.412915
O O15 0.000000 0.000000 0.000000
O O16 0.328384 0.815459 0.210129
O O17 0.000000 0.500000 0.000000
#
# Coordination Sequence:
#
# PCOD9057938 Si02
#       8
#     2   2   2   2   2   2   2   2
#     4  11  24  44  74 111 141 190 249 305 366 445
#     4  11  22  43  76 102 143 194 253 303 363 440
#     4  11  26  45  71 105 149 199 242 307 375 444
#     4  11  29  44  69 107 153 201 237 297 387 450
#     4  12  26  46  76 112 146 192 264 321 366 428
#     4  11  23  44  78 110 140 186 253 310 364 434
#     4  11  24  46  70 105 149 195 245 301 377 446
#     4  12  27  46  76 110 147 199 255 313 368 444
#
# _framework density 27.757825
#
# number of rings (size 3 to 8) (size 9 to 14) (size 15 to 20)
#    0.000    0.750    3.750    2.625    7.000    1.500 
#    0.000    1.250    0.000    0.000    0.000    0.000 
#    0.000    0.000    0.000    0.000    0.000    0.000 
#
# Total GULP energy -89452.310096 kJ/mol
# GULP energy per Si atom -5590.769381 kJ/mol
# Density = 2.769465 g / cm^3
# Si number density = 27.757825 Si / 1000 Ang^3
#
#
#
# Elastic Constant Matrix: (Units=GPa)
#
#
# Indices 1 2 3 4 5 6 
#
# 1 115.8571 50.0988 30.5031 8.0828 -28.1652 18.2570
# 2 50.0988 152.1010 40.4041 10.2496 -9.3040 6.3436
# 3 30.5031 40.4041 118.5396 1.9683 -26.7959 3.3664
# 4 8.0828 10.2496 1.9683 51.0771 7.7415 -0.5988
# 5 -28.1652 -9.3040 -26.7959 7.7415 54.2068 4.0155
# 6 18.2570 6.3436 3.3664 -0.5988 4.0155 43.1955
#
#
#
# Elastic Compliance Matrix: (Units=1/GPa)
#
#
# Indices 1 2 3 4 5 6 
#
# 1 0.012840 -0.003301 -0.000484 -0.002420 0.006623 -0.005554
# 2 -0.003301 0.008215 -0.002252 -0.000831 -0.001335 0.000477
# 3 -0.000484 -0.002252 0.010408 -0.000585 0.004643 -0.000716
# 4 -0.002420 -0.000831 -0.000585 0.020903 -0.004817 0.001928
# 5 0.006623 -0.001335 0.004643 -0.004817 0.025040 -0.005360
# 6 -0.005554 0.000477 -0.000716 0.001928 -0.005360 0.026009
#
#
# Mechanical properties :
#
#
# Convention : Reuss Voigt Hill
#
# Bulk Modulus (GPa) = 51.57668 69.83442 60.70555
# Shear Modulus (GPa) = 41.00003 47.39531 44.19767
#
# Velocity S-wave (km/s) = 3.84743 4.13662 3.99464
# Velocity P-wave (km/s) = 6.19340 6.93027 6.57217
#
# Compressibility (1/GPa) = 0.01938861
#
# Stress axis : x y z
#
# Youngs Moduli (GPa) = 77.88097 121.73566 96.08165
#
# Poissons Ratio (x) = 0.40184 0.04650
# Poissons Ratio (y) = 0.25708 0.21638
# Poissons Ratio (z) = 0.03769 0.27415
#
# Static dielectric constant tensor:
#      x y z
#    x 2.135370 0.000580 0.058850 
#    y 0.000580 2.220730 -0.100930 
#    z 0.058850 -0.100930 2.334790 
# 
# From -- ./inp_files/127128.got.cif
#   From: 2010.05.17/outbox.cif.g08.bks.cpg/sg2_64_cif.got.tgz:127128.got - 2010.06.03 11:33:40.
