data_PCOD9057404
_publ_section_title
;
Structure prediction by ZEFSAII (Michael W. Deem and Ramdas Pophale) SiO2 
 PCOD9057404
Probable space group: P -1
;
_chemical_formula_sum "Si O2"
_cell_formula_units_Z 16
_cell_length_a 9.241641
_cell_length_b 15.307216
_cell_length_c 12.483955
_cell_angle_alpha 105.001383
_cell_angle_beta 29.868620
_cell_angle_gamma 94.603075
_cell_volume 810.458477
_symmetry_space_group_name_H-M "P -1"
_symmetry_group_IT_number 2
_symmetry_cell_setting 'triclinic'
loop_
_space_group_symop_operation_xyz
x,y,z
-x,-y,-z
loop_
_atom_site_type_symbol
_atom_site_label
_atom_site_fract_x
_atom_site_fract_y
_atom_site_fract_z
Si Si1 0.977694 0.954597 0.616074
Si Si2 0.561113 0.132877 0.052804
Si Si3 0.234970 0.739818 0.861979
Si Si4 0.351747 0.277635 0.047788
Si Si5 0.659093 0.526577 0.793763
Si Si6 0.683775 0.478291 0.196590
Si Si7 0.355409 0.675672 0.540343
Si Si8 0.544008 0.787397 0.266576
O O1 0.743395 0.893368 0.730289
O O2 0.292190 0.888325 0.443188
O O3 0.000000 0.000000 0.500000
O O4 0.824695 0.036350 0.826550
O O5 0.650213 0.199440 0.104972
O O6 0.488292 0.186172 0.002914
O O7 0.271549 0.631608 0.841212
O O8 0.413695 0.721096 0.628873
O O9 0.885267 0.791833 0.068889
O O10 0.392321 0.363957 0.115693
O O11 0.998037 0.295477 0.254883
O O12 0.492983 0.266047 0.836025
O O13 0.455810 0.502653 0.825332
O O14 0.000000 0.500000 0.500000
O O15 0.500000 0.500000 0.000000
O O16 0.470268 0.561531 0.433653
O O17 0.000000 0.500000 0.000000
O O18 0.499615 0.722129 0.370341
#
# Coordination Sequence:
#
# PCOD9057404 Si02
#       8
#     2   2   2   2   2   2   2   2
#     4  11  24  45  75  97 131 172 227 297 358 426
#     4  11  24  44  68 105 129 171 232 288 357 419
#     4  11  26  42  66 101 141 179 225 282 347 426
#     4  11  22  42  69  96 138 178 240 289 348 418
#     4  12  27  44  70 106 143 195 251 303 349 425
#     4  12  24  44  65 102 145 191 238 281 352 422
#     4  11  23  42  67  95 142 188 225 281 349 419
#     4  11  23  44  69  99 132 182 226 284 355 422
#
# _framework density 19.741913
#
# number of rings (size 3 to 8) (size 9 to 14) (size 15 to 20)
#    0.000    0.750    6.250    1.125    1.750    2.500 
#    2.250    1.250    0.000    0.000    0.000    0.000 
#    0.000    0.000    0.000    0.000    0.000    0.000 
#
# Total GULP energy -89100.348256 kJ/mol
# GULP energy per Si atom -5568.771766 kJ/mol
# Density = 1.969698 g / cm^3
# Si number density = 19.741913 Si / 1000 Ang^3
#
#
#
# Elastic Constant Matrix: (Units=GPa)
#
#
# Indices 1 2 3 4 5 6 
#
# 1 135.5158 55.7469 61.7665 4.9813 10.3860 7.3708
# 2 55.7469 99.0708 43.9493 4.4420 8.0515 0.9628
# 3 61.7665 43.9493 91.6310 10.6801 7.6478 -5.7592
# 4 4.9813 4.4420 10.6801 38.3250 -10.5996 5.0179
# 5 10.3860 8.0515 7.6478 -10.5996 30.9838 2.4504
# 6 7.3708 0.9628 -5.7592 5.0179 2.4504 37.8843
#
#
#
# Elastic Compliance Matrix: (Units=1/GPa)
#
#
# Indices 1 2 3 4 5 6 
#
# 1 0.012199 -0.003869 -0.006609 0.000898 -0.000881 -0.003342
# 2 -0.003869 0.014204 -0.004028 -0.000440 -0.001545 -0.000062
# 3 -0.006609 -0.004028 0.018573 -0.005530 -0.003624 0.005178
# 4 0.000898 -0.000440 -0.005530 0.031827 0.012543 -0.006031
# 5 -0.000881 -0.001545 -0.003624 0.012543 0.038513 -0.004493
# 6 -0.003342 -0.000062 0.005178 -0.006031 -0.004493 0.028925
#
#
# Mechanical properties :
#
#
# Convention : Reuss Voigt Hill
#
# Bulk Modulus (GPa) = 62.64188 72.12697 67.38442
# Shear Modulus (GPa) = 27.99975 32.42229 30.21102
#
# Velocity S-wave (km/s) = 3.77010 4.05694 3.91615
# Velocity P-wave (km/s) = 7.12396 7.65240 7.39291
#
# Compressibility (1/GPa) = 0.01596376
#
# Stress axis : x y z
#
# Youngs Moduli (GPa) = 81.97232 70.40385 53.84225
#
# Poissons Ratio (x) = 0.27239 0.35583
# Poissons Ratio (y) = 0.31714 0.21689
# Poissons Ratio (z) = 0.54174 0.28361
#
# Static dielectric constant tensor:
#      x y z
#    x 1.906960 0.014600 -0.100710 
#    y 0.014600 1.693700 -0.027280 
#    z -0.100710 -0.027280 1.868290 
# 
# From -- ./inp_files/37257.got.cif
#   From: 2010.05.17/outbox.cif.g08.bks.cpg/sg2_19_cif.got.tgz:37257.got - 2010.06.03 11:33:40.
