data_PCOD9057764
_publ_section_title
;
Structure prediction by ZEFSAII (Michael W. Deem and Ramdas Pophale) SiO2 
 PCOD9057764
Probable space group: P -1
;
_chemical_formula_sum "Si O2"
_cell_formula_units_Z 16
_cell_length_a 16.139599
_cell_length_b 9.901044
_cell_length_c 6.651280
_cell_angle_alpha 45.158285
_cell_angle_beta 93.696285
_cell_angle_gamma 88.189546
_cell_volume 747.593828
_symmetry_space_group_name_H-M "P -1"
_symmetry_group_IT_number 2
_symmetry_cell_setting 'triclinic'
loop_
_space_group_symop_operation_xyz
x,y,z
-x,-y,-z
loop_
_atom_site_type_symbol
_atom_site_label
_atom_site_fract_x
_atom_site_fract_y
_atom_site_fract_z
Si Si1 0.243530 0.058163 0.941179
Si Si2 0.897539 0.052237 0.256093
Si Si3 0.349770 0.170968 0.477754
Si Si4 0.514745 0.558938 0.664778
Si Si5 0.414114 0.787690 0.711212
Si Si6 0.210364 0.352847 0.948245
Si Si7 0.971585 0.704566 0.875641
Si Si8 0.233343 0.778941 0.605128
O O1 0.313105 0.064297 0.774042
O O2 0.236046 0.266123 0.826862
O O3 0.161131 0.002608 0.874300
O O4 0.254303 0.915509 0.281904
O O5 0.838072 0.124558 0.359552
O O6 0.957656 0.217530 0.055841
O O7 0.954976 0.861456 0.531845
O O8 0.402928 0.335854 0.391256
O O9 0.408596 0.010650 0.530881
O O10 0.274218 0.256920 0.229926
O O11 0.500000 0.500000 0.500000
O O12 0.440595 0.713393 0.571400
O O13 0.523312 0.357046 0.996850
O O14 0.319462 0.741418 0.780467
O O15 0.210124 0.579217 0.727274
O O16 0.117308 0.301429 0.027730
O O17 0.000000 0.500000 0.000000
#
# Coordination Sequence:
#
# PCOD9057764 Si02
#       8
#     2   2   2   2   2   2   2   2
#     4  12  25  42  70 105 130 177 237 277 330 404
#     4  11  24  44  68  98 139 179 227 284 335 398
#     4  12  25  47  73  94 141 179 226 278 336 406
#     4  11  28  44  69 106 138 173 224 279 337 405
#     4  11  24  46  70  99 138 176 222 278 342 396
#     4  12  25  44  70 101 132 184 230 277 339 401
#     4  11  22  43  70  95 139 184 221 279 348 394
#     4  12  24  45  72  98 137 180 225 285 337 395
#
# _framework density 21.401999
#
# number of rings (size 3 to 8) (size 9 to 14) (size 15 to 20)
#    0.000    0.500    7.500    0.375    3.500    3.000 
#    0.000    1.250    0.000    0.000    0.000    0.000 
#    0.000    0.000    0.000    0.000    0.000    0.000 
#
# Total GULP energy -89419.005578 kJ/mol
# GULP energy per Si atom -5588.687849 kJ/mol
# Density = 2.135329 g / cm^3
# Si number density = 21.401999 Si / 1000 Ang^3
#
#
#
# Elastic Constant Matrix: (Units=GPa)
#
#
# Indices 1 2 3 4 5 6 
#
# 1 101.3491 39.5394 11.2488 3.6467 0.6967 -2.0709
# 2 39.5394 176.3826 49.1386 -2.7648 5.1475 -0.9579
# 3 11.2488 49.1386 44.4161 -8.2783 4.2752 -6.4442
# 4 3.6467 -2.7648 -8.2783 33.0782 0.7800 -2.8336
# 5 0.6967 5.1475 4.2752 0.7800 22.9129 -7.2763
# 6 -2.0709 -0.9579 -6.4442 -2.8336 -7.2763 40.2171
#
#
#
# Elastic Compliance Matrix: (Units=1/GPa)
#
#
# Indices 1 2 3 4 5 6 
#
# 1 0.010892 -0.002364 -0.000401 -0.001474 0.000458 0.000419
# 2 -0.002364 0.008889 -0.009713 -0.001557 -0.000595 -0.001684
# 3 -0.000401 -0.009713 0.036114 0.008822 -0.003065 0.005602
# 4 -0.001474 -0.001557 0.008822 0.032791 -0.001295 0.003377
# 5 0.000458 -0.000595 -0.003065 -0.001295 0.046891 0.007911
# 6 0.000419 -0.001684 0.005602 0.003377 0.007911 0.027413
#
#
# Mechanical properties :
#
#
# Convention : Reuss Voigt Hill
#
# Bulk Modulus (GPa) = 32.32163 58.00016 45.16090
# Shear Modulus (GPa) = 25.21942 34.05639 29.63791
#
# Velocity S-wave (km/s) = 3.43646 3.99340 3.72535
# Velocity P-wave (km/s) = 5.55703 6.95861 6.29694
#
# Compressibility (1/GPa) = 0.03093904
#
# Stress axis : x y z
#
# Youngs Moduli (GPa) = 91.80917 112.49620 27.69040
#
# Poissons Ratio (x) = 0.26596 0.01110
# Poissons Ratio (y) = 0.21705 0.26895
# Poissons Ratio (z) = 0.03680 1.09266
#
# Static dielectric constant tensor:
#      x y z
#    x 1.812890 -0.005210 -0.009330 
#    y -0.005210 1.795300 -0.010890 
#    z -0.009330 -0.010890 1.773280 
# 
# From -- ./inp_files/106121.got.cif
#   From: 2010.05.17/outbox.cif.g08.bks.cpg/sg2_54_cif.got.tgz:106121.got - 2010.06.03 11:33:40.
