data_PCOD9057137
_publ_section_title
;
Structure prediction by ZEFSAII (Michael W. Deem and Ramdas Pophale) SiO2 
 PCOD9057137
Probable space group: P -1
;
_chemical_formula_sum "Si O2"
_cell_formula_units_Z 15
_cell_length_a 8.819506
_cell_length_b 8.065020
_cell_length_c 14.422373
_cell_angle_alpha 59.426736
_cell_angle_beta 86.604800
_cell_angle_gamma 46.482470
_cell_volume 566.663412
_symmetry_space_group_name_H-M "P -1"
_symmetry_group_IT_number 2
_symmetry_cell_setting 'triclinic'
loop_
_space_group_symop_operation_xyz
x,y,z
-x,-y,-z
loop_
_atom_site_type_symbol
_atom_site_label
_atom_site_fract_x
_atom_site_fract_y
_atom_site_fract_z
Si Si1 0.312544 0.521272 0.839941
Si Si2 0.576517 0.697577 0.897171
Si Si3 0.974842 0.735032 0.261442
Si Si4 0.775342 0.226266 0.874875
Si Si5 0.984809 0.844041 0.423984
Si Si6 0.500000 0.500000 0.500000
Si Si7 0.139693 0.288592 0.226440
Si Si8 0.623137 0.069311 0.517800
O O1 0.582883 0.242294 0.869875
O O2 0.119087 0.540858 0.829258
O O3 0.178140 0.826499 0.706457
O O4 0.347720 0.486218 0.960414
O O5 0.611823 0.537620 0.848230
O O6 0.741576 0.720636 0.861474
O O7 0.300996 0.011301 0.825820
O O8 0.996249 0.684262 0.383709
O O9 0.088858 0.830077 0.203546
O O10 0.111031 0.460305 0.265894
O O11 0.000000 0.000000 0.000000
O O12 0.238566 0.671777 0.491913
O O13 0.857194 0.878033 0.506568
O O14 0.471159 0.410137 0.423771
O O15 0.327666 0.959784 0.362241
O O16 0.500000 0.000000 0.500000
#
# Coordination Sequence:
#
# PCOD9057137 Si02
#       8
#     2   2   2   2   2   1   2   2
#     4  12  24  46  72 107 151 187 244 318 358 449
#     4  11  23  46  70 105 151 192 246 296 377 459
#     4  11  24  45  72 106 144 200 238 300 383 446
#     4  11  22  41  71 103 144 194 246 296 366 449
#     4  12  27  48  77 109 146 197 255 310 374 447
#     4  12  28  50  82 110 148 204 254 316 382 436
#     4  11  27  46  70 107 150 193 247 308 377 445
#     4  12  28  53  76 112 154 198 259 317 373 449
#
# _framework density 26.470739999999999
#
# number of rings (size 3 to 8) (size 9 to 14) (size 15 to 20)
#    0.000    0.533    4.000    3.600    3.733    3.733 
#    4.800    0.000    0.000    0.000    0.000    0.000 
#    0.000    0.000    0.000    0.000    0.000    0.000 
#
# Total GULP energy -83672.578921 kJ/mol
# GULP energy per Si atom -5578.171928 kJ/mol
# Density = 2.641049 g / cm^3
# Si number density = 26.470740 Si / 1000 Ang^3
#
#
#
# Elastic Constant Matrix: (Units=GPa)
#
#
# Indices 1 2 3 4 5 6 
#
# 1 200.4890 60.6937 54.1042 3.9001 19.2320 -63.8486
# 2 60.6937 96.4092 25.5416 15.2162 -0.6089 -37.8017
# 3 54.1042 25.5416 100.3952 3.8604 5.9374 -34.2990
# 4 3.9001 15.2162 3.8604 34.7600 -21.4043 10.1041
# 5 19.2320 -0.6089 5.9374 -21.4043 47.8260 7.1782
# 6 -63.8486 -37.8017 -34.2990 10.1041 7.1782 69.1909
#
#
#
# Elastic Compliance Matrix: (Units=1/GPa)
#
#
# Indices 1 2 3 4 5 6 
#
# 1 0.010166 0.000206 -0.000267 -0.011552 -0.011053 0.012195
# 2 0.000206 0.018952 0.001826 -0.020049 -0.011376 0.015557
# 3 -0.000267 0.001826 0.013785 -0.009683 -0.007380 0.009764
# 4 -0.011552 -0.020049 -0.009683 0.082932 0.049257 -0.043634
# 5 -0.011053 -0.011376 -0.007380 0.049257 0.053089 -0.032773
# 6 0.012195 0.015557 0.009764 -0.043634 -0.032773 0.048818
#
#
# Mechanical properties :
#
#
# Convention : Reuss Voigt Hill
#
# Bulk Modulus (GPa) = 21.53671 75.33028 48.43350
# Shear Modulus (GPa) = 20.86048 47.48565 34.17306
#
# Velocity S-wave (km/s) = 2.81028 4.24003 3.59691
# Velocity P-wave (km/s) = 4.32249 7.24501 5.96549
#
# Compressibility (1/GPa) = 0.04643234
#
# Stress axis : x y z
#
# Youngs Moduli (GPa) = 98.36597 52.76619 72.54515
#
# Poissons Ratio (x) = -0.01085 0.01936
# Poissons Ratio (y) = -0.02023 -0.13249
# Poissons Ratio (z) = 0.02625 -0.09637
#
# Static dielectric constant tensor:
#      x y z
#    x 2.137420 -0.068610 0.144190 
#    y -0.068610 1.975690 0.143250 
#    z 0.144190 0.143250 1.810130 
# 
# From -- ./inp_files/53711.got.cif
#   From: 2010.05.17/outbox.cif.g08.bks.cpg/sg2_27_cif.got.tgz:53711.got - 2010.06.03 11:33:40.
