data_PCOD9057043
_publ_section_title
;
Structure prediction by ZEFSAII (Michael W. Deem and Ramdas Pophale) SiO2 
 PCOD9057043
Probable space group: P -1
;
_chemical_formula_sum "Si O2"
_cell_formula_units_Z 14
_cell_length_a 14.324339
_cell_length_b 8.806929
_cell_length_c 11.008315
_cell_angle_alpha 98.272206
_cell_angle_beta 29.755175
_cell_angle_gamma 86.452999
_cell_volume 630.806754
_symmetry_space_group_name_H-M "P -1"
_symmetry_group_IT_number 2
_symmetry_cell_setting 'triclinic'
loop_
_space_group_symop_operation_xyz
x,y,z
-x,-y,-z
loop_
_atom_site_type_symbol
_atom_site_label
_atom_site_fract_x
_atom_site_fract_y
_atom_site_fract_z
Si Si1 0.750138 0.462911 0.003032
Si Si2 0.628195 0.040352 0.252167
Si Si3 0.719154 0.937586 0.511942
Si Si4 0.306920 0.691155 0.454740
Si Si5 0.155252 0.712917 0.889339
Si Si6 0.059877 0.282852 0.264009
Si Si7 0.939894 0.853516 0.499151
O O1 0.529451 0.555062 0.206988
O O2 0.754822 0.444884 0.141585
O O3 0.117305 0.433353 0.174546
O O4 0.862338 0.278430 0.804659
O O5 0.718144 0.172272 0.210388
O O6 0.500000 0.000000 0.500000
O O7 0.472111 0.099489 0.322917
O O8 0.813389 0.876851 0.979204
O O9 0.681878 0.127408 0.542322
O O10 0.769399 0.913122 0.594742
O O11 0.921411 0.816989 0.200212
O O12 0.181988 0.676601 0.713126
O O13 0.177933 0.676009 0.483647
O O14 0.117519 0.234020 0.332251
O O15 0.000000 0.000000 0.500000
#
# Coordination Sequence:
#
# PCOD9057043 Si02
#       7
#     2   2   2   2   2   2   2
#     4  11  26  43  63  97 133 170 217 268 327 385
#     4  12  22  39  70 100 128 170 218 264 320 385
#     4  11  22  41  68  99 128 173 218 264 323 378
#     4  12  22  41  69  98 133 173 213 266 329 378
#     4  11  23  42  66  99 138 168 215 269 315 392
#     4  12  24  42  67  96 135 172 214 269 322 381
#     4  11  24  47  68  92 129 171 222 274 316 384
#
# _framework density 22.193802000000002
#
# number of rings (size 3 to 8) (size 9 to 14) (size 15 to 20)
#    0.000    0.571    5.714    3.000    0.000    4.000 
#    0.000    0.000    0.000    0.000    0.000    0.000 
#    0.000    0.000    0.000    0.000    0.000    0.000 
#
# Total GULP energy -78419.206447 kJ/mol
# GULP energy per Si atom -5601.371889 kJ/mol
# Density = 2.214329 g / cm^3
# Si number density = 22.193802 Si / 1000 Ang^3
#
#
#
# Elastic Constant Matrix: (Units=GPa)
#
#
# Indices 1 2 3 4 5 6 
#
# 1 90.5159 12.2178 7.5663 10.5104 -16.4919 -20.5779
# 2 12.2178 63.1660 4.6797 4.9816 -4.2080 -20.2785
# 3 7.5663 4.6797 56.6599 21.4384 -24.8381 -5.1983
# 4 10.5104 4.9816 21.4384 30.1605 -9.6831 -6.4220
# 5 -16.4919 -4.2080 -24.8381 -9.6831 41.3812 -7.0718
# 6 -20.5779 -20.2785 -5.1983 -6.4220 -7.0718 35.4971
#
#
#
# Elastic Compliance Matrix: (Units=1/GPa)
#
#
# Indices 1 2 3 4 5 6 
#
# 1 0.015439 0.001451 0.004625 -0.003009 0.010421 0.011988
# 2 0.001451 0.020322 0.002400 -0.000559 0.006341 0.013965
# 3 0.004625 0.002400 0.032594 -0.016921 0.019335 0.009616
# 4 -0.003009 -0.000559 -0.016921 0.047310 0.000356 0.004088
# 5 0.010421 0.006341 0.019335 0.000356 0.044307 0.021387
# 6 0.011988 0.013965 0.009616 0.004088 0.021387 0.049507
#
#
# Mechanical properties :
#
#
# Convention : Reuss Voigt Hill
#
# Bulk Modulus (GPa) = 11.72204 28.80771 20.26488
# Shear Modulus (GPa) = 22.62835 33.79963 28.21399
#
# Velocity S-wave (km/s) = 3.19655 3.90671 3.56933
# Velocity P-wave (km/s) = 4.34937 5.77564 5.11249
#
# Compressibility (1/GPa) = 0.08530935
#
# Stress axis : x y z
#
# Youngs Moduli (GPa) = 64.77176 49.20660 30.68052
#
# Poissons Ratio (x) = -0.07141 -0.14191
# Poissons Ratio (y) = -0.09400 -0.07365
# Poissons Ratio (z) = -0.29959 -0.11812
#
# Static dielectric constant tensor:
#      x y z
#    x 1.825550 -0.030980 0.026650 
#    y -0.030980 1.806070 0.003730 
#    z 0.026650 0.003730 1.802450 
# 
# From -- ./inp_files/411677.got.cif
#   From: 2010.05.17/outbox.cif.g08.bks.cpg/sg2_206_cif.got.tgz:411677.got - 2010.06.03 11:33:40.
