data_PCOD9057161
_publ_section_title
;
Structure prediction by ZEFSAII (Michael W. Deem and Ramdas Pophale) SiO2 
 PCOD9057161
Probable space group: P -1
;
_chemical_formula_sum "Si O2"
_cell_formula_units_Z 14
_cell_length_a 9.051224
_cell_length_b 9.431439
_cell_length_c 22.236778
_cell_angle_alpha 29.699694
_cell_angle_beta 142.231081
_cell_angle_gamma 135.121845
_cell_volume 574.527179
_symmetry_space_group_name_H-M "P -1"
_symmetry_group_IT_number 2
_symmetry_cell_setting 'triclinic'
loop_
_space_group_symop_operation_xyz
x,y,z
-x,-y,-z
loop_
_atom_site_type_symbol
_atom_site_label
_atom_site_fract_x
_atom_site_fract_y
_atom_site_fract_z
Si Si1 0.384244 0.634634 0.469334
Si Si2 0.938159 0.278738 0.238607
Si Si3 0.076872 0.635260 0.540097
Si Si4 0.150859 0.127304 0.174414
Si Si5 0.670780 0.246405 0.046287
Si Si6 0.444792 0.335859 0.355200
Si Si7 0.889730 0.841973 0.083352
O O1 0.500000 0.500000 0.500000
O O2 0.499988 0.553765 0.599685
O O3 0.107683 0.516380 0.418920
O O4 0.361304 0.971778 0.333576
O O5 0.720087 0.247148 0.133752
O O6 0.895950 0.503727 0.194063
O O7 0.173643 0.394404 0.232577
O O8 0.020737 0.969641 0.399834
O O9 0.348911 0.550900 0.665384
O O10 0.000000 0.500000 0.500000
O O11 0.904310 0.108911 0.142004
O O12 0.273179 0.436052 0.080498
O O13 0.070283 0.961901 0.148676
O O14 0.389913 0.121937 0.998731
O O15 0.500000 0.000000 0.500000
O O16 0.000000 0.000000 0.000000
#
# Coordination Sequence:
#
# PCOD9057161 Si02
#       7
#     2   2   2   2   2   2   2
#     4  11  23  40  65  98 136 170 216 281 344 392
#     4  11  22  41  71  99 133 173 233 284 330 400
#     4   9  20  39  64  96 127 179 223 268 330 403
#     4  11  25  47  66 101 142 181 226 278 346 413
#     4  11  25  46  71  99 137 185 228 281 342 404
#     4   9  19  40  63  92 126 172 224 261 324 404
#     4  12  26  44  68 103 134 178 233 281 342 398
#
# _framework density 24.367863
#
# number of rings (size 3 to 8) (size 9 to 14) (size 15 to 20)
#    0.000    1.429    1.429    4.286    2.000    3.429 
#   10.286    3.571    0.000    0.000    0.000    0.000 
#    0.000    0.000    0.000    0.000    0.000    0.000 
#
# Total GULP energy -78171.504671 kJ/mol
# GULP energy per Si atom -5583.678905 kJ/mol
# Density = 2.431240 g / cm^3
# Si number density = 24.367863 Si / 1000 Ang^3
#
#
#
# Elastic Constant Matrix: (Units=GPa)
#
#
# Indices 1 2 3 4 5 6 
#
# 1 118.1459 21.8827 16.8994 -3.3339 12.6853 2.6388
# 2 21.8827 68.5951 4.0451 6.6782 0.1351 -7.4022
# 3 16.8994 4.0451 73.7809 -10.4029 7.1031 2.7782
# 4 -3.3339 6.6782 -10.4029 40.1194 -3.0661 8.3851
# 5 12.6853 0.1351 7.1031 -3.0661 31.6370 -3.5330
# 6 2.6388 -7.4022 2.7782 8.3851 -3.5330 38.2673
#
#
#
# Elastic Compliance Matrix: (Units=1/GPa)
#
#
# Indices 1 2 3 4 5 6 
#
# 1 0.009752 -0.003312 -0.001482 0.001069 -0.003658 -0.001778
# 2 -0.003312 0.016591 -0.001062 -0.004145 0.001604 0.004571
# 3 -0.001482 -0.001062 0.014882 0.004204 -0.002597 -0.002345
# 4 0.001069 -0.004145 0.004204 0.028374 0.000575 -0.007345
# 5 -0.003658 0.001604 -0.002597 0.000575 0.034129 0.003776
# 6 -0.001778 0.004571 -0.002345 -0.007345 0.003776 0.029267
#
#
# Mechanical properties :
#
#
# Convention : Reuss Voigt Hill
#
# Bulk Modulus (GPa) = 33.88362 38.46403 36.17383
# Shear Modulus (GPa) = 32.35265 36.51771 34.43518
#
# Velocity S-wave (km/s) = 3.64768 3.87538 3.76325
# Velocity P-wave (km/s) = 5.62815 5.98696 5.81033
#
# Compressibility (1/GPa) = 0.02951279
#
# Stress axis : x y z
#
# Youngs Moduli (GPa) = 102.53974 60.27235 67.19323
#
# Poissons Ratio (x) = 0.19965 0.09960
# Poissons Ratio (y) = 0.33966 0.07136
# Poissons Ratio (z) = 0.15199 0.06401
#
# Static dielectric constant tensor:
#      x y z
#    x 1.598560 0.820950 1.204310 
#    y 0.820950 0.501210 -2.439770 
#    z 1.204310 -2.439770 -2.158440 
# 
# From -- ./inp_files/606585.got.cif
#   From: 2010.05.17/outbox.cif.g08.bks.cpg/sg2_304_cif.got.tgz:606585.got - 2010.06.03 11:33:40.
