data_PCOD9057978
_publ_section_title
;
Structure prediction by ZEFSAII (Michael W. Deem and Ramdas Pophale) SiO2 
 PCOD9057978
Probable space group: P -1
;
_chemical_formula_sum "Si O2"
_cell_formula_units_Z 13
_cell_length_a 9.616431
_cell_length_b 11.702310
_cell_length_c 8.603972
_cell_angle_alpha 134.668162
_cell_angle_beta 116.985726
_cell_angle_gamma 88.685860
_cell_volume 542.554682
_symmetry_space_group_name_H-M "P -1"
_symmetry_group_IT_number 2
_symmetry_cell_setting 'triclinic'
loop_
_space_group_symop_operation_xyz
x,y,z
-x,-y,-z
loop_
_atom_site_type_symbol
_atom_site_label
_atom_site_fract_x
_atom_site_fract_y
_atom_site_fract_z
Si Si1 0.484189 0.589194 0.913017
Si Si2 0.110709 0.207487 0.714418
Si Si3 0.500000 0.500000 0.500000
Si Si4 0.927374 0.290308 0.461791
Si Si5 0.881648 0.321533 0.921517
Si Si6 0.612097 0.223742 0.441381
Si Si7 0.689474 0.143080 0.918849
O O1 0.408494 0.465842 0.602525
O O2 0.500000 0.500000 0.000000
O O3 0.685000 0.713389 0.074341
O O4 0.392483 0.717901 0.009798
O O5 0.072309 0.236096 0.544540
O O6 0.023684 0.302897 0.868487
O O7 0.000000 0.000000 0.500000
O O8 0.558049 0.343156 0.417625
O O9 0.749577 0.182606 0.372428
O O10 0.858595 0.235807 0.204067
O O11 0.012655 0.502772 0.750351
O O12 0.734420 0.337856 0.756695
O O13 0.768401 0.138373 0.786461
O O14 0.452152 0.044883 0.259325
#
# Coordination Sequence:
#
# PCOD9057978 Si02
#       7
#     2   2   1   2   2   2   2
#     4  12  26  46  72 108 142 188 242 301 353 431
#     4  11  25  44  71  99 145 182 230 297 367 421
#     4  12  24  40  72 104 144 176 248 296 358 410
#     4  11  22  44  67 101 139 191 229 288 365 433
#     4  11  24  46  72 100 143 192 231 289 375 434
#     4  11  23  42  70 101 138 191 237 297 352 431
#     4  12  25  44  74 106 141 185 251 292 354 438
#
# _framework density 23.960719999999998
#
# number of rings (size 3 to 8) (size 9 to 14) (size 15 to 20)
#    0.000    0.615    1.538    8.769    2.154    1.231 
#    0.000    0.769    0.000    0.000    0.000    0.000 
#    0.000    0.000    0.000    0.000    0.000    0.000 
#
# Total GULP energy -72473.657570 kJ/mol
# GULP energy per Si atom -5574.896736 kJ/mol
# Density = 2.390618 g / cm^3
# Si number density = 23.960720 Si / 1000 Ang^3
#
#
#
# Elastic Constant Matrix: (Units=GPa)
#
#
# Indices 1 2 3 4 5 6 
#
# 1 48.2086 6.7768 6.1186 -9.7400 10.5322 8.0817
# 2 6.7768 110.9662 23.8909 -7.8551 0.9368 15.4462
# 3 6.1186 23.8909 69.8885 3.4651 9.7032 -1.4837
# 4 -9.7400 -7.8551 3.4651 33.4826 5.1254 2.5806
# 5 10.5322 0.9368 9.7032 5.1254 26.8363 -4.9411
# 6 8.0817 15.4462 -1.4837 2.5806 -4.9411 46.5488
#
#
#
# Elastic Compliance Matrix: (Units=1/GPa)
#
#
# Indices 1 2 3 4 5 6 
#
# 1 0.027133 0.000473 -0.001341 0.010746 -0.013510 -0.006940
# 2 0.000473 0.010610 -0.003846 0.003415 -0.000549 -0.003973
# 3 -0.001341 -0.003846 0.016527 -0.002438 -0.004538 0.001689
# 4 0.010746 0.003415 -0.002438 0.036300 -0.011551 -0.006315
# 5 -0.013510 -0.000549 -0.004538 -0.011551 0.047925 0.008111
# 6 -0.006940 -0.003973 0.001689 -0.006315 0.008111 0.025271
#
#
# Mechanical properties :
#
#
# Convention : Reuss Voigt Hill
#
# Bulk Modulus (GPa) = 22.30074 33.62623 27.96349
# Shear Modulus (GPa) = 26.57544 34.19202 30.38373
#
# Velocity S-wave (km/s) = 3.33397 3.78167 3.56485
# Velocity P-wave (km/s) = 4.91405 5.75607 5.35165
#
# Compressibility (1/GPa) = 0.04484157
#
# Stress axis : x y z
#
# Youngs Moduli (GPa) = 36.85528 94.24797 60.50530
#
# Poissons Ratio (x) = -0.04453 0.08116
# Poissons Ratio (y) = -0.01742 0.23270
# Poissons Ratio (z) = 0.04944 0.36246
#
# Static dielectric constant tensor:
#      x y z
#    x 1.957310 0.018170 -0.009540 
#    y 0.018170 2.047600 -0.017210 
#    z -0.009540 -0.017210 2.095070 
# 
# From -- ./inp_files/183427.got.cif
#   From: 2010.05.17/outbox.cif.g08.bks.cpg/sg2_92_cif.got.tgz:183427.got - 2010.06.03 11:33:40.
