data_PCOD9057530
_publ_section_title
;
Structure prediction by ZEFSAII (Michael W. Deem and Ramdas Pophale) SiO2 
 PCOD9057530
Probable space group: P -1
;
_chemical_formula_sum "Si O2"
_cell_formula_units_Z 16
_cell_length_a 8.143264
_cell_length_b 9.879392
_cell_length_c 9.475468
_cell_angle_alpha 74.231448
_cell_angle_beta 115.376850
_cell_angle_gamma 109.156169
_cell_volume 642.888681
_symmetry_space_group_name_H-M "P -1"
_symmetry_group_IT_number 2
_symmetry_cell_setting 'triclinic'
loop_
_space_group_symop_operation_xyz
x,y,z
-x,-y,-z
loop_
_atom_site_type_symbol
_atom_site_label
_atom_site_fract_x
_atom_site_fract_y
_atom_site_fract_z
Si Si1 0.694528 0.444746 0.867706
Si Si2 0.686121 0.772258 0.313351
Si Si3 0.931118 0.271304 0.529568
Si Si4 0.924044 0.251807 0.863568
Si Si5 0.723787 0.046745 0.076648
Si Si6 0.703971 0.307438 0.191093
Si Si7 0.690499 0.960100 0.532686
Si Si8 0.285729 0.243246 0.161928
O O1 0.500636 0.333442 0.784509
O O2 0.858885 0.384119 0.876714
O O3 0.695991 0.608019 0.786251
O O4 0.707278 0.433316 0.044863
O O5 0.642967 0.848731 0.418160
O O6 0.848500 0.691140 0.423979
O O7 0.771961 0.905335 0.200164
O O8 0.893104 0.270331 0.682192
O O9 0.826691 0.356625 0.361126
O O10 0.838567 0.104495 0.499245
O O11 0.800383 0.106587 0.935336
O O12 0.131944 0.245352 0.986503
O O13 0.773203 0.184905 0.161223
O O14 0.500000 0.000000 0.000000
O O15 0.489051 0.244154 0.175255
O O16 0.772767 0.887704 0.713602
O O17 0.500000 0.000000 0.500000
#
# Coordination Sequence:
#
# PCOD9057530 Si02
#       8
#     2   2   2   2   2   2   2   2
#     4  11  26  48  71  97 141 193 234 278 342 421
#     4  12  24  44  71 102 143 186 232 283 354 413
#     4  12  26  43  72 109 139 175 234 295 352 407
#     4  11  26  44  71 106 138 184 234 290 344 413
#     4  11  22  42  73 100 141 179 231 288 351 412
#     4  11  24  44  71 100 142 183 227 291 344 411
#     4  12  25  43  74 107 144 175 229 300 355 405
#     4  12  26  46  72 100 141 188 238 278 347 419
#
# _framework density 24.88767
#
# number of rings (size 3 to 8) (size 9 to 14) (size 15 to 20)
#    0.000    0.500    5.000    3.375    5.250    1.500 
#    0.000    1.250    0.000    0.000    0.000    0.000 
#    0.000    0.000    0.000    0.000    0.000    0.000 
#
# Total GULP energy -89734.826223 kJ/mol
# GULP energy per Si atom -5608.426639 kJ/mol
# Density = 2.483102 g / cm^3
# Si number density = 24.887670 Si / 1000 Ang^3
#
#
#
# Elastic Constant Matrix: (Units=GPa)
#
#
# Indices 1 2 3 4 5 6 
#
# 1 109.3687 9.0644 58.2505 13.5510 2.7890 2.1393
# 2 9.0644 57.4540 19.4198 4.2978 -3.9157 -8.6536
# 3 58.2505 19.4198 165.8620 22.3241 -6.7477 -0.2054
# 4 13.5510 4.2978 22.3241 14.9709 2.0310 3.2166
# 5 2.7890 -3.9157 -6.7477 2.0310 41.1494 8.3433
# 6 2.1393 -8.6536 -0.2054 3.2166 8.3433 25.7983
#
#
#
# Elastic Compliance Matrix: (Units=1/GPa)
#
#
# Indices 1 2 3 4 5 6 
#
# 1 0.011658 -0.000397 -0.003393 -0.005204 -0.001103 -0.000121
# 2 -0.000397 0.019388 -0.001494 -0.004531 0.000442 0.006946
# 3 -0.003393 -0.001494 0.008824 -0.010022 0.001933 0.000475
# 4 -0.005204 -0.004531 -0.010022 0.090692 -0.003926 -0.011206
# 5 -0.001103 0.000442 0.001933 -0.003926 0.026517 -0.007831
# 6 -0.000121 0.006946 0.000475 -0.011206 -0.007831 0.045036
#
#
# Mechanical properties :
#
#
# Convention : Reuss Voigt Hill
#
# Bulk Modulus (GPa) = 34.12600 56.23936 45.18268
# Shear Modulus (GPa) = 22.47689 32.78038 27.62864
#
# Velocity S-wave (km/s) = 3.00848 3.63317 3.33548
# Velocity P-wave (km/s) = 5.08032 6.34399 5.74700
#
# Compressibility (1/GPa) = 0.02930317
#
# Stress axis : x y z
#
# Youngs Moduli (GPa) = 85.77459 51.57775 113.33177
#
# Poissons Ratio (x) = 0.02046 0.38448
# Poissons Ratio (y) = 0.03403 0.16935
# Poissons Ratio (z) = 0.29099 0.07707
#
# Static dielectric constant tensor:
#      x y z
#    x 1.968980 -0.031890 0.018160 
#    y -0.031890 1.960500 0.001170 
#    z 0.018160 0.001170 1.974850 
# 
# From -- ./inp_files/186155.got.cif
#   From: 2010.05.17/outbox.cif.g08.bks.cpg/sg2_94_cif.got.tgz:186155.got - 2010.06.03 11:33:40.
