data_PCOD9057289
_publ_section_title
;
Structure prediction by ZEFSAII (Michael W. Deem and Ramdas Pophale) SiO2 
 PCOD9057289
Probable space group: P -1
;
_chemical_formula_sum "Si O2"
_cell_formula_units_Z 16
_cell_length_a 13.184388
_cell_length_b 12.265042
_cell_length_c 9.561441
_cell_angle_alpha 36.696001
_cell_angle_beta 131.782845
_cell_angle_gamma 133.282173
_cell_volume 648.004029
_symmetry_space_group_name_H-M "P -1"
_symmetry_group_IT_number 2
_symmetry_cell_setting 'triclinic'
loop_
_space_group_symop_operation_xyz
x,y,z
-x,-y,-z
loop_
_atom_site_type_symbol
_atom_site_label
_atom_site_fract_x
_atom_site_fract_y
_atom_site_fract_z
Si Si1 0.923172 0.413981 0.845645
Si Si2 0.125000 0.915214 0.669582
Si Si3 0.518266 0.063873 0.262260
Si Si4 0.561675 0.330567 0.268724
Si Si5 0.638461 0.466307 0.492444
Si Si6 0.573969 0.818834 0.206079
Si Si7 0.953176 0.180118 0.597217
Si Si8 0.169702 0.950939 0.075818
O O1 0.780984 0.464903 0.700339
O O2 0.014955 0.598359 0.648495
O O3 0.888617 0.230214 0.896419
O O4 0.946090 0.307766 0.117390
O O5 0.148075 0.933341 0.506063
O O6 0.271101 0.028219 0.769809
O O7 0.000000 0.000000 0.500000
O O8 0.603132 0.248704 0.246360
O O9 0.538204 0.871930 0.542851
O O10 0.344034 0.022188 0.163217
O O11 0.529895 0.103855 0.066140
O O12 0.664021 0.427898 0.393081
O O13 0.500000 0.500000 0.000000
O O14 0.601980 0.655362 0.301645
O O15 0.508035 0.292930 0.618795
O O16 0.883205 0.125050 0.739928
O O17 0.095597 0.112081 0.802573
#
# Coordination Sequence:
#
# PCOD9057289 Si02
#       8
#     2   2   2   2   2   2   2   2
#     4  12  23  45  72  95 135 180 220 276 337 397
#     4  12  23  44  69  98 137 177 222 279 329 392
#     4  11  22  42  66  93 133 171 220 269 330 393
#     4  11  23  39  65  94 128 172 219 270 325 391
#     4  11  24  44  69 101 133 181 221 277 335 396
#     4  11  24  44  69  99 138 175 229 270 335 403
#     4  11  26  42  70 101 135 170 227 273 334 394
#     4  11  23  46  67  99 131 178 214 280 335 396
#
# _framework density 24.691205
#
# number of rings (size 3 to 8) (size 9 to 14) (size 15 to 20)
#    0.000    0.750    5.000    2.250    1.750    2.000 
#    2.250    1.250    0.000    0.000    0.000    0.000 
#    0.000    0.000    0.000    0.000    0.000    0.000 
#
# Total GULP energy -89429.698330 kJ/mol
# GULP energy per Si atom -5589.356146 kJ/mol
# Density = 2.463501 g / cm^3
# Si number density = 24.691205 Si / 1000 Ang^3
#
#
#
# Elastic Constant Matrix: (Units=GPa)
#
#
# Indices 1 2 3 4 5 6 
#
# 1 61.6198 7.5645 20.5461 -3.9956 -17.8038 2.3213
# 2 7.5645 80.4202 31.1793 -3.8559 -10.2807 3.1691
# 3 20.5461 31.1793 179.8457 -15.4200 -9.0901 5.2976
# 4 -3.9956 -3.8559 -15.4200 52.4469 -14.1860 -3.6387
# 5 -17.8038 -10.2807 -9.0901 -14.1860 44.8102 1.7134
# 6 2.3213 3.1691 5.2976 -3.6387 1.7134 25.0928
#
#
#
# Elastic Compliance Matrix: (Units=1/GPa)
#
#
# Indices 1 2 3 4 5 6 
#
# 1 0.019449 0.000051 -0.001474 0.003248 0.008530 -0.001606
# 2 0.000051 0.013755 -0.002091 0.001165 0.003173 -0.001348
# 3 -0.001474 -0.002091 0.006303 0.001752 0.000796 -0.000731
# 4 0.003248 0.001165 0.001752 0.022464 0.008955 0.001829
# 5 0.008530 0.003173 0.000796 0.008955 0.029509 -0.002074
# 6 -0.001606 -0.001348 -0.000731 0.001829 -0.002074 0.040732
#
#
# Mechanical properties :
#
#
# Convention : Reuss Voigt Hill
#
# Bulk Modulus (GPa) = 30.78690 48.94059 39.86374
# Shear Modulus (GPa) = 33.31874 41.97638 37.64756
#
# Velocity S-wave (km/s) = 3.67743 4.12764 3.90902
# Velocity P-wave (km/s) = 5.52514 6.52539 6.04598
#
# Compressibility (1/GPa) = 0.03248135
#
# Stress axis : x y z
#
# Youngs Moduli (GPa) = 51.41556 72.70119 158.65231
#
# Poissons Ratio (x) = -0.00374 0.23384
# Poissons Ratio (y) = -0.00265 0.33167
# Poissons Ratio (z) = 0.07578 0.15199
#
# Static dielectric constant tensor:
#      x y z
#    x 1.964390 -0.032620 -0.018610 
#    y -0.032620 2.057660 0.007500 
#    z -0.018610 0.007500 1.997200 
# 
# From -- ./inp_files/306367.got.cif
#   From: 2010.05.17/outbox.cif.g08.bks.cpg/sg2_154_cif.got.tgz:306367.got - 2010.06.03 11:33:40.
