data_PCOD9057412
_publ_section_title
;
Structure prediction by ZEFSAII (Michael W. Deem and Ramdas Pophale) SiO2 
 PCOD9057412
Probable space group: P -1
;
_chemical_formula_sum "Si O2"
_cell_formula_units_Z 16
_cell_length_a 6.753968
_cell_length_b 9.384117
_cell_length_c 21.438534
_cell_angle_alpha 123.759669
_cell_angle_beta 46.230235
_cell_angle_gamma 129.150927
_cell_volume 743.545396
_symmetry_space_group_name_H-M "P -1"
_symmetry_group_IT_number 2
_symmetry_cell_setting 'triclinic'
loop_
_space_group_symop_operation_xyz
x,y,z
-x,-y,-z
loop_
_atom_site_type_symbol
_atom_site_label
_atom_site_fract_x
_atom_site_fract_y
_atom_site_fract_z
Si Si1 0.862786 0.592104 0.001175
Si Si2 0.777337 0.506874 0.396822
Si Si3 0.192336 0.892064 0.455133
Si Si4 0.836822 0.049512 0.383020
Si Si5 0.597508 0.262246 0.882752
Si Si6 0.236351 0.373923 0.707784
Si Si7 0.472184 0.911456 0.915120
Si Si8 0.221491 0.312505 0.266139
O O1 0.668761 0.411209 0.959205
O O2 0.139634 0.746841 0.941272
O O3 0.662019 0.705556 0.091820
O O4 0.000000 0.500000 0.000000
O O5 0.500000 0.500000 0.500000
O O6 0.687830 0.520259 0.348718
O O7 0.060430 0.698413 0.400619
O O8 0.933409 0.360359 0.329934
O O9 0.539885 0.026366 0.404175
O O10 0.153577 0.858933 0.529721
O O11 0.000000 0.000000 0.500000
O O12 0.777413 0.832863 0.351255
O O13 0.130276 0.172983 0.311380
O O14 0.901543 0.329843 0.793279
O O15 0.522237 0.065230 0.886958
O O16 0.485709 0.499681 0.733778
O O17 0.695287 0.806010 0.833167
O O18 0.500000 0.000000 0.000000
#
# Coordination Sequence:
#
# PCOD9057412 Si02
#       8
#     2   2   2   2   2   2   2   2
#     4  11  24  45  75 101 140 184 234 294 359 423
#     4  12  27  45  71 107 145 188 240 293 354 422
#     4  11  22  42  69  98 137 180 234 288 351 418
#     4  11  24  43  71  98 135 186 230 288 354 418
#     4  11  25  45  72 102 139 185 235 292 357 423
#     4  12  25  46  70 101 141 187 234 290 357 413
#     4  12  25  47  73 106 144 188 238 294 360 424
#     4  12  27  46  70 103 146 183 241 295 351 422
#
# _framework density 21.518523999999999
#
# number of rings (size 3 to 8) (size 9 to 14) (size 15 to 20)
#    0.000    0.500    6.250    1.875    3.500    1.000 
#    4.500    0.000    0.000    0.000    0.000    0.000 
#    0.000    0.000    0.000    0.000    0.000    0.000 
#
# Total GULP energy -89303.973506 kJ/mol
# GULP energy per Si atom -5581.498344 kJ/mol
# Density = 2.146955 g / cm^3
# Si number density = 21.518524 Si / 1000 Ang^3
#
#
#
# Elastic Constant Matrix: (Units=GPa)
#
#
# Indices 1 2 3 4 5 6 
#
# 1 86.8359 20.7174 33.5922 9.7950 -27.7605 -18.4020
# 2 20.7174 92.8042 23.8517 0.5741 -15.6644 -15.3483
# 3 33.5922 23.8517 107.9631 6.0318 -33.6218 -25.7236
# 4 9.7950 0.5741 6.0318 41.6805 5.2939 -2.3115
# 5 -27.7605 -15.6644 -33.6218 5.2939 37.4225 6.4945
# 6 -18.4020 -15.3483 -25.7236 -2.3115 6.4945 27.4081
#
#
#
# Elastic Compliance Matrix: (Units=1/GPa)
#
#
# Indices 1 2 3 4 5 6 
#
# 1 0.018083 -0.000496 0.001218 -0.005612 0.013474 0.009341
# 2 -0.000496 0.012492 -0.000026 -0.000228 0.003880 0.005699
# 3 0.001218 -0.000026 0.016479 -0.003753 0.014038 0.012626
# 4 -0.005612 -0.000228 -0.003753 0.027119 -0.011030 -0.002518
# 5 0.013474 0.003880 0.014038 -0.011030 0.050519 0.011493
# 6 0.009341 0.005699 0.012626 -0.002518 0.011493 0.054863
#
#
# Mechanical properties :
#
#
# Convention : Reuss Voigt Hill
#
# Bulk Modulus (GPa) = 20.64187 49.32508 34.98347
# Shear Modulus (GPa) = 25.73193 35.26500 30.49847
#
# Velocity S-wave (km/s) = 3.46179 4.05263 3.76880
# Velocity P-wave (km/s) = 5.05886 6.69853 5.93559
#
# Compressibility (1/GPa) = 0.04844523
#
# Stress axis : x y z
#
# Youngs Moduli (GPa) = 55.30040 80.05274 60.68371
#
# Poissons Ratio (x) = 0.03972 -0.07393
# Poissons Ratio (y) = 0.02744 0.00160
# Poissons Ratio (z) = -0.06737 0.00211
#
# Static dielectric constant tensor:
#      x y z
#    x 1.838550 -0.037570 -0.046430 
#    y -0.037570 1.786480 0.017580 
#    z -0.046430 0.017580 1.781450 
# 
# From -- ./inp_files/55476.got.cif
#   From: 2010.05.17/outbox.cif.g08.bks.cpg/sg2_28_cif.got.tgz:55476.got - 2010.06.03 11:33:40.
