data_PCOD9057868
_publ_section_title
;
Structure prediction by ZEFSAII (Michael W. Deem and Ramdas Pophale) SiO2 
 PCOD9057868
Probable space group: P -1
;
_chemical_formula_sum "Si O2"
_cell_formula_units_Z 16
_cell_length_a 13.326467
_cell_length_b 15.500272
_cell_length_c 9.825006
_cell_angle_alpha 42.769240
_cell_angle_beta 42.277705
_cell_angle_gamma 34.576089
_cell_volume 732.173213
_symmetry_space_group_name_H-M "P -1"
_symmetry_group_IT_number 2
_symmetry_cell_setting 'triclinic'
loop_
_space_group_symop_operation_xyz
x,y,z
-x,-y,-z
loop_
_atom_site_type_symbol
_atom_site_label
_atom_site_fract_x
_atom_site_fract_y
_atom_site_fract_z
Si Si1 0.464378 0.648534 0.281641
Si Si2 0.335804 0.276353 0.444569
Si Si3 0.094624 0.853608 0.254694
Si Si4 0.840316 0.743415 0.615531
Si Si5 0.369944 0.170697 0.007719
Si Si6 0.927863 0.635388 0.140959
Si Si7 0.281615 0.548422 0.004711
Si Si8 0.269911 0.821011 0.822929
O O1 0.500000 0.500000 0.500000
O O2 0.245418 0.776474 0.313018
O O3 0.537239 0.737440 0.180848
O O4 0.579028 0.573382 0.111771
O O5 0.257401 0.221345 0.473452
O O6 0.234170 0.301695 0.657970
O O7 0.560107 0.167961 0.359707
O O8 0.275469 0.446187 0.248154
O O9 0.000533 0.765700 0.429751
O O10 0.201528 0.835782 0.029003
O O11 0.913221 0.038109 0.238661
O O12 0.943842 0.557594 0.765857
O O13 0.681552 0.846714 0.768919
O O14 0.174006 0.283403 0.991397
O O15 0.500000 0.000000 0.000000
O O16 0.073448 0.665261 0.012660
O O17 0.340971 0.652177 0.884061
#
# Coordination Sequence:
#
# PCOD9057868 Si02
#       8
#     2   2   2   2   2   2   2   2
#     4  12  27  47  71  99 139 190 238 285 348 425
#     4  11  22  43  73 101 136 176 239 282 344 415
#     4  11  25  43  68 103 144 181 227 290 358 413
#     4  11  23  46  71  99 138 183 234 284 345 420
#     4  12  28  47  70 101 143 184 235 294 353 415
#     4  11  24  42  72 100 131 182 232 284 342 415
#     4  11  23  43  69  99 133 180 232 288 337 422
#     4  11  24  41  68 105 143 175 225 295 356 411
#
# _framework density 21.852754000000001
#
# number of rings (size 3 to 8) (size 9 to 14) (size 15 to 20)
#    0.000    0.750    3.750    4.500    8.750    0.500 
#    0.000    1.250    0.000    0.000    0.000    0.000 
#    0.000    0.000    0.000    0.000    0.000    0.000 
#
# Total GULP energy -89566.134337 kJ/mol
# GULP energy per Si atom -5597.883396 kJ/mol
# Density = 2.180302 g / cm^3
# Si number density = 21.852754 Si / 1000 Ang^3
#
#
#
# Elastic Constant Matrix: (Units=GPa)
#
#
# Indices 1 2 3 4 5 6 
#
# 1 107.3755 30.7134 14.5192 -8.1452 -14.7510 -27.2523
# 2 30.7134 83.1362 3.7779 2.3177 -2.6976 -5.1955
# 3 14.5192 3.7779 35.0260 2.7931 -2.9892 -11.1861
# 4 -8.1452 2.3177 2.7931 35.1294 -4.5901 5.1703
# 5 -14.7510 -2.6976 -2.9892 -4.5901 29.8638 9.1231
# 6 -27.2523 -5.1955 -11.1861 5.1703 9.1231 37.6916
#
#
#
# Elastic Compliance Matrix: (Units=1/GPa)
#
#
# Indices 1 2 3 4 5 6 
#
# 1 0.013538 -0.004392 -0.002837 0.003226 0.004416 0.006829
# 2 -0.004392 0.013619 0.000188 -0.001954 -0.000997 -0.000733
# 3 -0.002837 0.000188 0.032737 -0.004750 -0.001497 0.008704
# 4 0.003226 -0.001954 -0.004750 0.031500 0.007455 -0.005472
# 5 0.004416 -0.000997 -0.001497 0.007455 0.038969 -0.007844
# 6 0.006829 -0.000733 0.008704 -0.005472 -0.007844 0.036600
#
#
# Mechanical properties :
#
#
# Convention : Reuss Voigt Hill
#
# Bulk Modulus (GPa) = 21.82882 35.95096 28.88989
# Shear Modulus (GPa) = 25.46923 32.30545 28.88734
#
# Velocity S-wave (km/s) = 3.41764 3.84907 3.63975
# Velocity P-wave (km/s) = 5.05810 6.02005 5.55992
#
# Compressibility (1/GPa) = 0.04581099
#
# Stress axis : x y z
#
# Youngs Moduli (GPa) = 73.86728 73.42759 30.54660
#
# Poissons Ratio (x) = 0.32251 0.08667
# Poissons Ratio (y) = 0.32444 -0.00575
# Poissons Ratio (z) = 0.20959 -0.01383
#
# Static dielectric constant tensor:
#      x y z
#    x 1.779230 -0.014970 -0.003850 
#    y -0.014970 1.831470 -0.034630 
#    z -0.003850 -0.034630 1.789700 
# 
# From -- ./inp_files/187520.got.cif
#   From: 2010.05.17/outbox.cif.g08.bks.cpg/sg2_94_cif.got.tgz:187520.got - 2010.06.03 11:33:40.
