data_PCOD9057861
_publ_section_title
;
Structure prediction by ZEFSAII (Michael W. Deem and Ramdas Pophale) SiO2 
 PCOD9057861
Probable space group: P -1
;
_chemical_formula_sum "Si O2"
_cell_formula_units_Z 16
_cell_length_a 14.786170
_cell_length_b 8.063958
_cell_length_c 14.320790
_cell_angle_alpha 30.231674
_cell_angle_beta 127.608008
_cell_angle_gamma 122.153571
_cell_volume 681.039676
_symmetry_space_group_name_H-M "P -1"
_symmetry_group_IT_number 2
_symmetry_cell_setting 'triclinic'
loop_
_space_group_symop_operation_xyz
x,y,z
-x,-y,-z
loop_
_atom_site_type_symbol
_atom_site_label
_atom_site_fract_x
_atom_site_fract_y
_atom_site_fract_z
Si Si1 0.844753 0.168208 0.104468
Si Si2 0.755066 0.174371 0.398262
Si Si3 0.078482 0.067778 0.222656
Si Si4 0.389012 0.864699 0.941331
Si Si5 0.439927 0.159933 0.642387
Si Si6 0.871335 0.141660 0.836788
Si Si7 0.874975 0.879267 0.460389
Si Si8 0.653654 0.696420 0.971251
O O1 0.707895 0.174786 0.019882
O O2 0.939798 0.045503 0.149981
O O3 0.861354 0.922070 0.321547
O O4 0.887472 0.548206 0.960161
O O5 0.858325 0.076294 0.576731
O O6 0.654845 0.902455 0.466678
O O7 0.804345 0.155963 0.333708
O O8 0.688282 0.513002 0.180096
O O9 0.132936 0.859019 0.277070
O O10 0.381578 0.134445 0.720513
O O11 0.377299 0.533084 0.028742
O O12 0.500000 0.000000 0.000000
O O13 0.500000 0.500000 0.500000
O O14 0.539045 0.892983 0.825031
O O15 0.859619 0.522845 0.671234
O O16 0.764443 0.926584 0.908860
O O17 0.000000 0.000000 0.000000
O O18 0.000000 0.000000 0.500000
#
# Coordination Sequence:
#
# PCOD9057861 Si02
#       8
#     2   2   2   2   2   2   2   2
#     4  11  23  44  71 100 149 177 237 290 356 418
#     4  11  22  43  72  98 137 186 234 292 355 420
#     4  11  25  44  72 107 137 191 238 293 354 422
#     4  11  24  45  72 102 141 191 235 293 359 416
#     4  11  25  45  71 104 138 187 239 287 359 430
#     4  12  27  44  69 103 142 188 238 294 361 424
#     4  12  22  44  70  98 140 187 226 290 365 421
#     4  11  24  50  70 102 144 185 236 300 353 430
#
# _framework density 23.493492
#
# number of rings (size 3 to 8) (size 9 to 14) (size 15 to 20)
#    0.000    0.750    5.000    3.750    3.500    1.500 
#    4.500    1.250    0.000    0.000    0.000    0.000 
#    0.000    0.000    0.000    0.000    0.000    0.000 
#
# Total GULP energy -89126.086862 kJ/mol
# GULP energy per Si atom -5570.380429 kJ/mol
# Density = 2.344002 g / cm^3
# Si number density = 23.493492 Si / 1000 Ang^3
#
#
#
# Elastic Constant Matrix: (Units=GPa)
#
#
# Indices 1 2 3 4 5 6 
#
# 1 108.7649 26.9693 5.4962 -1.6509 -3.5468 33.6986
# 2 26.9693 81.1034 17.7753 -4.4244 -4.8894 29.8971
# 3 5.4962 17.7753 71.8250 -10.8219 1.5514 1.9249
# 4 -1.6509 -4.4244 -10.8219 32.4341 6.3693 0.9615
# 5 -3.5468 -4.8894 1.5514 6.3693 37.7509 -1.7355
# 6 33.6986 29.8971 1.9249 0.9615 -1.7355 42.3820
#
#
#
# Elastic Compliance Matrix: (Units=1/GPa)
#
#
# Indices 1 2 3 4 5 6 
#
# 1 0.012273 -0.000431 -0.000508 0.000559 0.000591 -0.009420
# 2 -0.000431 0.017968 -0.003955 0.001134 0.001701 -0.012109
# 3 -0.000508 -0.003955 0.015671 0.004976 -0.001938 0.002290
# 4 0.000559 0.001134 0.004976 0.033895 -0.005838 -0.002479
# 5 0.000591 0.001701 -0.001938 -0.005838 0.027816 -0.000310
# 6 -0.009420 -0.012109 0.002290 -0.002479 -0.000310 0.039566
#
#
# Mechanical properties :
#
#
# Convention : Reuss Voigt Hill
#
# Bulk Modulus (GPa) = 27.68362 40.24165 33.96264
# Shear Modulus (GPa) = 29.58247 36.61023 33.09635
#
# Velocity S-wave (km/s) = 3.55234 3.95183 3.75740
# Velocity P-wave (km/s) = 5.35113 6.16349 5.77162
#
# Compressibility (1/GPa) = 0.03612244
#
# Stress axis : x y z
#
# Youngs Moduli (GPa) = 81.47950 55.65376 63.81342
#
# Poissons Ratio (x) = 0.02400 0.03245
# Poissons Ratio (y) = 0.03513 0.25239
# Poissons Ratio (z) = 0.04143 0.22012
#
# Static dielectric constant tensor:
#      x y z
#    x 1.903890 -0.044200 0.031250 
#    y -0.044200 2.263580 0.177110 
#    z 0.031250 0.177110 2.004030 
# 
# From -- ./inp_files/355010.got.cif
#   From: 2010.05.17/outbox.cif.g08.bks.cpg/sg2_178_cif.got.tgz:355010.got - 2010.06.03 11:33:40.
