data_PCOD9057461
_publ_section_title
;
Structure prediction by ZEFSAII (Michael W. Deem and Ramdas Pophale) SiO2 
 PCOD9057461
Probable space group: P -1
;
_chemical_formula_sum "Si O2"
_cell_formula_units_Z 14
_cell_length_a 10.205105
_cell_length_b 28.120113
_cell_length_c 12.366719
_cell_angle_alpha 154.260856
_cell_angle_beta 33.690938
_cell_angle_gamma 156.715050
_cell_volume 609.013523
_symmetry_space_group_name_H-M "P -1"
_symmetry_group_IT_number 2
_symmetry_cell_setting 'triclinic'
loop_
_space_group_symop_operation_xyz
x,y,z
-x,-y,-z
loop_
_atom_site_type_symbol
_atom_site_label
_atom_site_fract_x
_atom_site_fract_y
_atom_site_fract_z
Si Si1 0.178020 0.804083 0.126064
Si Si2 0.431644 0.861260 0.441426
Si Si3 0.824196 0.294593 0.484486
Si Si4 0.796012 0.780504 0.970399
Si Si5 0.408016 0.349444 0.929608
Si Si6 0.576658 0.351529 0.274875
Si Si7 0.870239 0.697378 0.327132
O O1 0.950003 0.780841 0.330834
O O2 0.471798 0.985215 0.276864
O O3 0.297932 0.726048 0.928111
O O4 0.944915 0.721776 0.013425
O O5 0.187553 0.727821 0.423820
O O6 0.225424 0.795501 0.339036
O O7 0.760179 0.894322 0.266035
O O8 0.875637 0.187817 0.187814
O O9 0.125484 0.466858 0.585999
O O10 0.496393 0.262426 0.634135
O O11 0.579550 0.655733 0.959736
O O12 0.636227 0.722230 0.841372
O O13 0.687490 0.526535 0.070071
O O14 0.356599 0.321317 0.464723
#
# Coordination Sequence:
#
# PCOD9057461 Si02
#       7
#     2   2   2   2   2   2   2
#     4  12  28  46  64 107 148 178 221 285 362 412
#     4  11  25  44  71 101 140 184 225 287 346 408
#     4  11  22  42  71 102 132 176 240 282 330 404
#     4  11  22  42  71 102 132 176 240 282 330 404
#     4  11  25  44  71 101 140 184 225 287 346 408
#     4  12  24  40  77 103 134 176 244 289 330 404
#     4  12  23  42  73 100 135 180 233 278 340 403
#
# _framework density 22.987995999999999
#
# number of rings (size 3 to 8) (size 9 to 14) (size 15 to 20)
#    0.000    0.571    5.714    2.143    0.000    8.000 
#    0.000    1.429    0.000    0.000    0.000    0.000 
#    0.000    0.000    0.000    0.000    0.000    0.000 
#
# Total GULP energy -78061.840379 kJ/mol
# GULP energy per Si atom -5575.845741 kJ/mol
# Density = 2.293567 g / cm^3
# Si number density = 22.987996 Si / 1000 Ang^3
#
#
#
# Elastic Constant Matrix: (Units=GPa)
#
#
# Indices 1 2 3 4 5 6 
#
# 1 95.4917 15.9168 36.0520 0.6533 -18.7125 3.4540
# 2 15.9168 60.6473 39.6292 -11.0200 -8.8143 -14.6650
# 3 36.0520 39.6292 118.0430 -15.9091 -33.2361 6.3190
# 4 0.6533 -11.0200 -15.9091 50.4596 -1.4705 7.6433
# 5 -18.7125 -8.8143 -33.2361 -1.4705 29.8249 -4.0833
# 6 3.4540 -14.6650 6.3190 7.6433 -4.0833 34.2706
#
#
#
# Elastic Compliance Matrix: (Units=1/GPa)
#
#
# Indices 1 2 3 4 5 6 
#
# 1 0.012496 -0.001651 -0.001904 -0.000850 0.005077 -0.000820
# 2 -0.001651 0.025900 -0.009326 0.000777 -0.002017 0.012556
# 3 -0.001904 -0.009326 0.017319 0.004834 0.014723 -0.006316
# 4 -0.000850 0.000777 0.004834 0.022413 0.005529 -0.004813
# 5 0.005077 -0.002017 0.014723 0.005529 0.052932 0.000984
# 6 -0.000820 0.012556 -0.006316 -0.004813 0.000984 0.036990
#
#
# Mechanical properties :
#
#
# Convention : Reuss Voigt Hill
#
# Bulk Modulus (GPa) = 33.38459 50.81978 42.10219
# Shear Modulus (GPa) = 24.53424 35.08328 29.80876
#
# Velocity S-wave (km/s) = 3.27044 3.91084 3.60489
# Velocity P-wave (km/s) = 5.36798 6.52288 5.97341
#
# Compressibility (1/GPa) = 0.02995394
#
# Stress axis : x y z
#
# Youngs Moduli (GPa) = 80.02360 38.60961 57.74065
#
# Poissons Ratio (x) = 0.06374 0.10991
# Poissons Ratio (y) = 0.13210 0.53851
# Poissons Ratio (z) = 0.15233 0.36009
#
# Static dielectric constant tensor:
#      x y z
#    x 1.824490 0.001780 -0.039860 
#    y 0.001780 1.839060 -0.059890 
#    z -0.039860 -0.059890 1.912780 
# 
# From -- ./inp_files/406918.got.cif
#   From: 2010.05.17/outbox.cif.g08.bks.cpg/sg2_204_cif.got.tgz:406918.got - 2010.06.03 11:33:40.
