data_PCOD9057963
_publ_section_title
;
Structure prediction by ZEFSAII (Michael W. Deem and Ramdas Pophale) SiO2 
 PCOD9057963
Probable space group: P -1
;
_chemical_formula_sum "Si O2"
_cell_formula_units_Z 14
_cell_length_a 9.715893
_cell_length_b 9.043921
_cell_length_c 13.013992
_cell_angle_alpha 111.619583
_cell_angle_beta 121.201437
_cell_angle_gamma 112.020447
_cell_volume 638.917273
_symmetry_space_group_name_H-M "P -1"
_symmetry_group_IT_number 2
_symmetry_cell_setting 'triclinic'
loop_
_space_group_symop_operation_xyz
x,y,z
-x,-y,-z
loop_
_atom_site_type_symbol
_atom_site_label
_atom_site_fract_x
_atom_site_fract_y
_atom_site_fract_z
Si Si1 0.204597 0.174203 0.875198
Si Si2 0.509104 0.668962 0.176436
Si Si3 0.792898 0.251791 0.900222
Si Si4 0.495498 0.140322 0.452723
Si Si5 0.261081 0.237598 0.503530
Si Si6 0.228973 0.589140 0.560837
Si Si7 0.639804 0.994993 0.969773
O O1 0.384368 0.257097 0.876194
O O2 0.294218 0.397994 0.019473
O O3 0.218874 0.042887 0.928993
O O4 0.966042 0.014187 0.683261
O O5 0.425988 0.785698 0.200607
O O6 0.684224 0.734581 0.347580
O O7 0.724259 0.052296 0.754237
O O8 0.804357 0.210865 0.013283
O O9 0.000000 0.500000 0.000000
O O10 0.462145 0.284921 0.534087
O O11 0.710820 0.299166 0.499622
O O12 0.500000 0.000000 0.500000
O O13 0.223848 0.394889 0.501587
O O14 0.442604 0.782275 0.766534
O O15 0.000000 0.500000 0.500000
O O16 0.500000 0.000000 0.000000
#
# Coordination Sequence:
#
# PCOD9057963 Si02
#       7
#     2   2   2   2   2   2   2
#     4  11  24  42  69 103 137 187 226 291 350 409
#     4  11  23  44  67 103 143 176 239 287 339 421
#     4  11  24  43  68  98 138 186 229 283 354 409
#     4  11  25  45  68 101 143 178 234 291 343 413
#     4  12  24  45  71 102 141 185 231 286 355 407
#     4  11  26  45  71 101 139 188 235 283 351 415
#     4  11  22  44  66 101 138 174 236 292 333 418
#
# _framework density 21.912068000000001
#
# number of rings (size 3 to 8) (size 9 to 14) (size 15 to 20)
#    0.000    0.857    4.286    2.571    2.000    3.429 
#    2.571    2.143    0.000    0.000    0.000    0.000 
#    0.000    0.000    0.000    0.000    0.000    0.000 
#
# Total GULP energy -78279.717709 kJ/mol
# GULP energy per Si atom -5591.408408 kJ/mol
# Density = 2.186220 g / cm^3
# Si number density = 21.912068 Si / 1000 Ang^3
#
#
#
# Elastic Constant Matrix: (Units=GPa)
#
#
# Indices 1 2 3 4 5 6 
#
# 1 94.6721 44.8263 -2.6686 4.4645 -18.5016 -2.2427
# 2 44.8263 157.9200 25.8370 -18.4640 -2.3234 10.8932
# 3 -2.6686 25.8370 94.8138 -5.1934 -4.6932 -0.9535
# 4 4.4645 -18.4640 -5.1934 29.8335 -0.7649 -2.7128
# 5 -18.5016 -2.3234 -4.6932 -0.7649 34.0900 4.6141
# 6 -2.2427 10.8932 -0.9535 -2.7128 4.6141 30.8448
#
#
#
# Elastic Compliance Matrix: (Units=1/GPa)
#
#
# Indices 1 2 3 4 5 6 
#
# 1 0.014740 -0.005024 0.001920 -0.004662 0.007634 0.001353
# 2 -0.005024 0.008971 -0.002405 0.005578 -0.001939 -0.002827
# 3 0.001920 -0.002405 0.011401 0.000362 0.002317 0.001027
# 4 -0.004662 0.005578 0.000362 0.037809 -0.001420 0.001240
# 5 0.007634 -0.001939 0.002317 -0.001420 0.034163 -0.003924
# 6 0.001353 -0.002827 0.001027 0.001240 -0.003924 0.034245
#
#
# Mechanical properties :
#
#
# Convention : Reuss Voigt Hill
#
# Bulk Modulus (GPa) = 41.50489 53.71059 47.60774
# Shear Modulus (GPa) = 31.17650 37.58109 34.37879
#
# Velocity S-wave (km/s) = 3.77609 4.14585 3.96529
# Velocity P-wave (km/s) = 6.16397 6.89076 6.53747
#
# Compressibility (1/GPa) = 0.02409355
#
# Stress axis : x y z
#
# Youngs Moduli (GPa) = 67.84479 111.47525 87.71045
#
# Poissons Ratio (x) = 0.56007 -0.16841
# Poissons Ratio (y) = 0.34086 0.21092
# Poissons Ratio (z) = -0.13027 0.26807
#
# Static dielectric constant tensor:
#      x y z
#    x 1.825630 0.008890 -0.023580 
#    y 0.008890 1.811010 0.008910 
#    z -0.023580 0.008910 1.821520 
# 
# From -- ./inp_files/185162.got.cif
#   From: 2010.05.17/outbox.cif.g08.bks.cpg/sg2_93_cif.got.tgz:185162.got - 2010.06.03 11:33:40.
