data_PCOD9057256
_publ_section_title
;
Structure prediction by ZEFSAII (Michael W. Deem and Ramdas Pophale) SiO2 
 PCOD9057256
Probable space group: P -1
;
_chemical_formula_sum "Si O2"
_cell_formula_units_Z 14
_cell_length_a 8.929641
_cell_length_b 12.730153
_cell_length_c 6.904224
_cell_angle_alpha 100.066240
_cell_angle_beta 73.986686
_cell_angle_gamma 132.645218
_cell_volume 554.818943
_symmetry_space_group_name_H-M "P -1"
_symmetry_group_IT_number 2
_symmetry_cell_setting 'triclinic'
loop_
_space_group_symop_operation_xyz
x,y,z
-x,-y,-z
loop_
_atom_site_type_symbol
_atom_site_label
_atom_site_fract_x
_atom_site_fract_y
_atom_site_fract_z
Si Si1 0.700499 0.257157 0.283598
Si Si2 0.996291 0.262728 0.757267
Si Si3 0.613539 0.238862 0.761327
Si Si4 0.183733 0.929208 0.766420
Si Si5 0.685512 0.446194 0.099651
Si Si6 0.781066 0.744404 0.664501
Si Si7 0.242505 0.030189 0.340908
O O1 0.656599 0.264385 0.525024
O O2 0.802380 0.188259 0.221052
O O3 0.783256 0.399433 0.192788
O O4 0.478607 0.135906 0.221368
O O5 0.792833 0.242809 0.785290
O O6 0.152978 0.384996 0.893017
O O7 0.131963 0.307790 0.525097
O O8 0.906377 0.104749 0.788796
O O9 0.378248 0.086504 0.827071
O O10 0.647128 0.369016 0.887596
O O11 0.936739 0.840370 0.818712
O O12 0.233563 0.964290 0.527015
O O13 0.458303 0.378847 0.234067
O O14 0.798676 0.864265 0.580316
#
# Coordination Sequence:
#
# PCOD9057256 Si02
#       7
#     2   2   2   2   2   2   2
#     4  10  19  40  65  89 117 160 204 251 294 350
#     4  11  19  39  63  87 125 164 195 246 302 365
#     4  11  21  39  65  90 123 155 207 250 294 354
#     4  10  17  36  66  85 118 158 203 254 295 342
#     4  11  26  37  61  95 125 159 198 242 309 366
#     4  10  21  38  64  91 118 162 204 247 305 354
#     4   9  17  35  65  90 109 161 209 240 296 354
#
# _framework density 25.233457000000001
#
# number of rings (size 3 to 8) (size 9 to 14) (size 15 to 20)
#    0.000    1.714    4.286    3.429    0.000    1.714 
#    0.000    0.000    9.429   14.571    0.000    0.000 
#    0.000    0.000    0.000    0.000    0.000    0.000 
#
# Total GULP energy -78281.156690 kJ/mol
# GULP energy per Si atom -5591.511192 kJ/mol
# Density = 2.517602 g / cm^3
# Si number density = 25.233457 Si / 1000 Ang^3
#
#
#
# Elastic Constant Matrix: (Units=GPa)
#
#
# Indices 1 2 3 4 5 6 
#
# 1 85.3584 30.3591 24.7217 5.7516 -15.6783 20.1906
# 2 30.3591 152.4522 52.7718 23.3031 -3.0846 34.5590
# 3 24.7217 52.7718 105.2878 20.5506 2.4951 17.5697
# 4 5.7516 23.3031 20.5506 39.7037 -3.1943 12.8612
# 5 -15.6783 -3.0846 2.4951 -3.1943 31.3928 1.8402
# 6 20.1906 34.5590 17.5697 12.8612 1.8402 33.5223
#
#
#
# Elastic Compliance Matrix: (Units=1/GPa)
#
#
# Indices 1 2 3 4 5 6 
#
# 1 0.016504 -0.000365 -0.002914 0.003258 0.009344 -0.009799
# 2 -0.000365 0.009739 -0.003283 -0.001380 0.001343 -0.007644
# 3 -0.002914 -0.003283 0.012742 -0.004649 -0.003289 0.000425
# 4 0.003258 -0.001380 -0.004649 0.031835 0.005724 -0.010631
# 5 0.009344 0.001343 -0.003289 0.005724 0.038058 -0.009574
# 6 -0.009799 -0.007644 0.000425 -0.010631 -0.009574 0.047995
#
#
# Mechanical properties :
#
#
# Convention : Reuss Voigt Hill
#
# Bulk Modulus (GPa) = 38.66860 62.08929 50.37895
# Shear Modulus (GPa) = 27.99274 36.60682 32.29978
#
# Velocity S-wave (km/s) = 3.33430 3.81297 3.58164
# Velocity P-wave (km/s) = 5.49373 6.63659 6.09202
#
# Compressibility (1/GPa) = 0.02586077
#
# Stress axis : x y z
#
# Youngs Moduli (GPa) = 60.59169 102.67481 78.48295
#
# Poissons Ratio (x) = 0.03752 0.22871
# Poissons Ratio (y) = 0.02214 0.25763
# Poissons Ratio (z) = 0.17657 0.33704
#
# Static dielectric constant tensor:
#      x y z
#    x 2.036490 -0.000940 -0.020460 
#    y -0.000940 1.992600 -0.006120 
#    z -0.020460 -0.006120 2.086740 
# 
# From -- ./inp_files/181370.got.cif
#   From: 2010.05.17/outbox.cif.g08.bks.cpg/sg2_91_cif.got.tgz:181370.got - 2010.06.03 11:33:40.
