data_PCOD9057199
_publ_section_title
;
Structure prediction by ZEFSAII (Michael W. Deem and Ramdas Pophale) SiO2 
 PCOD9057199
Probable space group: P -1
;
_chemical_formula_sum "Si O2"
_cell_formula_units_Z 14
_cell_length_a 13.236771
_cell_length_b 8.787358
_cell_length_c 9.357773
_cell_angle_alpha 55.392349
_cell_angle_beta 112.155061
_cell_angle_gamma 143.516220
_cell_volume 525.597877
_symmetry_space_group_name_H-M "P -1"
_symmetry_group_IT_number 2
_symmetry_cell_setting 'triclinic'
loop_
_space_group_symop_operation_xyz
x,y,z
-x,-y,-z
loop_
_atom_site_type_symbol
_atom_site_label
_atom_site_fract_x
_atom_site_fract_y
_atom_site_fract_z
Si Si1 0.532276 0.707273 0.767369
Si Si2 0.993699 0.290870 0.532032
Si Si3 0.480473 0.796038 0.386753
Si Si4 0.230497 0.685598 0.938338
Si Si5 0.326795 0.407359 0.272086
Si Si6 0.844055 0.670095 0.146878
Si Si7 0.782855 0.228570 0.808728
O O1 0.538595 0.841649 0.554932
O O2 0.532209 0.504826 0.800991
O O3 0.353758 0.518040 0.856088
O O4 0.708217 0.958544 0.821773
O O5 0.128961 0.350499 0.663931
O O6 0.059920 0.435021 0.336249
O O7 0.000000 0.500000 0.500000
O O8 0.828500 0.943817 0.628501
O O9 0.369994 0.489879 0.417872
O O10 0.376520 0.847561 0.281043
O O11 0.632931 0.019694 0.235981
O O12 0.288547 0.562895 0.106567
O O13 0.190076 0.756056 0.016897
O O14 0.122588 0.462318 0.868109
O O15 0.000000 0.000000 0.000000
#
# Coordination Sequence:
#
# PCOD9057199 Si02
#       7
#     2   2   2   2   2   2   2
#     4  12  24  45  75 101 136 188 234 281 349 416
#     4  12  25  46  72 103 141 182 237 283 344 413
#     4  11  23  45  71 103 137 184 237 281 346 413
#     4  11  25  45  69 103 144 181 231 289 347 410
#     4  11  25  43  72 105 139 178 234 294 334 412
#     4  12  26  47  70 103 141 184 230 288 349 417
#     4  11  22  41  73 100 135 190 225 277 355 409
#
# _framework density 26.636333
#
# number of rings (size 3 to 8) (size 9 to 14) (size 15 to 20)
#    0.000    0.571    5.714    3.429    0.000    4.000 
#    5.143    0.714    0.000    0.000    0.000    0.000 
#    0.000    0.000    0.000    0.000    0.000    0.000 
#
# Total GULP energy -78195.198682 kJ/mol
# GULP energy per Si atom -5585.371334 kJ/mol
# Density = 2.657571 g / cm^3
# Si number density = 26.636333 Si / 1000 Ang^3
#
#
#
# Elastic Constant Matrix: (Units=GPa)
#
#
# Indices 1 2 3 4 5 6 
#
# 1 37.6669 24.0138 9.9118 -4.1053 -6.2258 -8.3669
# 2 24.0138 165.3083 40.9052 -8.9898 -11.8285 -21.0456
# 3 9.9118 40.9052 161.8408 4.7711 -26.4103 5.0634
# 4 -4.1053 -8.9898 4.7711 40.0419 0.9975 -7.3577
# 5 -6.2258 -11.8285 -26.4103 0.9975 42.7744 7.7856
# 6 -8.3669 -21.0456 5.0634 -7.3577 7.7856 36.8553
#
#
#
# Elastic Compliance Matrix: (Units=1/GPa)
#
#
# Indices 1 2 3 4 5 6 
#
# 1 0.030795 -0.003164 -0.001069 0.003568 0.001834 0.005656
# 2 -0.003164 0.007697 -0.002047 0.002497 -0.000484 0.004559
# 3 -0.001069 -0.002047 0.007744 -0.002341 0.004836 -0.003964
# 4 0.003568 0.002497 -0.002341 0.027826 -0.002455 0.008632
# 5 0.001834 -0.000484 0.004836 -0.002455 0.027809 -0.006889
# 6 0.005656 0.004559 -0.003964 0.008632 -0.006889 0.034744
#
#
# Mechanical properties :
#
#
# Convention : Reuss Voigt Hill
#
# Bulk Modulus (GPa) = 29.69396 57.16417 43.42907
# Shear Modulus (GPa) = 31.17209 43.26668 37.21939
#
# Velocity S-wave (km/s) = 3.42465 4.03469 3.74212
# Velocity P-wave (km/s) = 5.17782 6.57363 5.91702
#
# Compressibility (1/GPa) = 0.03367688
#
# Stress axis : x y z
#
# Youngs Moduli (GPa) = 32.47254 129.92142 129.13340
#
# Poissons Ratio (x) = 0.41101 0.13807
# Poissons Ratio (y) = 0.10273 0.26432
# Poissons Ratio (z) = 0.03472 0.26593
#
# Static dielectric constant tensor:
#      x y z
#    x 2.236970 0.021130 -0.021320 
#    y 0.021130 2.220690 0.008370 
#    z -0.021320 0.008370 2.075170 
# 
# From -- ./inp_files/184893.got.cif
#   From: 2010.05.17/outbox.cif.g08.bks.cpg/sg2_93_cif.got.tgz:184893.got - 2010.06.03 11:33:40.
