data_PCOD9057058
_publ_section_title
;
Structure prediction by ZEFSAII (Michael W. Deem and Ramdas Pophale) SiO2 
 PCOD9057058
Probable space group: P -1
;
_chemical_formula_sum "Si O2"
_cell_formula_units_Z 16
_cell_length_a 20.456567
_cell_length_b 6.284508
_cell_length_c 12.120833
_cell_angle_alpha 60.935844
_cell_angle_beta 39.475607
_cell_angle_gamma 49.091208
_cell_volume 748.061732
_symmetry_space_group_name_H-M "P -1"
_symmetry_group_IT_number 2
_symmetry_cell_setting 'triclinic'
loop_
_space_group_symop_operation_xyz
x,y,z
-x,-y,-z
loop_
_atom_site_type_symbol
_atom_site_label
_atom_site_fract_x
_atom_site_fract_y
_atom_site_fract_z
Si Si1 0.802761 0.201167 0.274176
Si Si2 0.019223 0.816750 0.674465
Si Si3 0.315735 0.247958 0.175222
Si Si4 0.409584 0.263081 0.475092
Si Si5 0.949480 0.834934 0.982225
Si Si6 0.500352 0.580534 0.110522
Si Si7 0.900987 0.781642 0.614466
Si Si8 0.755105 0.744755 0.495642
O O1 0.693996 0.511291 0.364198
O O2 0.930232 0.161041 0.146509
O O3 0.769872 0.008048 0.438805
O O4 0.836134 0.041218 0.152270
O O5 0.119042 0.498640 0.650395
O O6 0.925372 0.946672 0.861323
O O7 0.947469 0.811780 0.664081
O O8 0.095660 0.969819 0.519432
O O9 0.215245 0.246370 0.230677
O O10 0.267764 0.360386 0.332478
O O11 0.407729 0.914986 0.153057
O O12 0.377695 0.424706 0.014633
O O13 0.468076 0.408822 0.285185
O O14 0.343818 0.182063 0.486410
O O15 0.500000 0.000000 0.500000
O O16 0.000000 0.500000 0.000000
O O17 0.500000 0.500000 0.000000
O O18 0.000000 0.500000 0.500000
#
# Coordination Sequence:
#
# PCOD9057058 Si02
#       8
#     2   2   2   2   2   2   2   2
#     4  11  23  41  72  99 131 187 238 290 353 436
#     4  11  23  39  69 102 142 181 228 288 361 433
#     4  11  23  42  75 103 133 183 245 291 356 426
#     4  12  26  46  71 104 146 191 242 299 363 427
#     4  11  22  41  69 102 132 180 238 281 350 431
#     4  11  24  45  74 103 134 187 245 300 353 424
#     4  11  24  40  66 107 138 182 225 294 361 422
#     4  12  21  43  76  96 132 188 235 291 359 438
#
# _framework density 21.388608000000001
#
# number of rings (size 3 to 8) (size 9 to 14) (size 15 to 20)
#    0.000    0.750    6.250    1.500    0.000    0.500 
#    0.000    7.500    0.000    0.000    0.000    0.000 
#    0.000    0.000    0.000    0.000    0.000    0.000 
#
# Total GULP energy -89199.702360 kJ/mol
# GULP energy per Si atom -5574.981397 kJ/mol
# Density = 2.133993 g / cm^3
# Si number density = 21.388608 Si / 1000 Ang^3
#
#
#
# Elastic Constant Matrix: (Units=GPa)
#
#
# Indices 1 2 3 4 5 6 
#
# 1 121.0238 31.1500 57.0252 -15.3137 -13.8548 12.3728
# 2 31.1500 82.4046 34.5694 2.3679 -2.5410 6.3594
# 3 57.0252 34.5694 131.4553 2.9523 -1.3774 11.5565
# 4 -15.3137 2.3679 2.9523 35.4823 14.8976 -1.1725
# 5 -13.8548 -2.5410 -1.3774 14.8976 42.9268 0.5761
# 6 12.3728 6.3594 11.5565 -1.1725 0.5761 30.0701
#
#
#
# Elastic Compliance Matrix: (Units=1/GPa)
#
#
# Indices 1 2 3 4 5 6 
#
# 1 0.012129 -0.002603 -0.004439 0.004868 0.001963 -0.002582
# 2 -0.002603 0.014333 -0.002486 -0.002207 0.000709 -0.001104
# 3 -0.004439 -0.002486 0.010392 -0.002526 -0.000346 -0.001734
# 4 0.004868 -0.002207 -0.002526 0.035246 -0.010886 0.001018
# 5 0.001963 0.000709 -0.000346 -0.010886 0.027762 -0.001781
# 6 -0.002582 -0.001104 -0.001734 0.001018 -0.001781 0.035292
#
#
# Mechanical properties :
#
#
# Convention : Reuss Voigt Hill
#
# Bulk Modulus (GPa) = 56.18495 64.48587 60.33541
# Shear Modulus (GPa) = 31.22246 35.83844 33.53045
#
# Velocity S-wave (km/s) = 3.82484 4.09783 3.96369
# Velocity P-wave (km/s) = 6.76990 7.25291 7.01556
#
# Compressibility (1/GPa) = 0.01779836
#
# Stress axis : x y z
#
# Youngs Moduli (GPa) = 82.44660 69.77121 96.22835
#
# Poissons Ratio (x) = 0.18161 0.42714
# Poissons Ratio (y) = 0.21460 0.23921
# Poissons Ratio (z) = 0.36597 0.17344
#
# Static dielectric constant tensor:
#      x y z
#    x 1.926450 0.222790 -0.065760 
#    y 0.222790 2.207920 -0.181800 
#    z -0.065760 -0.181800 1.976150 
# 
# From -- ./inp_files/468279.got.cif
#   From: 2010.05.17/outbox.cif.g08.bks.cpg/sg2_235_cif.got.tgz:468279.got - 2010.06.03 11:33:40.
