data_PCOD9057299
_publ_section_title
;
Structure prediction by ZEFSAII (Michael W. Deem and Ramdas Pophale) SiO2 
 PCOD9057299
Probable space group: P -1
;
_chemical_formula_sum "Si O2"
_cell_formula_units_Z 14
_cell_length_a 23.250442
_cell_length_b 8.967785
_cell_length_c 11.394641
_cell_angle_alpha 142.371297
_cell_angle_beta 31.337740
_cell_angle_gamma 153.225640
_cell_volume 552.212676
_symmetry_space_group_name_H-M "P -1"
_symmetry_group_IT_number 2
_symmetry_cell_setting 'triclinic'
loop_
_space_group_symop_operation_xyz
x,y,z
-x,-y,-z
loop_
_atom_site_type_symbol
_atom_site_label
_atom_site_fract_x
_atom_site_fract_y
_atom_site_fract_z
Si Si1 0.171479 0.818233 0.944921
Si Si2 0.316336 0.507090 0.523334
Si Si3 0.237109 0.216678 0.844871
Si Si4 0.669047 0.546507 0.799486
Si Si5 0.223680 0.720739 0.430642
Si Si6 0.005697 0.221447 0.333010
Si Si7 0.517589 0.663322 0.767340
O O1 0.274048 0.731262 0.736980
O O2 0.223649 0.055958 0.891929
O O3 0.000000 0.500000 0.000000
O O4 0.205972 0.054405 0.141202
O O5 0.376617 0.512640 0.293601
O O6 0.424050 0.530567 0.443512
O O7 0.153632 0.142030 0.603030
O O8 0.411781 0.546316 0.764007
O O9 0.188316 0.942635 0.665671
O O10 0.119375 0.258416 0.069908
O O11 0.720161 0.341697 0.594352
O O12 0.554938 0.389564 0.011909
O O13 0.093115 0.346430 0.381734
O O14 0.343445 0.944339 0.256835
O O15 0.000000 0.500000 0.500000
#
# Coordination Sequence:
#
# PCOD9057299 Si02
#       7
#     2   2   2   2   2   2   2
#     4  11  22  42  66  99 140 175 226 283 335 408
#     4  12  25  45  71 102 143 174 230 288 340 402
#     4  11  25  44  72 100 137 185 229 274 350 405
#     4  11  25  42  73 101 130 191 231 274 346 402
#     4  12  23  46  74  97 139 182 234 277 343 409
#     4  12  26  46  71 106 136 178 229 288 341 410
#     4  11  25  48  66 103 142 182 227 288 334 408
#
# _framework density 25.352550000000001
#
# number of rings (size 3 to 8) (size 9 to 14) (size 15 to 20)
#    0.000    0.571    7.143    1.286    2.000    4.000 
#    5.143    0.000    0.000    0.000    0.000    0.000 
#    0.000    0.000    0.000    0.000    0.000    0.000 
#
# Total GULP energy -78121.940307 kJ/mol
# GULP energy per Si atom -5580.138593 kJ/mol
# Density = 2.529485 g / cm^3
# Si number density = 25.352550 Si / 1000 Ang^3
#
#
#
# Elastic Constant Matrix: (Units=GPa)
#
#
# Indices 1 2 3 4 5 6 
#
# 1 66.9868 14.4825 26.3941 8.3158 -6.0148 -6.3537
# 2 14.4825 80.2338 31.0174 16.0356 -11.0338 3.3098
# 3 26.3941 31.0174 143.9629 36.9036 -15.2613 7.0404
# 4 8.3158 16.0356 36.9036 39.7010 -6.8057 -9.2913
# 5 -6.0148 -11.0338 -15.2613 -6.8057 36.5833 7.8384
# 6 -6.3537 3.3098 7.0404 -9.2913 7.8384 32.8523
#
#
#
# Elastic Compliance Matrix: (Units=1/GPa)
#
#
# Indices 1 2 3 4 5 6 
#
# 1 0.016946 -0.002291 -0.003200 0.001432 0.000043 0.004589
# 2 -0.002291 0.014904 -0.000924 -0.004996 0.003668 -0.004035
# 3 -0.003200 -0.000924 0.011004 -0.010150 0.003299 -0.006542
# 4 0.001432 -0.004996 -0.010150 0.039504 -0.001248 0.014426
# 5 0.000043 0.003668 0.003299 -0.001248 0.031508 -0.008939
# 6 0.004589 -0.004035 -0.006542 0.014426 -0.008939 0.039348
#
#
# Mechanical properties :
#
#
# Convention : Reuss Voigt Hill
#
# Bulk Modulus (GPa) = 33.30817 48.33016 40.81917
# Shear Modulus (GPa) = 28.40097 36.44660 32.42379
#
# Velocity S-wave (km/s) = 3.35063 3.79567 3.58007
# Velocity P-wave (km/s) = 5.30429 6.18984 5.76410
#
# Compressibility (1/GPa) = 0.03002266
#
# Stress axis : x y z
#
# Youngs Moduli (GPa) = 59.01125 67.09688 90.87982
#
# Poissons Ratio (x) = 0.15373 0.29082
# Poissons Ratio (y) = 0.13521 0.08398
# Poissons Ratio (z) = 0.18884 0.06200
#
# Static dielectric constant tensor:
#      x y z
#    x 2.225250 0.266240 -0.136960 
#    y 0.266240 2.227320 -0.104170 
#    z -0.136960 -0.104170 2.121880 
# 
# From -- ./inp_files/285233.got.cif
#   From: 2010.05.17/outbox.cif.g08.bks.cpg/sg2_143_cif.got.tgz:285233.got - 2010.06.03 11:33:40.
