data_PCOD9057251
_publ_section_title
;
Structure prediction by ZEFSAII (Michael W. Deem and Ramdas Pophale) SiO2 
 PCOD9057251
Probable space group: P -1
;
_chemical_formula_sum "Si O2"
_cell_formula_units_Z 16
_cell_length_a 14.791538
_cell_length_b 14.024880
_cell_length_c 9.103801
_cell_angle_alpha 122.529375
_cell_angle_beta 39.185694
_cell_angle_gamma 144.125441
_cell_volume 678.141602
_symmetry_space_group_name_H-M "P -1"
_symmetry_group_IT_number 2
_symmetry_cell_setting 'triclinic'
loop_
_space_group_symop_operation_xyz
x,y,z
-x,-y,-z
loop_
_atom_site_type_symbol
_atom_site_label
_atom_site_fract_x
_atom_site_fract_y
_atom_site_fract_z
Si Si1 0.336460 0.817313 0.487106
Si Si2 0.999316 0.635984 0.996235
Si Si3 0.675975 0.848677 0.962917
Si Si4 0.101911 0.188920 0.866772
Si Si5 0.725714 0.264089 0.030410
Si Si6 0.843871 0.742839 0.798429
Si Si7 0.728598 0.916267 0.603372
Si Si8 0.038102 0.640455 0.486969
O O1 0.169855 0.680171 0.706041
O O2 0.189770 0.795868 0.537763
O O3 0.500000 0.000000 0.500000
O O4 0.468382 0.796813 0.225628
O O5 0.159183 0.759716 0.030018
O O6 0.889282 0.677892 0.093431
O O7 0.822405 0.442413 0.104190
O O8 0.721147 0.889096 0.765668
O O9 0.668696 0.713948 0.910780
O O10 0.869992 0.012324 0.953455
O O11 0.263582 0.198546 0.589183
O O12 0.135158 0.206696 0.015300
O O13 0.475247 0.129246 0.224529
O O14 0.822810 0.300417 0.780108
O O15 0.838246 0.603918 0.684271
O O16 0.057383 0.898024 0.565743
O O17 0.000000 0.500000 0.500000
#
# Coordination Sequence:
#
# PCOD9057251 Si02
#       8
#     2   2   2   2   2   2   2   2
#     4  12  23  41  71  98 128 175 223 277 325 395
#     4  11  25  43  66  94 132 174 223 277 331 393
#     4  11  23  40  63 104 131 168 218 275 330 388
#     4  11  22  42  64  93 134 170 218 272 329 388
#     4  11  26  42  65  95 132 176 219 275 337 387
#     4  11  24  40  68  98 130 178 213 274 334 389
#     4  11  25  40  65  98 135 169 222 270 325 403
#     4  12  24  46  69  95 135 174 223 280 332 393
#
# _framework density 23.593892
#
# number of rings (size 3 to 8) (size 9 to 14) (size 15 to 20)
#    0.000    0.750    5.000    3.000    8.750    1.000 
#    0.000    0.625    0.000    0.000    0.000    0.000 
#    0.000    0.000    0.000    0.000    0.000    0.000 
#
# Total GULP energy -89460.977817 kJ/mol
# GULP energy per Si atom -5591.311114 kJ/mol
# Density = 2.354019 g / cm^3
# Si number density = 23.593892 Si / 1000 Ang^3
#
#
#
# Elastic Constant Matrix: (Units=GPa)
#
#
# Indices 1 2 3 4 5 6 
#
# 1 130.7367 18.3144 45.3178 -2.2821 12.8983 -17.4287
# 2 18.3144 45.5525 16.4379 0.4115 -7.7030 -13.5641
# 3 45.3178 16.4379 145.3140 2.7823 7.9874 -12.6562
# 4 -2.2821 0.4115 2.7823 26.9561 -0.4196 -11.3341
# 5 12.8983 -7.7030 7.9874 -0.4196 43.0809 3.5111
# 6 -17.4287 -13.5641 -12.6562 -11.3341 3.5111 38.5479
#
#
#
# Elastic Compliance Matrix: (Units=1/GPa)
#
#
# Indices 1 2 3 4 5 6 
#
# 1 0.009656 -0.002492 -0.002272 0.002643 -0.003200 0.003811
# 2 -0.002492 0.026936 -0.001909 0.003084 0.005282 0.008150
# 3 -0.002272 -0.001909 0.007958 -0.000654 -0.001211 0.000832
# 4 0.002643 0.003084 -0.000654 0.043624 -0.000914 0.014975
# 5 -0.003200 0.005282 -0.001211 -0.000914 0.025541 -0.002581
# 6 0.003811 0.008150 0.000832 0.014975 -0.002581 0.035444
#
#
# Mechanical properties :
#
#
# Convention : Reuss Voigt Hill
#
# Bulk Modulus (GPa) = 32.04940 53.52704 42.78822
# Shear Modulus (GPa) = 28.91757 37.81920 33.36839
#
# Velocity S-wave (km/s) = 3.50471 4.00800 3.76477
# Velocity P-wave (km/s) = 5.47637 6.64491 6.08873
#
# Compressibility (1/GPa) = 0.03120184
#
# Stress axis : x y z
#
# Youngs Moduli (GPa) = 103.56710 37.12518 125.66458
#
# Poissons Ratio (x) = 0.09253 0.28551
# Poissons Ratio (y) = 0.25812 0.23993
# Poissons Ratio (z) = 0.23531 0.07088
#
# Static dielectric constant tensor:
#      x y z
#    x 1.986170 0.013460 0.002920 
#    y 0.013460 2.024260 0.076610 
#    z 0.002920 0.076610 1.862230 
# 
# From -- ./inp_files/313785.got.cif
#   From: 2010.05.17/outbox.cif.g08.bks.cpg/sg2_157_cif.got.tgz:313785.got - 2010.06.03 11:33:40.
