data_PCOD9057281
_publ_section_title
;
Structure prediction by ZEFSAII (Michael W. Deem and Ramdas Pophale) SiO2 
 PCOD9057281
Probable space group: P -1
;
_chemical_formula_sum "Si O2"
_cell_formula_units_Z 16
_cell_length_a 9.967057
_cell_length_b 5.290963
_cell_length_c 15.223611
_cell_angle_alpha 115.839246
_cell_angle_beta 82.425425
_cell_angle_gamma 72.104956
_cell_volume 653.665213
_symmetry_space_group_name_H-M "P -1"
_symmetry_group_IT_number 2
_symmetry_cell_setting 'triclinic'
loop_
_space_group_symop_operation_xyz
x,y,z
-x,-y,-z
loop_
_atom_site_type_symbol
_atom_site_label
_atom_site_fract_x
_atom_site_fract_y
_atom_site_fract_z
Si Si1 0.846255 0.176955 0.490483
Si Si2 0.794181 0.191178 0.824147
Si Si3 0.438796 0.243315 0.618506
Si Si4 0.726488 0.912472 0.616841
Si Si5 0.604822 0.887110 0.890118
Si Si6 0.051403 0.896894 0.881038
Si Si7 0.152823 0.263338 0.720083
Si Si8 0.355303 0.868015 0.783049
O O1 0.790287 0.544575 0.543246
O O2 0.744904 0.093724 0.556511
O O3 0.870738 0.011477 0.368087
O O4 0.000000 0.000000 0.500000
O O5 0.717336 0.538695 0.848662
O O6 0.805106 0.983080 0.705307
O O7 0.689292 0.098609 0.885239
O O8 0.944779 0.139131 0.855830
O O9 0.267236 0.310084 0.650678
O O10 0.428146 0.585679 0.666012
O O11 0.500000 0.000000 0.500000
O O12 0.547262 0.076797 0.665604
O O13 0.488865 0.887974 0.826552
O O14 0.500000 0.000000 0.000000
O O15 0.029570 0.593680 0.803866
O O16 0.226778 0.823798 0.846469
O O17 0.000000 0.000000 0.000000
O O18 0.250336 0.160065 0.782905
#
# Coordination Sequence:
#
# PCOD9057281 Si02
#       8
#     2   2   2   2   2   2   2   2
#     4  12  27  44  70 103 148 192 239 295 364 438
#     4  12  27  48  77 109 148 194 252 303 371 449
#     4  11  22  42  66 103 140 186 233 291 360 426
#     4  12  25  44  73 102 146 190 241 297 362 434
#     4  12  27  48  77 108 147 194 251 314 374 432
#     4  11  28  49  74 107 147 195 248 310 374 438
#     4  11  26  43  72 104 147 190 243 301 366 439
#     4  11  26  45  74 105 149 193 245 307 369 442
#
# _framework density 24.477360999999998
#
# number of rings (size 3 to 8) (size 9 to 14) (size 15 to 20)
#    0.000    0.500    2.500    4.500   10.500    1.500 
#    0.000    0.000    0.000    0.000    0.000    0.000 
#    0.000    0.000    0.000    0.000    0.000    0.000 
#
# Total GULP energy -89414.608748 kJ/mol
# GULP energy per Si atom -5588.413047 kJ/mol
# Density = 2.442165 g / cm^3
# Si number density = 24.477361 Si / 1000 Ang^3
#
#
#
# Elastic Constant Matrix: (Units=GPa)
#
#
# Indices 1 2 3 4 5 6 
#
# 1 102.1598 21.4430 -3.8244 0.5194 -5.6829 -14.8237
# 2 21.4430 110.3165 2.1812 -7.1411 -3.2659 -11.1870
# 3 -3.8244 2.1812 108.0667 -7.7180 -4.9193 1.6850
# 4 0.5194 -7.1411 -7.7180 25.5001 -7.3887 0.1726
# 5 -5.6829 -3.2659 -4.9193 -7.3887 27.6974 -14.8154
# 6 -14.8237 -11.1870 1.6850 0.1726 -14.8154 49.8244
#
#
#
# Elastic Compliance Matrix: (Units=1/GPa)
#
#
# Indices 1 2 3 4 5 6 
#
# 1 0.011017 -0.001518 0.000632 0.000887 0.004743 0.004323
# 2 -0.001518 0.009989 0.000130 0.003834 0.003402 0.002785
# 3 0.000632 0.000130 0.009695 0.003934 0.003389 0.000884
# 4 0.000887 0.003834 0.003934 0.046289 0.016797 0.005826
# 5 0.004743 0.003402 0.003389 0.016797 0.051885 0.017430
# 6 0.004323 0.002785 0.000884 0.005826 0.017430 0.027115
#
#
# Mechanical properties :
#
#
# Convention : Reuss Voigt Hill
#
# Bulk Modulus (GPa) = 34.25856 40.01585 37.13720
# Shear Modulus (GPa) = 29.89874 40.65393 35.27633
#
# Velocity S-wave (km/s) = 3.49877 4.07981 3.80041
# Velocity P-wave (km/s) = 5.50892 6.21102 5.87047
#
# Compressibility (1/GPa) = 0.02918978
#
# Stress axis : x y z
#
# Youngs Moduli (GPa) = 90.76513 100.11367 103.14886
#
# Poissons Ratio (x) = 0.15196 -0.06523
# Poissons Ratio (y) = 0.13777 -0.01341
# Poissons Ratio (z) = -0.05740 -0.01301
#
# Static dielectric constant tensor:
#      x y z
#    x 2.206460 0.131900 -0.156820 
#    y 0.131900 1.915710 -0.015260 
#    z -0.156820 -0.015260 1.965470 
# 
# From -- ./inp_files/511245.got.cif
#   From: 2010.05.17/outbox.cif.g08.bks.cpg/sg2_256_cif.got.tgz:511245.got - 2010.06.03 11:33:40.
