data_PCOD9057909
_publ_section_title
;
Structure prediction by ZEFSAII (Michael W. Deem and Ramdas Pophale) SiO2 
 PCOD9057909
Probable space group: P -1
;
_chemical_formula_sum "Si O2"
_cell_formula_units_Z 16
_cell_length_a 5.442280
_cell_length_b 9.305883
_cell_length_c 15.260494
_cell_angle_alpha 64.762169
_cell_angle_beta 117.013863
_cell_angle_gamma 104.214910
_cell_volume 621.530531
_symmetry_space_group_name_H-M "P -1"
_symmetry_group_IT_number 2
_symmetry_cell_setting 'triclinic'
loop_
_space_group_symop_operation_xyz
x,y,z
-x,-y,-z
loop_
_atom_site_type_symbol
_atom_site_label
_atom_site_fract_x
_atom_site_fract_y
_atom_site_fract_z
Si Si1 0.930864 0.271568 0.798152
Si Si2 0.313923 0.341288 0.120277
Si Si3 0.396037 0.120246 0.728566
Si Si4 0.772539 0.404262 0.548931
Si Si5 0.143198 0.891476 0.455492
Si Si6 0.159935 0.937902 0.905814
Si Si7 0.505069 0.674115 0.042542
Si Si8 0.480290 0.114423 0.335038
O O1 0.601664 0.258087 0.766376
O O2 0.917407 0.340047 0.678442
O O3 0.010802 0.088391 0.881402
O O4 0.813411 0.638565 0.134240
O O5 0.053053 0.215344 0.103695
O O6 0.480432 0.320078 0.062255
O O7 0.462926 0.285284 0.246145
O O8 0.295285 0.529368 0.075439
O O9 0.155994 0.166621 0.612556
O O10 0.559997 0.008503 0.719799
O O11 0.263649 0.012529 0.811393
O O12 0.500000 0.500000 0.500000
O O13 0.674579 0.245564 0.520302
O O14 0.000000 0.500000 0.500000
O O15 0.224955 0.898622 0.567731
O O16 0.250612 0.054697 0.383356
O O17 0.406290 0.843871 0.013982
#
# Coordination Sequence:
#
# PCOD9057909 Si02
#       8
#     2   2   2   2   2   2   2   2
#     4  12  26  46  72 107 143 197 252 298 380 456
#     4  11  23  48  66 105 144 182 245 311 375 442
#     4  12  20  44  72 104 148 185 249 317 365 446
#     4  12  27  49  73 106 157 198 243 315 382 459
#     4  11  24  43  73 109 139 193 252 303 373 445
#     4  12  22  45  75  98 141 191 249 312 364 441
#     4  11  27  44  71 103 146 192 242 311 376 445
#     4  11  22  43  74 104 140 189 252 304 372 444
#
# _framework density 25.742902999999998
#
# number of rings (size 3 to 8) (size 9 to 14) (size 15 to 20)
#    0.000    0.500    6.250    1.875    1.750    3.000 
#    0.000    2.500    0.000    0.000    0.000    0.000 
#    0.000    0.000    0.000    0.000    0.000    0.000 
#
# Total GULP energy -89381.672405 kJ/mol
# GULP energy per Si atom -5586.354525 kJ/mol
# Density = 2.568431 g / cm^3
# Si number density = 25.742903 Si / 1000 Ang^3
#
#
#
# Elastic Constant Matrix: (Units=GPa)
#
#
# Indices 1 2 3 4 5 6 
#
# 1 99.5245 16.5644 41.1885 -6.4693 2.4072 30.7931
# 2 16.5644 70.6246 30.2414 -11.1133 4.0001 20.2258
# 3 41.1885 30.2414 165.1875 -11.8485 -9.7639 18.6662
# 4 -6.4693 -11.1133 -11.8485 45.2568 13.3782 2.9450
# 5 2.4072 4.0001 -9.7639 13.3782 57.3340 -0.3649
# 6 30.7931 20.2258 18.6662 2.9450 -0.3649 43.7997
#
#
#
# Elastic Compliance Matrix: (Units=1/GPa)
#
#
# Indices 1 2 3 4 5 6 
#
# 1 0.014088 0.001040 -0.002538 0.002755 -0.001800 -0.009503
# 2 0.001040 0.018477 -0.002456 0.005518 -0.003093 -0.008614
# 3 -0.002538 -0.002456 0.007281 0.000543 0.001390 -0.000210
# 4 0.002755 0.005518 0.000543 0.026365 -0.006602 -0.006544
# 5 -0.001800 -0.003093 0.001390 -0.006602 0.019527 0.002708
# 6 -0.009503 -0.008614 -0.000210 -0.006544 0.002708 0.034042
#
#
# Mechanical properties :
#
#
# Convention : Reuss Voigt Hill
#
# Bulk Modulus (GPa) = 31.31053 56.81390 44.06222
# Shear Modulus (GPa) = 36.14437 45.76757 40.95597
#
# Velocity S-wave (km/s) = 3.75113 4.22106 3.99301
# Velocity P-wave (km/s) = 5.56332 6.77304 6.19776
#
# Compressibility (1/GPa) = 0.03193813
#
# Stress axis : x y z
#
# Youngs Moduli (GPa) = 70.98233 54.12036 137.34562
#
# Poissons Ratio (x) = -0.05626 0.34858
# Poissons Ratio (y) = -0.07379 0.33727
# Poissons Ratio (z) = 0.18015 0.13290
#
# Static dielectric constant tensor:
#      x y z
#    x 2.186900 -0.043840 0.093420 
#    y -0.043840 2.079810 -0.009110 
#    z 0.093420 -0.009110 2.029950 
# 
# From -- ./inp_files/123280.got.cif
#   From: 2010.05.17/outbox.cif.g08.bks.cpg/sg2_62_cif.got.tgz:123280.got - 2010.06.03 11:33:40.
