data_PCOD9057851
_publ_section_title
;
Structure prediction by ZEFSAII (Michael W. Deem and Ramdas Pophale) SiO2 
 PCOD9057851
Probable space group: P -1
;
_chemical_formula_sum "Si O2"
_cell_formula_units_Z 15
_cell_length_a 13.694641
_cell_length_b 7.878148
_cell_length_c 14.187668
_cell_angle_alpha 102.063671
_cell_angle_beta 150.572198
_cell_angle_gamma 60.583314
_cell_volume 563.031995
_symmetry_space_group_name_H-M "P -1"
_symmetry_group_IT_number 2
_symmetry_cell_setting 'triclinic'
loop_
_space_group_symop_operation_xyz
x,y,z
-x,-y,-z
loop_
_atom_site_type_symbol
_atom_site_label
_atom_site_fract_x
_atom_site_fract_y
_atom_site_fract_z
Si Si1 0.190340 0.201993 0.976654
Si Si2 0.740756 0.759104 0.457597
Si Si3 0.735181 0.990993 0.664033
Si Si4 0.182620 0.679241 0.161808
Si Si5 0.595616 0.553978 0.859154
Si Si6 0.785542 0.320542 0.179584
Si Si7 0.000000 0.000000 0.500000
Si Si8 0.920461 0.280264 0.579184
O O1 0.991958 0.330196 0.912583
O O2 0.027111 0.194018 0.761562
O O3 0.257485 0.347007 0.001287
O O4 0.460175 0.957817 0.200995
O O5 0.751892 0.552230 0.474192
O O6 0.026165 0.621329 0.638095
O O7 0.763500 0.899293 0.572532
O O8 0.702656 0.216066 0.676587
O O9 0.500000 0.000000 0.500000
O O10 0.973042 0.831083 0.918671
O O11 0.404688 0.478130 0.257742
O O12 0.290674 0.736936 0.651058
O O13 0.722891 0.350598 0.017065
O O14 0.912167 0.108315 0.328601
O O15 0.500000 0.500000 0.000000
O O16 0.118268 0.139448 0.644785
#
# Coordination Sequence:
#
# PCOD9057851 Si02
#       8
#     2   2   2   2   2   2   1   2
#     4  12  28  50  81 125 165 219 271 324 410 493
#     4  12  27  50  83 113 168 212 266 337 406 484
#     4  11  22  43  72 123 162 214 268 321 396 478
#     4  11  25  41  83 122 164 223 265 326 400 485
#     4  12  26  53  79 119 171 209 273 338 401 483
#     4  12  27  54  82 116 157 209 270 346 403 480
#     4  12  30  50  86 112 148 210 278 332 416 468
#     4  12  29  52  80 120 157 217 271 342 404 484
#
# _framework density 26.641470000000002
#
# number of rings (size 3 to 8) (size 9 to 14) (size 15 to 20)
#    0.000    0.267    5.333    2.000    7.467    1.067 
#    0.000    3.333    0.000    0.000    0.000    0.000 
#    0.000    0.000    0.000    0.000    0.000    0.000 
#
# Total GULP energy -83518.118202 kJ/mol
# GULP energy per Si atom -5567.874547 kJ/mol
# Density = 2.658083 g / cm^3
# Si number density = 26.641470 Si / 1000 Ang^3
#
#
#
# Elastic Constant Matrix: (Units=GPa)
#
#
# Indices 1 2 3 4 5 6 
#
# 1 130.1139 49.9942 74.2405 11.9059 -13.6308 -4.7224
# 2 49.9942 95.7586 42.6234 6.7898 -24.8758 -22.8121
# 3 74.2405 42.6234 173.6823 -3.8348 -21.8592 1.3851
# 4 11.9059 6.7898 -3.8348 18.8585 7.2726 -2.7171
# 5 -13.6308 -24.8758 -21.8592 7.2726 68.4007 13.2364
# 6 -4.7224 -22.8121 1.3851 -2.7171 13.2364 28.4259
#
#
#
# Elastic Compliance Matrix: (Units=1/GPa)
#
#
# Indices 1 2 3 4 5 6 
#
# 1 0.012591 -0.004439 -0.004346 -0.007890 0.000807 -0.002389
# 2 -0.004439 0.017537 -0.002214 -0.003367 0.002862 0.011789
# 3 -0.004346 -0.002214 0.008423 0.004379 0.001139 -0.003022
# 4 -0.007890 -0.003367 0.004379 0.064699 -0.009512 0.006388
# 5 0.000807 0.002862 0.001139 -0.009512 0.018588 -0.007189
# 6 -0.002389 0.011789 -0.003022 0.006388 -0.007189 0.048349
#
#
# Mechanical properties :
#
#
# Convention : Reuss Voigt Hill
#
# Bulk Modulus (GPa) = 60.41703 81.47455 70.94579
# Shear Modulus (GPa) = 25.29041 38.65013 31.97027
#
# Velocity S-wave (km/s) = 3.08439 3.81300 3.46789
# Velocity P-wave (km/s) = 5.95077 7.07344 6.53626
#
# Compressibility (1/GPa) = 0.01655162
#
# Stress axis : x y z
#
# Youngs Moduli (GPa) = 79.42316 57.02266 118.72177
#
# Poissons Ratio (x) = 0.25312 0.51598
# Poissons Ratio (y) = 0.35255 0.26290
# Poissons Ratio (z) = 0.34519 0.12627
#
# Static dielectric constant tensor:
#      x y z
#    x 2.119870 -0.238610 0.034130 
#    y -0.238610 2.440580 -0.200770 
#    z 0.034130 -0.200770 2.039080 
# 
# From -- ./inp_files/528762.got.cif
#   From: 2010.05.17/outbox.cif.g08.bks.cpg/sg2_265_cif.got.tgz:528762.got - 2010.06.03 11:33:40.
