data_PCOD9057671
_publ_section_title
;
Structure prediction by ZEFSAII (Michael W. Deem and Ramdas Pophale) SiO2 
 PCOD9057671
Probable space group: P -1
;
_chemical_formula_sum "Si O2"
_cell_formula_units_Z 14
_cell_length_a 10.870982
_cell_length_b 14.219371
_cell_length_c 13.206017
_cell_angle_alpha 50.999948
_cell_angle_beta 44.235715
_cell_angle_gamma 90.623594
_cell_volume 579.849301
_symmetry_space_group_name_H-M "P -1"
_symmetry_group_IT_number 2
_symmetry_cell_setting 'triclinic'
loop_
_space_group_symop_operation_xyz
x,y,z
-x,-y,-z
loop_
_atom_site_type_symbol
_atom_site_label
_atom_site_fract_x
_atom_site_fract_y
_atom_site_fract_z
Si Si1 0.267717 0.099681 0.558502
Si Si2 0.789740 0.435927 0.260453
Si Si3 0.189416 0.829281 0.919751
Si Si4 0.770091 0.722730 0.407183
Si Si5 0.990508 0.642875 0.699567
Si Si6 0.247589 0.012881 0.421389
Si Si7 0.384295 0.526768 0.139877
O O1 0.350859 0.031705 0.622176
O O2 0.513355 0.360914 0.423811
O O3 0.074217 0.948369 0.673511
O O4 0.053215 0.068337 0.772080
O O5 0.727186 0.280087 0.471956
O O6 0.976446 0.630747 0.098351
O O7 0.000000 0.500000 0.000000
O O8 0.968943 0.767547 0.175246
O O9 0.445194 0.889056 0.783479
O O10 0.660372 0.564389 0.665748
O O11 0.375807 0.628741 0.867504
O O12 0.963558 0.632596 0.601165
O O13 0.049438 0.808574 0.602455
O O14 0.385411 0.219458 0.156217
O O15 0.500000 0.500000 0.000000
#
# Coordination Sequence:
#
# PCOD9057671 Si02
#       7
#     2   2   2   2   2   2   2
#     4  11  22  43  68 101 135 178 232 283 334 408
#     4  12  21  44  72 102 133 182 235 284 331 417
#     4  12  25  41  69 107 139 182 225 288 358 397
#     4  12  25  43  68 103 149 173 222 298 347 399
#     4  11  23  42  76 100 129 176 249 278 328 402
#     4  11  23  43  74  99 131 188 237 276 339 413
#     4  11  22  48  68 100 137 182 232 285 334 417
#
# _framework density 24.144202
#
# number of rings (size 3 to 8) (size 9 to 14) (size 15 to 20)
#    0.000    0.571    7.143    3.000    0.000    1.143 
#    2.571    0.714    0.000    0.000    0.000    0.000 
#    0.000    0.000    0.000    0.000    0.000    0.000 
#
# Total GULP energy -78257.747820 kJ/mol
# GULP energy per Si atom -5589.839130 kJ/mol
# Density = 2.408925 g / cm^3
# Si number density = 24.144202 Si / 1000 Ang^3
#
#
#
# Elastic Constant Matrix: (Units=GPa)
#
#
# Indices 1 2 3 4 5 6 
#
# 1 180.6041 55.2748 47.2282 -8.6063 22.3739 -9.1470
# 2 55.2748 219.0946 60.7372 -9.1623 4.3572 -5.1791
# 3 47.2282 60.7372 43.4191 7.2185 10.6288 1.5829
# 4 -8.6063 -9.1623 7.2185 46.6239 -11.0809 1.9612
# 5 22.3739 4.3572 10.6288 -11.0809 30.8650 -14.1981
# 6 -9.1470 -5.1791 1.5829 1.9612 -14.1981 52.2347
#
#
#
# Elastic Compliance Matrix: (Units=1/GPa)
#
#
# Indices 1 2 3 4 5 6 
#
# 1 0.008452 0.001245 -0.011494 0.003437 -0.000311 0.001738
# 2 0.001245 0.009279 -0.017422 0.006437 0.007718 0.003522
# 3 -0.011494 -0.017422 0.070812 -0.022500 -0.027419 -0.012494
# 4 0.003437 0.006437 -0.022500 0.030880 0.018041 0.005666
# 5 -0.000311 0.007718 -0.027419 0.018041 0.054690 0.015730
# 6 0.001738 0.003522 -0.012494 0.005666 0.015730 0.024239
#
#
# Mechanical properties :
#
#
# Convention : Reuss Voigt Hill
#
# Bulk Modulus (GPa) = 30.11879 85.51089 57.81484
# Shear Modulus (GPa) = 18.88504 44.60322 31.74413
#
# Velocity S-wave (km/s) = 2.79978 4.30276 3.62991
# Velocity P-wave (km/s) = 4.79096 7.75749 6.44717
#
# Compressibility (1/GPa) = 0.03320186
#
# Stress axis : x y z
#
# Youngs Moduli (GPa) = 118.31691 107.77360 14.12193
#
# Poissons Ratio (x) = -0.13417 0.16231
# Poissons Ratio (y) = -0.14730 0.24603
# Poissons Ratio (z) = 1.35989 1.87760
#
# Static dielectric constant tensor:
#      x y z
#    x 2.033280 -0.004780 -0.036570 
#    y -0.004780 1.959520 -0.029640 
#    z -0.036570 -0.029640 1.978820 
# 
# From -- ./inp_files/286022.got.cif
#   From: 2010.05.17/outbox.cif.g08.bks.cpg/sg2_144_cif.got.tgz:286022.got - 2010.06.03 11:33:40.
