data_PCOD9057117
_publ_section_title
;
Structure prediction by ZEFSAII (Michael W. Deem and Ramdas Pophale) SiO2 
 PCOD9057117
Probable space group: P -1
;
_chemical_formula_sum "Si O2"
_cell_formula_units_Z 14
_cell_length_a 12.080965
_cell_length_b 9.973410
_cell_length_c 7.479063
_cell_angle_alpha 67.261922
_cell_angle_beta 70.914340
_cell_angle_gamma 53.042013
_cell_volume 658.623177
_symmetry_space_group_name_H-M "P -1"
_symmetry_group_IT_number 2
_symmetry_cell_setting 'triclinic'
loop_
_space_group_symop_operation_xyz
x,y,z
-x,-y,-z
loop_
_atom_site_type_symbol
_atom_site_label
_atom_site_fract_x
_atom_site_fract_y
_atom_site_fract_z
Si Si1 0.995228 0.659237 0.016266
Si Si2 0.703652 0.430590 0.447164
Si Si3 0.553872 0.385207 0.255389
Si Si4 0.425781 0.180629 0.343852
Si Si5 0.982785 0.838971 0.576677
Si Si6 0.683879 0.582917 0.024383
Si Si7 0.869917 0.696269 0.433158
O O1 0.157482 0.563366 0.037072
O O2 0.893330 0.732286 0.199895
O O3 0.000000 0.500000 0.000000
O O4 0.955672 0.798715 0.811424
O O5 0.669795 0.319182 0.387298
O O6 0.594044 0.491197 0.630994
O O7 0.862498 0.322359 0.474215
O O8 0.676327 0.583134 0.244572
O O9 0.537520 0.235513 0.270778
O O10 0.596073 0.498271 0.061281
O O11 0.374077 0.235735 0.136514
O O12 0.275029 0.290103 0.465938
O O13 0.500000 0.000000 0.500000
O O14 0.881655 0.824929 0.497955
O O15 0.000000 0.000000 0.500000
O O16 0.000000 0.500000 0.500000
#
# Coordination Sequence:
#
# PCOD9057117 Si02
#       7
#     2   2   2   2   2   2   2
#     4  11  22  41  70  97 127 175 226 267 324 401
#     4   8  19  37  66  84 115 164 221 250 309 389
#     4   9  19  39  63  84 118 164 217 249 315 390
#     4  12  25  38  60  95 135 160 206 279 327 375
#     4  11  24  42  66  97 137 164 220 286 324 372
#     4   9  19  38  62  87 115 167 213 255 315 386
#     4  12  24  43  70  97 131 180 225 258 332 406
#
# _framework density 21.256464000000001
#
# number of rings (size 3 to 8) (size 9 to 14) (size 15 to 20)
#    0.857    0.857    2.857    1.286    4.000    0.571 
#    2.571    0.714    0.000    0.000    0.000    0.000 
#    0.000    0.000    0.000    0.000    0.000    0.000 
#
# Total GULP energy -77945.551156 kJ/mol
# GULP energy per Si atom -5567.539368 kJ/mol
# Density = 2.120808 g / cm^3
# Si number density = 21.256464 Si / 1000 Ang^3
#
#
#
# Elastic Constant Matrix: (Units=GPa)
#
#
# Indices 1 2 3 4 5 6 
#
# 1 80.9416 10.4162 29.4941 -0.8435 -11.6068 2.0263
# 2 10.4162 35.3120 38.2330 -16.4685 6.1080 2.9521
# 3 29.4941 38.2330 155.9777 -17.0709 -6.1807 5.9027
# 4 -0.8435 -16.4685 -17.0709 34.5768 -2.4378 -13.3634
# 5 -11.6068 6.1080 -6.1807 -2.4378 29.1908 4.7369
# 6 2.0263 2.9521 5.9027 -13.3634 4.7369 31.4879
#
#
#
# Elastic Compliance Matrix: (Units=1/GPa)
#
#
# Indices 1 2 3 4 5 6 
#
# 1 0.014558 -0.005219 -0.001481 -0.003402 0.006708 -0.002623
# 2 -0.005219 0.053909 -0.010688 0.022770 -0.015216 0.009238
# 3 -0.001481 -0.010688 0.009434 -0.000814 0.003836 -0.001594
# 4 -0.003402 0.022770 -0.000814 0.046092 -0.005462 0.018620
# 5 0.006708 -0.015216 0.003836 -0.005462 0.041817 -0.008333
# 6 -0.002623 0.009238 -0.001594 0.018620 -0.008333 0.040516
#
#
# Mechanical properties :
#
#
# Convention : Reuss Voigt Hill
#
# Bulk Modulus (GPa) = 23.18772 47.61311 35.40041
# Shear Modulus (GPa) = 19.57131 31.99030 25.78081
#
# Velocity S-wave (km/s) = 3.03763 3.88360 3.48637
# Velocity P-wave (km/s) = 4.82029 6.52363 5.73555
#
# Compressibility (1/GPa) = 0.04312628
#
# Stress axis : x y z
#
# Youngs Moduli (GPa) = 68.69088 18.54976 105.99807
#
# Poissons Ratio (x) = 0.09681 0.15697
# Poissons Ratio (y) = 0.35849 1.13288
# Poissons Ratio (z) = 0.10172 0.19826
#
# Static dielectric constant tensor:
#      x y z
#    x 2.150030 0.090320 0.227950 
#    y 0.090320 1.771920 0.016860 
#    z 0.227950 0.016860 1.931560 
# 
# From -- ./inp_files/256225.got.cif
#   From: 2010.05.17/outbox.cif.g08.bks.cpg/sg2_129_cif.got.tgz:256225.got - 2010.06.03 11:33:40.
