data_PCOD9057866
_publ_section_title
;
Structure prediction by ZEFSAII (Michael W. Deem and Ramdas Pophale) SiO2 
 PCOD9057866
Probable space group: P -1
;
_chemical_formula_sum "Si O2"
_cell_formula_units_Z 16
_cell_length_a 9.216439
_cell_length_b 14.948936
_cell_length_c 14.776080
_cell_angle_alpha 53.782397
_cell_angle_beta 95.961483
_cell_angle_gamma 139.930671
_cell_volume 784.229506
_symmetry_space_group_name_H-M "P -1"
_symmetry_group_IT_number 2
_symmetry_cell_setting 'triclinic'
loop_
_space_group_symop_operation_xyz
x,y,z
-x,-y,-z
loop_
_atom_site_type_symbol
_atom_site_label
_atom_site_fract_x
_atom_site_fract_y
_atom_site_fract_z
Si Si1 0.758874 0.601322 0.555540
Si Si2 0.126266 0.951941 0.216255
Si Si3 0.732366 0.570011 0.278389
Si Si4 0.852004 0.219294 0.371590
Si Si5 0.198929 0.056514 0.549792
Si Si6 0.250468 0.889560 0.981291
Si Si7 0.266154 0.118313 0.732187
Si Si8 0.825620 0.383849 0.965825
O O1 0.534055 0.521208 0.654685
O O2 0.550243 0.392673 0.597454
O O3 0.995441 0.835663 0.376512
O O4 0.959761 0.658272 0.596913
O O5 0.976577 0.756711 0.261358
O O6 0.993499 0.985764 0.169057
O O7 0.479610 0.186241 0.081617
O O8 0.547619 0.332295 0.398325
O O9 0.946255 0.725421 0.112361
O O10 0.003658 0.416525 0.206195
O O11 0.500000 0.000000 0.500000
O O12 0.869392 0.112871 0.385746
O O13 0.163089 0.035469 0.670295
O O14 0.000000 0.000000 0.500000
O O15 0.168142 0.733858 0.004457
O O16 0.500000 0.000000 0.000000
O O17 0.349049 0.060592 0.824480
O O18 0.000000 0.500000 0.000000
#
# Coordination Sequence:
#
# PCOD9057866 Si02
#       8
#     2   2   2   2   2   2   2   2
#     4  11  22  44  72 105 137 183 235 290 360 419
#     4  11  22  44  74 102 141 177 236 292 362 416
#     4  11  22  43  73 100 142 179 231 295 346 418
#     4  12  26  45  69 101 142 189 232 286 362 424
#     4  12  23  45  72 106 140 178 243 294 345 422
#     4  12  26  46  67 105 143 185 240 293 351 417
#     4  11  24  41  73 106 136 186 238 288 352 427
#     4  12  27  48  67 100 147 188 230 294 361 420
#
# _framework density 20.402190999999998
#
# number of rings (size 3 to 8) (size 9 to 14) (size 15 to 20)
#    0.000    0.500    5.000    3.750    1.750    2.000 
#    0.000    3.750    0.000    0.000    0.000    0.000 
#    0.000    0.000    0.000    0.000    0.000    0.000 
#
# Total GULP energy -89254.325750 kJ/mol
# GULP energy per Si atom -5578.395359 kJ/mol
# Density = 2.035575 g / cm^3
# Si number density = 20.402191 Si / 1000 Ang^3
#
#
#
# Elastic Constant Matrix: (Units=GPa)
#
#
# Indices 1 2 3 4 5 6 
#
# 1 89.0809 27.4303 62.7075 3.4017 4.8811 -4.0924
# 2 27.4303 111.2364 24.4552 -0.7386 -4.1680 0.5669
# 3 62.7075 24.4552 125.3847 -10.4074 -2.9549 15.0724
# 4 3.4017 -0.7386 -10.4074 32.3670 5.0878 0.5440
# 5 4.8811 -4.1680 -2.9549 5.0878 42.9027 -5.9940
# 6 -4.0924 0.5669 15.0724 0.5440 -5.9940 38.4425
#
#
#
# Elastic Compliance Matrix: (Units=1/GPa)
#
#
# Indices 1 2 3 4 5 6 
#
# 1 0.020337 -0.002757 -0.010888 -0.005524 -0.001800 0.006272
# 2 -0.002757 0.009824 -0.000487 0.000169 0.001206 -0.000062
# 3 -0.010888 -0.000487 0.014861 0.005945 0.000535 -0.006979
# 4 -0.005524 0.000169 0.005945 0.034013 -0.003532 -0.003953
# 5 -0.001800 0.001206 0.000535 -0.003532 0.024570 0.003462
# 6 0.006272 -0.000062 -0.006979 -0.003953 0.003462 0.030014
#
#
# Mechanical properties :
#
#
# Convention : Reuss Voigt Hill
#
# Bulk Modulus (GPa) = 59.67903 61.65423 60.66663
# Shear Modulus (GPa) = 29.85636 36.81637 33.33637
#
# Velocity S-wave (km/s) = 3.82958 4.25258 4.04661
# Velocity P-wave (km/s) = 6.99064 7.37548 7.18563
#
# Compressibility (1/GPa) = 0.01675631
#
# Stress axis : x y z
#
# Youngs Moduli (GPa) = 49.17128 101.79637 67.29102
#
# Poissons Ratio (x) = 0.28069 0.73267
# Poissons Ratio (y) = 0.13558 0.03278
# Poissons Ratio (z) = 0.53538 0.04959
#
# Static dielectric constant tensor:
#      x y z
#    x 1.749440 0.008190 0.004510 
#    y 0.008190 1.726220 0.040190 
#    z 0.004510 0.040190 1.695310 
# 
# From -- ./inp_files/382122.got.cif
#   From: 2010.05.17/outbox.cif.g08.bks.cpg/sg2_192_cif.got.tgz:382122.got - 2010.06.03 11:33:40.
