data_PCOD9057477
_publ_section_title
;
Structure prediction by ZEFSAII (Michael W. Deem and Ramdas Pophale) SiO2 
 PCOD9057477
Probable space group: P -1
;
_chemical_formula_sum "Si O2"
_cell_formula_units_Z 16
_cell_length_a 16.021754
_cell_length_b 9.780212
_cell_length_c 9.985228
_cell_angle_alpha 86.165283
_cell_angle_beta 46.134813
_cell_angle_gamma 51.864878
_cell_volume 684.229603
_symmetry_space_group_name_H-M "P -1"
_symmetry_group_IT_number 2
_symmetry_cell_setting 'triclinic'
loop_
_space_group_symop_operation_xyz
x,y,z
-x,-y,-z
loop_
_atom_site_type_symbol
_atom_site_label
_atom_site_fract_x
_atom_site_fract_y
_atom_site_fract_z
Si Si1 0.190913 0.301337 0.562980
Si Si2 0.305905 0.267169 0.720309
Si Si3 0.834189 0.226736 0.844862
Si Si4 0.349971 0.152517 0.971609
Si Si5 0.802851 0.008811 0.456677
Si Si6 0.460382 0.399730 0.630920
Si Si7 0.227467 0.489260 0.306777
Si Si8 0.643732 0.155230 0.917170
O O1 0.178480 0.352191 0.728839
O O2 0.111325 0.225499 0.626525
O O3 0.126934 0.485267 0.526182
O O4 0.419908 0.066757 0.291746
O O5 0.250752 0.276698 0.931852
O O6 0.360350 0.375868 0.657023
O O7 0.500000 0.000000 0.500000
O O8 0.875387 0.290659 0.669912
O O9 0.753626 0.161666 0.882929
O O10 0.027797 0.040979 0.725993
O O11 0.674124 0.441887 0.103787
O O12 0.300201 0.315201 0.123408
O O13 0.301273 0.050137 0.090303
O O14 0.659225 0.157006 0.483755
O O15 0.688096 0.135909 0.713410
O O16 0.500000 0.500000 0.500000
O O17 0.415290 0.378846 0.173064
#
# Coordination Sequence:
#
# PCOD9057477 Si02
#       8
#     2   2   2   2   2   2   2   2
#     4  10  19  34  68  99 125 172 220 265 325 386
#     4  10  19  38  67  99 123 173 225 265 329 392
#     4  12  27  40  67 100 135 172 221 272 331 396
#     4  10  17  36  69  93 128 170 225 267 325 384
#     4  12  23  45  66  97 138 171 215 279 334 387
#     4  12  27  45  68  93 133 178 223 271 330 397
#     4  11  19  39  67  97 130 169 226 272 321 387
#     4  11  21  39  66  99 133 175 216 273 332 392
#
# _framework density 23.383962
#
# number of rings (size 3 to 8) (size 9 to 14) (size 15 to 20)
#    0.000    1.000    7.500    1.500    5.250    1.000 
#    0.000    0.625    0.000    0.000    0.000    0.000 
#    0.000    0.000    0.000    0.000    0.000    0.000 
#
# Total GULP energy -89623.695525 kJ/mol
# GULP energy per Si atom -5601.480970 kJ/mol
# Density = 2.333074 g / cm^3
# Si number density = 23.383962 Si / 1000 Ang^3
#
#
#
# Elastic Constant Matrix: (Units=GPa)
#
#
# Indices 1 2 3 4 5 6 
#
# 1 114.2232 -9.4833 26.9899 -11.8924 -13.2016 19.1058
# 2 -9.4833 46.9582 24.5342 -17.5182 -4.7559 7.5340
# 3 26.9899 24.5342 57.2442 -5.5603 2.2850 -3.5197
# 4 -11.8924 -17.5182 -5.5603 35.5014 -2.3609 -5.1503
# 5 -13.2016 -4.7559 2.2850 -2.3609 30.4578 -7.5148
# 6 19.1058 7.5340 -3.5197 -5.1503 -7.5148 43.0840
#
#
#
# Elastic Compliance Matrix: (Units=1/GPa)
#
#
# Indices 1 2 3 4 5 6 
#
# 1 0.018939 0.020610 -0.017552 0.013081 0.011315 -0.009899
# 2 0.020610 0.058389 -0.033574 0.029518 0.019099 -0.015233
# 3 -0.017552 -0.033574 0.039985 -0.015271 -0.013908 0.012670
# 4 0.013081 0.029518 -0.015271 0.045002 0.013823 -0.004420
# 5 0.011315 0.019099 -0.013908 0.013823 0.042738 -0.000387
# 6 -0.009899 -0.015233 0.012670 -0.004420 -0.000387 0.030703
#
#
# Mechanical properties :
#
#
# Convention : Reuss Voigt Hill
#
# Bulk Modulus (GPa) = 17.76829 33.61191 25.69010
# Shear Modulus (GPa) = 15.84536 33.56762 24.70649
#
# Velocity S-wave (km/s) = 2.60593 3.79291 3.25400
# Velocity P-wave (km/s) = 4.08283 5.79540 5.01279
#
# Compressibility (1/GPa) = 0.05628003
#
# Stress axis : x y z
#
# Youngs Moduli (GPa) = 52.80141 17.12643 25.00941
#
# Poissons Ratio (x) = -0.35297 0.43897
# Poissons Ratio (y) = -1.08822 0.83967
# Poissons Ratio (z) = 0.92678 0.57500
#
# Static dielectric constant tensor:
#      x y z
#    x 1.844960 -0.033550 -0.020580 
#    y -0.033550 1.878260 0.034460 
#    z -0.020580 0.034460 1.916930 
# 
# From -- ./inp_files/445810.got.cif
#   From: 2010.05.17/outbox.cif.g08.bks.cpg/sg2_223_cif.got.tgz:445810.got - 2010.06.03 11:33:40.
