data_PCOD9057430
_publ_section_title
;
Structure prediction by ZEFSAII (Michael W. Deem and Ramdas Pophale) SiO2 
 PCOD9057430
Probable space group: P -1
;
_chemical_formula_sum "Si O2"
_cell_formula_units_Z 16
_cell_length_a 14.867912
_cell_length_b 7.176318
_cell_length_c 17.902863
_cell_angle_alpha 70.492518
_cell_angle_beta 155.385929
_cell_angle_gamma 119.287880
_cell_volume 660.822917
_symmetry_space_group_name_H-M "P -1"
_symmetry_group_IT_number 2
_symmetry_cell_setting 'triclinic'
loop_
_space_group_symop_operation_xyz
x,y,z
-x,-y,-z
loop_
_atom_site_type_symbol
_atom_site_label
_atom_site_fract_x
_atom_site_fract_y
_atom_site_fract_z
Si Si1 0.043442 0.366275 0.861065
Si Si2 0.769384 0.040564 0.814813
Si Si3 0.421870 0.332445 0.033133
Si Si4 0.156101 0.375838 0.588911
Si Si5 0.049609 0.059203 0.297169
Si Si6 0.775764 0.321096 0.535309
Si Si7 0.282074 0.080888 0.622162
Si Si8 0.819425 0.238896 0.983559
O O1 0.151999 0.532359 0.990347
O O2 0.811825 0.151854 0.750847
O O3 0.917138 0.462085 0.695465
O O4 0.247434 0.338198 0.969937
O O5 0.517656 0.811833 0.665695
O O6 0.811100 0.210532 0.892090
O O7 0.000000 0.000000 0.000000
O O8 0.679640 0.431125 0.255664
O O9 0.500000 0.500000 0.000000
O O10 0.242667 0.096693 0.889627
O O11 0.113975 0.511188 0.472260
O O12 0.933124 0.163402 0.486714
O O13 0.301467 0.255204 0.677077
O O14 0.023291 0.189677 0.186419
O O15 0.154658 0.882664 0.384726
O O16 0.202581 0.161094 0.475038
O O17 0.534042 0.069315 0.808459
#
# Coordination Sequence:
#
# PCOD9057430 Si02
#       8
#     2   2   2   2   2   2   2   2
#     4  11  25  45  67 104 141 185 238 288 355 421
#     4  12  25  47  74 103 138 188 239 299 350 418
#     4  11  22  42  70 102 141 184 235 293 351 420
#     4  11  23  44  69 105 143 189 231 294 358 422
#     4  11  24  43  68 104 139 186 237 288 352 421
#     4  11  24  46  72 101 140 185 236 296 353 418
#     4  11  24  44  70 103 147 185 235 288 357 429
#     4  12  25  46  72 104 147 189 233 295 354 420
#
# _framework density 24.212236000000001
#
# number of rings (size 3 to 8) (size 9 to 14) (size 15 to 20)
#    0.000    0.750    3.750    4.500    0.000    2.500 
#    0.000    3.750    0.000    0.000    0.000    0.000 
#    0.000    0.000    0.000    0.000    0.000    0.000 
#
# Total GULP energy -89162.687588 kJ/mol
# GULP energy per Si atom -5572.667974 kJ/mol
# Density = 2.415713 g / cm^3
# Si number density = 24.212236 Si / 1000 Ang^3
#
#
#
# Elastic Constant Matrix: (Units=GPa)
#
#
# Indices 1 2 3 4 5 6 
#
# 1 87.2711 3.2814 1.7757 -9.3204 8.7987 14.2702
# 2 3.2814 34.8214 -1.0354 -13.7465 14.2682 13.9451
# 3 1.7757 -1.0354 97.6734 -5.5239 3.4654 11.7098
# 4 -9.3204 -13.7465 -5.5239 43.8767 1.6181 -8.8502
# 5 8.7987 14.2682 3.4654 1.6181 42.6632 -4.6590
# 6 14.2702 13.9451 11.7098 -8.8502 -4.6590 39.4851
#
#
#
# Elastic Compliance Matrix: (Units=1/GPa)
#
#
# Indices 1 2 3 4 5 6 
#
# 1 0.013245 0.004980 0.000996 0.003340 -0.005339 -0.006722
# 2 0.004980 0.050814 0.004444 0.014207 -0.021146 -0.020374
# 3 0.000996 0.004444 0.011116 0.002086 -0.003235 -0.005141
# 4 0.003340 0.014207 0.002086 0.028198 -0.006824 -0.001328
# 5 -0.005339 -0.021146 -0.003235 -0.006824 0.033530 0.012784
# 6 -0.006722 -0.020374 -0.005141 -0.001328 0.012784 0.037686
#
#
# Mechanical properties :
#
#
# Convention : Reuss Voigt Hill
#
# Bulk Modulus (GPa) = 10.41495 25.31214 17.86355
# Shear Modulus (GPa) = 26.91733 39.58795 33.25264
#
# Velocity S-wave (km/s) = 3.33787 4.04795 3.70994
# Velocity P-wave (km/s) = 4.37790 5.68549 5.07400
#
# Compressibility (1/GPa) = 0.09601583
#
# Stress axis : x y z
#
# Youngs Moduli (GPa) = 75.49894 19.67981 89.95841
#
# Poissons Ratio (x) = -0.09800 -0.08962
# Poissons Ratio (y) = -0.37597 -0.39982
# Poissons Ratio (z) = -0.07521 -0.08747
#
# Static dielectric constant tensor:
#      x y z
#    x 1.873610 -0.126980 -0.019070 
#    y -0.126980 1.976450 -0.001990 
#    z -0.019070 -0.001990 1.953400 
# 
# From -- ./inp_files/599483.got.cif
#   From: 2010.05.17/outbox.cif.g08.bks.cpg/sg2_300_cif.got.tgz:599483.got - 2010.06.03 11:33:40.
