data_PCOD9057917
_publ_section_title
;
Structure prediction by ZEFSAII (Michael W. Deem and Ramdas Pophale) SiO2 
 PCOD9057917
Probable space group: P -1
;
_chemical_formula_sum "Si O2"
_cell_formula_units_Z 12
_cell_length_a 11.341974
_cell_length_b 5.427881
_cell_length_c 11.952427
_cell_angle_alpha 87.867838
_cell_angle_beta 53.902341
_cell_angle_gamma 61.026849
_cell_volume 487.033924
_symmetry_space_group_name_H-M "P -1"
_symmetry_group_IT_number 2
_symmetry_cell_setting 'triclinic'
loop_
_space_group_symop_operation_xyz
x,y,z
-x,-y,-z
loop_
_atom_site_type_symbol
_atom_site_label
_atom_site_fract_x
_atom_site_fract_y
_atom_site_fract_z
Si Si1 0.216554 0.839490 0.608260
Si Si2 0.708742 0.736565 0.122810
Si Si3 0.118671 0.138051 0.437703
Si Si4 0.502661 0.796554 0.598572
Si Si5 0.004499 0.812070 0.895154
Si Si6 0.465073 0.774904 0.090073
O O1 0.342459 0.777040 0.644905
O O2 0.314190 0.521882 0.498171
O O3 0.033457 0.935134 0.764449
O O4 0.202684 0.054426 0.517438
O O5 0.825697 0.525163 0.164944
O O6 0.621259 0.613386 0.099436
O O7 0.548463 0.047702 0.257209
O O8 0.838664 0.791437 0.982811
O O9 0.000000 0.500000 0.500000
O O10 0.275421 0.972591 0.259044
O O11 0.000000 0.000000 0.500000
O O12 0.500000 0.000000 0.500000
O O13 0.000000 0.000000 0.000000
O O14 0.500000 0.500000 0.000000
O O15 0.500000 0.000000 0.000000
#
# Coordination Sequence:
#
# PCOD9057917 Si02
#       6
#     2   2   2   2   2   2
#     4  11  26  43  78 109 158 199 271 325 415 478
#     4  11  26  45  77 110 160 198 274 322 418 479
#     4  12  31  54  81 117 163 220 281 337 400 487
#     4  11  22  43  74 113 142 201 253 335 404 480
#     4  11  24  44  74 118 152 202 250 341 404 484
#     4  12  31  55  83 114 159 224 278 337 404 489
#
# _framework density 24.638942
#
# number of rings (size 3 to 8) (size 9 to 14) (size 15 to 20)
#    0.000    0.667    3.333    2.000   14.000    1.333 
#    0.000    0.000    0.000    0.000    0.000    0.000 
#    0.000    0.000    0.000    0.000    0.000    0.000 
#
# Total GULP energy -67204.622493 kJ/mol
# GULP energy per Si atom -5600.385208 kJ/mol
# Density = 2.458286 g / cm^3
# Si number density = 24.638942 Si / 1000 Ang^3
#
#
#
# Elastic Constant Matrix: (Units=GPa)
#
#
# Indices 1 2 3 4 5 6 
#
# 1 128.3534 14.8871 60.4649 12.1860 4.1050 24.4412
# 2 14.8871 127.3464 70.9172 6.6692 -0.4114 12.2555
# 3 60.4649 70.9172 202.1701 -4.4964 -9.1520 17.5028
# 4 12.1860 6.6692 -4.4964 43.2296 12.0889 4.2005
# 5 4.1050 -0.4114 -9.1520 12.0889 38.1534 -6.2273
# 6 24.4412 12.2555 17.5028 4.2005 -6.2273 39.8072
#
#
#
# Elastic Compliance Matrix: (Units=1/GPa)
#
#
# Indices 1 2 3 4 5 6 
#
# 1 0.010511 0.001223 -0.003244 -0.002389 -0.002031 -0.005469
# 2 0.001223 0.010132 -0.003811 -0.001912 -0.000673 -0.002098
# 3 -0.003244 -0.003811 0.007365 0.001858 0.001480 -0.000038
# 4 -0.002389 -0.001912 0.001858 0.026901 -0.008315 -0.002901
# 5 -0.002031 -0.000673 0.001480 -0.008315 0.030463 0.006447
# 6 -0.005469 -0.002098 -0.000038 -0.002901 0.006447 0.030456
#
#
# Mechanical properties :
#
#
# Convention : Reuss Voigt Hill
#
# Bulk Modulus (GPa) = 61.18946 83.37868 72.28407
# Shear Modulus (GPa) = 37.61090 45.01144 41.31117
#
# Velocity S-wave (km/s) = 3.91126 4.27879 4.09915
# Velocity P-wave (km/s) = 6.72946 7.63704 7.19757
#
# Compressibility (1/GPa) = 0.01634269
#
# Stress axis : x y z
#
# Youngs Moduli (GPa) = 95.14162 98.69841 135.77713
#
# Poissons Ratio (x) = -0.12068 0.44047
# Poissons Ratio (y) = -0.11634 0.51746
# Poissons Ratio (z) = 0.30864 0.37615
#
# Static dielectric constant tensor:
#      x y z
#    x 2.155610 0.021180 -0.130930 
#    y 0.021180 1.972220 0.006040 
#    z -0.130930 0.006040 1.855500 
# 
# From -- ./inp_files/60271.got.cif
#   From: 2010.05.17/outbox.cif.g08.bks.cpg/sg2_31_cif.got.tgz:60271.got - 2010.06.03 11:33:40.
