data_PCOD9057820
_publ_section_title
;
Structure prediction by ZEFSAII (Michael W. Deem and Ramdas Pophale) SiO2 
 PCOD9057820
Probable space group: P -1
;
_chemical_formula_sum "Si O2"
_cell_formula_units_Z 14
_cell_length_a 9.133451
_cell_length_b 16.899387
_cell_length_c 12.291169
_cell_angle_alpha 33.287589
_cell_angle_beta 140.883064
_cell_angle_gamma 124.824789
_cell_volume 640.254750
_symmetry_space_group_name_H-M "P -1"
_symmetry_group_IT_number 2
_symmetry_cell_setting 'triclinic'
loop_
_space_group_symop_operation_xyz
x,y,z
-x,-y,-z
loop_
_atom_site_type_symbol
_atom_site_label
_atom_site_fract_x
_atom_site_fract_y
_atom_site_fract_z
Si Si1 0.915107 0.146939 0.211864
Si Si2 0.092675 0.949849 0.924369
Si Si3 0.283376 0.627876 0.484414
Si Si4 0.613220 0.852369 0.055184
Si Si5 0.593045 0.060114 0.594847
Si Si6 0.735841 0.651117 0.820637
Si Si7 0.999900 0.550518 0.612396
O O1 0.973510 0.101488 0.172681
O O2 0.058497 0.268166 0.191789
O O3 0.631404 0.192719 0.005940
O O4 0.000000 0.000000 0.500000
O O5 0.305357 0.034631 0.944481
O O6 0.176219 0.802629 0.212855
O O7 0.867860 0.053778 0.733662
O O8 0.566893 0.605917 0.683482
O O9 0.170710 0.556703 0.401181
O O10 0.187383 0.559351 0.614571
O O11 0.824868 0.709038 0.338913
O O12 0.582532 0.943405 0.819335
O O13 0.442109 0.220936 0.357935
O O14 0.500000 0.000000 0.500000
O O15 0.857170 0.515631 0.122594
#
# Coordination Sequence:
#
# PCOD9057820 Si02
#       7
#     2   2   2   2   2   2   2
#     4  12  24  45  67 100 139 179 228 280 333 409
#     4  12  22  44  72 100 133 180 229 283 337 398
#     4  11  22  43  71  98 137 180 219 286 344 396
#     4  12  25  43  70  98 138 179 230 276 336 405
#     4  12  21  39  70  98 131 173 225 283 330 390
#     4  12  24  43  67  99 143 178 223 277 346 399
#     4  11  25  44  66 103 141 171 226 284 342 396
#
# _framework density 21.866295000000001
#
# number of rings (size 3 to 8) (size 9 to 14) (size 15 to 20)
#    0.000    0.286    7.143    2.143    2.000    0.571 
#    2.571    0.714    0.000    0.000    0.000    0.000 
#    0.000    0.000    0.000    0.000    0.000    0.000 
#
# Total GULP energy -78339.087954 kJ/mol
# GULP energy per Si atom -5595.649140 kJ/mol
# Density = 2.181653 g / cm^3
# Si number density = 21.866295 Si / 1000 Ang^3
#
#
#
# Elastic Constant Matrix: (Units=GPa)
#
#
# Indices 1 2 3 4 5 6 
#
# 1 61.8697 10.3000 7.9907 6.1410 6.6075 23.8138
# 2 10.3000 114.9182 6.3975 18.6845 14.2730 29.4744
# 3 7.9907 6.3975 98.5572 6.7321 9.3456 0.7540
# 4 6.1410 18.6845 6.7321 33.3936 -0.0544 6.1317
# 5 6.6075 14.2730 9.3456 -0.0544 19.7951 5.8352
# 6 23.8138 29.4744 0.7540 6.1317 5.8352 35.3471
#
#
#
# Elastic Compliance Matrix: (Units=1/GPa)
#
#
# Indices 1 2 3 4 5 6 
#
# 1 0.023137 0.003413 -0.001353 -0.002743 -0.004486 -0.017188
# 2 0.003413 0.013092 0.000066 -0.005966 -0.007396 -0.010962
# 3 -0.001353 0.000066 0.010901 -0.002345 -0.005311 0.001908
# 4 -0.002743 -0.005966 -0.002345 0.034298 0.006461 -0.000144
# 5 -0.004486 -0.007396 -0.005311 0.006461 0.060400 -0.001789
# 6 -0.017188 -0.010962 0.001908 -0.000144 -0.001789 0.049292
#
#
# Mechanical properties :
#
#
# Convention : Reuss Voigt Hill
#
# Bulk Modulus (GPa) = 19.46193 36.08017 27.77105
# Shear Modulus (GPa) = 24.51043 34.41762 29.46403
#
# Velocity S-wave (km/s) = 3.35165 3.97168 3.67476
# Velocity P-wave (km/s) = 4.88854 6.12931 5.54375
#
# Compressibility (1/GPa) = 0.05138235
#
# Stress axis : x y z
#
# Youngs Moduli (GPa) = 43.22139 76.38030 91.73466
#
# Poissons Ratio (x) = -0.26071 0.12413
# Poissons Ratio (y) = -0.14753 -0.00606
# Poissons Ratio (z) = 0.05849 -0.00504
#
# Static dielectric constant tensor:
#      x y z
#    x 1.805340 0.008350 0.020400 
#    y 0.008350 1.858660 0.007090 
#    z 0.020400 0.007090 1.775350 
# 
# From -- ./inp_files/209202.got.cif
#   From: 2010.05.17/outbox.cif.g08.bks.cpg/sg2_105_cif.got.tgz:209202.got - 2010.06.03 11:33:40.
