data_PCOD9057076
_publ_section_title
;
Structure prediction by ZEFSAII (Michael W. Deem and Ramdas Pophale) SiO2 
 PCOD9057076
Probable space group: P -1
;
_chemical_formula_sum "Si O2"
_cell_formula_units_Z 14
_cell_length_a 23.073149
_cell_length_b 11.535560
_cell_length_c 15.464002
_cell_angle_alpha 29.017007
_cell_angle_beta 16.730141
_cell_angle_gamma 29.382165
_cell_volume 557.522545
_symmetry_space_group_name_H-M "P -1"
_symmetry_group_IT_number 2
_symmetry_cell_setting 'triclinic'
loop_
_space_group_symop_operation_xyz
x,y,z
-x,-y,-z
loop_
_atom_site_type_symbol
_atom_site_label
_atom_site_fract_x
_atom_site_fract_y
_atom_site_fract_z
Si Si1 0.296613 0.390204 0.845714
Si Si2 0.205568 0.356376 0.348632
Si Si3 0.735653 0.937781 0.173287
Si Si4 0.953058 0.081106 0.110764
Si Si5 0.926258 0.361862 0.293920
Si Si6 0.738777 0.351747 0.760584
Si Si7 0.604519 0.105621 0.862695
O O1 0.500000 0.500000 0.500000
O O2 0.126281 0.628842 0.964380
O O3 0.174427 0.334948 0.969768
O O4 0.332456 0.134299 0.010720
O O5 0.178193 0.471195 0.407794
O O6 0.000000 0.500000 0.500000
O O7 0.213702 0.066733 0.525754
O O8 0.429801 0.341462 0.995324
O O9 0.828159 0.645701 0.224716
O O10 0.500000 0.000000 0.500000
O O11 0.861342 0.007616 0.029774
O O12 0.753866 0.104739 0.955677
O O13 0.000000 0.000000 0.000000
O O14 0.840849 0.312200 0.545456
O O15 0.816731 0.200666 0.491341
O O16 0.500000 0.500000 0.000000
O O17 0.500000 0.000000 0.000000
#
# Coordination Sequence:
#
# PCOD9057076 Si02
#       7
#     2   2   2   2   2   2   2
#     4  11  25  51  73 103 153 199 253 313 382 461
#     4  12  24  44  71 108 150 191 252 309 378 451
#     4  11  22  41  69 110 154 185 251 315 383 448
#     4  11  25  42  74 107 143 196 251 318 377 450
#     4  11  26  49  75 110 150 206 261 315 386 462
#     4  12  23  43  75 112 152 198 252 323 384 449
#     4  12  28  49  73 106 155 202 250 318 391 460
#
# _framework density 25.111090999999998
#
# number of rings (size 3 to 8) (size 9 to 14) (size 15 to 20)
#    0.000    0.571    5.714    2.143    4.000    0.000 
#    2.571    0.714    0.000    0.000    0.000    0.000 
#    0.000    0.000    0.000    0.000    0.000    0.000 
#
# Total GULP energy -78235.004525 kJ/mol
# GULP energy per Si atom -5588.214609 kJ/mol
# Density = 2.505394 g / cm^3
# Si number density = 25.111091 Si / 1000 Ang^3
#
#
#
# Elastic Constant Matrix: (Units=GPa)
#
#
# Indices 1 2 3 4 5 6 
#
# 1 174.1936 47.7198 50.6535 -1.2888 -22.3618 -11.9832
# 2 47.7198 153.8978 41.4655 -17.9472 -10.7353 -31.1849
# 3 50.6535 41.4655 138.3754 -12.9245 -31.8479 -16.4229
# 4 -1.2888 -17.9472 -12.9245 47.0084 2.8447 -6.3663
# 5 -22.3618 -10.7353 -31.8479 2.8447 54.9661 -7.1265
# 6 -11.9832 -31.1849 -16.4229 -6.3663 -7.1265 48.7218
#
#
#
# Elastic Compliance Matrix: (Units=1/GPa)
#
#
# Indices 1 2 3 4 5 6 
#
# 1 0.006902 -0.001646 -0.001754 -0.000995 0.001541 0.000148
# 2 -0.001646 0.008900 -0.000758 0.003847 0.001171 0.005710
# 3 -0.001754 -0.000758 0.009961 0.002564 0.005236 0.003542
# 4 -0.000995 0.003847 0.002564 0.024207 0.001416 0.006452
# 5 0.001541 0.001171 0.005236 0.001416 0.022842 0.006419
# 6 0.000148 0.005710 0.003542 0.006452 0.006419 0.027192
#
#
# Mechanical properties :
#
#
# Convention : Reuss Voigt Hill
#
# Bulk Modulus (GPa) = 57.31696 82.90493 70.11094
# Shear Modulus (GPa) = 43.80759 51.91445 47.86102
#
# Velocity S-wave (km/s) = 4.18131 4.55179 4.37048
# Velocity P-wave (km/s) = 6.79603 7.79179 7.31089
#
# Compressibility (1/GPa) = 0.01744684
#
# Stress axis : x y z
#
# Youngs Moduli (GPa) = 144.87701 112.36310 100.39180
#
# Poissons Ratio (x) = 0.18496 0.17609
# Poissons Ratio (y) = 0.23849 0.07609
# Poissons Ratio (z) = 0.25412 0.08517
#
# Static dielectric constant tensor:
#      x y z
#    x 1.983080 0.048350 0.032690 
#    y 0.048350 1.934880 0.014680 
#    z 0.032690 0.014680 2.167030 
# 
# From -- ./inp_files/205355.got.cif
#   From: 2010.05.17/outbox.cif.g08.bks.cpg/sg2_103_cif.got.tgz:205355.got - 2010.06.03 11:33:40.
