data_PCOD9057497
_publ_section_title
;
Structure prediction by ZEFSAII (Michael W. Deem and Ramdas Pophale) SiO2 
 PCOD9057497
Probable space group: P -1
;
_chemical_formula_sum "Si O2"
_cell_formula_units_Z 14
_cell_length_a 6.037011
_cell_length_b 23.321799
_cell_length_c 14.257256
_cell_angle_alpha 163.547053
_cell_angle_beta 115.885651
_cell_angle_gamma 65.528229
_cell_volume 511.412540
_symmetry_space_group_name_H-M "P -1"
_symmetry_group_IT_number 2
_symmetry_cell_setting 'triclinic'
loop_
_space_group_symop_operation_xyz
x,y,z
-x,-y,-z
loop_
_atom_site_type_symbol
_atom_site_label
_atom_site_fract_x
_atom_site_fract_y
_atom_site_fract_z
Si Si1 0.577357 0.406731 0.026963
Si Si2 0.805368 0.101296 0.468581
Si Si3 0.506158 0.768600 0.811912
Si Si4 0.285084 0.152313 0.282163
Si Si5 0.093432 0.278408 0.649702
Si Si6 0.964500 0.275780 0.244233
Si Si7 0.742164 0.127202 0.773307
O O1 0.731318 0.320708 0.833488
O O2 0.325628 0.282930 0.770384
O O3 0.722530 0.324968 0.014570
O O4 0.547162 0.646240 0.394030
O O5 0.892089 0.126716 0.417453
O O6 0.593715 0.931784 0.163293
O O7 0.030122 0.014565 0.430418
O O8 0.402705 0.931624 0.971495
O O9 0.276920 0.634347 0.600078
O O10 0.766534 0.671733 0.675917
O O11 0.176033 0.220169 0.470083
O O12 0.081190 0.162610 0.179377
O O13 0.000000 0.500000 0.000000
O O14 0.812630 0.196807 0.000845
O O15 0.500000 0.000000 0.500000
#
# Coordination Sequence:
#
# PCOD9057497 Si02
#       7
#     2   2   2   2   2   2   2
#     4  12  24  41  66 101 135 183 232 291 352 404
#     4  11  22  42  71  98 134 182 236 292 342 413
#     4  11  23  45  71 102 141 183 232 290 349 423
#     4  12  24  43  69 101 147 179 229 294 356 425
#     4  12  23  41  66 104 140 177 232 288 358 416
#     4  11  27  46  71 105 138 192 234 286 354 418
#     4  11  23  45  71  96 135 183 247 286 339 417
#
# _framework density 27.375160000000001
#
# number of rings (size 3 to 8) (size 9 to 14) (size 15 to 20)
#    0.000    0.571    4.286    5.143    0.000    4.000 
#    0.000    0.000    0.000    7.714    0.000    0.000 
#    0.000    0.000    0.000    0.000    0.000    0.000 
#
# Total GULP energy -78025.846669 kJ/mol
# GULP energy per Si atom -5573.274762 kJ/mol
# Density = 2.731285 g / cm^3
# Si number density = 27.375160 Si / 1000 Ang^3
#
#
#
# Elastic Constant Matrix: (Units=GPa)
#
#
# Indices 1 2 3 4 5 6 
#
# 1 159.8758 38.4214 30.2308 1.9266 -4.0218 -0.1717
# 2 38.4214 142.7688 13.2597 -31.7740 -12.2341 -9.4347
# 3 30.2308 13.2597 102.4708 -6.9856 -19.9471 6.9391
# 4 1.9266 -31.7740 -6.9856 38.5075 1.6782 -0.9914
# 5 -4.0218 -12.2341 -19.9471 1.6782 26.3218 -3.2777
# 6 -0.1717 -9.4347 6.9391 -0.9914 -3.2777 44.0429
#
#
#
# Elastic Compliance Matrix: (Units=1/GPa)
#
#
# Indices 1 2 3 4 5 6 
#
# 1 0.007296 -0.002542 -0.002321 -0.002819 -0.001689 -0.000340
# 2 -0.002542 0.010062 0.000752 0.008430 0.004640 0.002562
# 3 -0.002321 0.000752 0.012357 0.002556 0.009064 -0.001063
# 4 -0.002819 0.008430 0.002556 0.033435 0.003593 0.002412
# 5 -0.001689 0.004640 0.009064 0.003593 0.046920 0.003132
# 6 -0.000340 0.002562 -0.001063 0.002412 0.003132 0.023707
#
#
# Mechanical properties :
#
#
# Convention : Reuss Voigt Hill
#
# Bulk Modulus (GPa) = 46.52899 63.21546 54.87222
# Shear Modulus (GPa) = 33.52037 43.32134 38.42086
#
# Velocity S-wave (km/s) = 3.50306 3.98239 3.75039
# Velocity P-wave (km/s) = 5.77889 6.65494 6.23233
#
# Compressibility (1/GPa) = 0.02149198
#
# Stress axis : x y z
#
# Youngs Moduli (GPa) = 137.06299 99.38757 80.92580
#
# Poissons Ratio (x) = 0.25268 0.18786
# Poissons Ratio (y) = 0.34847 -0.06089
# Poissons Ratio (z) = 0.31817 -0.07479
#
# Static dielectric constant tensor:
#      x y z
#    x 2.292280 0.003560 0.019060 
#    y 0.003560 2.122220 0.062150 
#    z 0.019060 0.062150 2.174500 
# 
# From -- ./inp_files/118309.got.cif
#   From: 2010.05.17/outbox.cif.g08.bks.cpg/sg2_60_cif.got.tgz:118309.got - 2010.06.03 11:33:40.
