data_PCOD9057486
_publ_section_title
;
Structure prediction by ZEFSAII (Michael W. Deem and Ramdas Pophale) SiO2 
 PCOD9057486
Probable space group: P -1
;
_chemical_formula_sum "Si O2"
_cell_formula_units_Z 16
_cell_length_a 9.525798
_cell_length_b 7.639196
_cell_length_c 13.858961
_cell_angle_alpha 122.964069
_cell_angle_beta 49.684751
_cell_angle_gamma 95.930969
_cell_volume 594.435698
_symmetry_space_group_name_H-M "P -1"
_symmetry_group_IT_number 2
_symmetry_cell_setting 'triclinic'
loop_
_space_group_symop_operation_xyz
x,y,z
-x,-y,-z
loop_
_atom_site_type_symbol
_atom_site_label
_atom_site_fract_x
_atom_site_fract_y
_atom_site_fract_z
Si Si1 0.336173 0.146007 0.820364
Si Si2 0.055581 0.604839 0.750998
Si Si3 0.457548 0.889561 0.888256
Si Si4 0.224240 0.565449 0.453599
Si Si5 0.039937 0.778498 0.281364
Si Si6 0.042828 0.877650 0.087105
Si Si7 0.520865 0.687066 0.476052
Si Si8 0.726819 0.168408 0.644458
O O1 0.379951 0.055779 0.882271
O O2 0.099871 0.235514 0.930596
O O3 0.430819 0.928850 0.640143
O O4 0.487167 0.270243 0.774918
O O5 0.093440 0.578919 0.609935
O O6 0.902229 0.489829 0.812270
O O7 0.030288 0.866141 0.848217
O O8 0.243208 0.435269 0.680290
O O9 0.657153 0.692023 0.704028
O O10 0.500000 0.000000 0.000000
O O11 0.281798 0.793027 0.947576
O O12 0.378120 0.680937 0.452384
O O13 0.157937 0.695821 0.422199
O O14 0.213082 0.834938 0.272165
O O15 0.007755 0.867321 0.213730
O O16 0.838944 0.919437 0.474286
O O17 0.500000 0.500000 0.500000
#
# Coordination Sequence:
#
# PCOD9057486 Si02
#       8
#     2   2   2   2   2   2   2   2
#     4  12  22  45  72 102 139 184 235 290 351 406
#     4  11  21  41  75 104 137 179 236 296 345 405
#     4  12  27  47  69 100 145 189 232 282 354 433
#     4  11  22  44  71 104 136 189 234 283 359 405
#     4  11  24  42  65 109 147 175 235 293 352 412
#     4  12  26  45  72 105 139 186 235 293 347 417
#     4  10  17  36  70 104 129 167 230 294 328 406
#     4  11  24  40  68 108 143 181 231 297 346 419
#
# _framework density 26.916281000000001
#
# number of rings (size 3 to 8) (size 9 to 14) (size 15 to 20)
#    0.000    0.750    7.500    1.125    3.500    2.500 
#    2.250    1.875    0.000    0.000    0.000    0.000 
#    0.000    0.000    0.000    0.000    0.000    0.000 
#
# Total GULP energy -89435.800179 kJ/mol
# GULP energy per Si atom -5589.737511 kJ/mol
# Density = 2.685502 g / cm^3
# Si number density = 26.916281 Si / 1000 Ang^3
#
#
#
# Elastic Constant Matrix: (Units=GPa)
#
#
# Indices 1 2 3 4 5 6 
#
# 1 139.8939 37.1971 26.7267 -17.1746 13.8161 9.5509
# 2 37.1971 103.8455 23.5583 -7.4594 -2.3653 -7.5168
# 3 26.7267 23.5583 72.8182 4.3720 10.2870 8.8018
# 4 -17.1746 -7.4594 4.3720 50.8630 0.5383 1.8362
# 5 13.8161 -2.3653 10.2870 0.5383 39.7211 -11.8014
# 6 9.5509 -7.5168 8.8018 1.8362 -11.8014 36.0656
#
#
#
# Elastic Compliance Matrix: (Units=1/GPa)
#
#
# Indices 1 2 3 4 5 6 
#
# 1 0.009396 -0.003250 -0.001414 0.003025 -0.004453 -0.004432
# 2 -0.003250 0.012355 -0.004244 0.000814 0.004730 0.005978
# 3 -0.001414 -0.004244 0.017453 -0.002292 -0.006239 -0.006694
# 4 0.003025 0.000814 -0.002292 0.021065 -0.001147 -0.001520
# 5 -0.004453 0.004730 -0.006239 -0.001147 0.032954 0.014529
# 6 -0.004432 0.005978 -0.006694 -0.001520 0.014529 0.036612
#
#
# Mechanical properties :
#
#
# Convention : Reuss Voigt Hill
#
# Bulk Modulus (GPa) = 46.75409 54.61356 50.68382
# Shear Modulus (GPa) = 32.30335 40.60163 36.45249
#
# Velocity S-wave (km/s) = 3.46806 3.88808 3.68406
# Velocity P-wave (km/s) = 5.78312 6.36321 6.08009
#
# Compressibility (1/GPa) = 0.02138851
#
# Stress axis : x y z
#
# Youngs Moduli (GPa) = 106.42490 80.93562 57.29641
#
# Poissons Ratio (x) = 0.26303 0.08103
# Poissons Ratio (y) = 0.34586 0.24318
# Poissons Ratio (z) = 0.15050 0.34350
#
# Static dielectric constant tensor:
#      x y z
#    x 1.955760 0.219430 0.064200 
#    y 0.219430 1.944470 -0.030810 
#    z 0.064200 -0.030810 2.225790 
# 
# From -- ./inp_files/495568.got.cif
#   From: 2010.05.17/outbox.cif.g08.bks.cpg/sg2_248_cif.got.tgz:495568.got - 2010.06.03 11:33:40.
