data_PCOD9057449
_publ_section_title
;
Structure prediction by ZEFSAII (Michael W. Deem and Ramdas Pophale) SiO2 
 PCOD9057449
Probable space group: P -1
;
_chemical_formula_sum "Si O2"
_cell_formula_units_Z 16
_cell_length_a 18.809380
_cell_length_b 8.757919
_cell_length_c 4.921391
_cell_angle_alpha 81.952930
_cell_angle_beta 118.121194
_cell_angle_gamma 113.597978
_cell_volume 654.022673
_symmetry_space_group_name_H-M "P -1"
_symmetry_group_IT_number 2
_symmetry_cell_setting 'triclinic'
loop_
_space_group_symop_operation_xyz
x,y,z
-x,-y,-z
loop_
_atom_site_type_symbol
_atom_site_label
_atom_site_fract_x
_atom_site_fract_y
_atom_site_fract_z
Si Si1 0.574140 0.446304 0.779582
Si Si2 0.193518 0.920695 0.821620
Si Si3 0.083136 0.109152 0.449013
Si Si4 0.702070 0.769183 0.695819
Si Si5 0.551564 0.214450 0.306376
Si Si6 0.064856 0.569055 0.850893
Si Si7 0.632127 0.992953 0.181500
Si Si8 0.145109 0.314893 0.037138
O O1 0.500000 0.500000 0.500000
O O2 0.653545 0.623856 0.858836
O O3 0.581452 0.305156 0.624217
O O4 0.559848 0.361761 0.068676
O O5 0.121055 0.763238 0.871367
O O6 0.274330 0.903490 0.812439
O O7 0.139073 0.997592 0.516336
O O8 0.239739 0.062527 0.089136
O O9 0.069625 0.189367 0.125623
O O10 0.132774 0.255724 0.718403
O O11 0.000000 0.000000 0.500000
O O12 0.766778 0.695999 0.687041
O O13 0.642171 0.832151 0.383016
O O14 0.605652 0.108817 0.313717
O O15 0.449871 0.087166 0.150690
O O16 0.000000 0.500000 0.500000
O O17 0.137416 0.489457 0.003876
O O18 0.000000 0.500000 0.000000
#
# Coordination Sequence:
#
# PCOD9057449 Si02
#       8
#     2   2   2   2   2   2   2   2
#     4  12  25  47  73 104 144 191 241 288 360 411
#     4  11  26  45  72 104 143 190 233 301 364 420
#     4  11  22  42  70  96 132 175 229 283 348 422
#     4  11  26  43  72 103 143 183 240 297 346 429
#     4  11  28  44  75 105 147 197 233 299 346 437
#     4  12  28  49  72 102 144 185 238 296 363 434
#     4  11  25  47  69 108 148 187 245 286 370 416
#     4  11  24  43  65 101 130 177 226 284 348 414
#
# _framework density 24.463984
#
# number of rings (size 3 to 8) (size 9 to 14) (size 15 to 20)
#    0.000    0.750    2.500    3.750    7.000    2.000 
#    0.000    0.000    0.000    0.000    0.000    0.000 
#    0.000    0.000    0.000    0.000    0.000    0.000 
#
# Total GULP energy -89574.611822 kJ/mol
# GULP energy per Si atom -5598.413239 kJ/mol
# Density = 2.440830 g / cm^3
# Si number density = 24.463984 Si / 1000 Ang^3
#
#
#
# Elastic Constant Matrix: (Units=GPa)
#
#
# Indices 1 2 3 4 5 6 
#
# 1 108.0578 30.8266 23.4213 -3.1892 7.2176 -2.0341
# 2 30.8266 134.8266 19.5320 2.7086 0.1121 15.4505
# 3 23.4213 19.5320 67.4386 -0.2578 -13.0503 0.9235
# 4 -3.1892 2.7086 -0.2578 38.4212 -0.9696 5.0864
# 5 7.2176 0.1121 -13.0503 -0.9696 42.8106 -10.3381
# 6 -2.0341 15.4505 0.9235 5.0864 -10.3381 53.6480
#
#
#
# Elastic Compliance Matrix: (Units=1/GPa)
#
#
# Indices 1 2 3 4 5 6 
#
# 1 0.010862 -0.002005 -0.003745 0.000890 -0.002846 0.000421
# 2 -0.002005 0.008459 -0.001894 -0.000453 -0.000902 -0.002610
# 3 -0.003745 -0.001894 0.017900 -0.000073 0.006415 0.001338
# 4 0.000890 -0.000453 -0.000073 0.026443 -0.000144 -0.002369
# 5 -0.002846 -0.000902 0.006415 -0.000144 0.027066 0.005271
# 6 0.000421 -0.002610 0.001338 -0.002369 0.005271 0.020625
#
#
# Mechanical properties :
#
#
# Convention : Reuss Voigt Hill
#
# Bulk Modulus (GPa) = 45.59240 50.87584 48.23412
# Shear Modulus (GPa) = 37.32641 42.74550 40.03595
#
# Velocity S-wave (km/s) = 3.91035 4.18459 4.04979
# Velocity P-wave (km/s) = 6.25018 6.64748 6.45189
#
# Compressibility (1/GPa) = 0.02193348
#
# Stress axis : x y z
#
# Youngs Moduli (GPa) = 92.06243 118.22153 55.86533
#
# Poissons Ratio (x) = 0.23701 0.20921
# Poissons Ratio (y) = 0.18456 0.10582
# Poissons Ratio (z) = 0.34476 0.22393
#
# Static dielectric constant tensor:
#      x y z
#    x 2.008480 0.039890 0.043190 
#    y 0.039890 1.910220 -0.017630 
#    z 0.043190 -0.017630 1.954730 
# 
# From -- ./inp_files/106788.got.cif
#   From: 2010.05.17/outbox.cif.g08.bks.cpg/sg2_54_cif.got.tgz:106788.got - 2010.06.03 11:33:40.
