data_PCOD9057611
_publ_section_title
;
Structure prediction by ZEFSAII (Michael W. Deem and Ramdas Pophale) SiO2 
 PCOD9057611
Probable space group: P -1
;
_chemical_formula_sum "Si O2"
_cell_formula_units_Z 14
_cell_length_a 15.602357
_cell_length_b 12.499401
_cell_length_c 9.113229
_cell_angle_alpha 138.486016
_cell_angle_beta 51.694388
_cell_angle_gamma 151.524679
_cell_volume 557.483856
_symmetry_space_group_name_H-M "P -1"
_symmetry_group_IT_number 2
_symmetry_cell_setting 'triclinic'
loop_
_space_group_symop_operation_xyz
x,y,z
-x,-y,-z
loop_
_atom_site_type_symbol
_atom_site_label
_atom_site_fract_x
_atom_site_fract_y
_atom_site_fract_z
Si Si1 0.187477 0.776168 0.363978
Si Si2 0.290348 0.421800 0.077742
Si Si3 0.999532 0.234213 0.982350
Si Si4 0.671187 0.046412 0.276065
Si Si5 0.811629 0.520387 0.475191
Si Si6 0.612449 0.693704 0.372605
Si Si7 0.773011 0.735540 0.522383
O O1 0.258661 0.826600 0.504608
O O2 0.121019 0.531548 0.112651
O O3 0.010422 0.683249 0.462659
O O4 0.335094 0.057468 0.412611
O O5 0.237987 0.393506 0.271390
O O6 0.118028 0.281466 0.025847
O O7 0.471347 0.737818 0.175826
O O8 0.341696 0.306473 0.842053
O O9 0.821052 0.101704 0.109608
O O10 0.930324 0.035330 0.724683
O O11 0.679994 0.217413 0.342830
O O12 0.799266 0.584490 0.395212
O O13 0.730942 0.724398 0.387555
O O14 0.410508 0.426575 0.364879
#
# Coordination Sequence:
#
# PCOD9057611 Si02
#       7
#     2   2   2   2   2   2   2
#     4  11  23  43  68 103 137 169 219 281 331 394
#     4  12  23  40  73 103 131 180 219 271 340 391
#     4  11  23  42  69 101 135 170 224 275 330 395
#     4  11  22  43  65 109 135 170 215 287 321 405
#     4  11  23  40  71  99 136 170 222 275 333 391
#     4  11  27  45  67  95 137 183 223 271 336 392
#     4  11  26  48  64  96 139 178 226 277 324 401
#
# _framework density 25.112836999999999
#
# number of rings (size 3 to 8) (size 9 to 14) (size 15 to 20)
#    0.000    0.857    4.286    3.000    4.000    5.143 
#    0.000    2.143    0.000    0.000    0.000    0.000 
#    0.000    0.000    0.000    0.000    0.000    0.000 
#
# Total GULP energy -78490.627826 kJ/mol
# GULP energy per Si atom -5606.473416 kJ/mol
# Density = 2.505568 g / cm^3
# Si number density = 25.112837 Si / 1000 Ang^3
#
#
#
# Elastic Constant Matrix: (Units=GPa)
#
#
# Indices 1 2 3 4 5 6 
#
# 1 117.8174 32.4486 17.1569 8.9946 10.6109 -14.9652
# 2 32.4486 102.1217 25.0195 22.6400 2.0459 -6.3481
# 3 17.1569 25.0195 64.5099 10.8512 3.1121 -5.6293
# 4 8.9946 22.6400 10.8512 50.6139 3.7485 -7.2106
# 5 10.6109 2.0459 3.1121 3.7485 27.4297 -1.0892
# 6 -14.9652 -6.3481 -5.6293 -7.2106 -1.0892 45.9671
#
#
#
# Elastic Compliance Matrix: (Units=1/GPa)
#
#
# Indices 1 2 3 4 5 6 
#
# 1 0.010054 -0.002722 -0.001272 0.000348 -0.003482 0.002714
# 2 -0.002722 0.012450 -0.003429 -0.004470 0.001114 -0.000261
# 3 -0.001272 -0.003429 0.017604 -0.001806 -0.000964 0.000962
# 4 0.000348 -0.004470 -0.001806 0.022668 -0.002584 0.002769
# 5 -0.003482 0.001114 -0.000964 -0.002584 0.038159 -0.000599
# 6 0.002714 -0.000261 0.000962 0.002769 -0.000599 0.023140
#
#
# Mechanical properties :
#
#
# Convention : Reuss Voigt Hill
#
# Bulk Modulus (GPa) = 39.58583 48.18879 43.88731
# Shear Modulus (GPa) = 33.93460 38.79039 36.36250
#
# Velocity S-wave (km/s) = 3.67997 3.93446 3.80934
# Velocity P-wave (km/s) = 5.81839 6.31431 6.07142
#
# Compressibility (1/GPa) = 0.02526156
#
# Stress axis : x y z
#
# Youngs Moduli (GPa) = 99.46008 80.32427 56.80507
#
# Poissons Ratio (x) = 0.21862 0.07227
# Poissons Ratio (y) = 0.27070 0.19480
# Poissons Ratio (z) = 0.12653 0.27545
#
# Static dielectric constant tensor:
#      x y z
#    x 1.954500 0.022690 -0.039520 
#    y 0.022690 1.988570 -0.008050 
#    z -0.039520 -0.008050 1.966980 
# 
# From -- ./inp_files/174585.got.cif
#   From: 2010.05.17/outbox.cif.g08.bks.cpg/sg2_88_cif.got.tgz:174585.got - 2010.06.03 11:33:40.
