data_PCOD9057000
_publ_section_title
;
Structure prediction by ZEFSAII (Michael W. Deem and Ramdas Pophale) SiO2 
 PCOD9057000
Probable space group: P -1
;
_chemical_formula_sum "Si O2"
_cell_formula_units_Z 16
_cell_length_a 9.560905
_cell_length_b 6.558415
_cell_length_c 20.466786
_cell_angle_alpha 127.484449
_cell_angle_beta 129.325205
_cell_angle_gamma 49.183776
_cell_volume 708.730681
_symmetry_space_group_name_H-M "P -1"
_symmetry_group_IT_number 2
_symmetry_cell_setting 'triclinic'
loop_
_space_group_symop_operation_xyz
x,y,z
-x,-y,-z
loop_
_atom_site_type_symbol
_atom_site_label
_atom_site_fract_x
_atom_site_fract_y
_atom_site_fract_z
Si Si1 0.644227 0.045494 0.708570
Si Si2 0.215112 0.785605 0.336982
Si Si3 0.059809 0.348898 0.169402
Si Si4 0.068830 0.749781 0.574280
Si Si5 0.581999 0.317967 0.423647
Si Si6 0.371901 0.696297 0.770105
Si Si7 0.378393 0.955418 0.092690
Si Si8 0.658050 0.341092 0.096557
O O1 0.750273 0.003582 0.661623
O O2 0.554543 0.379406 0.761564
O O3 0.801659 0.850791 0.770349
O O4 0.461804 0.956677 0.637085
O O5 0.078598 0.645024 0.238616
O O6 0.429702 0.524883 0.364150
O O7 0.119258 0.950787 0.407277
O O8 0.837903 0.385903 0.123782
O O9 0.165861 0.178130 0.102237
O O10 0.198523 0.750375 0.550182
O O11 0.208482 0.708300 0.671493
O O12 0.000000 0.500000 0.500000
O O13 0.500000 0.500000 0.500000
O O14 0.294079 0.744036 0.830775
O O15 0.464153 0.914670 0.822155
O O16 0.462717 0.645272 0.091449
O O17 0.369714 0.894001 0.001620
#
# Coordination Sequence:
#
# PCOD9057000 Si02
#       8
#     2   2   2   2   2   2   2   2
#     4  11  22  42  69  92 130 186 213 270 340 388
#     4  11  24  44  67  94 134 175 221 272 329 398
#     4  11  22  41  67  99 132 177 224 269 330 392
#     4  12  27  45  71 102 131 176 225 278 335 397
#     4  11  26  44  66  95 132 171 221 278 334 395
#     4  12  23  45  69  93 140 175 220 278 335 391
#     4  11  23  45  65 101 135 181 220 273 340 388
#     4  11  25  40  71  98 137 175 227 277 326 401
#
# _framework density 22.575569999999999
#
# number of rings (size 3 to 8) (size 9 to 14) (size 15 to 20)
#    0.000    0.750    3.750    3.750    3.500    2.500 
#    0.000    0.625    0.000    0.000    0.000    0.000 
#    0.000    0.000    0.000    0.000    0.000    0.000 
#
# Total GULP energy -89569.982102 kJ/mol
# GULP energy per Si atom -5598.123881 kJ/mol
# Density = 2.252419 g / cm^3
# Si number density = 22.575570 Si / 1000 Ang^3
#
#
#
# Elastic Constant Matrix: (Units=GPa)
#
#
# Indices 1 2 3 4 5 6 
#
# 1 128.7586 13.0453 35.9166 10.3567 -16.1779 -2.5867
# 2 13.0453 49.9495 10.5205 8.5016 -9.8966 0.5683
# 3 35.9166 10.5205 104.0370 8.5794 -11.5135 7.6623
# 4 10.3567 8.5016 8.5794 38.0894 -0.0467 -9.3625
# 5 -16.1779 -9.8966 -11.5135 -0.0467 41.2071 -1.9873
# 6 -2.5867 0.5683 7.6623 -9.3625 -1.9873 33.9404
#
#
#
# Elastic Compliance Matrix: (Units=1/GPa)
#
#
# Indices 1 2 3 4 5 6 
#
# 1 0.009089 -0.001070 -0.002711 -0.001347 0.002606 0.001104
# 2 -0.001070 0.022227 -0.000878 -0.004788 0.004604 -0.001307
# 3 -0.002711 -0.000878 0.011268 -0.002414 0.001711 -0.003302
# 4 -0.001347 -0.004788 -0.002414 0.030393 -0.001895 0.008795
# 5 0.002606 0.004604 0.001711 -0.001895 0.026910 0.000788
# 6 0.001104 -0.001307 -0.003302 0.008795 0.000788 0.032787
#
#
# Mechanical properties :
#
#
# Convention : Reuss Voigt Hill
#
# Bulk Modulus (GPa) = 30.06024 44.63441 37.34732
# Shear Modulus (GPa) = 32.66249 37.53157 35.09703
#
# Velocity S-wave (km/s) = 3.80782 4.08178 3.94718
# Velocity P-wave (km/s) = 5.71637 6.48295 6.11169
#
# Compressibility (1/GPa) = 0.03326653
#
# Stress axis : x y z
#
# Youngs Moduli (GPa) = 110.02155 44.99119 88.74335
#
# Poissons Ratio (x) = 0.04813 0.24063
# Poissons Ratio (y) = 0.11769 0.07789
# Poissons Ratio (z) = 0.29832 0.03949
#
# Static dielectric constant tensor:
#      x y z
#    x 1.843620 -0.014930 -0.018200 
#    y -0.014930 1.820320 -0.025260 
#    z -0.018200 -0.025260 1.849790 
# 
# From -- ./inp_files/47347.got.cif
#   From: 2010.05.17/outbox.cif.g08.bks.cpg/sg2_24_cif.got.tgz:47347.got - 2010.06.03 11:33:40.
