data_PCOD9057601
_publ_section_title
;
Structure prediction by ZEFSAII (Michael W. Deem and Ramdas Pophale) SiO2 
 PCOD9057601
Probable space group: P -1
;
_chemical_formula_sum "Si O2"
_cell_formula_units_Z 14
_cell_length_a 17.618045
_cell_length_b 16.150550
_cell_length_c 9.578605
_cell_angle_alpha 141.501967
_cell_angle_beta 51.991189
_cell_angle_gamma 156.760771
_cell_volume 607.281546
_symmetry_space_group_name_H-M "P -1"
_symmetry_group_IT_number 2
_symmetry_cell_setting 'triclinic'
loop_
_space_group_symop_operation_xyz
x,y,z
-x,-y,-z
loop_
_atom_site_type_symbol
_atom_site_label
_atom_site_fract_x
_atom_site_fract_y
_atom_site_fract_z
Si Si1 0.190618 0.758159 0.733798
Si Si2 0.313181 0.177450 0.843884
Si Si3 0.124893 0.868376 0.361386
Si Si4 0.408097 0.680451 0.110048
Si Si5 0.060580 0.893223 0.029367
Si Si6 0.284283 0.292147 0.534481
Si Si7 0.735840 0.239435 0.041773
O O1 0.169039 0.661080 0.778587
O O2 0.000000 0.500000 0.500000
O O3 0.174868 0.898529 0.960802
O O4 0.424210 0.011558 0.742231
O O5 0.439609 0.210044 0.810866
O O6 0.170549 0.965019 0.594848
O O7 0.500000 0.500000 0.000000
O O8 0.162941 0.047084 0.965836
O O9 0.883429 0.522719 0.163328
O O10 0.196452 0.076513 0.458512
O O11 0.255530 0.895693 0.214066
O O12 0.189190 0.445146 0.124933
O O13 0.334881 0.490212 0.818047
O O14 0.120938 0.088051 0.321196
O O15 0.500000 0.500000 0.500000
O O16 0.500000 0.000000 0.000000
#
# Coordination Sequence:
#
# PCOD9057601 Si02
#       7
#     2   2   2   2   2   2   2
#     4  11  24  45  68  96 139 179 222 282 337 397
#     4  11  22  43  63  96 141 174 208 275 340 395
#     4  11  24  43  68  95 136 171 217 275 338 392
#     4  11  24  40  71 101 128 175 229 272 336 405
#     4  11  24  41  68  99 131 174 228 272 333 400
#     4  12  20  45  69  96 131 176 216 278 336 399
#     4  11  25  44  69  99 130 177 230 276 334 397
#
# _framework density 23.053556
#
# number of rings (size 3 to 8) (size 9 to 14) (size 15 to 20)
#    0.000    0.857    5.714    2.143    2.000    3.429 
#    5.143    0.000    0.000    0.000    0.000    0.000 
#    0.000    0.000    0.000    0.000    0.000    0.000 
#
# Total GULP energy -78321.067205 kJ/mol
# GULP energy per Si atom -5594.361943 kJ/mol
# Density = 2.300109 g / cm^3
# Si number density = 23.053556 Si / 1000 Ang^3
#
#
#
# Elastic Constant Matrix: (Units=GPa)
#
#
# Indices 1 2 3 4 5 6 
#
# 1 40.7781 38.9853 25.1080 -9.4723 7.3363 -11.4567
# 2 38.9853 177.7889 33.1184 7.5498 -4.8027 1.7143
# 3 25.1080 33.1184 113.0408 1.3651 16.1870 -11.8836
# 4 -9.4723 7.5498 1.3651 28.5729 -14.1130 4.2771
# 5 7.3363 -4.8027 16.1870 -14.1130 26.1757 -0.3590
# 6 -11.4567 1.7143 -11.8836 4.2771 -0.3590 46.0016
#
#
#
# Elastic Compliance Matrix: (Units=1/GPa)
#
#
# Indices 1 2 3 4 5 6 
#
# 1 0.042864 -0.009054 -0.005908 0.014688 -0.001991 0.008105
# 2 -0.009054 0.008029 -0.000957 -0.003341 0.002767 -0.002469
# 3 -0.005908 -0.000957 0.012240 -0.007681 -0.010198 0.002361
# 4 0.014688 -0.003341 -0.007681 0.056685 0.030538 -0.003234
# 5 -0.001991 0.002767 -0.010198 0.030538 0.061964 -0.005589
# 6 0.008105 -0.002469 0.002361 -0.003234 -0.005589 0.024716
#
#
# Mechanical properties :
#
#
# Convention : Reuss Voigt Hill
#
# Bulk Modulus (GPa) = 31.95423 58.44792 45.20107
# Shear Modulus (GPa) = 20.09904 35.77646 27.93775
#
# Velocity S-wave (km/s) = 2.95590 3.94367 3.48496
# Velocity P-wave (km/s) = 5.05378 6.79300 5.98689
#
# Compressibility (1/GPa) = 0.03129476
#
# Stress axis : x y z
#
# Youngs Moduli (GPa) = 23.32944 124.55346 81.69817
#
# Poissons Ratio (x) = 1.12774 0.48270
# Poissons Ratio (y) = 0.21123 0.07815
# Poissons Ratio (z) = 0.13784 0.11915
#
# Static dielectric constant tensor:
#      x y z
#    x 1.851100 0.007050 -0.009830 
#    y 0.007050 2.904420 -0.243040 
#    z -0.009830 -0.243040 1.949500 
# 
# From -- ./inp_files/348674.got.cif
#   From: 2010.05.17/outbox.cif.g08.bks.cpg/sg2_175_cif.got.tgz:348674.got - 2010.06.03 11:33:40.
