data_PCOD9057160
_publ_section_title
;
Structure prediction by ZEFSAII (Michael W. Deem and Ramdas Pophale) SiO2 
 PCOD9057160
Probable space group: P -1
;
_chemical_formula_sum "Si O2"
_cell_formula_units_Z 15
_cell_length_a 11.852640
_cell_length_b 8.049258
_cell_length_c 19.370086
_cell_angle_alpha 135.113671
_cell_angle_beta 144.669199
_cell_angle_gamma 38.856459
_cell_volume 656.676310
_symmetry_space_group_name_H-M "P -1"
_symmetry_group_IT_number 2
_symmetry_cell_setting 'triclinic'
loop_
_space_group_symop_operation_xyz
x,y,z
-x,-y,-z
loop_
_atom_site_type_symbol
_atom_site_label
_atom_site_fract_x
_atom_site_fract_y
_atom_site_fract_z
Si Si1 0.145240 0.428987 0.482150
Si Si2 0.397347 0.912178 0.860623
Si Si3 0.883824 0.859751 0.856485
Si Si4 0.988374 0.008980 0.758708
Si Si5 0.725662 0.437697 0.131246
Si Si6 0.551613 0.006445 0.249004
Si Si7 0.604135 0.319231 0.742818
Si Si8 0.000000 0.000000 0.500000
O O1 0.116477 0.186872 0.364206
O O2 0.398543 0.326881 0.602222
O O3 0.000000 0.500000 0.500000
O O4 0.064222 0.696683 0.474445
O O5 0.512999 0.588825 0.821116
O O6 0.131179 0.027016 0.772450
O O7 0.441701 0.985999 0.828638
O O8 0.500000 0.000000 0.000000
O O9 0.701059 0.830193 0.801586
O O10 0.732310 0.064343 0.781307
O O11 0.084375 0.604799 0.842517
O O12 0.000000 0.000000 0.000000
O O13 0.172838 0.844669 0.861016
O O14 0.792739 0.286119 0.772220
O O15 0.654750 0.686041 0.220867
O O16 0.500000 0.500000 0.000000
O O17 0.730539 0.086840 0.389351
#
# Coordination Sequence:
#
# PCOD9057160 Si02
#       8
#     2   2   2   2   2   2   2   1
#     4  12  22  46  76 104 148 194 245 307 372 441
#     4  12  27  43  67 102 146 191 232 298 373 438
#     4  11  25  42  72 101 133 187 243 294 360 438
#     4  11  24  45  71  98 138 196 239 293 372 438
#     4  11  22  41  71  99 132 180 240 294 356 432
#     4  12  24  45  68 103 144 181 236 306 365 432
#     4  11  25  45  69 104 139 189 244 299 368 438
#     4  12  24  44  78 108 146 190 248 306 370 442
#
# _framework density 22.842303999999999
#
# number of rings (size 3 to 8) (size 9 to 14) (size 15 to 20)
#    0.000    0.533    5.333    2.800    3.733    1.600 
#    0.000    0.667    0.000    0.000    0.000    0.000 
#    0.000    0.000    0.000    0.000    0.000    0.000 
#
# Total GULP energy -83641.429882 kJ/mol
# GULP energy per Si atom -5576.095325 kJ/mol
# Density = 2.279031 g / cm^3
# Si number density = 22.842304 Si / 1000 Ang^3
#
#
#
# Elastic Constant Matrix: (Units=GPa)
#
#
# Indices 1 2 3 4 5 6 
#
# 1 136.0721 43.0758 32.5081 -9.6043 34.4062 -21.4365
# 2 43.0758 56.9419 41.0496 -9.2079 14.4243 -8.9127
# 3 32.5081 41.0496 150.0579 -15.6505 23.7809 -4.1858
# 4 -9.6043 -9.2079 -15.6505 38.5297 -0.4590 3.7177
# 5 34.4062 14.4243 23.7809 -0.4590 40.5153 -9.6336
# 6 -21.4365 -8.9127 -4.1858 3.7177 -9.6336 46.0961
#
#
#
# Elastic Compliance Matrix: (Units=1/GPa)
#
#
# Indices 1 2 3 4 5 6 
#
# 1 0.011695 -0.006923 0.000709 0.001216 -0.007264 0.002548
# 2 -0.006923 0.027583 -0.005719 0.002410 -0.000235 0.001351
# 3 0.000709 -0.005719 0.008945 0.002493 -0.004028 -0.001006
# 4 0.001216 0.002410 0.002493 0.027970 -0.003446 -0.001718
# 5 -0.007264 -0.000235 -0.004028 -0.003446 0.034120 0.003619
# 6 0.002548 0.001351 -0.001006 -0.001718 0.003619 0.023944
#
#
# Mechanical properties :
#
#
# Convention : Reuss Voigt Hill
#
# Bulk Modulus (GPa) = 41.05596 64.03764 52.54680
# Shear Modulus (GPa) = 30.07660 40.12410 35.10035
#
# Velocity S-wave (km/s) = 3.63258 4.19569 3.92425
# Velocity P-wave (km/s) = 5.96715 7.18104 6.60205
#
# Compressibility (1/GPa) = 0.02435700
#
# Stress axis : x y z
#
# Youngs Moduli (GPa) = 85.50590 36.25448 111.79151
#
# Poissons Ratio (x) = 0.25099 -0.07930
# Poissons Ratio (y) = 0.59195 0.63938
# Poissons Ratio (z) = -0.06065 0.20735
#
# Static dielectric constant tensor:
#      x y z
#    x 1.992060 0.023090 -0.015540 
#    y 0.023090 1.891490 0.019860 
#    z -0.015540 0.019860 1.853620 
# 
# From -- ./inp_files/594203.got.cif
#   From: 2010.05.17/outbox.cif.g08.bks.cpg/sg2_298_cif.got.tgz:594203.got - 2010.06.03 11:33:40.
