data_PCOD9057600
_publ_section_title
;
Structure prediction by ZEFSAII (Michael W. Deem and Ramdas Pophale) SiO2 
 PCOD9057600
Probable space group: P -1
;
_chemical_formula_sum "Si O2"
_cell_formula_units_Z 16
_cell_length_a 13.794324
_cell_length_b 6.555463
_cell_length_c 8.387315
_cell_angle_alpha 84.330302
_cell_angle_beta 89.752043
_cell_angle_gamma 122.700695
_cell_volume 633.606721
_symmetry_space_group_name_H-M "P -1"
_symmetry_group_IT_number 2
_symmetry_cell_setting 'triclinic'
loop_
_space_group_symop_operation_xyz
x,y,z
-x,-y,-z
loop_
_atom_site_type_symbol
_atom_site_label
_atom_site_fract_x
_atom_site_fract_y
_atom_site_fract_z
Si Si1 0.665837 0.181398 0.662212
Si Si2 0.128833 0.357999 0.828785
Si Si3 0.096016 0.955472 0.297877
Si Si4 0.277917 0.881673 0.784726
Si Si5 0.275962 0.210326 0.038603
Si Si6 0.534649 0.770584 0.497121
Si Si7 0.887623 0.635245 0.515120
Si Si8 0.608103 0.273044 0.988029
O O1 0.577883 0.236095 0.563982
O O2 0.794299 0.354020 0.576705
O O3 0.678370 0.274615 0.834114
O O4 0.583495 0.889484 0.660335
O O5 0.161618 0.318194 0.652121
O O6 0.991998 0.166979 0.840120
O O7 0.151963 0.631749 0.798644
O O8 0.188577 0.287269 0.966411
O O9 0.020599 0.749899 0.450235
O O10 0.218563 0.049603 0.209784
O O11 0.108344 0.194779 0.357053
O O12 0.351600 0.050929 0.625317
O O13 0.287754 0.055335 0.913626
O O14 0.340554 0.740919 0.843871
O O15 0.388940 0.479698 0.045356
O O16 0.500000 0.500000 0.500000
O O17 0.500000 0.000000 0.000000
#
# Coordination Sequence:
#
# PCOD9057600 Si02
#       8
#     2   2   2   2   2   2   2   2
#     4  11  22  43  63  85 121 160 198 245 295 350
#     4   9  20  39  61  83 121 155 194 245 297 344
#     4   9  18  37  63  88 111 160 199 241 297 352
#     4  11  24  40  57  93 122 155 200 244 295 359
#     4  11  23  36  63  89 120 156 199 241 298 352
#     4  11  25  37  63  91 118 156 202 242 297 353
#     4   9  18  36  65  85 115 153 202 243 292 349
#     4  11  24  42  61  85 123 165 196 242 294 351
#
# _framework density 25.252258999999999
#
# number of rings (size 3 to 8) (size 9 to 14) (size 15 to 20)
#    0.750    1.000    3.750    0.375    3.500    2.000 
#    0.000    0.000    0.000    2.250    0.000    0.000 
#    0.000    0.000    0.000    0.000    0.000    0.000 
#
# Total GULP energy -89101.307294 kJ/mol
# GULP energy per Si atom -5568.831706 kJ/mol
# Density = 2.519478 g / cm^3
# Si number density = 25.252259 Si / 1000 Ang^3
#
#
#
# Elastic Constant Matrix: (Units=GPa)
#
#
# Indices 1 2 3 4 5 6 
#
# 1 63.4521 32.4822 13.8251 2.1559 -15.8230 7.9893
# 2 32.4822 215.6275 29.6235 1.5063 -15.3873 25.8483
# 3 13.8251 29.6235 61.7499 -1.2395 -18.0599 6.8747
# 4 2.1559 1.5063 -1.2395 42.7561 2.6540 -8.9208
# 5 -15.8230 -15.3873 -18.0599 2.6540 38.9969 -5.1538
# 6 7.9893 25.8483 6.8747 -8.9208 -5.1538 23.5971
#
#
#
# Elastic Compliance Matrix: (Units=1/GPa)
#
#
# Indices 1 2 3 4 5 6 
#
# 1 0.018993 -0.001820 -0.001250 -0.002041 0.006084 -0.003516
# 2 -0.001820 0.005865 -0.001763 -0.001381 0.000087 -0.005798
# 3 -0.001250 -0.001763 0.019776 -0.000152 0.007731 -0.001776
# 4 -0.002041 -0.001381 -0.000152 0.026090 -0.001667 0.011747
# 5 0.006084 0.000087 0.007731 -0.001667 0.032101 0.001973
# 6 -0.003516 -0.005798 -0.001776 0.011747 0.001973 0.055309
#
#
# Mechanical properties :
#
#
# Convention : Reuss Voigt Hill
#
# Bulk Modulus (GPa) = 28.59646 54.74346 41.66996
# Shear Modulus (GPa) = 27.86235 38.72991 33.29613
#
# Velocity S-wave (km/s) = 3.32529 3.92052 3.63511
# Velocity P-wave (km/s) = 5.10806 6.49767 5.84431
#
# Compressibility (1/GPa) = 0.03496936
#
# Stress axis : x y z
#
# Youngs Moduli (GPa) = 52.65135 170.50935 50.56710
#
# Poissons Ratio (x) = 0.31024 0.06319
# Poissons Ratio (y) = 0.09580 0.08915
# Poissons Ratio (z) = 0.06579 0.30060
#
# Static dielectric constant tensor:
#      x y z
#    x 2.441430 0.540700 0.136690 
#    y 0.540700 2.683750 0.090310 
#    z 0.136690 0.090310 2.050650 
# 
# From -- ./inp_files/323714.got.cif
#   From: 2010.05.17/outbox.cif.g08.bks.cpg/sg2_162_cif.got.tgz:323714.got - 2010.06.03 11:33:40.
