data_PCOD9057033
_publ_section_title
;
Structure prediction by ZEFSAII (Michael W. Deem and Ramdas Pophale) SiO2 
 PCOD9057033
Probable space group: P -1
;
_chemical_formula_sum "Si O2"
_cell_formula_units_Z 16
_cell_length_a 22.486643
_cell_length_b 12.191593
_cell_length_c 10.231674
_cell_angle_alpha 47.205477
_cell_angle_beta 28.059621
_cell_angle_gamma 33.748143
_cell_volume 716.958556
_symmetry_space_group_name_H-M "P -1"
_symmetry_group_IT_number 2
_symmetry_cell_setting 'triclinic'
loop_
_space_group_symop_operation_xyz
x,y,z
-x,-y,-z
loop_
_atom_site_type_symbol
_atom_site_label
_atom_site_fract_x
_atom_site_fract_y
_atom_site_fract_z
Si Si1 0.510496 0.730223 0.425404
Si Si2 0.479497 0.945560 0.785675
Si Si3 0.610405 0.205661 0.121379
Si Si4 0.232386 0.640869 0.430050
Si Si5 0.938705 0.662617 0.377841
Si Si6 0.661923 0.093758 0.655139
Si Si7 0.172075 0.727252 0.764982
Si Si8 0.125695 0.435933 0.688794
O O1 0.371133 0.818611 0.739120
O O2 0.449670 0.771265 0.362220
O O3 0.648228 0.494206 0.373589
O O4 0.579425 0.841645 0.234324
O O5 0.385909 0.953296 0.834026
O O6 0.682453 0.783508 0.496652
O O7 0.439592 0.865626 0.048791
O O8 0.419435 0.422840 0.282546
O O9 0.739021 0.219980 0.797634
O O10 0.130991 0.731171 0.689153
O O11 0.151803 0.593085 0.520864
O O12 0.944201 0.570476 0.305731
O O13 0.000000 0.500000 0.500000
O O14 0.753605 0.869739 0.610217
O O15 0.044570 0.731420 0.096244
O O16 0.793436 0.124938 0.401710
O O17 0.000000 0.500000 0.000000
#
# Coordination Sequence:
#
# PCOD9057033 Si02
#       8
#     2   2   2   2   2   2   2   2
#     4  11  23  38  67 106 134 170 232 279 332 393
#     4  11  22  41  68  97 138 173 226 279 335 398
#     4   9  19  36  62  96 128 171 218 279 326 384
#     4   9  18  38  64  93 127 171 223 270 329 389
#     4  12  27  46  68  99 140 181 224 273 344 406
#     4  12  25  45  68 100 139 179 222 280 338 402
#     4  11  23  43  69  98 138 180 222 274 340 403
#     4  11  23  42  69  93 132 180 221 278 333 395
#
# _framework density 22.316492
#
# number of rings (size 3 to 8) (size 9 to 14) (size 15 to 20)
#    0.000    1.250    3.750    2.250    3.500    1.000 
#    2.250    0.000    0.000    2.250    0.000    0.000 
#    0.000    0.000    0.000    0.000    0.000    0.000 
#
# Total GULP energy -89432.913647 kJ/mol
# GULP energy per Si atom -5589.557103 kJ/mol
# Density = 2.226570 g / cm^3
# Si number density = 22.316492 Si / 1000 Ang^3
#
#
#
# Elastic Constant Matrix: (Units=GPa)
#
#
# Indices 1 2 3 4 5 6 
#
# 1 90.6413 41.5397 36.4404 2.5198 19.0208 19.1885
# 2 41.5397 55.3740 29.3772 -11.7608 9.4249 19.3453
# 3 36.4404 29.3772 130.9271 -11.2249 22.9836 0.2061
# 4 2.5198 -11.7608 -11.2249 29.8403 7.3401 1.9149
# 5 19.0208 9.4249 22.9836 7.3401 36.8166 -11.1518
# 6 19.1885 19.3453 0.2061 1.9149 -11.1518 28.8814
#
#
#
# Elastic Compliance Matrix: (Units=1/GPa)
#
#
# Indices 1 2 3 4 5 6 
#
# 1 0.020701 -0.009875 -0.002206 -0.003522 -0.009257 -0.010464
# 2 -0.009875 0.049202 -0.001806 0.027618 -0.023122 -0.037142
# 3 -0.002206 -0.001806 0.010018 0.004589 -0.005515 0.000170
# 4 -0.003522 0.027618 0.004589 0.055416 -0.028516 -0.030877
# 5 -0.009257 -0.023122 -0.005515 -0.028516 0.061300 0.047237
# 6 -0.010464 -0.037142 0.000170 -0.030877 0.047237 0.086740
#
#
# Mechanical properties :
#
#
# Convention : Reuss Voigt Hill
#
# Bulk Modulus (GPa) = 19.17685 54.62857 36.90271
# Shear Modulus (GPa) = 15.21907 30.41333 22.81620
#
# Velocity S-wave (km/s) = 2.61428 3.69564 3.20096
# Velocity P-wave (km/s) = 4.21003 6.53778 5.49850
#
# Compressibility (1/GPa) = 0.05214621
#
# Stress axis : x y z
#
# Youngs Moduli (GPa) = 48.30737 20.32418 99.81546
#
# Poissons Ratio (x) = 0.20071 0.22021
# Poissons Ratio (y) = 0.47706 0.18028
# Poissons Ratio (z) = 0.10658 0.03671
#
# Static dielectric constant tensor:
#      x y z
#    x 1.819220 0.008730 0.001230 
#    y 0.008730 1.816480 0.029540 
#    z 0.001230 0.029540 1.871970 
# 
# From -- ./inp_files/263053.got.cif
#   From: 2010.05.17/outbox.cif.g08.bks.cpg/sg2_132_cif.got.tgz:263053.got - 2010.06.03 11:33:40.
