data_PCOD9057096
_publ_section_title
;
Structure prediction by ZEFSAII (Michael W. Deem and Ramdas Pophale) SiO2 
 PCOD9057096
Probable space group: P -1
;
_chemical_formula_sum "Si O2"
_cell_formula_units_Z 14
_cell_length_a 15.818292
_cell_length_b 8.521282
_cell_length_c 11.953091
_cell_angle_alpha 56.229822
_cell_angle_beta 28.411760
_cell_angle_gamma 52.267655
_cell_volume 605.630210
_symmetry_space_group_name_H-M "P -1"
_symmetry_group_IT_number 2
_symmetry_cell_setting 'triclinic'
loop_
_space_group_symop_operation_xyz
x,y,z
-x,-y,-z
loop_
_atom_site_type_symbol
_atom_site_label
_atom_site_fract_x
_atom_site_fract_y
_atom_site_fract_z
Si Si1 0.484596 0.140846 0.794328
Si Si2 0.881401 0.228244 0.068665
Si Si3 0.840955 0.571597 0.809306
Si Si4 0.791281 0.390722 0.606705
Si Si5 0.429703 0.291378 0.118227
Si Si6 0.475042 0.182895 0.537606
Si Si7 0.781721 0.380015 0.366575
O O1 0.446560 0.110463 0.722237
O O2 0.616071 0.279386 0.595677
O O3 0.587816 0.921803 0.804966
O O4 0.291099 0.255136 0.030307
O O5 0.664964 0.242584 0.297376
O O6 0.898336 0.298740 0.149439
O O7 0.917850 0.376007 0.874434
O O8 0.000000 0.000000 0.000000
O O9 0.698815 0.556829 0.882834
O O10 0.018059 0.634421 0.538593
O O11 0.657994 0.616921 0.697862
O O12 0.854369 0.342026 0.424101
O O13 0.646203 0.276160 0.857733
O O14 0.308972 0.383281 0.628753
O O15 0.500000 0.000000 0.500000
#
# Coordination Sequence:
#
# PCOD9057096 Si02
#       7
#     2   2   2   2   2   2   2
#     4  11  22  43  70  95 139 185 222 281 348 402
#     4  11  25  43  68 102 140 175 224 289 348 402
#     4  12  24  45  71  99 138 179 228 285 338 406
#     4  11  26  43  72  98 136 182 235 280 337 408
#     4  11  25  48  67 100 139 184 230 283 342 403
#     4  11  22  41  70 100 135 184 226 275 352 408
#     4  11  22  46  67 100 139 182 225 284 347 412
#
# _framework density 23.116416999999998
#
# number of rings (size 3 to 8) (size 9 to 14) (size 15 to 20)
#    0.000    0.857    4.286    2.571    6.000    3.429 
#    0.000    0.000    0.000    0.000    0.000    0.000 
#    0.000    0.000    0.000    0.000    0.000    0.000 
#
# Total GULP energy -78230.069421 kJ/mol
# GULP energy per Si atom -5587.862101 kJ/mol
# Density = 2.306380 g / cm^3
# Si number density = 23.116417 Si / 1000 Ang^3
#
#
#
# Elastic Constant Matrix: (Units=GPa)
#
#
# Indices 1 2 3 4 5 6 
#
# 1 83.8582 20.3018 23.6165 -2.3237 11.6241 22.7431
# 2 20.3018 120.9013 12.2976 8.1635 16.5675 15.7576
# 3 23.6165 12.2976 94.3557 -4.5579 -5.9002 2.6616
# 4 -2.3237 8.1635 -4.5579 20.9013 9.3279 5.9725
# 5 11.6241 16.5675 -5.9002 9.3279 36.4034 5.2363
# 6 22.7431 15.7576 2.6616 5.9725 5.2363 32.6191
#
#
#
# Elastic Compliance Matrix: (Units=1/GPa)
#
#
# Indices 1 2 3 4 5 6 
#
# 1 0.017502 -0.000640 -0.003983 0.007483 -0.006141 -0.011953
# 2 -0.000640 0.009508 -0.001283 -0.001608 -0.003460 -0.003193
# 3 -0.003983 -0.001283 0.011955 0.000658 0.003372 0.001759
# 4 0.007483 -0.001608 0.000658 0.059878 -0.015017 -0.013047
# 5 -0.006141 -0.003460 0.003372 -0.015017 0.034996 0.002810
# 6 -0.011953 -0.003193 0.001759 -0.013047 0.002810 0.042328
#
#
# Mechanical properties :
#
#
# Convention : Reuss Voigt Hill
#
# Bulk Modulus (GPa) = 36.82650 45.72745 41.27697
# Shear Modulus (GPa) = 25.37714 34.17805 29.77760
#
# Velocity S-wave (km/s) = 3.31690 3.84932 3.59299
# Velocity P-wave (km/s) = 5.53485 6.29132 5.92517
#
# Compressibility (1/GPa) = 0.02715436
#
# Stress axis : x y z
#
# Youngs Moduli (GPa) = 57.13710 105.17583 83.64557
#
# Poissons Ratio (x) = 0.06728 0.33312
# Poissons Ratio (y) = 0.03655 0.10732
# Poissons Ratio (z) = 0.22755 0.13495
#
# Static dielectric constant tensor:
#      x y z
#    x 1.953650 -0.009510 0.034100 
#    y -0.009510 1.879410 -0.024280 
#    z 0.034100 -0.024280 1.866920 
# 
# From -- ./inp_files/188981.got.cif
#   From: 2010.05.17/outbox.cif.g08.bks.cpg/sg2_95_cif.got.tgz:188981.got - 2010.06.03 11:33:40.
