data_PCOD9057783
_publ_section_title
;
Structure prediction by ZEFSAII (Michael W. Deem and Ramdas Pophale) SiO2 
 PCOD9057783
Probable space group: P -1
;
_chemical_formula_sum "Si O2"
_cell_formula_units_Z 16
_cell_length_a 12.204845
_cell_length_b 11.524579
_cell_length_c 6.561063
_cell_angle_alpha 61.394729
_cell_angle_beta 87.867142
_cell_angle_gamma 84.863905
_cell_volume 806.936849
_symmetry_space_group_name_H-M "P -1"
_symmetry_group_IT_number 2
_symmetry_cell_setting 'triclinic'
loop_
_space_group_symop_operation_xyz
x,y,z
-x,-y,-z
loop_
_atom_site_type_symbol
_atom_site_label
_atom_site_fract_x
_atom_site_fract_y
_atom_site_fract_z
Si Si1 0.587907 0.376726 0.079571
Si Si2 0.483939 0.908851 0.772783
Si Si3 0.789159 0.421070 0.753696
Si Si4 0.323751 0.997032 0.059050
Si Si5 0.056332 0.736134 0.794697
Si Si6 0.252084 0.742660 0.497215
Si Si7 0.072884 0.115280 0.976565
Si Si8 0.062164 0.375945 0.479965
O O1 0.532107 0.240893 0.161076
O O2 0.664850 0.351553 0.293931
O O3 0.500000 0.500000 0.000000
O O4 0.670071 0.403315 0.867583
O O5 0.589568 0.918915 0.901381
O O6 0.500000 0.000000 0.500000
O O7 0.376102 0.962914 0.863273
O O8 0.797449 0.340989 0.609585
O O9 0.817124 0.572221 0.599002
O O10 0.876852 0.354223 0.965524
O O11 0.314552 0.859725 0.296578
O O12 0.200701 0.064247 0.008342
O O13 0.151651 0.797806 0.603425
O O14 0.991296 0.650931 0.711810
O O15 0.974010 0.837841 0.838789
O O16 0.060344 0.243054 0.722684
O O17 0.000000 0.000000 0.000000
O O18 0.000000 0.500000 0.500000
#
# Coordination Sequence:
#
# PCOD9057783 Si02
#       8
#     2   2   2   2   2   2   2   2
#     4  11  26  43  69 103 131 176 235 290 355 418
#     4  11  24  47  73  96 139 185 231 291 352 409
#     4  11  23  42  67  97 139 179 227 281 354 415
#     4  11  25  44  70  99 140 184 236 284 349 413
#     4  11  23  42  71  98 142 183 228 278 354 412
#     4  11  22  43  70  98 137 184 221 290 352 415
#     4  12  28  43  69 109 144 181 239 285 340 426
#     4  12  24  43  68 101 139 186 227 284 347 414
#
# _framework density 19.828071000000001
#
# number of rings (size 3 to 8) (size 9 to 14) (size 15 to 20)
#    0.000    0.750    5.000    1.875    1.750    6.500 
#    0.000    0.000    0.000    0.000    0.000    0.000 
#    0.000    0.000    0.000    0.000    0.000    0.000 
#
# Total GULP energy -89460.048809 kJ/mol
# GULP energy per Si atom -5591.253051 kJ/mol
# Density = 1.978294 g / cm^3
# Si number density = 19.828071 Si / 1000 Ang^3
#
#
#
# Elastic Constant Matrix: (Units=GPa)
#
#
# Indices 1 2 3 4 5 6 
#
# 1 133.9411 75.6149 54.1097 2.6959 -11.5142 -16.0341
# 2 75.6149 144.2486 68.3515 8.7228 -4.1062 3.8415
# 3 54.1097 68.3515 115.1707 4.8514 -21.7147 -7.4898
# 4 2.6959 8.7228 4.8514 38.6784 8.0039 -4.8653
# 5 -11.5142 -4.1062 -21.7147 8.0039 39.9001 -2.6957
# 6 -16.0341 3.8415 -7.4898 -4.8653 -2.6957 45.2693
#
#
#
# Elastic Compliance Matrix: (Units=1/GPa)
#
#
# Indices 1 2 3 4 5 6 
#
# 1 0.012047 -0.005658 -0.001620 0.000780 0.002173 0.004692
# 2 -0.005658 0.012754 -0.005780 -0.001600 -0.003443 -0.004419
# 3 -0.001620 -0.005780 0.014488 -0.001590 0.007316 0.002578
# 4 0.000780 -0.001600 -0.001590 0.028001 -0.006234 0.002787
# 5 0.002173 -0.003443 0.007316 -0.006234 0.030799 0.003436
# 6 0.004692 -0.004419 0.002578 0.002787 0.003436 0.025058
#
#
# Mechanical properties :
#
#
# Convention : Reuss Voigt Hill
#
# Bulk Modulus (GPa) = 75.91285 87.72361 81.81823
# Shear Modulus (GPa) = 32.54051 37.78852 35.16451
#
# Velocity S-wave (km/s) = 4.05549 4.37029 4.21583
# Velocity P-wave (km/s) = 7.76517 8.35489 8.06542
#
# Compressibility (1/GPa) = 0.01317300
#
# Stress axis : x y z
#
# Youngs Moduli (GPa) = 83.00569 78.40969 69.02052
#
# Poissons Ratio (x) = 0.44362 0.11184
# Poissons Ratio (y) = 0.46962 0.39895
# Poissons Ratio (z) = 0.13450 0.45322
#
# Static dielectric constant tensor:
#      x y z
#    x 1.714520 0.005650 -0.024890 
#    y 0.005650 1.671780 0.008120 
#    z -0.024890 0.008120 1.710770 
# 
# From -- ./inp_files/68553.got.cif
#   From: 2010.05.17/outbox.cif.g08.bks.cpg/sg2_35_cif.got.tgz:68553.got - 2010.06.03 11:33:40.
