data_PCOD9057689
_publ_section_title
;
Structure prediction by ZEFSAII (Michael W. Deem and Ramdas Pophale) SiO2 
 PCOD9057689
Probable space group: P -1
;
_chemical_formula_sum "Si O2"
_cell_formula_units_Z 16
_cell_length_a 17.259705
_cell_length_b 11.772534
_cell_length_c 9.978263
_cell_angle_alpha 73.017366
_cell_angle_beta 74.868182
_cell_angle_gamma 21.298966
_cell_volume 703.980023
_symmetry_space_group_name_H-M "P -1"
_symmetry_group_IT_number 2
_symmetry_cell_setting 'triclinic'
loop_
_space_group_symop_operation_xyz
x,y,z
-x,-y,-z
loop_
_atom_site_type_symbol
_atom_site_label
_atom_site_fract_x
_atom_site_fract_y
_atom_site_fract_z
Si Si1 0.081814 0.374500 0.354400
Si Si2 0.817042 0.690270 0.111623
Si Si3 0.794088 0.444955 0.212567
Si Si4 0.361576 0.435254 0.036670
Si Si5 0.462664 0.359952 0.562574
Si Si6 0.985203 0.278075 0.826055
Si Si7 0.400554 0.652095 0.694678
Si Si8 0.765018 0.152896 0.892788
O O1 0.908736 0.560154 0.266147
O O2 0.000000 0.500000 0.500000
O O3 0.121073 0.451648 0.251578
O O4 0.297376 0.004243 0.379256
O O5 0.757956 0.633351 0.128532
O O6 0.602573 0.061399 0.074386
O O7 0.000000 0.500000 0.000000
O O8 0.687149 0.544748 0.362811
O O9 0.698064 0.497003 0.116835
O O10 0.047989 0.077673 0.218657
O O11 0.196141 0.570786 0.133166
O O12 0.304771 0.636402 0.064354
O O13 0.386096 0.576520 0.610029
O O14 0.489363 0.376329 0.396361
O O15 0.165825 0.002162 0.731132
O O16 0.121086 0.088641 0.967841
O O17 0.560252 0.385516 0.828215
#
# Coordination Sequence:
#
# PCOD9057689 Si02
#       8
#     2   2   2   2   2   2   2   2
#     4  12  25  45  67  98 135 180 229 275 342 405
#     4  12  25  44  72 101 134 182 232 281 340 411
#     4  11  23  43  65 101 139 176 224 281 340 399
#     4  11  23  41  69 104 136 171 222 285 342 396
#     4  11  24  43  66  92 141 183 222 276 337 404
#     4  11  22  43  68  96 136 174 220 284 337 399
#     4  11  23  42  68  98 133 186 226 271 336 406
#     4  11  23  40  68 103 132 172 233 277 337 398
#
# _framework density 22.727917999999999
#
# number of rings (size 3 to 8) (size 9 to 14) (size 15 to 20)
#    0.000    0.750    1.250    8.250    0.000    2.500 
#    2.250    1.250    0.000    0.000    0.000    0.000 
#    0.000    0.000    0.000    0.000    0.000    0.000 
#
# Total GULP energy -89541.294418 kJ/mol
# GULP energy per Si atom -5596.330901 kJ/mol
# Density = 2.267619 g / cm^3
# Si number density = 22.727918 Si / 1000 Ang^3
#
#
#
# Elastic Constant Matrix: (Units=GPa)
#
#
# Indices 1 2 3 4 5 6 
#
# 1 61.3568 7.9431 16.3741 14.3980 -10.4254 -7.1196
# 2 7.9431 111.1345 13.5604 7.9649 -15.9706 -7.2459
# 3 16.3741 13.5604 83.9227 14.7142 -28.3858 -6.3670
# 4 14.3980 7.9649 14.7142 39.2289 -7.2891 -4.7151
# 5 -10.4254 -15.9706 -28.3858 -7.2891 40.8900 3.7291
# 6 -7.1196 -7.2459 -6.3670 -4.7151 3.7291 32.5062
#
#
#
# Elastic Compliance Matrix: (Units=1/GPa)
#
#
# Indices 1 2 3 4 5 6 
#
# 1 0.018760 -0.000239 -0.001683 -0.005456 0.002305 0.002670
# 2 -0.000239 0.009681 -0.000091 -0.001038 0.003330 0.001555
# 3 -0.001683 -0.000091 0.016407 -0.003485 0.010199 0.001149
# 4 -0.005456 -0.001038 -0.003485 0.029416 0.000840 0.002061
# 5 0.002305 0.003330 0.010199 0.000840 0.033619 -0.000490
# 6 0.002670 0.001555 0.001149 0.002061 -0.000490 0.032275
#
#
# Mechanical properties :
#
#
# Convention : Reuss Voigt Hill
#
# Bulk Modulus (GPa) = 24.49709 36.90768 30.70239
# Shear Modulus (GPa) = 31.68774 37.09410 34.39092
#
# Velocity S-wave (km/s) = 3.73798 4.04430 3.89415
# Velocity P-wave (km/s) = 5.42511 6.17112 5.81010
#
# Compressibility (1/GPa) = 0.04082117
#
# Stress axis : x y z
#
# Youngs Moduli (GPa) = 53.30470 103.29920 60.95139
#
# Poissons Ratio (x) = 0.02470 0.10256
# Poissons Ratio (y) = 0.01274 0.00557
# Poissons Ratio (z) = 0.08969 0.00944
#
# Static dielectric constant tensor:
#      x y z
#    x 1.880810 0.005370 -0.032330 
#    y 0.005370 1.791490 0.025390 
#    z -0.032330 0.025390 1.904030 
# 
# From -- ./inp_files/464528.got.cif
#   From: 2010.05.17/outbox.cif.g08.bks.cpg/sg2_233_cif.got.tgz:464528.got - 2010.06.03 11:33:40.
