data_PCOD9057204
_publ_section_title
;
Structure prediction by ZEFSAII (Michael W. Deem and Ramdas Pophale) SiO2 
 PCOD9057204
Probable space group: P -1
;
_chemical_formula_sum "Si O2"
_cell_formula_units_Z 15
_cell_length_a 11.905252
_cell_length_b 19.840928
_cell_length_c 9.408928
_cell_angle_alpha 52.066828
_cell_angle_beta 39.185672
_cell_angle_gamma 31.031207
_cell_volume 715.512667
_symmetry_space_group_name_H-M "P -1"
_symmetry_group_IT_number 2
_symmetry_cell_setting 'triclinic'
loop_
_space_group_symop_operation_xyz
x,y,z
-x,-y,-z
loop_
_atom_site_type_symbol
_atom_site_label
_atom_site_fract_x
_atom_site_fract_y
_atom_site_fract_z
Si Si1 0.000000 0.500000 0.500000
Si Si2 0.557893 0.662661 0.194543
Si Si3 0.678569 0.107146 0.665691
Si Si4 0.570700 0.004148 0.111695
Si Si5 0.043783 0.564953 0.674330
Si Si6 0.009772 0.779142 0.452594
Si Si7 0.785960 0.002756 0.183147
Si Si8 0.357110 0.201432 0.586420
O O1 0.881931 0.510724 0.445171
O O2 0.871154 0.644028 0.414112
O O3 0.466784 0.772068 0.245844
O O4 0.747273 0.532415 0.275183
O O5 0.291477 0.713070 0.327328
O O6 0.749347 0.633159 0.922575
O O7 0.579886 0.155388 0.539648
O O8 0.608905 0.038802 0.882207
O O9 0.000000 0.000000 0.500000
O O10 0.248510 0.113457 0.326673
O O11 0.696514 0.021610 0.085566
O O12 0.724066 0.858451 0.182093
O O13 0.034467 0.670435 0.533935
O O14 0.926468 0.866062 0.285432
O O15 0.517747 0.120103 0.389688
O O16 0.000000 0.000000 0.000000
#
# Coordination Sequence:
#
# PCOD9057204 Si02
#       8
#     1   2   2   2   2   2   2   2
#     4  12  24  44  70  96 142 182 222 282 348 410
#     4  11  24  44  69 102 132 191 230 275 352 407
#     4  12  23  43  67 103 140 175 226 289 346 404
#     4  11  22  43  68 102 135 177 234 286 345 406
#     4  11  24  46  70  95 145 178 234 284 337 423
#     4  11  22  41  73 103 131 179 238 283 338 416
#     4  11  23  41  70 100 132 178 231 286 348 406
#     4  11  24  40  65  99 134 180 220 283 349 397
#
# _framework density 20.963989999999999
#
# number of rings (size 3 to 8) (size 9 to 14) (size 15 to 20)
#    0.000    0.800    2.667    7.200    1.867    0.000 
#    0.000    2.000    0.000    0.000    0.000    0.000 
#    0.000    0.000    0.000    0.000    0.000    0.000 
#
# Total GULP energy -83653.350690 kJ/mol
# GULP energy per Si atom -5576.890046 kJ/mol
# Density = 2.091627 g / cm^3
# Si number density = 20.963990 Si / 1000 Ang^3
#
#
#
# Elastic Constant Matrix: (Units=GPa)
#
#
# Indices 1 2 3 4 5 6 
#
# 1 97.0789 24.5847 5.7262 -3.4930 -12.4288 -6.6057
# 2 24.5847 126.3932 30.7820 -29.9105 -16.0546 15.4471
# 3 5.7262 30.7820 50.4864 -16.9900 -23.3286 -8.0450
# 4 -3.4930 -29.9105 -16.9900 28.8688 -3.7221 -11.1600
# 5 -12.4288 -16.0546 -23.3286 -3.7221 37.7809 -1.5175
# 6 -6.6057 15.4471 -8.0450 -11.1600 -1.5175 47.1465
#
#
#
# Elastic Compliance Matrix: (Units=1/GPa)
#
#
# Indices 1 2 3 4 5 6 
#
# 1 0.012019 -0.002104 0.006344 0.005991 0.007773 0.005124
# 2 -0.002104 0.012183 -0.001438 0.011480 0.004661 -0.001664
# 3 0.006344 -0.001438 0.063847 0.053124 0.047192 0.026348
# 4 0.005991 0.011480 0.053124 0.096894 0.050431 0.030702
# 5 0.007773 0.004661 0.047192 0.050431 0.065985 0.021676
# 6 0.005124 -0.001664 0.026348 0.030702 0.021676 0.034935
#
#
# Mechanical properties :
#
#
# Convention : Reuss Voigt Hill
#
# Bulk Modulus (GPa) = 10.67756 44.01602 27.34679
# Shear Modulus (GPa) = 16.05261 36.95027 26.50144
#
# Velocity S-wave (km/s) = 2.77017 4.20284 3.55933
# Velocity P-wave (km/s) = 3.91614 6.67783 5.47401
#
# Compressibility (1/GPa) = 0.09365437
#
# Stress axis : x y z
#
# Youngs Moduli (GPa) = 83.20187 82.07885 15.66251
#
# Poissons Ratio (x) = 0.17269 -0.09937
# Poissons Ratio (y) = 0.17506 0.02252
# Poissons Ratio (z) = -0.52785 0.11800
#
# Static dielectric constant tensor:
#      x y z
#    x 1.828550 0.052430 -0.003310 
#    y 0.052430 1.762220 -0.007560 
#    z -0.003310 -0.007560 1.737800 
# 
# From -- ./inp_files/282842.got.cif
#   From: 2010.05.17/outbox.cif.g08.bks.cpg/sg2_142_cif.got.tgz:282842.got - 2010.06.03 11:33:40.
