data_PCOD9057994
_publ_section_title
;
Structure prediction by ZEFSAII (Michael W. Deem and Ramdas Pophale) SiO2 
 PCOD9057994
Probable space group: P -1
;
_chemical_formula_sum "Si O2"
_cell_formula_units_Z 16
_cell_length_a 5.090844
_cell_length_b 25.650039
_cell_length_c 5.902435
_cell_angle_alpha 127.049923
_cell_angle_beta 96.258263
_cell_angle_gamma 89.419523
_cell_volume 609.971015
_symmetry_space_group_name_H-M "P -1"
_symmetry_group_IT_number 2
_symmetry_cell_setting 'triclinic'
loop_
_space_group_symop_operation_xyz
x,y,z
-x,-y,-z
loop_
_atom_site_type_symbol
_atom_site_label
_atom_site_fract_x
_atom_site_fract_y
_atom_site_fract_z
Si Si1 0.560576 0.340012 0.803406
Si Si2 0.574649 0.215671 0.237169
Si Si3 0.401997 0.037655 0.301941
Si Si4 0.844637 0.856379 0.697411
Si Si5 0.069518 0.612571 0.685931
Si Si6 0.451088 0.433610 0.684860
Si Si7 0.162691 0.911797 0.219598
Si Si8 0.190456 0.259244 0.916171
O O1 0.687440 0.285741 0.518452
O O2 0.376615 0.378137 0.720369
O O3 0.386235 0.305390 0.896415
O O4 0.786105 0.388506 0.061040
O O5 0.417203 0.184800 0.355549
O O6 0.773857 0.160603 0.057850
O O7 0.368609 0.227886 0.045904
O O8 0.187225 0.087387 0.343460
O O9 0.659504 0.081281 0.525162
O O10 0.270455 0.980580 0.296922
O O11 0.500000 0.000000 0.000000
O O12 0.959046 0.798630 0.399012
O O13 0.874507 0.902116 0.055728
O O14 0.793589 0.569969 0.520893
O O15 0.283062 0.587627 0.465995
O O16 0.005790 0.689706 0.863503
O O17 0.500000 0.500000 0.000000
#
# Coordination Sequence:
#
# PCOD9057994 Si02
#       8
#     2   2   2   2   2   2   2   2
#     4  11  25  46  78 103 152 190 242 299 377 423
#     4  11  22  44  68 102 138 180 240 302 363 436
#     4  11  23  43  62  92 135 179 239 294 364 437
#     4  11  24  41  68  99 134 184 236 298 375 434
#     4  12  25  50  75 112 151 195 247 304 360 439
#     4  12  29  50  78 114 154 197 248 299 360 438
#     4  11  24  41  65  91 134 179 235 300 359 438
#     4  11  24  46  72 108 143 191 244 305 368 439
#
# _framework density 26.230754999999998
#
# number of rings (size 3 to 8) (size 9 to 14) (size 15 to 20)
#    0.000    0.750    5.000    1.500    1.750    4.500 
#    0.000    0.000    0.000    0.000    0.000    0.000 
#    0.000    0.000    0.000    0.000    0.000    0.000 
#
# Total GULP energy -89309.546278 kJ/mol
# GULP energy per Si atom -5581.846642 kJ/mol
# Density = 2.617105 g / cm^3
# Si number density = 26.230755 Si / 1000 Ang^3
#
#
#
# Elastic Constant Matrix: (Units=GPa)
#
#
# Indices 1 2 3 4 5 6 
#
# 1 112.7380 9.8809 76.8740 3.6907 7.9250 -24.3233
# 2 9.8809 45.1910 17.1305 6.0041 -8.2502 -19.6016
# 3 76.8740 17.1305 246.2768 35.5605 26.6350 -40.6545
# 4 3.6907 6.0041 35.5605 37.1239 -7.5772 8.6478
# 5 7.9250 -8.2502 26.6350 -7.5772 44.0911 -3.6786
# 6 -24.3233 -19.6016 -40.6545 8.6478 -3.6786 38.5059
#
#
#
# Elastic Compliance Matrix: (Units=1/GPa)
#
#
# Indices 1 2 3 4 5 6 
#
# 1 0.011869 0.000327 -0.003253 0.001025 0.000406 0.004038
# 2 0.000327 0.033751 0.002858 -0.012875 0.004295 0.023707
# 3 -0.003253 0.002858 0.009249 -0.012844 -0.005715 0.011504
# 4 0.001025 -0.012875 -0.012844 0.050461 0.011358 -0.029715
# 5 0.000406 0.004295 -0.005715 0.011358 0.028531 -0.003416
# 6 0.004038 0.023707 0.011504 -0.029715 -0.003416 0.059082
#
#
# Mechanical properties :
#
#
# Convention : Reuss Voigt Hill
#
# Bulk Modulus (GPa) = 18.27031 67.99741 43.13386
# Shear Modulus (GPa) = 23.66074 43.96554 33.81314
#
# Velocity S-wave (km/s) = 3.00663 4.09847 3.59425
# Velocity P-wave (km/s) = 4.36273 6.95526 5.80556
#
# Compressibility (1/GPa) = 0.05473362
#
# Stress axis : x y z
#
# Youngs Moduli (GPa) = 84.25605 29.62872 108.12283
#
# Poissons Ratio (x) = -0.00970 0.35171
# Poissons Ratio (y) = -0.02758 -0.30903
# Poissons Ratio (z) = 0.27408 -0.08468
#
# Static dielectric constant tensor:
#      x y z
#    x 2.139810 -0.116520 -0.074240 
#    y -0.116520 2.143530 -0.006410 
#    z -0.074240 -0.006410 2.058650 
# 
# From -- ./inp_files/13116.got.cif
#   From: 2010.05.17/outbox.cif.g08.bks.cpg/sg2_7_cif.got.tgz:13116.got - 2010.06.03 11:33:40.
