data_PCOD9057594
_publ_section_title
;
Structure prediction by ZEFSAII (Michael W. Deem and Ramdas Pophale) SiO2 
 PCOD9057594
Probable space group: P -1
;
_chemical_formula_sum "Si O2"
_cell_formula_units_Z 13
_cell_length_a 9.340030
_cell_length_b 5.702521
_cell_length_c 19.677231
_cell_angle_alpha 74.991574
_cell_angle_beta 36.627448
_cell_angle_gamma 67.108353
_cell_volume 573.320913
_symmetry_space_group_name_H-M "P -1"
_symmetry_group_IT_number 2
_symmetry_cell_setting 'triclinic'
loop_
_space_group_symop_operation_xyz
x,y,z
-x,-y,-z
loop_
_atom_site_type_symbol
_atom_site_label
_atom_site_fract_x
_atom_site_fract_y
_atom_site_fract_z
Si Si1 0.813272 0.460444 0.671390
Si Si2 0.795165 0.888634 0.553887
Si Si3 0.387089 0.805194 0.518495
Si Si4 0.095418 0.307171 0.243157
Si Si5 0.000000 0.000000 0.000000
Si Si6 0.245013 0.545531 0.047334
Si Si7 0.433230 0.174870 0.876522
O O1 0.698116 0.736558 0.658857
O O2 0.898731 0.506414 0.710449
O O3 0.603835 0.320907 0.762105
O O4 0.056906 0.310096 0.545779
O O5 0.604461 0.115718 0.568995
O O6 0.000000 0.000000 0.500000
O O7 0.500000 0.500000 0.500000
O O8 0.106569 0.837545 0.651514
O O9 0.500000 0.000000 0.500000
O O10 0.057708 0.465303 0.176336
O O11 0.366355 0.090701 0.156770
O O12 0.129211 0.817760 0.033456
O O13 0.788682 0.855352 0.083312
O O14 0.500000 0.500000 0.000000
O O15 0.320066 0.343850 0.972462
#
# Coordination Sequence:
#
# PCOD9057594 Si02
#       7
#     2   2   2   2   1   2   2
#     4  11  22  42  79 106 145 202 263 313 395 473
#     4  11  23  44  76 104 146 200 259 318 381 474
#     4  12  28  49  72 114 160 200 264 329 395 478
#     4  12  25  48  76 109 148 213 253 320 409 466
#     4  12  28  48  70 116 152 196 270 320 388 484
#     4  12  26  48  79 111 154 203 261 325 395 468
#     4  12  24  48  79 109 154 199 266 324 391 485
#
# _framework density 22.674911000000002
#
# number of rings (size 3 to 8) (size 9 to 14) (size 15 to 20)
#    0.000    0.308    6.154    1.846    2.154    1.231 
#    5.538    0.000    0.000    0.000    0.000    0.000 
#    0.000    0.000    0.000    0.000    0.000    0.000 
#
# Total GULP energy -72441.232470 kJ/mol
# GULP energy per Si atom -5572.402498 kJ/mol
# Density = 2.262330 g / cm^3
# Si number density = 22.674911 Si / 1000 Ang^3
#
#
#
# Elastic Constant Matrix: (Units=GPa)
#
#
# Indices 1 2 3 4 5 6 
#
# 1 107.0722 41.7005 17.9442 -23.6457 -27.3850 -12.4050
# 2 41.7005 113.3106 15.0437 -25.8713 -1.5014 -19.0505
# 3 17.9442 15.0437 66.6046 -19.3361 -1.7891 -3.1516
# 4 -23.6457 -25.8713 -19.3361 49.4303 9.6786 5.0202
# 5 -27.3850 -1.5014 -1.7891 9.6786 36.0248 -22.8754
# 6 -12.4050 -19.0505 -3.1516 5.0202 -22.8754 42.6939
#
#
#
# Elastic Compliance Matrix: (Units=1/GPa)
#
#
# Indices 1 2 3 4 5 6 
#
# 1 0.020229 -0.003699 -0.003212 -0.000693 0.027033 0.018556
# 2 -0.003699 0.011618 -0.000309 0.004289 -0.001850 0.002591
# 3 -0.003212 -0.000309 0.017555 0.006635 -0.005635 -0.003575
# 4 -0.000693 0.004289 0.006635 0.027968 -0.012462 -0.007763
# 5 0.027033 -0.001850 -0.005635 -0.012462 0.085528 0.053904
# 6 0.018556 0.002591 -0.003575 -0.007763 0.053904 0.059501
#
#
# Mechanical properties :
#
#
# Convention : Reuss Voigt Hill
#
# Bulk Modulus (GPa) = 28.60190 48.48489 38.54340
# Shear Modulus (GPa) = 20.12134 39.78308 29.95221
#
# Velocity S-wave (km/s) = 2.98213 4.19322 3.63842
# Velocity P-wave (km/s) = 4.94962 6.69874 5.88948
#
# Compressibility (1/GPa) = 0.03496271
#
# Stress axis : x y z
#
# Youngs Moduli (GPa) = 49.43429 86.07306 56.96421
#
# Poissons Ratio (x) = 0.31834 0.18294
# Poissons Ratio (y) = 0.18283 0.01763
# Poissons Ratio (z) = 0.15876 0.02664
#
# Static dielectric constant tensor:
#      x y z
#    x 1.860330 -0.045920 -0.022720 
#    y -0.045920 1.930060 0.038960 
#    z -0.022720 0.038960 1.886450 
# 
# From -- ./inp_files/23860.got.cif
#   From: 2010.05.17/outbox.cif.g08.bks.cpg/sg2_12_cif.got.tgz:23860.got - 2010.06.03 11:33:40.
