data_PCOD9057268
_publ_section_title
;
Structure prediction by ZEFSAII (Michael W. Deem and Ramdas Pophale) SiO2 
 PCOD9057268
Probable space group: P -1
;
_chemical_formula_sum "Si O2"
_cell_formula_units_Z 16
_cell_length_a 15.760684
_cell_length_b 9.477251
_cell_length_c 20.519471
_cell_angle_alpha 35.760966
_cell_angle_beta 152.450030
_cell_angle_gamma 142.883756
_cell_volume 793.246920
_symmetry_space_group_name_H-M "P -1"
_symmetry_group_IT_number 2
_symmetry_cell_setting 'triclinic'
loop_
_space_group_symop_operation_xyz
x,y,z
-x,-y,-z
loop_
_atom_site_type_symbol
_atom_site_label
_atom_site_fract_x
_atom_site_fract_y
_atom_site_fract_z
Si Si1 0.053443 0.622592 0.897346
Si Si2 0.957073 0.389801 0.316556
Si Si3 0.151068 0.481696 0.665872
Si Si4 0.464689 0.288765 0.113420
Si Si5 0.692137 0.901537 0.162209
Si Si6 0.128011 0.284961 0.975194
Si Si7 0.292578 0.739217 0.147150
Si Si8 0.704511 0.832021 0.341385
O O1 0.137801 0.408072 0.006307
O O2 0.830271 0.485189 0.806847
O O3 0.124331 0.853081 0.809870
O O4 0.158736 0.721969 0.999193
O O5 0.946112 0.538017 0.321259
O O6 0.970570 0.572865 0.196661
O O7 0.135280 0.277472 0.479012
O O8 0.773277 0.138759 0.279300
O O9 0.335637 0.721066 0.715030
O O10 0.259742 0.274211 0.796005
O O11 0.000000 0.500000 0.500000
O O12 0.340025 0.018593 0.103764
O O13 0.500000 0.500000 0.000000
O O14 0.337001 0.342595 0.064838
O O15 0.694534 0.768271 0.282145
O O16 0.500000 0.000000 0.000000
O O17 0.000000 0.000000 0.000000
O O18 0.497784 0.718009 0.274023
#
# Coordination Sequence:
#
# PCOD9057268 Si02
#       8
#     2   2   2   2   2   2   2   2
#     4  11  24  40  63 102 135 175 228 281 346 409
#     4  11  24  41  68  97 136 178 231 288 347 411
#     4  12  25  42  69 106 141 177 230 299 349 407
#     4  12  23  41  69 100 131 178 232 285 340 402
#     4  12  23  39  70 102 130 177 234 284 337 410
#     4  12  24  42  67  99 135 177 230 285 342 416
#     4  11  23  41  63  96 137 175 217 288 342 407
#     4  11  22  42  65  95 133 176 226 285 348 405
#
# _framework density 20.170264
#
# number of rings (size 3 to 8) (size 9 to 14) (size 15 to 20)
#    0.000    0.500    7.500    1.500    0.000    0.000 
#    0.000    1.875    0.000    2.250    0.000    0.000 
#    0.000    0.000    0.000    0.000    0.000    0.000 
#
# Total GULP energy -89235.967259 kJ/mol
# GULP energy per Si atom -5577.247954 kJ/mol
# Density = 2.012436 g / cm^3
# Si number density = 20.170264 Si / 1000 Ang^3
#
#
#
# Elastic Constant Matrix: (Units=GPa)
#
#
# Indices 1 2 3 4 5 6 
#
# 1 97.0645 45.3566 17.8283 2.9997 16.1659 14.5096
# 2 45.3566 119.7111 30.9849 8.8412 7.6972 9.7132
# 3 17.8283 30.9849 78.2429 8.3823 -1.9510 18.1915
# 4 2.9997 8.8412 8.3823 28.9750 -1.6091 6.5553
# 5 16.1659 7.6972 -1.9510 -1.6091 29.4558 9.3398
# 6 14.5096 9.7132 18.1915 6.5553 9.3398 51.1554
#
#
#
# Elastic Compliance Matrix: (Units=1/GPa)
#
#
# Indices 1 2 3 4 5 6 
#
# 1 0.013821 -0.004433 -0.001204 0.000299 -0.005984 -0.001596
# 2 -0.004433 0.011065 -0.003355 -0.002192 -0.001062 0.000824
# 3 -0.001204 -0.003355 0.015908 -0.002056 0.004117 -0.005167
# 4 0.000299 -0.002192 -0.002056 0.036931 0.003666 -0.004339
# 5 -0.005984 -0.001062 0.004117 0.003666 0.040330 -0.007398
# 6 -0.001596 0.000824 -0.005167 -0.004339 -0.007398 0.023589
#
#
# Mechanical properties :
#
#
# Convention : Reuss Voigt Hill
#
# Bulk Modulus (GPa) = 43.84013 53.70645 48.77329
# Shear Modulus (GPa) = 29.89920 35.30715 32.60318
#
# Velocity S-wave (km/s) = 3.85429 4.18838 4.02481
# Velocity P-wave (km/s) = 6.44900 7.07633 6.76994
#
# Compressibility (1/GPa) = 0.02281015
#
# Stress axis : x y z
#
# Youngs Moduli (GPa) = 72.35426 90.37856 62.86220
#
# Poissons Ratio (x) = 0.40062 0.07568
# Poissons Ratio (y) = 0.32072 0.21090
# Poissons Ratio (z) = 0.08711 0.30321
#
# Static dielectric constant tensor:
#      x y z
#    x 1.791170 -0.050820 0.044400 
#    y -0.050820 1.779650 0.008120 
#    z 0.044400 0.008120 1.752810 
# 
# From -- ./inp_files/597120.got.cif
#   From: 2010.05.17/outbox.cif.g08.bks.cpg/sg2_299_cif.got.tgz:597120.got - 2010.06.03 11:33:40.
