data_PCOD9057847
_publ_section_title
;
Structure prediction by ZEFSAII (Michael W. Deem and Ramdas Pophale) SiO2 
 PCOD9057847
Probable space group: P -1
;
_chemical_formula_sum "Si O2"
_cell_formula_units_Z 16
_cell_length_a 14.393968
_cell_length_b 14.090177
_cell_length_c 11.119594
_cell_angle_alpha 60.453057
_cell_angle_beta 41.727463
_cell_angle_gamma 31.538939
_cell_volume 715.932940
_symmetry_space_group_name_H-M "P -1"
_symmetry_group_IT_number 2
_symmetry_cell_setting 'triclinic'
loop_
_space_group_symop_operation_xyz
x,y,z
-x,-y,-z
loop_
_atom_site_type_symbol
_atom_site_label
_atom_site_fract_x
_atom_site_fract_y
_atom_site_fract_z
Si Si1 0.356656 0.968214 0.946256
Si Si2 0.273952 0.921065 0.537477
Si Si3 0.046735 0.439744 0.354009
Si Si4 0.259844 0.898279 0.295919
Si Si5 0.651162 0.834817 0.352663
Si Si6 0.208105 0.606012 0.304387
Si Si7 0.014043 0.908591 0.930939
Si Si8 0.630593 0.492294 0.053877
O O1 0.653161 0.770052 0.816958
O O2 0.314894 0.109125 0.830071
O O3 0.214611 0.029988 0.168332
O O4 0.253549 0.944406 0.965870
O O5 0.355101 0.869948 0.352591
O O6 0.473780 0.850046 0.474204
O O7 0.199449 0.848632 0.696239
O O8 0.012259 0.160650 0.647255
O O9 0.000000 0.500000 0.500000
O O10 0.911493 0.616617 0.290422
O O11 0.903335 0.417991 0.493571
O O12 0.467144 0.685431 0.164931
O O13 0.000000 0.000000 0.500000
O O14 0.500000 0.000000 0.500000
O O15 0.446289 0.510230 0.192708
O O16 0.285303 0.518458 0.150560
O O17 0.131869 0.717055 0.977901
O O18 0.000000 0.000000 0.000000
#
# Coordination Sequence:
#
# PCOD9057847 Si02
#       8
#     2   2   2   2   2   2   2   2
#     4  12  27  46  73 105 150 199 238 308 376 435
#     4  12  24  49  74 105 153 198 242 308 370 439
#     4  12  25  42  72 107 150 187 239 308 381 437
#     4  12  26  50  70 106 154 201 246 302 375 449
#     4  12  26  47  74 112 149 189 249 311 371 443
#     4  11  22  43  72 110 140 194 247 306 368 429
#     4  12  25  42  71 115 147 184 255 315 363 438
#     4  11  25  40  75 107 148 192 250 305 369 433
#
# _framework density 22.348461
#
# number of rings (size 3 to 8) (size 9 to 14) (size 15 to 20)
#    0.000    0.250    6.250    2.250    7.000    1.000 
#    0.000    0.625    0.000    0.000    0.000    0.000 
#    0.000    0.000    0.000    0.000    0.000    0.000 
#
# Total GULP energy -89602.496595 kJ/mol
# GULP energy per Si atom -5600.156037 kJ/mol
# Density = 2.229759 g / cm^3
# Si number density = 22.348461 Si / 1000 Ang^3
#
#
#
# Elastic Constant Matrix: (Units=GPa)
#
#
# Indices 1 2 3 4 5 6 
#
# 1 92.0966 23.4533 31.1536 6.2831 -5.9191 -13.2591
# 2 23.4533 145.8657 49.1484 -11.2240 -5.5510 -26.7068
# 3 31.1536 49.1484 114.0743 -21.4117 -10.2930 -7.8937
# 4 6.2831 -11.2240 -21.4117 47.0029 5.5440 -2.3460
# 5 -5.9191 -5.5510 -10.2930 5.5440 49.2175 2.7476
# 6 -13.2591 -26.7068 -7.8937 -2.3460 2.7476 32.7028
#
#
#
# Elastic Compliance Matrix: (Units=1/GPa)
#
#
# Indices 1 2 3 4 5 6 
#
# 1 0.013043 -0.000396 -0.003695 -0.003444 0.000930 0.003748
# 2 -0.000396 0.009336 -0.003243 0.001165 -0.000183 0.006780
# 3 -0.003695 -0.003243 0.012169 0.005072 0.001216 -0.000947
# 4 -0.003444 0.001165 0.005072 0.024715 -0.002159 0.002734
# 5 0.000930 -0.000183 0.001216 -0.002159 0.020985 -0.001396
# 6 0.003748 0.006780 -0.000947 0.002734 -0.001396 0.037720
#
#
# Mechanical properties :
#
#
# Convention : Reuss Voigt Hill
#
# Bulk Modulus (GPa) = 50.29897 62.17191 56.23544
# Shear Modulus (GPa) = 35.90379 42.33673 39.12026
#
# Velocity S-wave (km/s) = 4.01252 4.35718 4.18840
# Velocity P-wave (km/s) = 6.63496 7.29336 6.97193
#
# Compressibility (1/GPa) = 0.01988112
#
# Stress axis : x y z
#
# Youngs Moduli (GPa) = 76.66920 107.11250 82.17830
#
# Poissons Ratio (x) = 0.04237 0.30362
# Poissons Ratio (y) = 0.03033 0.26650
# Poissons Ratio (z) = 0.28327 0.34736
#
# Static dielectric constant tensor:
#      x y z
#    x 1.836000 -0.005200 -0.027390 
#    y -0.005200 1.838640 -0.030130 
#    z -0.027390 -0.030130 1.848500 
# 
# From -- ./inp_files/455624.got.cif
#   From: 2010.05.17/outbox.cif.g08.bks.cpg/sg2_228_cif.got.tgz:455624.got - 2010.06.03 11:33:40.
