data_PCOD9057468
_publ_section_title
;
Structure prediction by ZEFSAII (Michael W. Deem and Ramdas Pophale) SiO2 
 PCOD9057468
Probable space group: P -1
;
_chemical_formula_sum "Si O2"
_cell_formula_units_Z 14
_cell_length_a 24.989125
_cell_length_b 13.564008
_cell_length_c 17.179140
_cell_angle_alpha 24.371518
_cell_angle_beta 16.423004
_cell_angle_gamma 21.687961
_cell_volume 597.600582
_symmetry_space_group_name_H-M "P -1"
_symmetry_group_IT_number 2
_symmetry_cell_setting 'triclinic'
loop_
_space_group_symop_operation_xyz
x,y,z
-x,-y,-z
loop_
_atom_site_type_symbol
_atom_site_label
_atom_site_fract_x
_atom_site_fract_y
_atom_site_fract_z
Si Si1 0.526701 0.934786 0.277742
Si Si2 0.426613 0.543771 0.159850
Si Si3 0.267926 0.604820 0.708345
Si Si4 0.335094 0.903036 0.267689
Si Si5 0.615996 0.315624 0.217067
Si Si6 0.054772 0.295638 0.642474
Si Si7 0.013037 0.531353 0.701820
O O1 0.697216 0.649030 0.211298
O O2 0.469278 0.877245 0.486338
O O3 0.295677 0.050934 0.472780
O O4 0.606043 0.154788 0.997424
O O5 0.589958 0.348756 0.137148
O O6 0.216498 0.506484 0.481948
O O7 0.500000 0.500000 0.000000
O O8 0.500000 0.500000 0.500000
O O9 0.223259 0.847978 0.537871
O O10 0.089038 0.642033 0.992755
O O11 0.468288 0.618535 0.241421
O O12 0.163028 0.151975 0.279631
O O13 0.500000 0.000000 0.000000
O O14 0.858416 0.227438 0.968621
O O15 0.000000 0.500000 0.500000
O O16 0.060561 0.441104 0.610367
#
# Coordination Sequence:
#
# PCOD9057468 Si02
#       7
#     2   2   2   2   2   2   2
#     4  11  25  45  69 101 142 177 234 289 342 411
#     4  12  26  48  66 101 144 190 230 279 348 418
#     4  11  24  42  71 106 139 173 229 295 347 404
#     4  11  22  42  71 103 135 175 227 289 348 406
#     4  11  24  44  72  99 139 181 233 290 347 405
#     4  12  23  44  71 102 134 186 233 290 346 403
#     4  12  25  44  71 103 138 183 234 284 348 412
#
# _framework density 23.427019999999999
#
# number of rings (size 3 to 8) (size 9 to 14) (size 15 to 20)
#    0.000    0.571    5.714    2.143    2.000    4.000 
#    2.571    2.857    0.000    0.000    0.000    0.000 
#    0.000    0.000    0.000    0.000    0.000    0.000 
#
# Total GULP energy -78429.510424 kJ/mol
# GULP energy per Si atom -5602.107887 kJ/mol
# Density = 2.337370 g / cm^3
# Si number density = 23.427020 Si / 1000 Ang^3
#
#
#
# Elastic Constant Matrix: (Units=GPa)
#
#
# Indices 1 2 3 4 5 6 
#
# 1 104.2376 12.5978 33.5344 -10.2056 8.9964 -13.8069
# 2 12.5978 77.4680 5.8069 -4.6589 0.8066 -2.7375
# 3 33.5344 5.8069 121.3708 -15.7952 -0.1014 -4.5977
# 4 -10.2056 -4.6589 -15.7952 30.5300 -12.4492 5.7100
# 5 8.9964 0.8066 -0.1014 -12.4492 50.1601 -0.9742
# 6 -13.8069 -2.7375 -4.5977 5.7100 -0.9742 24.9925
#
#
#
# Elastic Compliance Matrix: (Units=1/GPa)
#
#
# Indices 1 2 3 4 5 6 
#
# 1 0.011633 -0.001436 -0.002887 0.000370 -0.001869 0.005581
# 2 -0.001436 0.013249 -0.000008 0.001673 0.000465 0.000292
# 3 -0.002887 -0.000008 0.009643 0.004893 0.001735 -0.000872
# 4 0.000370 0.001673 0.004893 0.041184 0.009988 -0.007732
# 5 -0.001869 0.000465 0.001735 0.009988 0.022706 -0.002059
# 6 0.005581 0.000292 -0.000872 -0.007732 -0.002059 0.044653
#
#
# Mechanical properties :
#
#
# Convention : Reuss Voigt Hill
#
# Bulk Modulus (GPa) = 38.66869 45.21717 41.94293
# Shear Modulus (GPa) = 31.18168 37.87900 34.53034
#
# Velocity S-wave (km/s) = 3.65226 4.02542 3.84338
# Velocity P-wave (km/s) = 5.85894 6.39911 6.13497
#
# Compressibility (1/GPa) = 0.02586072
#
# Stress axis : x y z
#
# Youngs Moduli (GPa) = 85.96492 75.47852 103.70715
#
# Poissons Ratio (x) = 0.10841 0.29944
# Poissons Ratio (y) = 0.12348 0.00082
# Poissons Ratio (z) = 0.24821 0.00059
#
# Static dielectric constant tensor:
#      x y z
#    x 1.891310 0.048530 0.015600 
#    y 0.048530 1.895180 0.027780 
#    z 0.015600 0.027780 1.939090 
# 
# From -- ./inp_files/399887.got.cif
#   From: 2010.05.17/outbox.cif.g08.bks.cpg/sg2_200_cif.got.tgz:399887.got - 2010.06.03 11:33:40.
