data_PCOD9057976
_publ_section_title
;
Structure prediction by ZEFSAII (Michael W. Deem and Ramdas Pophale) SiO2 
 PCOD9057976
Probable space group: P -1
;
_chemical_formula_sum "Si O2"
_cell_formula_units_Z 14
_cell_length_a 10.988410
_cell_length_b 6.094752
_cell_length_c 12.271433
_cell_angle_alpha 79.118728
_cell_angle_beta 134.827595
_cell_angle_gamma 95.688847
_cell_volume 571.712727
_symmetry_space_group_name_H-M "P -1"
_symmetry_group_IT_number 2
_symmetry_cell_setting 'triclinic'
loop_
_space_group_symop_operation_xyz
x,y,z
-x,-y,-z
loop_
_atom_site_type_symbol
_atom_site_label
_atom_site_fract_x
_atom_site_fract_y
_atom_site_fract_z
Si Si1 0.028095 0.372531 0.759149
Si Si2 0.444459 0.343787 0.376816
Si Si3 0.695359 0.983600 0.999952
Si Si4 0.008954 0.794066 0.606828
Si Si5 0.230257 0.960905 0.383954
Si Si6 0.406705 0.728978 0.886706
Si Si7 0.836458 0.398877 0.965086
O O1 0.946119 0.538128 0.600256
O O2 0.883508 0.219824 0.732364
O O3 0.119184 0.524306 0.891393
O O4 0.179365 0.193186 0.839933
O O5 0.500000 0.500000 0.500000
O O6 0.612612 0.198674 0.456959
O O7 0.337131 0.491171 0.207096
O O8 0.314910 0.156262 0.352113
O O9 0.804763 0.133181 0.974561
O O10 0.531779 0.852494 0.870909
O O11 0.612755 0.148421 0.020966
O O12 0.211565 0.725409 0.729111
O O13 0.000000 0.000000 0.500000
O O14 0.900001 0.911137 0.626832
O O15 0.500000 0.500000 0.000000
O O16 0.000000 0.500000 0.000000
#
# Coordination Sequence:
#
# PCOD9057976 Si02
#       7
#     2   2   2   2   2   2   2
#     4  12  23  47  70 102 147 185 250 306 358 453
#     4  11  26  48  74 106 149 193 244 310 374 454
#     4  11  23  40  71  98 140 187 242 297 364 423
#     4  12  26  44  70 104 146 198 244 308 375 442
#     4  11  25  47  71 104 148 195 246 303 382 437
#     4  11  22  44  67 100 142 189 243 300 360 431
#     4  12  25  43  74 110 142 191 245 307 375 432
#
# _framework density 24.487819999999999
#
# number of rings (size 3 to 8) (size 9 to 14) (size 15 to 20)
#    0.000    0.571    4.286    3.429    0.000    9.714 
#    0.000    0.000    0.000    0.000    0.000    0.000 
#    0.000    0.000    0.000    0.000    0.000    0.000 
#
# Total GULP energy -78035.776814 kJ/mol
# GULP energy per Si atom -5573.984058 kJ/mol
# Density = 2.443208 g / cm^3
# Si number density = 24.487820 Si / 1000 Ang^3
#
#
#
# Elastic Constant Matrix: (Units=GPa)
#
#
# Indices 1 2 3 4 5 6 
#
# 1 86.0608 58.7837 29.9830 -8.6360 24.0925 19.5493
# 2 58.7837 150.5712 54.3882 -26.8687 8.9642 36.6841
# 3 29.9830 54.3882 105.6089 -36.4917 12.7430 -0.2705
# 4 -8.6360 -26.8687 -36.4917 59.5574 0.6646 17.9722
# 5 24.0925 8.9642 12.7430 0.6646 37.4519 -2.8219
# 6 19.5493 36.6841 -0.2705 17.9722 -2.8219 57.0384
#
#
#
# Elastic Compliance Matrix: (Units=1/GPa)
#
#
# Indices 1 2 3 4 5 6 
#
# 1 0.020097 -0.005507 -0.001065 0.001205 -0.011593 -0.004304
# 2 -0.005507 0.012864 -0.003329 0.005386 0.000894 -0.008055
# 3 -0.001065 -0.003329 0.014383 0.007152 -0.003528 0.000146
# 4 0.001205 0.005386 0.007152 0.027729 -0.005960 -0.012875
# 5 -0.011593 0.000894 -0.003528 -0.005960 0.035780 0.007030
# 6 -0.004304 -0.008055 0.000146 -0.012875 0.007030 0.028593
#
#
# Mechanical properties :
#
#
# Convention : Reuss Voigt Hill
#
# Bulk Modulus (GPa) = 36.30929 69.83898 53.07414
# Shear Modulus (GPa) = 29.68627 44.08196 36.88411
#
# Velocity S-wave (km/s) = 3.48557 4.24743 3.88522
# Velocity P-wave (km/s) = 5.57302 7.25507 6.46895
#
# Compressibility (1/GPa) = 0.02754116
#
# Stress axis : x y z
#
# Youngs Moduli (GPa) = 49.75967 77.73603 69.52748
#
# Poissons Ratio (x) = 0.42810 0.07406
# Poissons Ratio (y) = 0.27403 0.23145
# Poissons Ratio (z) = 0.05300 0.25878
#
# Static dielectric constant tensor:
#      x y z
#    x 1.987550 0.059740 -0.044760 
#    y 0.059740 2.053540 0.035180 
#    z -0.044760 0.035180 1.990450 
# 
# From -- ./inp_files/510847.got.cif
#   From: 2010.05.17/outbox.cif.g08.bks.cpg/sg2_256_cif.got.tgz:510847.got - 2010.06.03 11:33:40.
