data_PCOD9057479
_publ_section_title
;
Structure prediction by ZEFSAII (Michael W. Deem and Ramdas Pophale) SiO2 
 PCOD9057479
Probable space group: P -1
;
_chemical_formula_sum "Si O2"
_cell_formula_units_Z 14
_cell_length_a 22.879102
_cell_length_b 6.501740
_cell_length_c 13.166325
_cell_angle_alpha 72.724887
_cell_angle_beta 160.879004
_cell_angle_gamma 114.816013
_cell_volume 548.668991
_symmetry_space_group_name_H-M "P -1"
_symmetry_group_IT_number 2
_symmetry_cell_setting 'triclinic'
loop_
_space_group_symop_operation_xyz
x,y,z
-x,-y,-z
loop_
_atom_site_type_symbol
_atom_site_label
_atom_site_fract_x
_atom_site_fract_y
_atom_site_fract_z
Si Si1 0.278098 0.977340 0.644392
Si Si2 0.637519 0.105638 0.807400
Si Si3 0.316260 0.226872 0.362624
Si Si4 0.911812 0.611733 0.201060
Si Si5 0.199981 0.242216 0.799518
Si Si6 0.427899 0.482145 0.726127
Si Si7 0.167740 0.737849 0.287895
O O1 0.320430 0.253720 0.657567
O O2 0.154123 0.820654 0.366805
O O3 0.137492 0.820098 0.527405
O O4 0.500000 0.000000 0.000000
O O5 0.516301 0.209957 0.661180
O O6 0.500000 0.000000 0.500000
O O7 0.852704 0.336650 0.112051
O O8 0.657247 0.876381 0.913527
O O9 0.352985 0.377207 0.504648
O O10 0.176428 0.951781 0.200668
O O11 0.227401 0.316720 0.111792
O O12 0.848197 0.616381 0.211690
O O13 0.331671 0.413032 0.900211
O O14 0.000000 0.000000 0.500000
O O15 0.360416 0.686234 0.611911
O O16 0.000000 0.500000 0.000000
#
# Coordination Sequence:
#
# PCOD9057479 Si02
#       7
#     2   2   2   2   2   2   2
#     4  11  29  47  68 101 142 191 230 285 352 422
#     4  12  24  42  72 105 136 179 232 290 350 412
#     4  11  22  42  71 106 134 175 230 293 351 402
#     4  12  26  45  72 104 143 179 238 289 345 425
#     4  12  28  44  71 105 140 188 232 288 355 416
#     4  11  24  47  70  99 141 180 229 291 345 414
#     4  11  24  43  72 100 138 181 235 286 348 415
#
# _framework density 25.516295
#
# number of rings (size 3 to 8) (size 9 to 14) (size 15 to 20)
#    0.000    0.571    4.286    3.000    6.000    4.571 
#    0.000    0.000    0.000    0.000    0.000    0.000 
#    0.000    0.000    0.000    0.000    0.000    0.000 
#
# Total GULP energy -78359.570711 kJ/mol
# GULP energy per Si atom -5597.112194 kJ/mol
# Density = 2.545822 g / cm^3
# Si number density = 25.516295 Si / 1000 Ang^3
#
#
#
# Elastic Constant Matrix: (Units=GPa)
#
#
# Indices 1 2 3 4 5 6 
#
# 1 76.1155 19.7009 14.7495 16.0435 20.9702 -11.2741
# 2 19.7009 126.0131 14.9880 22.0063 9.9194 1.1963
# 3 14.7495 14.9880 102.2907 33.8180 21.1482 0.2037
# 4 16.0435 22.0063 33.8180 63.0468 -1.2241 1.8378
# 5 20.9702 9.9194 21.1482 -1.2241 43.6497 5.4524
# 6 -11.2741 1.1963 0.2037 1.8378 5.4524 27.4406
#
#
#
# Elastic Compliance Matrix: (Units=1/GPa)
#
#
# Indices 1 2 3 4 5 6 
#
# 1 0.018982 -0.001388 0.001628 -0.005738 -0.011056 0.010428
# 2 -0.001388 0.008737 0.000128 -0.002778 -0.001398 -0.000488
# 3 0.001628 0.000128 0.013885 -0.008144 -0.008107 0.002717
# 4 -0.005738 -0.002778 -0.008144 0.022986 0.008657 -0.005436
# 5 -0.011056 -0.001398 -0.008107 0.008657 0.034183 -0.011793
# 6 0.010428 -0.000488 0.002717 -0.005436 -0.011793 0.043435
#
#
# Mechanical properties :
#
#
# Convention : Reuss Voigt Hill
#
# Bulk Modulus (GPa) = 23.61701 44.81069 34.21385
# Shear Modulus (GPa) = 32.13684 43.82616 37.98150
#
# Velocity S-wave (km/s) = 3.55274 4.14886 3.86232
# Velocity P-wave (km/s) = 5.10931 6.36792 5.77302
#
# Compressibility (1/GPa) = 0.04234236
#
# Stress axis : x y z
#
# Youngs Moduli (GPa) = 52.68221 114.45232 72.01763
#
# Poissons Ratio (x) = 0.15885 -0.11728
# Poissons Ratio (y) = 0.07312 -0.00925
# Poissons Ratio (z) = -0.08579 -0.01470
#
# Static dielectric constant tensor:
#      x y z
#    x 2.015830 0.127110 0.030980 
#    y 0.127110 1.371230 0.122570 
#    z 0.030980 0.122570 2.160540 
# 
# From -- ./inp_files/65382.got.cif
#   From: 2010.05.17/outbox.cif.g08.bks.cpg/sg2_33_cif.got.tgz:65382.got - 2010.06.03 11:33:40.
