data_PCOD9057169
_publ_section_title
;
Structure prediction by ZEFSAII (Michael W. Deem and Ramdas Pophale) SiO2 
 PCOD9057169
Probable space group: P -1
;
_chemical_formula_sum "Si O2"
_cell_formula_units_Z 16
_cell_length_a 5.102877
_cell_length_b 12.395784
_cell_length_c 12.983750
_cell_angle_alpha 66.466825
_cell_angle_beta 66.480341
_cell_angle_gamma 99.876898
_cell_volume 634.691544
_symmetry_space_group_name_H-M "P -1"
_symmetry_group_IT_number 2
_symmetry_cell_setting 'triclinic'
loop_
_space_group_symop_operation_xyz
x,y,z
-x,-y,-z
loop_
_atom_site_type_symbol
_atom_site_label
_atom_site_fract_x
_atom_site_fract_y
_atom_site_fract_z
Si Si1 0.616516 0.310048 0.793951
Si Si2 0.940060 0.271847 0.117120
Si Si3 0.435403 0.627006 0.447659
Si Si4 0.375848 0.603770 0.023234
Si Si5 0.951103 0.903459 0.951131
Si Si6 0.070383 0.882206 0.490657
Si Si7 0.626925 0.263963 0.382286
Si Si8 0.911963 0.126621 0.746009
O O1 0.700036 0.376007 0.644482
O O2 0.731597 0.194126 0.815876
O O3 0.725584 0.403089 0.839378
O O4 0.253885 0.230458 0.906420
O O5 0.878726 0.371521 0.013586
O O6 0.818428 0.296400 0.235464
O O7 0.287620 0.277425 0.079494
O O8 0.794212 0.136223 0.132357
O O9 0.500000 0.500000 0.500000
O O10 0.269340 0.640236 0.573695
O O11 0.736904 0.763019 0.347952
O O12 0.500000 0.500000 0.000000
O O13 0.864944 0.988982 0.848198
O O14 0.000000 0.000000 0.000000
O O15 0.726931 0.766946 0.583271
O O16 0.313241 0.856126 0.535503
O O17 0.181447 0.889230 0.353071
O O18 0.000000 0.000000 0.500000
#
# Coordination Sequence:
#
# PCOD9057169 Si02
#       8
#     2   2   2   2   2   2   2   2
#     4  11  24  44  70 104 137 179 238 284 354 416
#     4  11  25  45  68 105 139 182 235 285 352 414
#     4  11  26  45  69 101 137 189 234 289 345 415
#     4  11  26  45  71 101 139 184 232 295 348 408
#     4  11  22  41  72 101 140 179 227 290 349 414
#     4  11  23  41  67 101 140 182 225 279 344 416
#     4  11  24  45  66 100 141 181 231 281 345 415
#     4  11  23  43  68 103 140 181 231 287 353 413
#
# _framework density 25.209095999999999
#
# number of rings (size 3 to 8) (size 9 to 14) (size 15 to 20)
#    0.000    1.000    2.500    3.375    3.500    5.500 
#    0.000    0.000    0.000    0.000    0.000    0.000 
#    0.000    0.000    0.000    0.000    0.000    0.000 
#
# Total GULP energy -89271.466879 kJ/mol
# GULP energy per Si atom -5579.466680 kJ/mol
# Density = 2.515172 g / cm^3
# Si number density = 25.209096 Si / 1000 Ang^3
#
#
#
# Elastic Constant Matrix: (Units=GPa)
#
#
# Indices 1 2 3 4 5 6 
#
# 1 70.6632 19.9390 25.6462 -4.7940 7.0703 -7.6043
# 2 19.9390 188.1865 65.7129 34.7302 24.1392 -35.6989
# 3 25.6462 65.7129 138.0338 31.9699 16.3468 11.0321
# 4 -4.7940 34.7302 31.9699 54.9723 0.2257 0.8583
# 5 7.0703 24.1392 16.3468 0.2257 41.2707 0.1927
# 6 -7.6043 -35.6989 11.0321 0.8583 0.1927 37.7943
#
#
#
# Elastic Compliance Matrix: (Units=1/GPa)
#
#
# Indices 1 2 3 4 5 6 
#
# 1 0.016521 0.000009 -0.004164 0.003792 -0.001228 0.004468
# 2 0.000009 0.010206 -0.004277 -0.004114 -0.004306 0.011005
# 3 -0.004164 -0.004277 0.011916 -0.004456 -0.001442 -0.008247
# 4 0.003792 -0.004114 -0.004456 0.023735 0.003403 -0.002378
# 5 -0.001228 -0.004306 -0.001442 0.003403 0.027531 -0.004111
# 6 0.004468 0.011005 -0.008247 -0.002378 -0.004111 0.040236
#
#
# Mechanical properties :
#
#
# Convention : Reuss Voigt Hill
#
# Bulk Modulus (GPa) = 45.91538 68.83109 57.37324
# Shear Modulus (GPa) = 32.41089 45.84650 39.12869
#
# Velocity S-wave (km/s) = 3.58953 4.26919 3.94403
# Velocity P-wave (km/s) = 5.95256 7.18781 6.59915
#
# Compressibility (1/GPa) = 0.02177920
#
# Stress axis : x y z
#
# Youngs Moduli (GPa) = 60.52809 97.98444 83.91759
#
# Poissons Ratio (x) = -0.00084 0.34940
# Poissons Ratio (y) = -0.00052 0.35892
# Poissons Ratio (z) = 0.25202 0.41909
#
# Static dielectric constant tensor:
#      x y z
#    x 2.140630 0.137890 -0.051030 
#    y 0.137890 2.166730 0.014120 
#    z -0.051030 0.014120 2.047050 
# 
# From -- ./inp_files/71849.got.cif
#   From: 2010.05.17/outbox.cif.g08.bks.cpg/sg2_36_cif.got.tgz:71849.got - 2010.06.03 11:33:40.
