data_PCOD9057164
_publ_section_title
;
Structure prediction by ZEFSAII (Michael W. Deem and Ramdas Pophale) SiO2 
 PCOD9057164
Probable space group: P -1
;
_chemical_formula_sum "Si O2"
_cell_formula_units_Z 14
_cell_length_a 9.950854
_cell_length_b 9.821616
_cell_length_c 12.962405
_cell_angle_alpha 34.088582
_cell_angle_beta 128.982060
_cell_angle_gamma 122.906252
_cell_volume 551.224222
_symmetry_space_group_name_H-M "P -1"
_symmetry_group_IT_number 2
_symmetry_cell_setting 'triclinic'
loop_
_space_group_symop_operation_xyz
x,y,z
-x,-y,-z
loop_
_atom_site_type_symbol
_atom_site_label
_atom_site_fract_x
_atom_site_fract_y
_atom_site_fract_z
Si Si1 0.283276 0.831347 0.658603
Si Si2 0.489576 0.169657 0.038821
Si Si3 0.639407 0.324134 0.628496
Si Si4 0.841876 0.671784 0.736094
Si Si5 0.040732 0.362042 0.501908
Si Si6 0.829795 0.157600 0.089829
Si Si7 0.512287 0.308702 0.348160
O O1 0.403401 0.742592 0.862513
O O2 0.404129 0.839857 0.609586
O O3 0.115412 0.681331 0.628680
O O4 0.215962 0.092102 0.500997
O O5 0.639195 0.098618 0.077254
O O6 0.366042 0.935370 0.151876
O O7 0.411560 0.412192 0.806799
O O8 0.500000 0.500000 0.500000
O O9 0.809594 0.488308 0.581010
O O10 0.571507 0.245570 0.530731
O O11 0.697116 0.672875 0.758223
O O12 0.037158 0.731900 0.827788
O O13 0.824073 0.393633 0.864420
O O14 0.000000 0.500000 0.500000
O O15 0.089093 0.096127 0.733112
#
# Coordination Sequence:
#
# PCOD9057164 Si02
#       7
#     2   2   2   2   2   2   2
#     4  11  22  41  71  99 138 182 231 284 350 403
#     4  11  24  41  69 103 136 182 240 283 337 416
#     4  12  25  45  70 100 138 189 231 277 353 414
#     4   9  19  36  66  97 127 178 225 284 333 396
#     4  11  23  43  71 100 144 186 223 288 355 410
#     4   9  20  39  61 101 134 172 233 281 338 403
#     4  11  23  42  67 101 142 176 232 292 341 404
#
# _framework density 25.398012000000001
#
# number of rings (size 3 to 8) (size 9 to 14) (size 15 to 20)
#    0.000    1.429    4.286    0.857    0.000    4.000 
#    0.000    0.714    6.286    0.000    0.000    0.000 
#    0.000    0.000    0.000    0.000    0.000    0.000 
#
# Total GULP energy -78303.207443 kJ/mol
# GULP energy per Si atom -5593.086246 kJ/mol
# Density = 2.534021 g / cm^3
# Si number density = 25.398012 Si / 1000 Ang^3
#
#
#
# Elastic Constant Matrix: (Units=GPa)
#
#
# Indices 1 2 3 4 5 6 
#
# 1 108.0585 54.7474 20.7118 -10.3499 -11.4581 14.2925
# 2 54.7474 156.3015 18.6464 -21.7696 -4.3163 15.0631
# 3 20.7118 18.6464 90.6597 -36.1976 -11.7878 -4.0966
# 4 -10.3499 -21.7696 -36.1976 41.2807 -1.2815 1.4183
# 5 -11.4581 -4.3163 -11.7878 -1.2815 37.2198 -8.2358
# 6 14.2925 15.0631 -4.0966 1.4183 -8.2358 57.9633
#
#
#
# Elastic Compliance Matrix: (Units=1/GPa)
#
#
# Indices 1 2 3 4 5 6 
#
# 1 0.011976 -0.003813 -0.001998 -0.000631 0.002197 -0.001776
# 2 -0.003813 0.008342 0.000727 0.004121 -0.000121 -0.001294
# 3 -0.001998 0.000727 0.018902 0.016585 0.006504 0.002158
# 4 -0.000631 0.004121 0.016585 0.040991 0.007003 0.000249
# 5 0.002197 -0.000121 0.006504 0.007003 0.030748 0.004147
# 6 -0.001776 -0.001294 0.002158 0.000249 0.004147 0.018762
#
#
# Mechanical properties :
#
#
# Convention : Reuss Voigt Hill
#
# Bulk Modulus (GPa) = 34.42134 60.35900 47.39017
# Shear Modulus (GPa) = 33.42798 44.68702 39.05750
#
# Velocity S-wave (km/s) = 3.63183 4.19915 3.92576
# Velocity P-wave (km/s) = 5.58293 6.87949 6.26484
#
# Compressibility (1/GPa) = 0.02905175
#
# Stress axis : x y z
#
# Youngs Moduli (GPa) = 83.49781 119.87458 52.90346
#
# Poissons Ratio (x) = 0.45703 0.10572
# Poissons Ratio (y) = 0.31834 -0.03843
# Poissons Ratio (z) = 0.16686 -0.08709
#
# Static dielectric constant tensor:
#      x y z
#    x 1.961690 0.024560 -0.035300 
#    y 0.024560 2.083170 -0.019370 
#    z -0.035300 -0.019370 2.103130 
# 
# From -- ./inp_files/498721.got.cif
#   From: 2010.05.17/outbox.cif.g08.bks.cpg/sg2_250_cif.got.tgz:498721.got - 2010.06.03 11:33:40.
