data_PCOD9057063
_publ_section_title
;
Structure prediction by ZEFSAII (Michael W. Deem and Ramdas Pophale) SiO2 
 PCOD9057063
Probable space group: P -1
;
_chemical_formula_sum "Si O2"
_cell_formula_units_Z 16
_cell_length_a 12.273601
_cell_length_b 4.956445
_cell_length_c 11.768177
_cell_angle_alpha 65.830773
_cell_angle_beta 105.256024
_cell_angle_gamma 82.453478
_cell_volume 606.438294
_symmetry_space_group_name_H-M "P -1"
_symmetry_group_IT_number 2
_symmetry_cell_setting 'triclinic'
loop_
_space_group_symop_operation_xyz
x,y,z
-x,-y,-z
loop_
_atom_site_type_symbol
_atom_site_label
_atom_site_fract_x
_atom_site_fract_y
_atom_site_fract_z
Si Si1 0.183435 0.806281 0.908550
Si Si2 0.291538 0.856622 0.167410
Si Si3 0.068500 0.192158 0.196402
Si Si4 0.456709 0.114519 0.732782
Si Si5 0.231967 0.347124 0.360444
Si Si6 0.760723 0.587208 0.228151
Si Si7 0.417437 0.800667 0.558517
Si Si8 0.105179 0.651084 0.481299
O O1 0.242536 0.583438 0.861130
O O2 0.058182 0.737250 0.906134
O O3 0.166382 0.161197 0.808916
O O4 0.261887 0.774874 0.047093
O O5 0.405504 0.983497 0.181327
O O6 0.313668 0.542242 0.299019
O O7 0.174222 0.068854 0.157508
O O8 0.113105 0.442373 0.236971
O O9 0.064473 0.953319 0.339985
O O10 0.365223 0.215862 0.793197
O O11 0.421367 0.870830 0.682730
O O12 0.441602 0.441985 0.608457
O O13 0.295920 0.987484 0.434137
O O14 0.198845 0.418189 0.468132
O O15 0.829892 0.340510 0.382803
O O16 0.500000 0.000000 0.500000
O O17 0.000000 0.500000 0.500000
#
# Coordination Sequence:
#
# PCOD9057063 Si02
#       8
#     2   2   2   2   2   2   2   2
#     4  12  29  49  73 100 147 193 249 288 347 425
#     4  11  28  47  70 106 139 194 242 295 350 424
#     4  11  25  45  75 105 141 188 235 307 357 422
#     4  12  26  45  73 105 149 182 239 296 356 429
#     4  11  24  41  71 107 139 182 230 293 369 416
#     4  12  27  47  72 107 141 197 234 295 359 425
#     4  12  23  41  71 108 144 180 225 296 368 422
#     4  11  22  41  69 104 142 174 234 289 361 424
#
# _framework density 26.383557
#
# number of rings (size 3 to 8) (size 9 to 14) (size 15 to 20)
#    0.000    0.500    3.750    3.750    7.000    2.500 
#    0.000    0.000    0.000    0.000    0.000    0.000 
#    0.000    0.000    0.000    0.000    0.000    0.000 
#
# Total GULP energy -89696.079559 kJ/mol
# GULP energy per Si atom -5606.004972 kJ/mol
# Density = 2.632351 g / cm^3
# Si number density = 26.383557 Si / 1000 Ang^3
#
#
#
# Elastic Constant Matrix: (Units=GPa)
#
#
# Indices 1 2 3 4 5 6 
#
# 1 109.0620 6.4922 53.8760 29.5850 12.8373 11.5488
# 2 6.4922 94.9310 32.6781 23.9859 -2.8844 2.1140
# 3 53.8760 32.6781 115.9029 37.5757 7.6126 -10.3252
# 4 29.5850 23.9859 37.5757 57.3402 -0.3106 -4.4155
# 5 12.8373 -2.8844 7.6126 -0.3106 35.1639 11.0827
# 6 11.5488 2.1140 -10.3252 -4.4155 11.0827 38.3664
#
#
#
# Elastic Compliance Matrix: (Units=1/GPa)
#
#
# Indices 1 2 3 4 5 6 
#
# 1 0.014236 0.002450 -0.006181 -0.004800 -0.001770 -0.006125
# 2 0.002450 0.012943 -0.003801 -0.004452 0.002081 -0.003587
# 3 -0.006181 -0.003801 0.014815 -0.004446 -0.003355 0.006514
# 4 -0.004800 -0.004452 -0.004446 0.024923 0.001661 0.002882
# 5 -0.001770 0.002081 -0.003355 0.001661 0.033102 -0.009856
# 6 -0.006125 -0.003587 0.006514 0.002882 -0.009856 0.033038
#
#
# Mechanical properties :
#
#
# Convention : Reuss Voigt Hill
#
# Bulk Modulus (GPa) = 37.13444 56.22096 46.67770
# Shear Modulus (GPa) = 31.82745 41.29740 36.56243
#
# Velocity S-wave (km/s) = 3.47700 3.96064 3.72668
# Velocity P-wave (km/s) = 5.49771 6.50161 6.02062
#
# Compressibility (1/GPa) = 0.02692918
#
# Stress axis : x y z
#
# Youngs Moduli (GPa) = 70.24543 77.26301 67.50075
#
# Poissons Ratio (x) = -0.18927 0.41723
# Poissons Ratio (y) = -0.17208 0.25655
# Poissons Ratio (z) = 0.43419 0.29365
#
# Static dielectric constant tensor:
#      x y z
#    x 2.113680 -0.018690 0.011970 
#    y -0.018690 2.030340 -0.047240 
#    z 0.011970 -0.047240 2.106040 
# 
# From -- ./inp_files/367697.got.cif
#   From: 2010.05.17/outbox.cif.g08.bks.cpg/sg2_184_cif.got.tgz:367697.got - 2010.06.03 11:33:40.
