data_PCOD9057543
_publ_section_title
;
Structure prediction by ZEFSAII (Michael W. Deem and Ramdas Pophale) SiO2 
 PCOD9057543
Probable space group: P -1
;
_chemical_formula_sum "Si O2"
_cell_formula_units_Z 12
_cell_length_a 9.055929
_cell_length_b 15.769999
_cell_length_c 9.458887
_cell_angle_alpha 24.695038
_cell_angle_beta 73.527433
_cell_angle_gamma 64.914869
_cell_volume 492.351058
_symmetry_space_group_name_H-M "P -1"
_symmetry_group_IT_number 2
_symmetry_cell_setting 'triclinic'
loop_
_space_group_symop_operation_xyz
x,y,z
-x,-y,-z
loop_
_atom_site_type_symbol
_atom_site_label
_atom_site_fract_x
_atom_site_fract_y
_atom_site_fract_z
Si Si1 0.612042 0.622992 0.727125
Si Si2 0.071697 0.641204 0.669204
Si Si3 0.671311 0.149607 0.754151
Si Si4 0.837124 0.175451 0.193066
Si Si5 0.289641 0.011334 0.713148
Si Si6 0.002882 0.304975 0.700878
O O1 0.499163 0.780234 0.394301
O O2 0.650923 0.786346 0.577723
O O3 0.500000 0.500000 0.000000
O O4 0.767936 0.407478 0.947286
O O5 0.235973 0.693141 0.564235
O O6 0.079844 0.580066 0.596697
O O7 0.908779 0.872615 0.369874
O O8 0.000000 0.500000 0.000000
O O9 0.634129 0.161283 0.915242
O O10 0.813734 0.899445 0.062592
O O11 0.704971 0.073845 0.322496
O O12 0.890192 0.227612 0.947778
O O13 0.000000 0.000000 0.500000
O O14 0.000000 0.500000 0.500000
#
# Coordination Sequence:
#
# PCOD9057543 Si02
#       6
#     2   2   2   2   2   2
#     4  12  28  47  69 109 149 193 241 308 380 431
#     4  11  22  42  73 106 142 191 239 303 371 432
#     4  11  22  48  70 102 153 181 241 304 369 437
#     4  12  26  46  74 107 143 193 257 299 355 453
#     4  11  24  45  75 102 143 200 239 299 370 434
#     4  11  23  42  71 110 138 192 254 296 355 445
#
# _framework density 24.372852999999999
#
# number of rings (size 3 to 8) (size 9 to 14) (size 15 to 20)
#    0.000    0.667    3.333    5.500    4.667    1.333 
#    3.000    0.000    0.000    0.000    0.000    0.000 
#    0.000    0.000    0.000    0.000    0.000    0.000 
#
# Total GULP energy -66862.637813 kJ/mol
# GULP energy per Si atom -5571.886484 kJ/mol
# Density = 2.431738 g / cm^3
# Si number density = 24.372853 Si / 1000 Ang^3
#
#
#
# Elastic Constant Matrix: (Units=GPa)
#
#
# Indices 1 2 3 4 5 6 
#
# 1 109.1804 36.2182 43.7590 -6.8148 -12.6602 31.2738
# 2 36.2182 107.1753 50.0274 -4.6903 -17.7527 33.2341
# 3 43.7590 50.0274 120.2604 7.6526 -9.7342 20.3186
# 4 -6.8148 -4.6903 7.6526 41.1655 -0.1182 -8.9258
# 5 -12.6602 -17.7527 -9.7342 -0.1182 49.7350 -2.3747
# 6 31.2738 33.2341 20.3186 -8.9258 -2.3747 52.1647
#
#
#
# Elastic Compliance Matrix: (Units=1/GPa)
#
#
# Indices 1 2 3 4 5 6 
#
# 1 0.012609 -0.000573 -0.003334 0.001444 0.002091 -0.005553
# 2 -0.000573 0.014321 -0.004357 0.000892 0.003793 -0.006758
# 3 -0.003334 -0.004357 0.011588 -0.003269 -0.000158 -0.000306
# 4 0.001444 0.000892 -0.003269 0.026181 0.000315 0.004334
# 5 0.002091 0.003793 -0.000158 0.000315 0.021840 -0.002560
# 6 -0.005553 -0.006758 -0.000306 0.004334 -0.002560 0.027549
#
#
# Mechanical properties :
#
#
# Convention : Reuss Voigt Hill
#
# Bulk Modulus (GPa) = 45.47672 66.29171 55.88422
# Shear Modulus (GPa) = 36.24654 42.38713 39.31684
#
# Velocity S-wave (km/s) = 3.86057 4.17479 4.02075
# Velocity P-wave (km/s) = 6.21057 7.10609 6.67337
#
# Compressibility (1/GPa) = 0.02198927
#
# Stress axis : x y z
#
# Youngs Moduli (GPa) = 79.31020 69.82946 86.29908
#
# Poissons Ratio (x) = 0.04003 0.28771
# Poissons Ratio (y) = 0.04546 0.37598
# Poissons Ratio (z) = 0.26441 0.30423
#
# Static dielectric constant tensor:
#      x y z
#    x 2.200260 0.151210 -0.146900 
#    y 0.151210 2.024770 -0.119640 
#    z -0.146900 -0.119640 2.065920 
# 
# From -- ./inp_files/198816.got.cif
#   From: 2010.05.17/outbox.cif.g08.bks.cpg/sg2_100_cif.got.tgz:198816.got - 2010.06.03 11:33:40.
