data_PCOD9057031
_publ_section_title
;
Structure prediction by ZEFSAII (Michael W. Deem and Ramdas Pophale) SiO2 
 PCOD9057031
Probable space group: P -1
;
_chemical_formula_sum "Si O2"
_cell_formula_units_Z 14
_cell_length_a 26.460868
_cell_length_b 9.178457
_cell_length_c 12.499221
_cell_angle_alpha 38.683832
_cell_angle_beta 27.141589
_cell_angle_gamma 27.479578
_cell_volume 638.447519
_symmetry_space_group_name_H-M "P -1"
_symmetry_group_IT_number 2
_symmetry_cell_setting 'triclinic'
loop_
_space_group_symop_operation_xyz
x,y,z
-x,-y,-z
loop_
_atom_site_type_symbol
_atom_site_label
_atom_site_fract_x
_atom_site_fract_y
_atom_site_fract_z
Si Si1 0.428420 0.297061 0.738410
Si Si2 0.146805 0.374173 0.925359
Si Si3 0.609774 0.333742 0.214767
Si Si4 0.158847 0.408142 0.122109
Si Si5 0.088561 0.669711 0.652565
Si Si6 0.067652 0.670488 0.368176
Si Si7 0.329251 0.313923 0.230566
O O1 0.481155 0.354918 0.498587
O O2 0.337685 0.607589 0.807798
O O3 0.566795 0.015578 0.712893
O O4 0.330664 0.210761 0.943140
O O5 0.158308 0.536692 0.713699
O O6 0.276187 0.000177 0.869909
O O7 0.149878 0.487615 0.969751
O O8 0.988257 0.462583 0.162631
O O9 0.581589 0.593064 0.040394
O O10 0.074776 0.660653 0.232227
O O11 0.077896 0.273401 0.357539
O O12 0.212773 0.566578 0.394205
O O13 0.958629 0.040986 0.698059
O O14 0.221827 0.362750 0.310356
#
# Coordination Sequence:
#
# PCOD9057031 Si02
#       7
#     2   2   2   2   2   2   2
#     4  11  25  44  68  99 136 173 227 265 336 393
#     4  11  22  41  68  97 137 171 223 276 328 389
#     4  11  23  43  69  94 132 182 223 266 319 408
#     4  11  24  43  65  99 140 167 211 293 332 380
#     4  11  22  41  69  99 126 182 226 264 327 405
#     4  11  23  42  70  98 132 172 226 272 334 389
#     4  12  21  43  74  96 127 180 224 270 314 412
#
# _framework density 21.928193
#
# number of rings (size 3 to 8) (size 9 to 14) (size 15 to 20)
#    0.000    0.857    5.714    1.714    0.000    1.143 
#    2.571    2.857    0.000    0.000    0.000    0.000 
#    0.000    0.000    0.000    0.000    0.000    0.000 
#
# Total GULP energy -78044.261073 kJ/mol
# GULP energy per Si atom -5574.590077 kJ/mol
# Density = 2.187828 g / cm^3
# Si number density = 21.928193 Si / 1000 Ang^3
#
#
#
# Elastic Constant Matrix: (Units=GPa)
#
#
# Indices 1 2 3 4 5 6 
#
# 1 134.1059 23.3618 46.4027 5.7106 29.4054 -12.2341
# 2 23.3618 34.0046 13.9489 -2.6826 7.5494 1.7117
# 3 46.4027 13.9489 115.1417 -5.9570 23.9758 7.6893
# 4 5.7106 -2.6826 -5.9570 21.6839 4.4515 9.0064
# 5 29.4054 7.5494 23.9758 4.4515 50.3572 9.7271
# 6 -12.2341 1.7117 7.6893 9.0064 9.7271 -1.4358
#
#
#
# Elastic Compliance Matrix: (Units=1/GPa)
#
#
# Indices 1 2 3 4 5 6 
#
# 1 0.006047 -0.002552 -0.000617 0.005812 0.000332 -0.019159
# 2 -0.002552 0.032655 -0.002867 -0.000411 -0.004444 0.012634
# 3 -0.000617 -0.002867 0.009759 -0.000668 -0.005821 0.010476
# 4 0.005812 -0.000411 -0.000668 0.029926 -0.013674 0.041492
# 5 0.000332 -0.004444 -0.005821 -0.013674 0.020996 0.017160
# 6 -0.019159 0.012634 0.010476 0.041492 0.017160 -0.085538
#
#
# Mechanical properties :
#
#
# Convention : Reuss Voigt Hill
#
# Bulk Modulus (GPa) = 27.48074 50.07543 38.77808
# Shear Modulus (GPa) = 131.42007 27.42366 79.42186
#
# Velocity S-wave (km/s) = 7.74998 3.54024 6.02476
# Velocity P-wave (km/s) = 9.62508 6.29259 8.13139
#
# Compressibility (1/GPa) = 0.03638912
#
# Stress axis : x y z
#
# Youngs Moduli (GPa) = 165.38300 30.62275 102.47216
#
# Poissons Ratio (x) = 0.07815 0.06320
# Poissons Ratio (y) = 0.42206 0.29380
# Poissons Ratio (z) = 0.10199 0.08780
#
# Static dielectric constant tensor:
#      x y z
#    x 1.788250 -0.004100 0.010480 
#    y -0.004100 1.840420 0.025540 
#    z 0.010480 0.025540 1.866740 
# 
# From -- ./inp_files/239143.got.cif
#   From: 2010.05.17/outbox.cif.g08.bks.cpg/sg2_120_cif.got.tgz:239143.got - 2010.06.03 11:33:40.
