data_PCOD9057559
_publ_section_title
;
Structure prediction by ZEFSAII (Michael W. Deem and Ramdas Pophale) SiO2 
 PCOD9057559
Probable space group: P -1
;
_chemical_formula_sum "Si O2"
_cell_formula_units_Z 16
_cell_length_a 11.838879
_cell_length_b 5.596877
_cell_length_c 9.984180
_cell_angle_alpha 98.876720
_cell_angle_beta 79.233965
_cell_angle_gamma 75.725915
_cell_volume 615.743800
_symmetry_space_group_name_H-M "P -1"
_symmetry_group_IT_number 2
_symmetry_cell_setting 'triclinic'
loop_
_space_group_symop_operation_xyz
x,y,z
-x,-y,-z
loop_
_atom_site_type_symbol
_atom_site_label
_atom_site_fract_x
_atom_site_fract_y
_atom_site_fract_z
Si Si1 0.720590 0.176864 0.584409
Si Si2 0.058597 0.955306 0.131803
Si Si3 0.390843 0.631936 0.786658
Si Si4 0.515221 0.034119 0.706095
Si Si5 0.222376 0.503084 0.191394
Si Si6 0.173102 0.651345 0.679824
Si Si7 0.329279 0.003226 0.065327
Si Si8 0.128036 0.311000 0.466861
O O1 0.625564 0.017290 0.578208
O O2 0.696157 0.342920 0.739115
O O3 0.742542 0.308303 0.457605
O O4 0.850300 0.983774 0.567304
O O5 0.102006 0.673315 0.161705
O O6 0.189525 0.003375 0.107769
O O7 0.956824 0.148335 0.260076
O O8 0.000000 0.000000 0.000000
O O9 0.442573 0.330256 0.734331
O O10 0.250363 0.677959 0.791417
O O11 0.451591 0.809486 0.695887
O O12 0.391941 0.768389 0.939375
O O13 0.584029 0.001572 0.829795
O O14 0.300279 0.298208 0.053537
O O15 0.191577 0.375949 0.324457
O O16 0.163931 0.378559 0.614610
O O17 0.000000 0.500000 0.500000
#
# Coordination Sequence:
#
# PCOD9057559 Si02
#       8
#     2   2   2   2   2   2   2   2
#     4  11  24  45  75 105 148 192 261 315 373 452
#     4  12  25  46  74 109 157 190 244 314 397 464
#     4  12  30  49  76 113 157 204 259 318 379 454
#     4  12  27  50  79 109 149 209 266 315 373 443
#     4  11  22  42  74 108 144 191 249 311 382 454
#     4  11  27  46  71 116 151 198 250 312 399 457
#     4  12  25  48  77 110 146 201 256 319 380 463
#     4  11  22  43  75 105 146 196 249 319 377 461
#
# _framework density 25.984832999999998
#
# number of rings (size 3 to 8) (size 9 to 14) (size 15 to 20)
#    0.000    0.500    3.750    3.750    5.250    3.500 
#    0.000    0.000    0.000    0.000    0.000    0.000 
#    0.000    0.000    0.000    0.000    0.000    0.000 
#
# Total GULP energy -89226.379789 kJ/mol
# GULP energy per Si atom -5576.648737 kJ/mol
# Density = 2.592569 g / cm^3
# Si number density = 25.984833 Si / 1000 Ang^3
#
#
#
# Elastic Constant Matrix: (Units=GPa)
#
#
# Indices 1 2 3 4 5 6 
#
# 1 97.6656 13.6983 -0.0752 3.3835 -2.8338 -3.3720
# 2 13.6983 111.4945 16.5297 24.4955 -3.6566 -15.9372
# 3 -0.0752 16.5297 73.6794 8.3749 9.2633 0.8839
# 4 3.3835 24.4955 8.3749 34.4660 -9.9190 -4.9517
# 5 -2.8338 -3.6566 9.2633 -9.9190 35.1015 2.3730
# 6 -3.3720 -15.9372 0.8839 -4.9517 2.3730 30.6022
#
#
#
# Elastic Compliance Matrix: (Units=1/GPa)
#
#
# Indices 1 2 3 4 5 6 
#
# 1 0.010445 -0.001238 0.000195 0.000060 0.000649 0.000460
# 2 -0.001238 0.011645 -0.001745 -0.007264 -0.000808 0.004866
# 3 0.000195 -0.001745 0.015117 -0.004187 -0.005231 -0.001596
# 4 0.000060 -0.007264 -0.004187 0.038648 0.011157 0.001733
# 5 0.000649 -0.000808 -0.005231 0.011157 0.033055 -0.000956
# 6 0.000460 0.004866 -0.001596 0.001733 -0.000956 0.035663
#
#
# Mechanical properties :
#
#
# Convention : Reuss Voigt Hill
#
# Bulk Modulus (GPa) = 31.61603 38.12727 34.87165
# Shear Modulus (GPa) = 31.11521 36.87973 33.99747
#
# Velocity S-wave (km/s) = 3.46416 3.77142 3.62105
# Velocity P-wave (km/s) = 5.30980 5.80255 5.56163
#
# Compressibility (1/GPa) = 0.03162953
#
# Stress axis : x y z
#
# Youngs Moduli (GPa) = 95.73520 85.87507 66.15236
#
# Poissons Ratio (x) = 0.10635 -0.01287
# Poissons Ratio (y) = 0.11856 0.11542
# Poissons Ratio (z) = -0.01862 0.14984
#
# Static dielectric constant tensor:
#      x y z
#    x 2.195210 0.080730 -0.132860 
#    y 0.080730 2.222270 -0.042090 
#    z -0.132860 -0.042090 2.505800 
# 
# From -- ./inp_files/411069.got.cif
#   From: 2010.05.17/outbox.cif.g08.bks.cpg/sg2_206_cif.got.tgz:411069.got - 2010.06.03 11:33:40.
