data_PCOD9057885
_publ_section_title
;
Structure prediction by ZEFSAII (Michael W. Deem and Ramdas Pophale) SiO2 
 PCOD9057885
Probable space group: P -1
;
_chemical_formula_sum "Si O2"
_cell_formula_units_Z 14
_cell_length_a 16.174505
_cell_length_b 12.405261
_cell_length_c 8.219118
_cell_angle_alpha 124.107786
_cell_angle_beta 115.256544
_cell_angle_gamma 27.346486
_cell_volume 616.104153
_symmetry_space_group_name_H-M "P -1"
_symmetry_group_IT_number 2
_symmetry_cell_setting 'triclinic'
loop_
_space_group_symop_operation_xyz
x,y,z
-x,-y,-z
loop_
_atom_site_type_symbol
_atom_site_label
_atom_site_fract_x
_atom_site_fract_y
_atom_site_fract_z
Si Si1 0.253317 0.819909 0.615586
Si Si2 0.858602 0.299330 0.137499
Si Si3 0.824079 0.336704 0.768052
Si Si4 0.276319 0.027930 0.602569
Si Si5 0.915778 0.494074 0.543096
Si Si6 0.593165 0.820609 0.768530
Si Si7 0.524999 0.564384 0.224169
O O1 0.245029 0.723807 0.381983
O O2 0.308192 0.896064 0.671621
O O3 0.389230 0.608332 0.691204
O O4 0.043271 0.075662 0.713700
O O5 0.925414 0.345664 0.326767
O O6 0.678898 0.477660 0.233116
O O7 0.794694 0.407692 0.991327
O O8 0.000000 0.000000 0.000000
O O9 0.728252 0.545761 0.729788
O O10 0.417045 0.971727 0.666019
O O11 0.334851 0.866785 0.363309
O O12 0.063334 0.317673 0.662845
O O13 0.716923 0.746815 0.679073
O O14 0.000000 0.500000 0.500000
O O15 0.500000 0.000000 0.000000
O O16 0.500000 0.500000 0.000000
#
# Coordination Sequence:
#
# PCOD9057885 Si02
#       7
#     2   2   2   2   2   2   2
#     4  11  22  43  73 108 150 189 238 312 382 453
#     4  12  24  45  74 110 152 192 245 322 385 445
#     4  11  23  43  75 106 146 194 249 304 380 455
#     4  12  26  47  75 104 152 193 252 309 380 456
#     4  12  29  53  76 109 155 205 259 321 385 454
#     4  12  29  52  75 105 150 207 264 312 372 464
#     4  12  24  40  70 118 154 186 241 309 395 455
#
# _framework density 22.723428999999999
#
# number of rings (size 3 to 8) (size 9 to 14) (size 15 to 20)
#    0.000    0.286    5.714    3.000    4.000    3.429 
#    0.000    0.000    0.000    0.000    0.000    0.000 
#    0.000    0.000    0.000    0.000    0.000    0.000 
#
# Total GULP energy -78243.433528 kJ/mol
# GULP energy per Si atom -5588.816681 kJ/mol
# Density = 2.267171 g / cm^3
# Si number density = 22.723429 Si / 1000 Ang^3
#
#
#
# Elastic Constant Matrix: (Units=GPa)
#
#
# Indices 1 2 3 4 5 6 
#
# 1 157.8782 26.3368 32.2769 -2.5977 -1.9144 -32.3027
# 2 26.3368 50.9067 10.9485 -17.2542 8.1679 -24.3514
# 3 32.2769 10.9485 97.7589 -8.1288 -2.4151 -14.0049
# 4 -2.5977 -17.2542 -8.1288 30.2380 0.5526 -5.4980
# 5 -1.9144 8.1679 -2.4151 0.5526 28.9329 -3.4677
# 6 -32.3027 -24.3514 -14.0049 -5.4980 -3.4677 33.6360
#
#
#
# Elastic Compliance Matrix: (Units=1/GPa)
#
#
# Indices 1 2 3 4 5 6 
#
# 1 0.008259 0.000338 -0.001420 0.001959 0.001258 0.008036
# 2 0.000338 0.061041 0.004094 0.045718 -0.011447 0.052514
# 3 -0.001420 0.004094 0.011928 0.006818 0.000543 0.007737
# 4 0.001959 0.045718 0.006818 0.070116 -0.007736 0.048482
# 5 0.001258 -0.011447 0.000543 -0.007736 0.037562 -0.004245
# 6 0.008036 0.052514 0.007737 0.048482 -0.004245 0.086174
#
#
# Mechanical properties :
#
#
# Convention : Reuss Voigt Hill
#
# Bulk Modulus (GPa) = 11.46087 49.51867 30.48977
# Shear Modulus (GPa) = 16.77067 34.36015 25.56541
#
# Velocity S-wave (km/s) = 2.71963 3.89279 3.35784
# Velocity P-wave (km/s) = 3.86218 6.48416 5.33670
#
# Compressibility (1/GPa) = 0.08725342
#
# Stress axis : x y z
#
# Youngs Moduli (GPa) = 121.07320 16.38253 83.83461
#
# Poissons Ratio (x) = -0.00554 0.11902
# Poissons Ratio (y) = -0.04098 -0.34320
# Poissons Ratio (z) = 0.17189 -0.06707
#
# Static dielectric constant tensor:
#      x y z
#    x 1.874770 0.004180 0.013110 
#    y 0.004180 1.796450 0.121820 
#    z 0.013110 0.121820 1.828440 
# 
# From -- ./inp_files/257835.got.cif
#   From: 2010.05.17/outbox.cif.g08.bks.cpg/sg2_129_cif.got.tgz:257835.got - 2010.06.03 11:33:40.
