data_PCOD9057578
_publ_section_title
;
Structure prediction by ZEFSAII (Michael W. Deem and Ramdas Pophale) SiO2 
 PCOD9057578
Probable space group: P -1
;
_chemical_formula_sum "Si O2"
_cell_formula_units_Z 14
_cell_length_a 13.422580
_cell_length_b 9.303083
_cell_length_c 8.661755
_cell_angle_alpha 134.861196
_cell_angle_beta 133.494933
_cell_angle_gamma 61.418592
_cell_volume 556.109771
_symmetry_space_group_name_H-M "P -1"
_symmetry_group_IT_number 2
_symmetry_cell_setting 'triclinic'
loop_
_space_group_symop_operation_xyz
x,y,z
-x,-y,-z
loop_
_atom_site_type_symbol
_atom_site_label
_atom_site_fract_x
_atom_site_fract_y
_atom_site_fract_z
Si Si1 0.883269 0.415225 0.529055
Si Si2 0.982534 0.072641 0.209985
Si Si3 0.722782 0.019336 0.489203
Si Si4 0.198835 0.517441 0.021347
Si Si5 0.569021 0.662243 0.085550
Si Si6 0.770437 0.747621 0.838749
Si Si7 0.339287 0.889613 0.844629
O O1 0.786006 0.607735 0.596762
O O2 0.807007 0.234141 0.404751
O O3 0.035513 0.482370 0.794823
O O4 0.907008 0.289561 0.301294
O O5 0.131409 0.089300 0.456105
O O6 0.903180 0.894697 0.080027
O O7 0.000000 0.000000 0.000000
O O8 0.647713 0.031378 0.254118
O O9 0.628519 0.872499 0.381720
O O10 0.760610 0.245221 0.750852
O O11 0.303581 0.429001 0.940607
O O12 0.227553 0.405368 0.130657
O O13 0.500000 0.500000 0.000000
O O14 0.449330 0.728237 0.891314
O O15 0.659775 0.919277 0.891270
#
# Coordination Sequence:
#
# PCOD9057578 Si02
#       7
#     2   2   2   2   2   2   2
#     4  11  22  44  76 115 152 186 256 320 387 449
#     4  11  25  42  71 116 162 201 246 318 392 457
#     4  12  24  47  77 110 151 201 267 311 375 470
#     4  12  24  44  81 114 149 202 259 323 387 447
#     4  12  30  52  73 108 161 208 255 321 394 454
#     4  11  22  42  75 116 151 192 255 316 388 445
#     4  11  25  46  81 112 151 202 259 314 378 470
#
# _framework density 25.174886999999998
#
# number of rings (size 3 to 8) (size 9 to 14) (size 15 to 20)
#    0.000    0.571    5.714    1.714    0.000    8.571 
#    0.000    0.000    0.000    0.000    0.000    0.000 
#    0.000    0.000    0.000    0.000    0.000    0.000 
#
# Total GULP energy -78258.774803 kJ/mol
# GULP energy per Si atom -5589.912486 kJ/mol
# Density = 2.511759 g / cm^3
# Si number density = 25.174887 Si / 1000 Ang^3
#
#
#
# Elastic Constant Matrix: (Units=GPa)
#
#
# Indices 1 2 3 4 5 6 
#
# 1 132.8933 72.7607 57.2393 25.2818 14.2346 7.7377
# 2 72.7607 140.1339 62.0801 22.4342 6.2359 4.8435
# 3 57.2393 62.0801 101.1642 47.4927 4.8503 0.6831
# 4 25.2818 22.4342 47.4927 53.3421 2.1609 -2.9772
# 5 14.2346 6.2359 4.8503 2.1609 45.6792 26.5029
# 6 7.7377 4.8435 0.6831 -2.9772 26.5029 47.2004
#
#
#
# Elastic Compliance Matrix: (Units=1/GPa)
#
#
# Indices 1 2 3 4 5 6 
#
# 1 0.011867 -0.004314 -0.003783 -0.000328 -0.002729 0.000064
# 2 -0.004314 0.011543 -0.005707 0.002212 0.000620 -0.000603
# 3 -0.003783 -0.005707 0.023296 -0.016598 0.000553 -0.000489
# 4 -0.000328 0.002212 -0.016598 0.033003 -0.001847 0.003186
# 5 -0.002729 0.000620 0.000553 -0.001847 0.033425 -0.018509
# 6 0.000064 -0.000603 -0.000489 0.003186 -0.018509 0.031838
#
#
# Mechanical properties :
#
#
# Convention : Reuss Voigt Hill
#
# Bulk Modulus (GPa) = 52.35728 84.26127 68.30927
# Shear Modulus (GPa) = 27.94126 41.38509 34.66318
#
# Velocity S-wave (km/s) = 3.33511 4.05891 3.71468
# Velocity P-wave (km/s) = 5.97270 7.45046 6.75213
#
# Compressibility (1/GPa) = 0.01909954
#
# Stress axis : x y z
#
# Youngs Moduli (GPa) = 84.26611 86.63007 42.92527
#
# Poissons Ratio (x) = 0.37374 0.16237
# Poissons Ratio (y) = 0.36354 0.24497
# Poissons Ratio (z) = 0.31874 0.49438
#
# Static dielectric constant tensor:
#      x y z
#    x 2.053410 -0.020180 -0.018090 
#    y -0.020180 1.975170 0.024790 
#    z -0.018090 0.024790 2.041640 
# 
# From -- ./inp_files/297007.got.cif
#   From: 2010.05.17/outbox.cif.g08.bks.cpg/sg2_149_cif.got.tgz:297007.got - 2010.06.03 11:33:40.
