data_PCOD9057028
_publ_section_title
;
Structure prediction by ZEFSAII (Michael W. Deem and Ramdas Pophale) SiO2 
 PCOD9057028
Probable space group: P -1
;
_chemical_formula_sum "Si O2"
_cell_formula_units_Z 15
_cell_length_a 7.625589
_cell_length_b 9.746543
_cell_length_c 12.262164
_cell_angle_alpha 99.792694
_cell_angle_beta 100.214372
_cell_angle_gamma 129.765597
_cell_volume 639.182787
_symmetry_space_group_name_H-M "P -1"
_symmetry_group_IT_number 2
_symmetry_cell_setting 'triclinic'
loop_
_space_group_symop_operation_xyz
x,y,z
-x,-y,-z
loop_
_atom_site_type_symbol
_atom_site_label
_atom_site_fract_x
_atom_site_fract_y
_atom_site_fract_z
Si Si1 0.066187 0.351343 0.532331
Si Si2 0.732333 0.381635 0.607426
Si Si3 0.269280 0.280374 0.968186
Si Si4 0.534994 0.982075 0.335628
Si Si5 0.396624 0.043384 0.901524
Si Si6 0.000000 0.000000 0.500000
Si Si7 0.835966 0.698870 0.799153
Si Si8 0.837195 0.969006 0.716468
O O1 0.971531 0.408573 0.622940
O O2 0.809058 0.185352 0.415422
O O3 0.256767 0.527664 0.493812
O O4 0.125365 0.229021 0.563025
O O5 0.733320 0.500445 0.715504
O O6 0.515022 0.161589 0.595945
O O7 0.377321 0.183800 0.971383
O O8 0.500000 0.500000 0.000000
O O9 0.163448 0.277763 0.069249
O O10 0.054482 0.153501 0.837879
O O11 0.483768 0.894307 0.197122
O O12 0.354381 0.014633 0.330767
O O13 0.119862 0.849854 0.817366
O O14 0.500000 0.000000 0.000000
O O15 0.943156 0.960712 0.617458
O O16 0.723385 0.778608 0.745980
#
# Coordination Sequence:
#
# PCOD9057028 Si02
#       8
#     2   2   2   2   2   1   2   2
#     4  11  24  46  67  97 144 180 226 287 339 409
#     4  11  23  41  69  99 132 177 230 276 333 408
#     4  11  24  45  67 100 138 178 234 286 343 408
#     4  12  23  44  70 100 136 182 231 278 352 403
#     4  11  22  41  68  96 132 179 225 283 347 403
#     4  12  22  46  72  98 142 182 230 280 350 408
#     4  11  22  45  67  96 139 178 229 285 341 410
#     4  11  24  43  70 101 135 188 225 286 345 413
#
# _framework density 23.467465000000001
#
# number of rings (size 3 to 8) (size 9 to 14) (size 15 to 20)
#    0.000    0.800    4.000    5.200    0.000    1.067 
#    2.400    6.667    0.000    0.000    0.000    0.000 
#    0.000    0.000    0.000    0.000    0.000    0.000 
#
# Total GULP energy -83653.935012 kJ/mol
# GULP energy per Si atom -5576.929001 kJ/mol
# Density = 2.341405 g / cm^3
# Si number density = 23.467465 Si / 1000 Ang^3
#
#
#
# Elastic Constant Matrix: (Units=GPa)
#
#
# Indices 1 2 3 4 5 6 
#
# 1 66.6581 28.9426 49.9177 14.0460 -0.0936 -19.7026
# 2 28.9426 119.2622 13.4583 5.4305 8.7501 -9.9731
# 3 49.9177 13.4583 119.2686 7.7243 -30.3148 7.0225
# 4 14.0460 5.4305 7.7243 35.8715 -7.2084 -14.8374
# 5 -0.0936 8.7501 -30.3148 -7.2084 41.4126 -11.7807
# 6 -19.7026 -9.9731 7.0225 -14.8374 -11.7807 25.3177
#
#
#
# Elastic Compliance Matrix: (Units=1/GPa)
#
#
# Indices 1 2 3 4 5 6 
#
# 1 0.043143 -0.004927 -0.020605 0.003702 -0.002373 0.038415
# 2 -0.004927 0.009574 0.000563 -0.000822 -0.002264 -0.001754
# 3 -0.020605 0.000563 0.020518 -0.002269 0.009178 -0.018564
# 4 0.003702 -0.000822 -0.002269 0.046593 0.017640 0.038701
# 5 -0.002373 -0.002264 0.009178 0.017640 0.041316 0.024279
# 6 0.038415 -0.001754 -0.018564 0.038701 0.024279 0.107829
#
#
# Mechanical properties :
#
#
# Convention : Reuss Voigt Hill
#
# Bulk Modulus (GPa) = 42.92676 54.42512 48.67594
# Shear Modulus (GPa) = 15.30566 34.71170 25.00868
#
# Velocity S-wave (km/s) = 2.55661 3.85013 3.26801
# Velocity P-wave (km/s) = 5.20065 6.55796 5.91834
#
# Compressibility (1/GPa) = 0.02329549
#
# Stress axis : x y z
#
# Youngs Moduli (GPa) = 23.17887 104.45075 48.73837
#
# Poissons Ratio (x) = 0.51461 1.00427
# Poissons Ratio (y) = 0.11420 -0.02743
# Poissons Ratio (z) = 0.47761 -0.05878
#
# Static dielectric constant tensor:
#      x y z
#    x 1.787180 -0.260820 0.387270 
#    y -0.260820 1.465030 0.315660 
#    z 0.387270 0.315660 1.399510 
# 
# From -- ./inp_files/379255.got.cif
#   From: 2010.05.17/outbox.cif.g08.bks.cpg/sg2_190_cif.got.tgz:379255.got - 2010.06.03 11:33:40.
