data_PCOD9057073
_publ_section_title
;
Structure prediction by ZEFSAII (Michael W. Deem and Ramdas Pophale) SiO2 
 PCOD9057073
Probable space group: P -1
;
_chemical_formula_sum "Si O2"
_cell_formula_units_Z 14
_cell_length_a 10.634507
_cell_length_b 8.746364
_cell_length_c 7.259071
_cell_angle_alpha 104.642653
_cell_angle_beta 101.499844
_cell_angle_gamma 73.532328
_cell_volume 620.501366
_symmetry_space_group_name_H-M "P -1"
_symmetry_group_IT_number 2
_symmetry_cell_setting 'triclinic'
loop_
_space_group_symop_operation_xyz
x,y,z
-x,-y,-z
loop_
_atom_site_type_symbol
_atom_site_label
_atom_site_fract_x
_atom_site_fract_y
_atom_site_fract_z
Si Si1 0.986232 0.816863 0.410693
Si Si2 0.356074 0.610937 0.035978
Si Si3 0.399883 0.419091 0.338501
Si Si4 0.410615 0.877148 0.913489
Si Si5 0.890003 0.311505 0.251635
Si Si6 0.866391 0.955114 0.074345
Si Si7 0.167948 0.268257 0.334564
O O1 0.960424 0.816485 0.186090
O O2 0.863381 0.790444 0.489785
O O3 0.107972 0.707382 0.531521
O O4 0.000000 0.000000 0.500000
O O5 0.324582 0.550222 0.206045
O O6 0.500000 0.500000 0.000000
O O7 0.373226 0.792525 0.063755
O O8 0.244294 0.594345 0.851642
O O9 0.500000 0.500000 0.500000
O O10 0.501318 0.267320 0.224126
O O11 0.289474 0.349526 0.388283
O O12 0.268181 0.971515 0.824638
O O13 0.500000 0.000000 0.000000
O O14 0.019905 0.377128 0.270478
O O15 0.917284 0.122736 0.123048
O O16 0.816357 0.875930 0.856086
#
# Coordination Sequence:
#
# PCOD9057073 Si02
#       7
#     2   2   2   2   2   2   2
#     4   8  18  33  57  97 134 158 209 281 336 383
#     4   9  20  40  64  85 132 176 207 264 339 390
#     4  11  24  43  59  93 140 178 217 274 328 395
#     4  10  20  40  66  92 120 173 233 261 329 394
#     4   8  18  35  59  95 124 161 219 269 327 393
#     4  10  17  36  64  95 134 161 212 288 333 374
#     4  10  20  36  63  94 134 168 221 268 331 394
#
# _framework density 22.562401999999999
#
# number of rings (size 3 to 8) (size 9 to 14) (size 15 to 20)
#    0.857    1.714    1.429    0.429    0.000    1.714 
#    7.714    4.286    0.000    8.571    0.000    0.000 
#    0.000    0.000    0.000    0.000    0.000    0.000 
#
# Total GULP energy -77939.906450 kJ/mol
# GULP energy per Si atom -5567.136175 kJ/mol
# Density = 2.251105 g / cm^3
# Si number density = 22.562402 Si / 1000 Ang^3
#
#
#
# Elastic Constant Matrix: (Units=GPa)
#
#
# Indices 1 2 3 4 5 6 
#
# 1 144.7183 45.2243 30.7225 -12.6188 20.3063 32.0867
# 2 45.2243 73.1317 49.8438 5.6901 11.0288 11.8219
# 3 30.7225 49.8438 104.1433 -13.4889 9.0202 8.7542
# 4 -12.6188 5.6901 -13.4889 42.9750 -1.1862 7.0779
# 5 20.3063 11.0288 9.0202 -1.1862 35.5703 -7.9496
# 6 32.0867 11.8219 8.7542 7.0779 -7.9496 50.7826
#
#
#
# Elastic Compliance Matrix: (Units=1/GPa)
#
#
# Indices 1 2 3 4 5 6 
#
# 1 0.011939 -0.006701 0.001756 0.006107 -0.006813 -0.008204
# 2 -0.006701 0.026817 -0.012063 -0.009538 -0.001487 0.001167
# 3 0.001756 -0.012063 0.016179 0.007541 -0.001650 -0.002400
# 4 0.006107 -0.009538 0.007541 0.029856 -0.003142 -0.007591
# 5 -0.006813 -0.001487 -0.001650 -0.003142 0.035210 0.010885
# 6 -0.008204 0.001167 -0.002400 -0.007591 0.010885 0.027779
#
#
# Mechanical properties :
#
#
# Convention : Reuss Voigt Hill
#
# Bulk Modulus (GPa) = 47.80383 63.73048 55.76716
# Shear Modulus (GPa) = 26.48741 38.94578 32.71659
#
# Velocity S-wave (km/s) = 3.43003 4.15919 3.81208
# Velocity P-wave (km/s) = 6.07620 7.16748 6.64428
#
# Compressibility (1/GPa) = 0.02091882
#
# Stress axis : x y z
#
# Youngs Moduli (GPa) = 83.76091 37.28944 61.80962
#
# Poissons Ratio (x) = 0.24989 -0.10854
# Poissons Ratio (y) = 0.56131 0.74559
# Poissons Ratio (z) = -0.14709 0.44981
#
# Static dielectric constant tensor:
#      x y z
#    x 1.911730 -0.058510 -0.033290 
#    y -0.058510 1.907660 -0.015670 
#    z -0.033290 -0.015670 1.898550 
# 
# From -- ./inp_files/234782.got.cif
#   From: 2010.05.17/outbox.cif.g08.bks.cpg/sg2_118_cif.got.tgz:234782.got - 2010.06.03 11:33:40.
