data_PCOD9057244
_publ_section_title
;
Structure prediction by ZEFSAII (Michael W. Deem and Ramdas Pophale) SiO2 
 PCOD9057244
Probable space group: P -1
;
_chemical_formula_sum "Si O2"
_cell_formula_units_Z 12
_cell_length_a 12.385675
_cell_length_b 11.875507
_cell_length_c 7.814670
_cell_angle_alpha 117.071314
_cell_angle_beta 62.848436
_cell_angle_gamma 64.521194
_cell_volume 540.232194
_symmetry_space_group_name_H-M "P -1"
_symmetry_group_IT_number 2
_symmetry_cell_setting 'triclinic'
loop_
_space_group_symop_operation_xyz
x,y,z
-x,-y,-z
loop_
_atom_site_type_symbol
_atom_site_label
_atom_site_fract_x
_atom_site_fract_y
_atom_site_fract_z
Si Si1 0.336892 0.790934 0.700261
Si Si2 0.437368 0.068653 0.901114
Si Si3 0.916348 0.754118 0.857262
Si Si4 0.658746 0.496842 0.568055
Si Si5 0.204810 0.335559 0.845777
Si Si6 0.417853 0.343489 0.911539
O O1 0.483054 0.682543 0.687447
O O2 0.269274 0.701361 0.685093
O O3 0.451650 0.716721 0.384143
O O4 0.157864 0.044303 0.003111
O O5 0.486483 0.162085 0.845055
O O6 0.583059 0.849135 0.539733
O O7 0.194235 0.243246 0.197799
O O8 0.500000 0.000000 0.000000
O O9 0.152443 0.564040 0.602471
O O10 0.802891 0.786475 0.122987
O O11 0.599199 0.541974 0.843299
O O12 0.218638 0.448750 0.033839
O O13 0.000000 0.500000 0.000000
#
# Coordination Sequence:
#
# PCOD9057244 Si02
#       6
#     2   2   2   2   2   2
#     4  11  22  47  63  91 133 165 219 260 310 368
#     4  11  23  39  66  95 128 167 206 263 321 379
#     4  11  22  42  63  92 130 164 208 262 318 372
#     4  11  26  39  69  95 121 177 213 260 310 378
#     4  11  23  39  66  95 128 167 206 263 321 379
#     4  11  22  42  63  92 130 164 208 262 318 372
#
# _framework density 22.212671
#
# number of rings (size 3 to 8) (size 9 to 14) (size 15 to 20)
#    0.000    1.000    3.333    4.000    4.667    1.333 
#    0.000    0.000    0.000    8.000    0.000    0.000 
#    0.000    0.000    0.000    0.000    0.000    0.000 
#
# Total GULP energy -66873.833501 kJ/mol
# GULP energy per Si atom -5572.819458 kJ/mol
# Density = 2.216211 g / cm^3
# Si number density = 22.212671 Si / 1000 Ang^3
#
#
#
# Elastic Constant Matrix: (Units=GPa)
#
#
# Indices 1 2 3 4 5 6 
#
# 1 128.5703 39.9226 22.9789 6.7835 -8.0263 -29.9168
# 2 39.9226 76.9499 -0.9251 2.2258 -3.6440 -20.8559
# 3 22.9789 -0.9251 38.3482 -7.9574 -9.6753 -16.4113
# 4 6.7835 2.2258 -7.9574 40.1004 0.2889 3.3484
# 5 -8.0263 -3.6440 -9.6753 0.2889 32.2053 6.1914
# 6 -29.9168 -20.8559 -16.4113 3.3484 6.1914 50.4587
#
#
#
# Elastic Compliance Matrix: (Units=1/GPa)
#
#
# Indices 1 2 3 4 5 6 
#
# 1 0.011305 -0.005122 -0.006428 -0.003130 -0.000189 0.002726
# 2 -0.005122 0.017435 0.006621 0.000693 0.001508 0.006092
# 3 -0.006428 0.006621 0.037954 0.007377 0.008614 0.009723
# 4 -0.003130 0.000693 0.007377 0.026977 0.001492 -0.001143
# 5 -0.000189 0.001508 0.008614 0.001492 0.033931 -0.000950
# 6 0.002726 0.006092 0.009723 -0.001143 -0.000950 0.027307
#
#
# Mechanical properties :
#
#
# Convention : Reuss Voigt Hill
#
# Bulk Modulus (GPa) = 17.59482 40.86903 29.23193
# Shear Modulus (GPa) = 27.21651 36.67901 31.94776
#
# Velocity S-wave (km/s) = 3.50418 4.06798 3.79656
# Velocity P-wave (km/s) = 4.93058 6.36424 5.69273
#
# Compressibility (1/GPa) = 0.05683490
#
# Stress axis : x y z
#
# Youngs Moduli (GPa) = 88.45833 57.35621 26.34789
#
# Poissons Ratio (x) = 0.29378 0.16937
# Poissons Ratio (y) = 0.45309 -0.17445
# Poissons Ratio (z) = 0.56864 -0.37976
#
# Static dielectric constant tensor:
#      x y z
#    x 2.014320 -0.130980 0.048580 
#    y -0.130980 1.987160 -0.011030 
#    z 0.048580 -0.011030 1.864740 
# 
# From -- ./inp_files/165866.got.cif
#   From: 2010.05.17/outbox.cif.g08.bks.cpg/sg2_83_cif.got.tgz:165866.got - 2010.06.03 11:33:40.
