data_PCOD9057652
_publ_section_title
;
Structure prediction by ZEFSAII (Michael W. Deem and Ramdas Pophale) SiO2 
 PCOD9057652
Probable space group: P -1
;
_chemical_formula_sum "Si O2"
_cell_formula_units_Z 16
_cell_length_a 22.633833
_cell_length_b 25.070841
_cell_length_c 6.738685
_cell_angle_alpha 123.813274
_cell_angle_beta 46.769777
_cell_angle_gamma 162.645580
_cell_volume 743.169620
_symmetry_space_group_name_H-M "P -1"
_symmetry_group_IT_number 2
_symmetry_cell_setting 'triclinic'
loop_
_space_group_symop_operation_xyz
x,y,z
-x,-y,-z
loop_
_atom_site_type_symbol
_atom_site_label
_atom_site_fract_x
_atom_site_fract_y
_atom_site_fract_z
Si Si1 0.907480 0.966374 0.845402
Si Si2 0.343210 0.826577 0.393860
Si Si3 0.149306 0.355785 0.821182
Si Si4 0.190227 0.883724 0.277410
Si Si5 0.363022 0.336231 0.865522
Si Si6 0.950826 0.611460 0.589854
Si Si7 0.246354 0.665311 0.648255
Si Si8 0.237302 0.003558 0.753718
O O1 0.138156 0.168733 0.869028
O O2 0.000000 0.000000 0.500000
O O3 0.754205 0.798430 0.976178
O O4 0.732055 0.897833 0.075745
O O5 0.148961 0.717890 0.478323
O O6 0.229759 0.695868 0.553025
O O7 0.500000 0.000000 0.500000
O O8 0.527647 0.922192 0.033909
O O9 0.407314 0.523264 0.490585
O O10 0.973748 0.241716 0.803174
O O11 0.187379 0.445325 0.059002
O O12 0.989696 0.186945 0.973108
O O13 0.083816 0.751762 0.402787
O O14 0.169492 0.936838 0.542764
O O15 0.500000 0.500000 0.000000
O O16 0.775105 0.426453 0.520796
O O17 0.540119 0.883798 0.493091
O O18 0.000000 0.500000 0.000000
#
# Coordination Sequence:
#
# PCOD9057652 Si02
#       8
#     2   2   2   2   2   2   2   2
#     4  11  27  47  76 109 144 185 236 297 358 433
#     4  12  21  43  65  90 134 181 233 283 339 408
#     4  11  24  44  71  99 137 182 230 286 348 418
#     4  11  22  43  67  96 132 184 231 285 341 413
#     4  11  26  48  74 109 144 185 235 294 364 430
#     4  11  25  39  65  99 132 180 228 282 349 407
#     4  12  26  42  64 100 141 181 230 288 346 405
#     4  11  25  45  68 102 137 184 232 284 348 422
#
# _framework density 21.529406000000002
#
# number of rings (size 3 to 8) (size 9 to 14) (size 15 to 20)
#    0.000    0.750    2.500    4.500    3.500    5.000 
#    0.000    0.000    0.000    0.000    0.000    0.000 
#    0.000    0.000    0.000    0.000    0.000    0.000 
#
# Total GULP energy -89326.918649 kJ/mol
# GULP energy per Si atom -5582.932416 kJ/mol
# Density = 2.148040 g / cm^3
# Si number density = 21.529406 Si / 1000 Ang^3
#
#
#
# Elastic Constant Matrix: (Units=GPa)
#
#
# Indices 1 2 3 4 5 6 
#
# 1 61.4014 15.6412 78.0253 9.3873 -12.2443 -15.1411
# 2 15.6412 70.5988 47.8515 6.9014 -4.6386 -18.1959
# 3 78.0253 47.8515 196.8474 -5.3542 13.9629 -19.1803
# 4 9.3873 6.9014 -5.3542 34.5603 2.9325 -8.8355
# 5 -12.2443 -4.6386 13.9629 2.9325 29.1922 -2.1862
# 6 -15.1411 -18.1959 -19.1803 -8.8355 -2.1862 24.1356
#
#
#
# Elastic Compliance Matrix: (Units=1/GPa)
#
#
# Indices 1 2 3 4 5 6 
#
# 1 0.118417 0.036038 -0.058834 -0.044279 0.091487 0.046778
# 2 0.036038 0.031901 -0.022359 -0.015844 0.034434 0.026208
# 3 -0.058834 -0.022359 0.036033 0.024997 -0.049508 -0.020463
# 4 -0.044279 -0.015844 0.024997 0.049971 -0.038444 -0.005047
# 5 0.091487 0.034434 -0.049508 -0.038444 0.108621 0.039773
# 6 0.046778 0.026208 -0.020463 -0.005047 0.039773 0.076030
#
#
# Mechanical properties :
#
#
# Convention : Reuss Voigt Hill
#
# Bulk Modulus (GPa) = 10.41216 67.98706 39.19961
# Shear Modulus (GPa) = 9.20308 30.06626 19.63467
#
# Velocity S-wave (km/s) = 2.06977 3.74106 3.02320
# Velocity P-wave (km/s) = 3.24941 7.09281 5.51664
#
# Compressibility (1/GPa) = 0.09604156
#
# Stress axis : x y z
#
# Youngs Moduli (GPa) = 8.44475 31.34668 27.75214
#
# Poissons Ratio (x) = -1.12966 1.63276
# Poissons Ratio (y) = -0.30433 0.62051
# Poissons Ratio (z) = 0.49683 0.70088
#
# Static dielectric constant tensor:
#      x y z
#    x 1.844020 0.159550 -0.043100 
#    y 0.159550 2.121540 0.001560 
#    z -0.043100 0.001560 1.758510 
# 
# From -- ./inp_files/120675.got.cif
#   From: 2010.05.17/outbox.cif.g08.bks.cpg/sg2_61_cif.got.tgz:120675.got - 2010.06.03 11:33:40.
