data_PCOD9057217
_publ_section_title
;
Structure prediction by ZEFSAII (Michael W. Deem and Ramdas Pophale) SiO2 
 PCOD9057217
Probable space group: P -1
;
_chemical_formula_sum "Si O2"
_cell_formula_units_Z 16
_cell_length_a 9.017343
_cell_length_b 14.912180
_cell_length_c 9.022747
_cell_angle_alpha 145.672549
_cell_angle_beta 86.310996
_cell_angle_gamma 104.278686
_cell_volume 641.140382
_symmetry_space_group_name_H-M "P -1"
_symmetry_group_IT_number 2
_symmetry_cell_setting 'triclinic'
loop_
_space_group_symop_operation_xyz
x,y,z
-x,-y,-z
loop_
_atom_site_type_symbol
_atom_site_label
_atom_site_fract_x
_atom_site_fract_y
_atom_site_fract_z
Si Si1 0.467189 0.808681 0.063261
Si Si2 0.788477 0.300554 0.841659
Si Si3 0.807168 0.922745 0.297626
Si Si4 0.254656 0.614221 0.366548
Si Si5 0.944747 0.633728 0.445493
Si Si6 0.680541 0.511372 0.532116
Si Si7 0.873792 0.893336 0.588434
Si Si8 0.438937 0.085419 0.255254
O O1 0.382635 0.738102 0.125427
O O2 0.649452 0.826546 0.084839
O O3 0.466262 0.993060 0.275549
O O4 0.354395 0.685824 0.781335
O O5 0.794374 0.391609 0.809091
O O6 0.812901 0.119795 0.584715
O O7 0.907966 0.439269 0.129503
O O8 0.809448 0.853587 0.369405
O O9 0.966580 0.947208 0.229977
O O10 0.254293 0.465582 0.274017
O O11 0.439972 0.725281 0.498825
O O12 0.130300 0.695662 0.556965
O O13 0.814842 0.622293 0.563716
O O14 0.916230 0.745482 0.466126
O O15 0.500000 0.500000 0.500000
O O16 0.740835 0.926325 0.742775
O O17 0.500000 0.000000 0.000000
#
# Coordination Sequence:
#
# PCOD9057217 Si02
#       8
#     2   2   2   2   2   2   2   2
#     4  11  22  43  67  99 130 184 219 269 344 397
#     4  11  22  41  73  98 137 173 225 273 338 405
#     4  11  22  42  71 104 135 171 224 287 332 398
#     4  12  23  43  71  95 128 183 219 272 336 402
#     4  11  25  44  68  99 135 178 221 276 336 401
#     4  11  26  46  63  96 139 175 229 277 328 401
#     4  11  24  42  68 103 139 167 229 283 333 394
#     4  12  23  41  69  93 136 178 226 272 338 399
#
# _framework density 24.955532999999999
#
# number of rings (size 3 to 8) (size 9 to 14) (size 15 to 20)
#    0.000    0.750    5.000    2.625    0.000    1.000 
#    4.500    4.375    0.000    0.000    0.000    0.000 
#    0.000    0.000    0.000    0.000    0.000    0.000 
#
# Total GULP energy -89413.887008 kJ/mol
# GULP energy per Si atom -5588.367938 kJ/mol
# Density = 2.489873 g / cm^3
# Si number density = 24.955533 Si / 1000 Ang^3
#
#
#
# Elastic Constant Matrix: (Units=GPa)
#
#
# Indices 1 2 3 4 5 6 
#
# 1 167.4977 54.5030 10.9860 -15.1655 -8.0776 20.3400
# 2 54.5030 167.4383 8.9271 -9.5784 -3.1976 2.6778
# 3 10.9860 8.9271 57.4342 -6.7982 7.8589 0.2710
# 4 -15.1655 -9.5784 -6.7982 18.8813 -0.5697 -6.1922
# 5 -8.0776 -3.1976 7.8589 -0.5697 26.8704 -1.9916
# 6 20.3400 2.6778 0.2710 -6.1922 -1.9916 65.9891
#
#
#
# Elastic Compliance Matrix: (Units=1/GPa)
#
#
# Indices 1 2 3 4 5 6 
#
# 1 0.007382 -0.002053 -0.000905 0.004057 0.002197 -0.001741
# 2 -0.002053 0.006769 -0.000507 0.001793 0.000415 0.000541
# 3 -0.000905 -0.000507 0.019151 0.005936 -0.005763 0.000604
# 4 0.004057 0.001793 0.005936 0.060748 0.001311 0.004392
# 5 0.002197 0.000415 -0.005763 0.001311 0.039687 0.000651
# 6 -0.001741 0.000541 0.000604 0.004392 0.000651 0.016098
#
#
# Mechanical properties :
#
#
# Convention : Reuss Voigt Hill
#
# Bulk Modulus (GPa) = 37.91616 60.13360 49.02488
# Shear Modulus (GPa) = 30.20118 43.54512 36.87315
#
# Velocity S-wave (km/s) = 3.48257 4.18174 3.84807
# Velocity P-wave (km/s) = 5.60335 6.88945 6.27941
#
# Compressibility (1/GPa) = 0.02637398
#
# Stress axis : x y z
#
# Youngs Moduli (GPa) = 135.45803 147.72317 52.21551
#
# Poissons Ratio (x) = 0.30326 0.04726
# Poissons Ratio (y) = 0.27808 0.02645
# Poissons Ratio (z) = 0.12260 0.07484
#
# Static dielectric constant tensor:
#      x y z
#    x 1.984990 0.018650 -0.039700 
#    y 0.018650 1.954280 -0.038000 
#    z -0.039700 -0.038000 2.063600 
# 
# From -- ./inp_files/209315.got.cif
#   From: 2010.05.17/outbox.cif.g08.bks.cpg/sg2_105_cif.got.tgz:209315.got - 2010.06.03 11:33:40.
