data_PCOD9057466
_publ_section_title
;
Structure prediction by ZEFSAII (Michael W. Deem and Ramdas Pophale) SiO2 
 PCOD9057466
Probable space group: P -1
;
_chemical_formula_sum "Si O2"
_cell_formula_units_Z 14
_cell_length_a 28.286514
_cell_length_b 31.217077
_cell_length_c 9.086368
_cell_angle_alpha 30.577075
_cell_angle_beta 30.942515
_cell_angle_gamma 8.674745
_cell_volume 613.321787
_symmetry_space_group_name_H-M "P -1"
_symmetry_group_IT_number 2
_symmetry_cell_setting 'triclinic'
loop_
_space_group_symop_operation_xyz
x,y,z
-x,-y,-z
loop_
_atom_site_type_symbol
_atom_site_label
_atom_site_fract_x
_atom_site_fract_y
_atom_site_fract_z
Si Si1 0.614105 0.986432 0.315493
Si Si2 0.053071 0.135064 0.530647
Si Si3 0.787952 0.767291 0.814016
Si Si4 0.806064 0.394230 0.116976
Si Si5 0.156794 0.839267 0.902769
Si Si6 0.117766 0.985807 0.301061
Si Si7 0.272638 0.423933 0.751154
O O1 0.500000 0.000000 0.500000
O O2 0.642010 0.937857 0.554924
O O3 0.362751 0.274773 0.074148
O O4 0.955306 0.734624 0.124317
O O5 0.878209 0.277368 0.418777
O O6 0.045472 0.066349 0.872738
O O7 0.869861 0.372387 0.388341
O O8 0.407732 0.840466 0.408350
O O9 0.020116 0.620109 0.724446
O O10 0.000000 0.500000 0.000000
O O11 0.500000 0.000000 0.000000
O O12 0.435836 0.737959 0.105274
O O13 0.890486 0.263524 0.132872
O O14 0.500000 0.500000 0.000000
O O15 0.186237 0.889058 0.566246
O O16 0.000000 0.000000 0.000000
O O17 0.000000 0.000000 0.500000
#
# Coordination Sequence:
#
# PCOD9057466 Si02
#       7
#     2   2   2   2   2   2   2
#     4  11  26  49  78 106 146 203 241 301 379 434
#     4  11  22  42  71 102 141 185 242 299 350 436
#     4  12  27  47  71 105 145 180 248 304 361 435
#     4  11  24  44  69 104 143 185 240 294 352 436
#     4  12  22  40  68  98 135 183 234 277 361 415
#     4  12  25  44  69 104 146 185 232 298 360 426
#     4  11  25  44  71 105 144 187 247 297 362 432
#
# _framework density 22.826516999999999
#
# number of rings (size 3 to 8) (size 9 to 14) (size 15 to 20)
#    0.000    0.571    4.286    3.857    2.000    6.286 
#    0.000    0.000    0.000    0.000    0.000    0.000 
#    0.000    0.000    0.000    0.000    0.000    0.000 
#
# Total GULP energy -78102.154198 kJ/mol
# GULP energy per Si atom -5578.725300 kJ/mol
# Density = 2.277456 g / cm^3
# Si number density = 22.826517 Si / 1000 Ang^3
#
#
#
# Elastic Constant Matrix: (Units=GPa)
#
#
# Indices 1 2 3 4 5 6 
#
# 1 136.9044 73.3165 23.2256 3.8075 -14.8155 14.6119
# 2 73.3165 147.1312 39.2940 19.7209 -1.5217 35.3993
# 3 23.2256 39.2940 122.3190 8.4434 2.2502 8.5894
# 4 3.8075 19.7209 8.4434 32.9785 3.0767 -0.8355
# 5 -14.8155 -1.5217 2.2502 3.0767 44.6061 -11.7820
# 6 14.6119 35.3993 8.5894 -0.8355 -11.7820 51.9915
#
#
#
# Elastic Compliance Matrix: (Units=1/GPa)
#
#
# Indices 1 2 3 4 5 6 
#
# 1 0.010695 -0.005927 -0.000483 0.002134 0.003754 0.001995
# 2 -0.005927 0.012948 -0.001999 -0.006460 -0.002988 -0.007601
# 3 -0.000483 -0.001999 0.009001 -0.000996 -0.000655 -0.000154
# 4 0.002134 -0.006460 -0.000996 0.034369 -0.000680 0.004362
# 5 0.003754 -0.002988 -0.000655 -0.000680 0.025451 0.006844
# 6 0.001995 -0.007601 -0.000154 0.004362 0.006844 0.025495
#
#
# Mechanical properties :
#
#
# Convention : Reuss Voigt Hill
#
# Bulk Modulus (GPa) = 63.19427 75.33631 69.26529
# Shear Modulus (GPa) = 35.70100 43.94978 39.82539
#
# Velocity S-wave (km/s) = 3.95905 4.39268 4.18149
# Velocity P-wave (km/s) = 6.97449 7.66831 7.32961
#
# Compressibility (1/GPa) = 0.01582422
#
# Stress axis : x y z
#
# Youngs Moduli (GPa) = 93.50544 77.23236 111.09927
#
# Poissons Ratio (x) = 0.45778 0.05366
# Poissons Ratio (y) = 0.55424 0.22212
# Poissons Ratio (z) = 0.04516 0.15441
#
# Static dielectric constant tensor:
#      x y z
#    x 1.845540 -0.002560 -0.046980 
#    y -0.002560 1.794370 0.015440 
#    z -0.046980 0.015440 1.928720 
# 
# From -- ./inp_files/358058.got.cif
#   From: 2010.05.17/outbox.cif.g08.bks.cpg/sg2_180_cif.got.tgz:358058.got - 2010.06.03 11:33:40.
