data_PCOD9057811
_publ_section_title
;
Structure prediction by ZEFSAII (Michael W. Deem and Ramdas Pophale) SiO2 
 PCOD9057811
Probable space group: P -1
;
_chemical_formula_sum "Si O2"
_cell_formula_units_Z 16
_cell_length_a 20.900801
_cell_length_b 11.743837
_cell_length_c 8.983439
_cell_angle_alpha 30.097144
_cell_angle_beta 127.983429
_cell_angle_gamma 140.191379
_cell_volume 699.575030
_symmetry_space_group_name_H-M "P -1"
_symmetry_group_IT_number 2
_symmetry_cell_setting 'triclinic'
loop_
_space_group_symop_operation_xyz
x,y,z
-x,-y,-z
loop_
_atom_site_type_symbol
_atom_site_label
_atom_site_fract_x
_atom_site_fract_y
_atom_site_fract_z
Si Si1 0.446962 0.648155 0.248790
Si Si2 0.598676 0.239555 0.656070
Si Si3 0.425827 0.182963 0.307069
Si Si4 0.248399 0.725032 0.363843
Si Si5 0.708739 0.792161 0.670536
Si Si6 0.887919 0.766212 0.040089
Si Si7 0.098634 0.244900 0.276564
Si Si8 0.816318 0.134889 0.167300
O O1 0.500000 0.500000 0.500000
O O2 0.389859 0.558946 0.426203
O O3 0.363179 0.526993 0.136355
O O4 0.544963 0.962039 0.995812
O O5 0.507233 0.137982 0.529113
O O6 0.703204 0.375430 0.568854
O O7 0.356317 0.169783 0.352074
O O8 0.348298 0.975049 0.307502
O O9 0.500000 0.500000 0.000000
O O10 0.169942 0.496661 0.629821
O O11 0.204946 0.843514 0.058992
O O12 0.731532 0.986385 0.341626
O O13 0.810801 0.854273 0.815654
O O14 0.902188 0.704063 0.960445
O O15 0.000000 0.000000 0.000000
O O16 0.152966 0.083118 0.537823
O O17 0.125447 0.534250 0.066924
O O18 0.000000 0.000000 0.500000
#
# Coordination Sequence:
#
# PCOD9057811 Si02
#       8
#     2   2   2   2   2   2   2   2
#     4  11  22  43  71 108 139 196 250 308 367 463
#     4  11  25  40  70 102 151 189 251 300 380 460
#     4  12  25  42  68 106 154 196 243 313 390 475
#     4  12  26  44  70 111 152 204 251 317 393 458
#     4  11  24  45  73 105 151 196 257 312 388 455
#     4  11  26  49  75 108 152 201 262 326 395 456
#     4  11  25  51  79 107 145 194 262 330 388 455
#     4  11  27  45  76 112 145 199 258 314 385 463
#
# _framework density 22.871027999999999
#
# number of rings (size 3 to 8) (size 9 to 14) (size 15 to 20)
#    0.000    0.750    1.250    5.250    7.000    3.000 
#    0.000    3.750    0.000    0.000    0.000    0.000 
#    0.000    0.000    0.000    0.000    0.000    0.000 
#
# Total GULP energy -89120.900285 kJ/mol
# GULP energy per Si atom -5570.056268 kJ/mol
# Density = 2.281897 g / cm^3
# Si number density = 22.871028 Si / 1000 Ang^3
#
#
#
# Elastic Constant Matrix: (Units=GPa)
#
#
# Indices 1 2 3 4 5 6 
#
# 1 106.2787 16.3663 20.1527 -0.6280 -32.5952 3.2929
# 2 16.3663 88.0611 22.8160 11.2046 10.4795 11.6940
# 3 20.1527 22.8160 102.7542 1.5950 -50.4538 10.4677
# 4 -0.6280 11.2046 1.5950 36.4031 -8.6314 -7.3791
# 5 -32.5952 10.4795 -50.4538 -8.6314 8.8418 -4.2737
# 6 3.2929 11.6940 10.4677 -7.3791 -4.2737 37.0892
#
#
#
# Elastic Compliance Matrix: (Units=1/GPa)
#
#
# Indices 1 2 3 4 5 6 
#
# 1 0.007788 0.001402 -0.005727 -0.002164 -0.008171 -0.000889
# 2 0.001402 0.009405 0.003417 -0.000984 0.011126 -0.002968
# 3 -0.005727 0.003417 0.003079 -0.005818 -0.015381 -0.004368
# 4 -0.002164 -0.000984 -0.005818 0.026625 -0.011036 0.006170
# 5 -0.008171 0.011126 -0.015381 -0.011036 -0.030775 -0.004183
# 6 -0.000889 -0.002968 -0.004368 0.006170 -0.004183 0.029955
#
#
# Mechanical properties :
#
#
# Convention : Reuss Voigt Hill
#
# Bulk Modulus (GPa) = 54.17768 46.19601 50.18684
# Shear Modulus (GPa) = 92.51704 32.31742 62.41723
#
# Velocity S-wave (km/s) = 6.36706 3.76311 5.22974
# Velocity P-wave (km/s) = 8.82000 6.25489 7.64578
#
# Compressibility (1/GPa) = 0.01845779
#
# Stress axis : x y z
#
# Youngs Moduli (GPa) = 128.40246 106.32475 324.76785
#
# Poissons Ratio (x) = -0.14907 1.85979
# Poissons Ratio (y) = -0.18003 -1.10980
# Poissons Ratio (z) = 0.73530 -0.36333
#
# Static dielectric constant tensor:
#      x y z
#    x 2.051330 -0.212020 0.181860 
#    y -0.212020 2.081910 -0.144010 
#    z 0.181860 -0.144010 1.975890 
# 
# From -- ./inp_files/345811.got.cif
#   From: 2010.05.17/outbox.cif.g08.bks.cpg/sg2_173_cif.got.tgz:345811.got - 2010.06.03 11:33:40.
