data_PCOD9057720
_publ_section_title
;
Structure prediction by ZEFSAII (Michael W. Deem and Ramdas Pophale) SiO2 
 PCOD9057720
Probable space group: P -1
;
_chemical_formula_sum "Si O2"
_cell_formula_units_Z 14
_cell_length_a 9.395401
_cell_length_b 11.521740
_cell_length_c 15.351897
_cell_angle_alpha 151.805236
_cell_angle_beta 130.781006
_cell_angle_gamma 55.031328
_cell_volume 594.533333
_symmetry_space_group_name_H-M "P -1"
_symmetry_group_IT_number 2
_symmetry_cell_setting 'triclinic'
loop_
_space_group_symop_operation_xyz
x,y,z
-x,-y,-z
loop_
_atom_site_type_symbol
_atom_site_label
_atom_site_fract_x
_atom_site_fract_y
_atom_site_fract_z
Si Si1 0.761928 0.597380 0.263148
Si Si2 0.820468 0.244583 0.891966
Si Si3 0.464918 0.957083 0.609872
Si Si4 0.402177 0.484992 0.161698
Si Si5 0.245787 0.065319 0.937028
Si Si6 0.386780 0.244447 0.298346
Si Si7 0.108208 0.565470 0.498900
O O1 0.801225 0.387917 0.069848
O O2 0.599961 0.503163 0.201958
O O3 0.953481 0.656377 0.428643
O O4 0.679222 0.833333 0.336823
O O5 0.026846 0.140821 0.895556
O O6 0.757588 0.431784 0.915325
O O7 0.660070 0.034093 0.691520
O O8 0.405129 0.694089 0.375512
O O9 0.496527 0.933892 0.710026
O O10 0.354746 0.232430 0.022097
O O11 0.317686 0.127148 0.103417
O O12 0.252778 0.781694 0.724588
O O13 0.500000 0.500000 0.500000
O O14 0.208890 0.331217 0.342678
O O15 0.000000 0.500000 0.500000
#
# Coordination Sequence:
#
# PCOD9057720 Si02
#       7
#     2   2   2   2   2   2   2
#     4  11  24  46  73 109 138 190 244 292 349 427
#     4  11  23  43  74 107 140 189 241 296 350 421
#     4  11  23  44  73 100 148 185 238 292 349 428
#     4  11  22  43  69 106 142 186 236 292 363 416
#     4  12  26  47  73 105 149 186 234 301 355 425
#     4  12  27  49  71 110 146 187 237 296 363 417
#     4  12  28  49  76 106 143 191 241 290 358 429
#
# _framework density 23.547878999999998
#
# number of rings (size 3 to 8) (size 9 to 14) (size 15 to 20)
#    0.000    0.571    2.857    7.286    2.000    4.000 
#    2.571    2.143    0.000    0.000    0.000    0.000 
#    0.000    0.000    0.000    0.000    0.000    0.000 
#
# Total GULP energy -78569.551406 kJ/mol
# GULP energy per Si atom -5612.110815 kJ/mol
# Density = 2.349428 g / cm^3
# Si number density = 23.547879 Si / 1000 Ang^3
#
#
#
# Elastic Constant Matrix: (Units=GPa)
#
#
# Indices 1 2 3 4 5 6 
#
# 1 52.2261 24.0515 6.9594 -0.3618 -13.9898 -6.7705
# 2 24.0515 118.0664 32.2696 -17.4181 0.9064 12.6863
# 3 6.9594 32.2696 115.1710 -5.1738 -9.3219 7.2192
# 4 -0.3618 -17.4181 -5.1738 46.8251 6.3862 4.4467
# 5 -13.9898 0.9064 -9.3219 6.3862 35.0883 0.3998
# 6 -6.7705 12.6863 7.2192 4.4467 0.3998 48.4393
#
#
#
# Elastic Compliance Matrix: (Units=1/GPa)
#
#
# Indices 1 2 3 4 5 6 
#
# 1 0.025953 -0.006816 0.000721 -0.004349 0.011443 0.005610
# 2 -0.006816 0.011843 -0.002800 0.005062 -0.004642 -0.004063
# 3 0.000721 -0.002800 0.009690 -0.000317 0.002999 -0.000606
# 4 -0.004349 0.005062 -0.000317 0.024423 -0.006347 -0.004076
# 5 0.011443 -0.004642 0.002999 -0.006347 0.035103 0.002661
# 6 0.005610 -0.004063 -0.000606 -0.004076 0.002661 0.022935
#
#
# Mechanical properties :
#
#
# Convention : Reuss Voigt Hill
#
# Bulk Modulus (GPa) = 33.67578 45.78052 39.72815
# Shear Modulus (GPa) = 31.71860 40.88273 36.30066
#
# Velocity S-wave (km/s) = 3.67411 4.17124 3.93054
# Velocity P-wave (km/s) = 5.68602 6.53319 6.12427
#
# Compressibility (1/GPa) = 0.02969493
#
# Stress axis : x y z
#
# Youngs Moduli (GPa) = 38.53164 84.44036 103.19753
#
# Poissons Ratio (x) = 0.57555 -0.07437
# Poissons Ratio (y) = 0.26263 0.28895
# Poissons Ratio (z) = -0.02777 0.23643
#
# Static dielectric constant tensor:
#      x y z
#    x 1.870670 -0.007870 0.007130 
#    y -0.007870 1.873170 -0.006840 
#    z 0.007130 -0.006840 1.876690 
# 
# From -- ./inp_files/188253.got.cif
#   From: 2010.05.17/outbox.cif.g08.bks.cpg/sg2_95_cif.got.tgz:188253.got - 2010.06.03 11:33:40.
