data_PCOD9057719
_publ_section_title
;
Structure prediction by ZEFSAII (Michael W. Deem and Ramdas Pophale) SiO2 
 PCOD9057719
Probable space group: P -1
;
_chemical_formula_sum "Si O2"
_cell_formula_units_Z 14
_cell_length_a 13.862765
_cell_length_b 14.113180
_cell_length_c 8.122975
_cell_angle_alpha 99.500636
_cell_angle_beta 122.139670
_cell_angle_gamma 34.393537
_cell_volume 623.148087
_symmetry_space_group_name_H-M "P -1"
_symmetry_group_IT_number 2
_symmetry_cell_setting 'triclinic'
loop_
_space_group_symop_operation_xyz
x,y,z
-x,-y,-z
loop_
_atom_site_type_symbol
_atom_site_label
_atom_site_fract_x
_atom_site_fract_y
_atom_site_fract_z
Si Si1 0.259411 0.517721 0.096870
Si Si2 0.724913 0.469918 0.505499
Si Si3 0.785851 0.116380 0.735262
Si Si4 0.275123 0.291432 0.123632
Si Si5 0.767832 0.908541 0.576531
Si Si6 0.909633 0.658232 0.353111
Si Si7 0.749373 0.239299 0.394987
O O1 0.224640 0.584559 0.269285
O O2 0.354446 0.339636 0.160849
O O3 0.470076 0.413228 0.149382
O O4 0.990003 0.707236 0.833146
O O5 0.446394 0.706374 0.308859
O O6 0.774753 0.333758 0.417756
O O7 0.869595 0.452734 0.567245
O O8 0.741198 0.221292 0.575228
O O9 0.818572 0.985238 0.656212
O O10 0.000000 0.000000 0.000000
O O11 0.475977 0.111928 0.390431
O O12 0.262507 0.244620 0.926093
O O13 0.000000 0.500000 0.000000
O O14 0.803584 0.820997 0.418055
O O15 0.000000 0.500000 0.500000
O O16 0.000000 0.000000 0.500000
#
# Coordination Sequence:
#
# PCOD9057719 Si02
#       7
#     2   2   2   2   2   2   2
#     4  11  23  45  73 103 143 184 238 287 351 428
#     4  11  23  45  70 100 144 185 237 294 348 427
#     4  11  22  43  69 106 141 183 236 283 354 434
#     4  12  24  50  70 101 142 186 243 291 344 429
#     4  12  24  44  74 102 143 187 231 298 357 405
#     4  12  26  46  69 103 144 187 239 298 351 412
#     4  11  23  43  71 105 145 182 228 300 359 415
#
# _framework density 22.466569
#
# number of rings (size 3 to 8) (size 9 to 14) (size 15 to 20)
#    0.000    0.571    5.714    4.714    0.000    1.714 
#    2.571    4.286    0.000    0.000    0.000    0.000 
#    0.000    0.000    0.000    0.000    0.000    0.000 
#
# Total GULP energy -78059.492365 kJ/mol
# GULP energy per Si atom -5575.678026 kJ/mol
# Density = 2.241543 g / cm^3
# Si number density = 22.466569 Si / 1000 Ang^3
#
#
#
# Elastic Constant Matrix: (Units=GPa)
#
#
# Indices 1 2 3 4 5 6 
#
# 1 83.0651 33.2780 8.5945 -1.8824 17.8227 11.4185
# 2 33.2780 129.1385 46.1662 7.5833 21.0298 12.1924
# 3 8.5945 46.1662 137.0511 -17.7240 10.1254 -8.0522
# 4 -1.8824 7.5833 -17.7240 39.8763 4.7383 15.9929
# 5 17.8227 21.0298 10.1254 4.7383 26.8852 -2.4571
# 6 11.4185 12.1924 -8.0522 15.9929 -2.4571 37.3178
#
#
#
# Elastic Compliance Matrix: (Units=1/GPa)
#
#
# Indices 1 2 3 4 5 6 
#
# 1 0.016416 -0.002426 0.000937 0.005882 -0.011039 -0.007276
# 2 -0.002426 0.010957 -0.003550 -0.001834 -0.005594 -0.003186
# 3 0.000937 -0.003550 0.009252 0.004816 -0.002116 0.000666
# 4 0.005882 -0.001834 0.004816 0.035821 -0.012083 -0.016309
# 5 -0.011039 -0.005594 -0.002116 -0.012083 0.053042 0.013419
# 6 -0.007276 -0.003186 0.000666 -0.016309 0.013419 0.038081
#
#
# Mechanical properties :
#
#
# Convention : Reuss Voigt Hill
#
# Bulk Modulus (GPa) = 37.66952 58.37024 48.01988
# Shear Modulus (GPa) = 27.39789 38.23027 32.81408
#
# Velocity S-wave (km/s) = 3.49592 4.12958 3.82589
# Velocity P-wave (km/s) = 5.75314 6.98393 6.39820
#
# Compressibility (1/GPa) = 0.02654666
#
# Stress axis : x y z
#
# Youngs Moduli (GPa) = 60.91681 91.26401 108.08564
#
# Poissons Ratio (x) = 0.22139 -0.10123
# Poissons Ratio (y) = 0.14777 0.38369
# Poissons Ratio (z) = -0.05705 0.32398
#
# Static dielectric constant tensor:
#      x y z
#    x 1.845310 -0.011780 0.053120 
#    y -0.011780 1.883000 -0.019240 
#    z 0.053120 -0.019240 1.995940 
# 
# From -- ./inp_files/227345.got.cif
#   From: 2010.05.17/outbox.cif.g08.bks.cpg/sg2_114_cif.got.tgz:227345.got - 2010.06.03 11:33:40.
