data_PCOD9057240
_publ_section_title
;
Structure prediction by ZEFSAII (Michael W. Deem and Ramdas Pophale) SiO2 
 PCOD9057240
Probable space group: P -1
;
_chemical_formula_sum "Si O2"
_cell_formula_units_Z 16
_cell_length_a 11.183719
_cell_length_b 5.981570
_cell_length_c 22.445808
_cell_angle_alpha 74.991374
_cell_angle_beta 146.618653
_cell_angle_gamma 115.605598
_cell_volume 729.138510
_symmetry_space_group_name_H-M "P -1"
_symmetry_group_IT_number 2
_symmetry_cell_setting 'triclinic'
loop_
_space_group_symop_operation_xyz
x,y,z
-x,-y,-z
loop_
_atom_site_type_symbol
_atom_site_label
_atom_site_fract_x
_atom_site_fract_y
_atom_site_fract_z
Si Si1 0.100167 0.318593 0.227152
Si Si2 0.317488 0.244312 0.078935
Si Si3 0.164507 0.471055 0.683528
Si Si4 0.148069 0.859162 0.322315
Si Si5 0.042561 0.966240 0.588746
Si Si6 0.007200 0.260472 0.053662
Si Si7 0.479297 0.298370 0.556405
Si Si8 0.236917 0.456333 0.913285
O O1 0.088385 0.279467 0.154163
O O2 0.334551 0.570181 0.321577
O O3 0.842992 0.313202 0.137077
O O4 0.138427 0.127383 0.302013
O O5 0.586734 0.436821 0.184439
O O6 0.194543 0.200379 0.095217
O O7 0.199583 0.358346 0.972383
O O8 0.254666 0.965488 0.046031
O O9 0.149011 0.745629 0.646785
O O10 0.950231 0.316836 0.649650
O O11 0.160427 0.253138 0.648483
O O12 0.407116 0.885793 0.409936
O O13 0.957349 0.734846 0.198394
O O14 0.787194 0.835211 0.523279
O O15 0.000000 0.000000 0.500000
O O16 0.000000 0.500000 0.000000
O O17 0.500000 0.500000 0.500000
O O18 0.500000 0.500000 0.000000
#
# Coordination Sequence:
#
# PCOD9057240 Si02
#       8
#     2   2   2   2   2   2   2   2
#     4  11  25  40  73 103 138 193 244 300 359 452
#     4  11  25  43  70 101 147 187 234 300 361 447
#     4  12  28  48  78 110 146 192 247 308 375 443
#     4  11  24  43  73 109 140 185 249 297 371 444
#     4  12  30  52  75 110 149 194 253 313 379 434
#     4  11  24  44  67 100 143 193 241 284 370 443
#     4  11  25  47  75 103 146 192 251 313 374 439
#     4  11  22  42  63 105 144 180 231 291 364 432
#
# _framework density 21.943702999999999
#
# number of rings (size 3 to 8) (size 9 to 14) (size 15 to 20)
#    0.000    0.750    5.000    1.125    7.000    2.500 
#    0.000    0.000    0.000    0.000    0.000    0.000 
#    0.000    0.000    0.000    0.000    0.000    0.000 
#
# Total GULP energy -89160.524992 kJ/mol
# GULP energy per Si atom -5572.532812 kJ/mol
# Density = 2.189376 g / cm^3
# Si number density = 21.943703 Si / 1000 Ang^3
#
#
#
# Elastic Constant Matrix: (Units=GPa)
#
#
# Indices 1 2 3 4 5 6 
#
# 1 72.5053 12.8173 28.7398 3.3101 -21.8622 -6.1129
# 2 12.8173 107.6113 31.0536 -15.5194 -12.3269 -15.3301
# 3 28.7398 31.0536 73.3687 7.7379 -28.0288 -19.8644
# 4 3.3101 -15.5194 7.7379 45.2092 -7.4246 -0.4744
# 5 -21.8622 -12.3269 -28.0288 -7.4246 36.9130 0.1935
# 6 -6.1129 -15.3301 -19.8644 -0.4744 0.1935 29.5736
#
#
#
# Elastic Compliance Matrix: (Units=1/GPa)
#
#
# Indices 1 2 3 4 5 6 
#
# 1 0.017675 0.000138 -0.003768 0.000689 0.007786 0.001154
# 2 0.000138 0.011886 -0.003781 0.005116 0.002189 0.003717
# 3 -0.003768 -0.003781 0.027718 -0.002826 0.016902 0.015723
# 4 0.000689 0.005116 -0.002826 0.025147 0.005022 0.001267
# 5 0.007786 0.002189 0.016902 0.005022 0.046204 0.013875
# 6 0.001154 0.003717 0.015723 0.001267 0.013875 0.046470
#
#
# Mechanical properties :
#
#
# Convention : Reuss Voigt Hill
#
# Bulk Modulus (GPa) = 23.55386 44.30075 33.92731
# Shear Modulus (GPa) = 24.50087 34.39745 29.44916
#
# Velocity S-wave (km/s) = 3.34508 3.96350 3.66735
# Velocity P-wave (km/s) = 5.06720 6.41701 5.78163
#
# Compressibility (1/GPa) = 0.04245588
#
# Stress axis : x y z
#
# Youngs Moduli (GPa) = 56.57840 84.13547 36.07740
#
# Poissons Ratio (x) = -0.01158 0.13592
# Poissons Ratio (y) = -0.00779 0.13642
# Poissons Ratio (z) = 0.21316 0.31815
#
# Static dielectric constant tensor:
#      x y z
#    x 1.858990 -0.120690 -0.031410 
#    y -0.120690 1.956040 0.026520 
#    z -0.031410 0.026520 1.796280 
# 
# From -- ./inp_files/72196.got.cif
#   From: 2010.05.17/outbox.cif.g08.bks.cpg/sg2_37_cif.got.tgz:72196.got - 2010.06.03 11:33:40.
