data_PCOD9057155
_publ_section_title
;
Structure prediction by ZEFSAII (Michael W. Deem and Ramdas Pophale) SiO2 
 PCOD9057155
Probable space group: P -1
;
_chemical_formula_sum "Si O2"
_cell_formula_units_Z 14
_cell_length_a 12.239286
_cell_length_b 16.163802
_cell_length_c 9.149353
_cell_angle_alpha 52.142571
_cell_angle_beta 143.138232
_cell_angle_gamma 144.264350
_cell_volume 630.861653
_symmetry_space_group_name_H-M "P -1"
_symmetry_group_IT_number 2
_symmetry_cell_setting 'triclinic'
loop_
_space_group_symop_operation_xyz
x,y,z
-x,-y,-z
loop_
_atom_site_type_symbol
_atom_site_label
_atom_site_fract_x
_atom_site_fract_y
_atom_site_fract_z
Si Si1 0.009226 0.968445 0.271044
Si Si2 0.107067 0.477942 0.272820
Si Si3 0.133471 0.651999 0.544117
Si Si4 0.642836 0.651257 0.338203
Si Si5 0.358407 0.055266 0.276500
Si Si6 0.389166 0.258837 0.476514
Si Si7 0.706051 0.587551 0.997862
O O1 0.182805 0.005916 0.279898
O O2 0.207722 0.089503 0.468236
O O3 0.843239 0.804523 0.311370
O O4 0.816506 0.985544 0.003576
O O5 0.233710 0.415440 0.438371
O O6 0.328955 0.641209 0.386625
O O7 0.915547 0.373816 0.307614
O O8 0.000000 0.500000 0.000000
O O9 0.417732 0.774353 0.677110
O O10 0.000000 0.500000 0.500000
O O11 0.966596 0.675623 0.262137
O O12 0.593254 0.685041 0.404282
O O13 0.399235 0.536378 0.101605
O O14 0.500000 0.000000 0.500000
O O15 0.285268 0.301683 0.202371
O O16 0.500000 0.500000 0.000000
#
# Coordination Sequence:
#
# PCOD9057155 Si02
#       7
#     2   2   2   2   2   2   2
#     4  11  25  46  70  98 145 183 232 285 343 418
#     4  11  25  43  66 100 141 174 231 294 341 408
#     4  12  24  39  68 102 130 170 233 285 345 404
#     4  11  24  45  70  96 138 189 225 283 355 412
#     4  11  25  43  70 103 140 179 230 291 347 405
#     4  11  24  44  69  99 135 187 226 275 358 417
#     4  11  22  41  71  97 132 174 230 289 339 400
#
# _framework density 22.191869000000001
#
# number of rings (size 3 to 8) (size 9 to 14) (size 15 to 20)
#    0.000    0.857    2.857    5.571   10.000    0.000 
#    2.571    0.714    0.000    0.000    0.000    0.000 
#    0.000    0.000    0.000    0.000    0.000    0.000 
#
# Total GULP energy -78228.704634 kJ/mol
# GULP energy per Si atom -5587.764617 kJ/mol
# Density = 2.214136 g / cm^3
# Si number density = 22.191869 Si / 1000 Ang^3
#
#
#
# Elastic Constant Matrix: (Units=GPa)
#
#
# Indices 1 2 3 4 5 6 
#
# 1 54.8012 6.9380 16.6873 -2.1479 -10.0760 7.4228
# 2 6.9380 155.1765 36.6160 16.1322 -2.7420 15.5416
# 3 16.6873 36.6160 129.5504 -4.4697 -2.8119 6.2589
# 4 -2.1479 16.1322 -4.4697 22.4229 3.0317 -1.2879
# 5 -10.0760 -2.7420 -2.8119 3.0317 33.8000 -0.5789
# 6 7.4228 15.5416 6.2589 -1.2879 -0.5789 42.7762
#
#
#
# Elastic Compliance Matrix: (Units=1/GPa)
#
#
# Indices 1 2 3 4 5 6 
#
# 1 0.020471 -0.000004 -0.002341 0.000533 0.005806 -0.003114
# 2 -0.000004 0.007956 -0.002318 -0.006476 0.000986 -0.002732
# 3 -0.002341 -0.002318 0.008776 0.003257 -0.000447 0.000056
# 4 0.000533 -0.006476 0.003257 0.050765 -0.004593 0.003250
# 5 0.005806 0.000986 -0.000447 -0.004593 0.031754 -0.001009
# 6 -0.003114 -0.002732 0.000056 0.003250 -0.001009 0.024986
#
#
# Mechanical properties :
#
#
# Convention : Reuss Voigt Hill
#
# Bulk Modulus (GPa) = 35.87208 51.11230 43.49219
# Shear Modulus (GPa) = 30.61354 38.41896 34.51625
#
# Velocity S-wave (km/s) = 3.71818 4.16530 3.94808
# Velocity P-wave (km/s) = 5.88496 6.79816 6.35798
#
# Compressibility (1/GPa) = 0.02787683
#
# Stress axis : x y z
#
# Youngs Moduli (GPa) = 48.84876 125.69419 113.95133
#
# Poissons Ratio (x) = 0.00049 0.26675
# Poissons Ratio (y) = 0.00019 0.26416
# Poissons Ratio (z) = 0.11435 0.29138
#
# Static dielectric constant tensor:
#      x y z
#    x 1.893430 -0.037890 0.056640 
#    y -0.037890 1.841450 -0.032880 
#    z 0.056640 -0.032880 1.954530 
# 
# From -- ./inp_files/279149.got.cif
#   From: 2010.05.17/outbox.cif.g08.bks.cpg/sg2_140_cif.got.tgz:279149.got - 2010.06.03 11:33:40.
