data_PCOD9057595
_publ_section_title
;
Structure prediction by ZEFSAII (Michael W. Deem and Ramdas Pophale) SiO2 
 PCOD9057595
Probable space group: P -1
;
_chemical_formula_sum "Si O2"
_cell_formula_units_Z 14
_cell_length_a 12.762002
_cell_length_b 9.725874
_cell_length_c 16.710820
_cell_angle_alpha 50.881675
_cell_angle_beta 155.362518
_cell_angle_gamma 134.136194
_cell_volume 620.549206
_symmetry_space_group_name_H-M "P -1"
_symmetry_group_IT_number 2
_symmetry_cell_setting 'triclinic'
loop_
_space_group_symop_operation_xyz
x,y,z
-x,-y,-z
loop_
_atom_site_type_symbol
_atom_site_label
_atom_site_fract_x
_atom_site_fract_y
_atom_site_fract_z
Si Si1 0.985711 0.040880 0.260469
Si Si2 0.014863 0.549194 0.587866
Si Si3 0.613548 0.739448 0.004014
Si Si4 0.147787 0.624321 0.982631
Si Si5 0.625620 0.590969 0.907770
Si Si6 0.364289 0.848905 0.531484
Si Si7 0.238557 0.146594 0.665938
O O1 0.794610 0.943196 0.088865
O O2 0.802729 0.961872 0.239491
O O3 0.042520 0.263483 0.217727
O O4 0.227469 0.960251 0.454302
O O5 0.874734 0.336894 0.602689
O O6 0.825626 0.664870 0.432033
O O7 0.000000 0.500000 0.500000
O O8 0.302498 0.682290 0.778099
O O9 0.575536 0.593336 0.107925
O O10 0.754958 0.719650 0.026758
O O11 0.211524 0.500907 0.001350
O O12 0.444377 0.773249 0.163242
O O13 0.000000 0.500000 0.000000
O O14 0.531530 0.737182 0.735002
O O15 0.500000 0.000000 0.500000
O O16 0.000000 0.000000 0.500000
#
# Coordination Sequence:
#
# PCOD9057595 Si02
#       7
#     2   2   2   2   2   2   2
#     4  12  25  45  72 104 143 187 249 295 360 440
#     4  12  21  44  75 102 138 183 244 303 355 427
#     4  11  22  42  79 111 130 181 259 309 349 422
#     4  12  26  47  69 106 153 190 231 306 375 435
#     4  11  22  43  74 105 142 188 243 298 367 426
#     4  12  24  44  70 106 148 191 234 296 365 437
#     4  12  25  45  74 103 141 192 249 296 355 441
#
# _framework density 22.560659999999999
#
# number of rings (size 3 to 8) (size 9 to 14) (size 15 to 20)
#    0.000    0.286    5.714    3.857    2.000    0.000 
#    0.000   10.000    0.000    0.000    0.000    0.000 
#    0.000    0.000    0.000    0.000    0.000    0.000 
#
# Total GULP energy -77951.006793 kJ/mol
# GULP energy per Si atom -5567.929057 kJ/mol
# Density = 2.250931 g / cm^3
# Si number density = 22.560660 Si / 1000 Ang^3
#
#
#
# Elastic Constant Matrix: (Units=GPa)
#
#
# Indices 1 2 3 4 5 6 
#
# 1 132.8555 64.1778 26.0605 -11.1879 -2.8715 -2.1622
# 2 64.1778 88.3404 26.1107 -35.7974 1.1281 -4.3180
# 3 26.0605 26.1107 93.3614 -38.8550 -16.3564 -17.2154
# 4 -11.1879 -35.7974 -38.8550 53.1922 -10.9083 -2.4792
# 5 -2.8715 1.1281 -16.3564 -10.9083 32.3092 -1.9502
# 6 -2.1622 -4.3180 -17.2154 -2.4792 -1.9502 48.8503
#
#
#
# Elastic Compliance Matrix: (Units=1/GPa)
#
#
# Indices 1 2 3 4 5 6 
#
# 1 0.014335 -0.013735 -0.007883 -0.013646 -0.007106 -0.004334
# 2 -0.013735 0.029720 0.011156 0.028390 0.013453 0.007928
# 3 -0.007883 0.011156 0.032740 0.036352 0.028673 0.015165
# 4 -0.013646 0.028390 0.036352 0.071005 0.041377 0.019972
# 5 -0.007106 0.013453 0.028673 0.041377 0.059267 0.015445
# 6 -0.004334 0.007928 0.015165 0.019972 0.015445 0.027954
#
#
# Mechanical properties :
#
#
# Convention : Reuss Voigt Hill
#
# Bulk Modulus (GPa) = 17.89847 60.80613 39.35230
# Shear Modulus (GPa) = 18.21032 40.08424 29.14728
#
# Velocity S-wave (km/s) = 2.84416 4.21970 3.59827
# Velocity P-wave (km/s) = 4.32855 7.12404 5.89442
#
# Compressibility (1/GPa) = 0.05587070
#
# Stress axis : x y z
#
# Youngs Moduli (GPa) = 69.76035 33.64702 30.54367
#
# Poissons Ratio (x) = 0.46213 0.24079
# Poissons Ratio (y) = 0.95813 -0.34074
# Poissons Ratio (z) = 0.54995 -0.37536
#
# Static dielectric constant tensor:
#      x y z
#    x 1.864330 -0.042960 0.075370 
#    y -0.042960 1.933790 -0.079470 
#    z 0.075370 -0.079470 2.068020 
# 
# From -- ./inp_files/566585.got.cif
#   From: 2010.05.17/outbox.cif.g08.bks.cpg/sg2_284_cif.got.tgz:566585.got - 2010.06.03 11:33:40.
