data_PCOD9057721
_publ_section_title
;
Structure prediction by ZEFSAII (Michael W. Deem and Ramdas Pophale) SiO2 
 PCOD9057721
Probable space group: P -1
;
_chemical_formula_sum "Si O2"
_cell_formula_units_Z 14
_cell_length_a 9.313061
_cell_length_b 21.093536
_cell_length_c 7.875336
_cell_angle_alpha 117.119851
_cell_angle_beta 109.598409
_cell_angle_gamma 22.566920
_cell_volume 511.600440
_symmetry_space_group_name_H-M "P -1"
_symmetry_group_IT_number 2
_symmetry_cell_setting 'triclinic'
loop_
_space_group_symop_operation_xyz
x,y,z
-x,-y,-z
loop_
_atom_site_type_symbol
_atom_site_label
_atom_site_fract_x
_atom_site_fract_y
_atom_site_fract_z
Si Si1 0.919209 0.209228 0.130814
Si Si2 0.062807 0.289968 0.446105
Si Si3 0.875064 0.509167 0.800802
Si Si4 0.915758 0.855583 0.271597
Si Si5 0.131862 0.367106 0.275569
Si Si6 0.403212 0.152612 0.843725
Si Si7 0.909019 0.087549 0.406793
O O1 0.586521 0.295969 0.142500
O O2 0.850377 0.307294 0.343103
O O3 0.327924 0.001134 0.092190
O O4 0.922135 0.226078 0.952960
O O5 0.964239 0.384122 0.364782
O O6 0.999914 0.372920 0.675494
O O7 0.511815 0.072609 0.356783
O O8 0.024758 0.488652 0.671520
O O9 0.000000 0.500000 0.000000
O O10 0.819070 0.822228 0.282469
O O11 0.179304 0.794988 0.413188
O O12 0.572294 0.194366 0.298911
O O13 0.137585 0.319863 0.045627
O O14 0.716462 0.059344 0.740606
O O15 0.000000 0.000000 0.500000
#
# Coordination Sequence:
#
# PCOD9057721 Si02
#       7
#     2   2   2   2   2   2   2
#     4  11  22  48  73 100 138 184 231 285 345 412
#     4  11  23  47  69 101 141 186 224 278 348 417
#     4  12  30  45  68 100 142 185 234 282 342 412
#     4  11  23  42  75 104 140 175 233 285 342 417
#     4  12  24  44  70  98 140 182 230 284 347 404
#     4  11  22  43  69 107 134 182 229 287 347 406
#     4  12  24  37  69 110 142 171 225 291 348 399
#
# _framework density 27.365106000000001
#
# number of rings (size 3 to 8) (size 9 to 14) (size 15 to 20)
#    0.000    0.571    5.714    2.571    6.000    0.000 
#    0.000    0.714    0.000    0.000    0.000    0.000 
#    0.000    0.000    0.000    0.000    0.000    0.000 
#
# Total GULP energy -78497.327274 kJ/mol
# GULP energy per Si atom -5606.951948 kJ/mol
# Density = 2.730282 g / cm^3
# Si number density = 27.365106 Si / 1000 Ang^3
#
#
#
# Elastic Constant Matrix: (Units=GPa)
#
#
# Indices 1 2 3 4 5 6 
#
# 1 157.4620 12.3170 25.0241 -10.7782 19.5407 12.0213
# 2 12.3170 37.0558 -2.4573 -0.5067 22.5374 5.7302
# 3 25.0241 -2.4573 137.3205 -11.3361 27.6663 1.8204
# 4 -10.7782 -0.5067 -11.3361 40.5231 -1.3143 14.4398
# 5 19.5407 22.5374 27.6663 -1.3143 62.5998 -3.2394
# 6 12.0213 5.7302 1.8204 14.4398 -3.2394 55.4733
#
#
#
# Elastic Compliance Matrix: (Units=1/GPa)
#
#
# Indices 1 2 3 4 5 6 
#
# 1 0.007071 -0.001126 -0.000782 0.002343 -0.001515 -0.002089
# 2 -0.001126 0.037900 0.004293 0.002816 -0.015414 -0.005445
# 3 -0.000782 0.004293 0.008795 0.002696 -0.005213 -0.001569
# 4 0.002343 0.002816 0.002696 0.029070 -0.002772 -0.008616
# 5 -0.001515 -0.015414 -0.005213 -0.002772 0.024462 0.004242
# 6 -0.002089 -0.005445 -0.001569 -0.008616 0.004242 0.021584
#
#
# Mechanical properties :
#
#
# Convention : Reuss Voigt Hill
#
# Bulk Modulus (GPa) = 17.08309 44.62289 30.85299
# Shear Modulus (GPa) = 34.81307 51.51619 43.16463
#
# Velocity S-wave (km/s) = 3.57062 4.34354 3.97591
# Velocity P-wave (km/s) = 4.82237 6.44182 5.69001
#
# Compressibility (1/GPa) = 0.05853743
#
# Stress axis : x y z
#
# Youngs Moduli (GPa) = 141.42315 26.38497 113.69694
#
# Poissons Ratio (x) = 0.02970 0.08895
# Poissons Ratio (y) = 0.15920 -0.48815
# Poissons Ratio (z) = 0.11064 -0.11328
#
# Static dielectric constant tensor:
#      x y z
#    x 2.070270 0.049720 -0.026500 
#    y 0.049720 2.200620 -0.036630 
#    z -0.026500 -0.036630 2.195580 
# 
# From -- ./inp_files/157949.got.cif
#   From: 2010.05.17/outbox.cif.g08.bks.cpg/sg2_79_cif.got.tgz:157949.got - 2010.06.03 11:33:40.
