data_PCOD9057183
_publ_section_title
;
Structure prediction by ZEFSAII (Michael W. Deem and Ramdas Pophale) SiO2 
 PCOD9057183
Probable space group: P -1
;
_chemical_formula_sum "Si O2"
_cell_formula_units_Z 14
_cell_length_a 9.693888
_cell_length_b 9.213203
_cell_length_c 11.345428
_cell_angle_alpha 98.588443
_cell_angle_beta 96.840134
_cell_angle_gamma 34.587214
_cell_volume 568.735326
_symmetry_space_group_name_H-M "P -1"
_symmetry_group_IT_number 2
_symmetry_cell_setting 'triclinic'
loop_
_space_group_symop_operation_xyz
x,y,z
-x,-y,-z
loop_
_atom_site_type_symbol
_atom_site_label
_atom_site_fract_x
_atom_site_fract_y
_atom_site_fract_z
Si Si1 0.254549 0.731606 0.427729
Si Si2 0.474571 0.962849 0.211903
Si Si3 0.142257 0.414896 0.622999
Si Si4 0.209921 0.804649 0.902371
Si Si5 0.648618 0.603709 0.001735
Si Si6 0.182272 0.503193 0.235449
Si Si7 0.095457 0.085127 0.282113
O O1 0.500000 0.500000 0.500000
O O2 0.225141 0.608346 0.333079
O O3 0.284321 0.843329 0.356989
O O4 0.000000 0.000000 0.500000
O O5 0.581401 0.851325 0.341912
O O6 0.399975 0.195019 0.218752
O O7 0.243599 0.051119 0.196580
O O8 0.631624 0.766484 0.094776
O O9 0.000000 0.500000 0.500000
O O10 0.022250 0.416205 0.711873
O O11 0.082976 0.637954 0.652055
O O12 0.406679 0.759919 0.927793
O O13 0.073363 0.900133 0.778562
O O14 0.325245 0.547024 0.916426
O O15 0.000000 0.000000 0.000000
O O16 0.849520 0.430411 0.897861
#
# Coordination Sequence:
#
# PCOD9057183 Si02
#       7
#     2   2   2   2   2   2   2
#     4  12  31  51  79 113 155 203 267 332 392 456
#     4  11  25  46  74 108 148 204 255 307 395 465
#     4  11  26  47  73  99 147 200 260 317 382 460
#     4  11  22  41  72 106 148 197 249 310 388 457
#     4  11  24  43  72 111 155 196 254 316 384 470
#     4  11  28  45  71 113 147 202 249 329 383 459
#     4  11  25  45  73 107 144 200 259 314 385 463
#
# _framework density 24.616018
#
# number of rings (size 3 to 8) (size 9 to 14) (size 15 to 20)
#    0.000    0.857    2.857    2.143   12.000    2.857 
#    0.000    0.000    0.000    0.000    0.000    0.000 
#    0.000    0.000    0.000    0.000    0.000    0.000 
#
# Total GULP energy -78183.378413 kJ/mol
# GULP energy per Si atom -5584.527030 kJ/mol
# Density = 2.455999 g / cm^3
# Si number density = 24.616018 Si / 1000 Ang^3
#
#
#
# Elastic Constant Matrix: (Units=GPa)
#
#
# Indices 1 2 3 4 5 6 
#
# 1 103.2095 34.7694 38.2224 -2.7490 -0.1438 14.1843
# 2 34.7694 88.4649 27.4959 -3.7511 11.4942 24.2318
# 3 38.2224 27.4959 110.7068 -1.5251 19.7741 3.1537
# 4 -2.7490 -3.7511 -1.5251 50.1554 6.6475 5.0878
# 5 -0.1438 11.4942 19.7741 6.6475 33.9370 -0.2143
# 6 14.1843 24.2318 3.1537 5.0878 -0.2143 39.7757
#
#
#
# Elastic Compliance Matrix: (Units=1/GPa)
#
#
# Indices 1 2 3 4 5 6 
#
# 1 0.012707 -0.003667 -0.004073 0.000013 0.003654 -0.001957
# 2 -0.003667 0.016490 -0.001604 0.002586 -0.005229 -0.008970
# 3 -0.004073 -0.001604 0.011989 0.000759 -0.006599 0.001347
# 4 0.000013 0.002586 0.000759 0.021334 -0.005525 -0.004399
# 5 0.003654 -0.005229 -0.006599 -0.005525 0.036201 0.003307
# 6 -0.001957 -0.008970 0.001347 -0.004399 0.003307 0.031777
#
#
# Mechanical properties :
#
#
# Convention : Reuss Voigt Hill
#
# Bulk Modulus (GPa) = 44.45101 55.92851 50.18976
# Shear Modulus (GPa) = 31.91111 38.23319 35.07215
#
# Velocity S-wave (km/s) = 3.60440 3.94532 3.77871
# Velocity P-wave (km/s) = 5.95141 6.59725 6.28263
#
# Compressibility (1/GPa) = 0.02249668
#
# Stress axis : x y z
#
# Youngs Moduli (GPa) = 78.69633 60.64374 83.41257
#
# Poissons Ratio (x) = 0.22235 0.33977
# Poissons Ratio (y) = 0.28854 0.13383
# Poissons Ratio (z) = 0.32056 0.09730
#
# Static dielectric constant tensor:
#      x y z
#    x 2.083570 -0.110630 0.055510 
#    y -0.110630 2.076290 -0.016770 
#    z 0.055510 -0.016770 2.115840 
# 
# From -- ./inp_files/72581.got.cif
#   From: 2010.05.17/outbox.cif.g08.bks.cpg/sg2_37_cif.got.tgz:72581.got - 2010.06.03 11:33:40.
