data_PCOD9057998
_publ_section_title
;
Structure prediction by ZEFSAII (Michael W. Deem and Ramdas Pophale) SiO2 
 PCOD9057998
Probable space group: P -1
;
_chemical_formula_sum "Si O2"
_cell_formula_units_Z 16
_cell_length_a 23.941227
_cell_length_b 15.695035
_cell_length_c 9.671044
_cell_angle_alpha 118.480321
_cell_angle_beta 50.876442
_cell_angle_gamma 161.897133
_cell_volume 753.578978
_symmetry_space_group_name_H-M "P -1"
_symmetry_group_IT_number 2
_symmetry_cell_setting 'triclinic'
loop_
_space_group_symop_operation_xyz
x,y,z
-x,-y,-z
loop_
_atom_site_type_symbol
_atom_site_label
_atom_site_fract_x
_atom_site_fract_y
_atom_site_fract_z
Si Si1 0.483765 0.901291 0.069385
Si Si2 0.048284 0.825629 0.566515
Si Si3 0.485589 0.694335 0.221579
Si Si4 0.044941 0.776212 0.210271
Si Si5 0.779371 0.602517 0.333385
Si Si6 0.677177 0.156975 0.262697
Si Si7 0.862694 0.787598 0.863377
Si Si8 0.510856 0.740625 0.744062
O O1 0.209859 0.542864 0.267887
O O2 0.637806 0.121599 0.133696
O O3 0.563896 0.900646 0.882468
O O4 0.500000 0.000000 0.000000
O O5 0.062978 0.836251 0.385410
O O6 0.048276 0.937088 0.700907
O O7 0.262357 0.036476 0.453764
O O8 0.339070 0.486519 0.428058
O O9 0.308779 0.463621 0.189625
O O10 0.598428 0.946509 0.254844
O O11 0.701441 0.900887 0.008843
O O12 0.871024 0.622392 0.276985
O O13 0.934051 0.525749 0.190161
O O14 0.589222 0.347567 0.311763
O O15 0.001897 0.942840 0.183099
O O16 0.500000 0.000000 0.500000
O O17 0.700045 0.584907 0.096176
#
# Coordination Sequence:
#
# PCOD9057998 Si02
#       8
#     2   2   2   2   2   2   2   2
#     4  11  23  40  65  96 133 168 215 265 321 389
#     4  11  22  44  68  90 133 176 209 263 330 385
#     4  12  24  42  67 100 127 169 223 267 318 389
#     4  12  24  41  71  97 127 173 217 266 327 379
#     4  12  26  42  67 100 133 163 221 279 311 379
#     4  12  20  42  67  93 130 169 211 268 321 378
#     4  11  23  45  68  94 132 174 216 265 326 384
#     4  11  25  44  65  94 133 175 213 260 332 386
#
# _framework density 21.232013999999999
#
# number of rings (size 3 to 8) (size 9 to 14) (size 15 to 20)
#    0.000    0.500    7.500    1.875    0.000    5.500 
#    0.000    0.000    0.000    0.000    0.000    0.000 
#    0.000    0.000    0.000    0.000    0.000    0.000 
#
# Total GULP energy -89512.026605 kJ/mol
# GULP energy per Si atom -5594.501663 kJ/mol
# Density = 2.118369 g / cm^3
# Si number density = 21.232014 Si / 1000 Ang^3
#
#
#
# Elastic Constant Matrix: (Units=GPa)
#
#
# Indices 1 2 3 4 5 6 
#
# 1 50.4585 9.4150 7.4301 -2.3585 -1.4740 11.1032
# 2 9.4150 39.8260 0.2432 6.9686 -14.0824 6.5158
# 3 7.4301 0.2432 83.6278 -6.3373 -11.2296 20.3915
# 4 -2.3585 6.9686 -6.3373 28.7867 8.9460 5.5821
# 5 -1.4740 -14.0824 -11.2296 8.9460 39.6002 -3.3312
# 6 11.1032 6.5158 20.3915 5.5821 -3.3312 34.2301
#
#
#
# Elastic Compliance Matrix: (Units=1/GPa)
#
#
# Indices 1 2 3 4 5 6 
#
# 1 0.022845 -0.006449 -0.000242 0.005876 -0.003456 -0.007333
# 2 -0.006449 0.034663 0.002096 -0.012823 0.015395 -0.002165
# 3 -0.000242 0.002096 0.015020 0.003573 0.003388 -0.009522
# 4 0.005876 -0.012823 0.003573 0.045649 -0.014520 -0.010451
# 5 -0.003456 0.015395 0.003388 -0.014520 0.035003 0.001947
# 6 -0.007333 -0.002165 -0.009522 -0.010451 0.001947 0.039571
#
#
# Mechanical properties :
#
#
# Convention : Reuss Voigt Hill
#
# Bulk Modulus (GPa) = 15.78853 23.12097 19.45475
# Shear Modulus (GPa) = 22.41614 30.97834 26.69724
#
# Velocity S-wave (km/s) = 3.25279 3.82388 3.54984
# Velocity P-wave (km/s) = 4.64326 5.51447 5.09751
#
# Compressibility (1/GPa) = 0.06333711
#
# Stress axis : x y z
#
# Youngs Moduli (GPa) = 43.77419 28.84941 66.57580
#
# Poissons Ratio (x) = 0.18606 0.01609
# Poissons Ratio (y) = 0.28232 -0.13953
# Poissons Ratio (z) = 0.01058 -0.06046
#
# Static dielectric constant tensor:
#      x y z
#    x 1.763940 -0.017990 -0.010950 
#    y -0.017990 1.781560 -0.007730 
#    z -0.010950 -0.007730 1.759150 
# 
# From -- ./inp_files/347614.got.cif
#   From: 2010.05.17/outbox.cif.g08.bks.cpg/sg2_174_cif.got.tgz:347614.got - 2010.06.03 11:33:40.
