data_PCOD9057270
_publ_section_title
;
Structure prediction by ZEFSAII (Michael W. Deem and Ramdas Pophale) SiO2 
 PCOD9057270
Probable space group: P -1
;
_chemical_formula_sum "Si O2"
_cell_formula_units_Z 16
_cell_length_a 16.661020
_cell_length_b 9.867781
_cell_length_c 11.668302
_cell_angle_alpha 143.075500
_cell_angle_beta 133.805846
_cell_angle_gamma 72.576163
_cell_volume 674.137575
_symmetry_space_group_name_H-M "P -1"
_symmetry_group_IT_number 2
_symmetry_cell_setting 'triclinic'
loop_
_space_group_symop_operation_xyz
x,y,z
-x,-y,-z
loop_
_atom_site_type_symbol
_atom_site_label
_atom_site_fract_x
_atom_site_fract_y
_atom_site_fract_z
Si Si1 0.930296 0.626156 0.222227
Si Si2 0.495595 0.543401 0.658157
Si Si3 0.745183 0.130622 0.576531
Si Si4 0.803584 0.385237 0.316008
Si Si5 0.962198 0.127581 0.255056
Si Si6 0.215757 0.117054 0.735147
Si Si7 0.229527 0.531355 0.399246
Si Si8 0.522962 0.994805 0.653595
O O1 0.808220 0.656974 0.093962
O O2 0.148810 0.802275 0.811512
O O3 0.865565 0.314673 0.911594
O O4 0.067805 0.837431 0.430619
O O5 0.500000 0.500000 0.500000
O O6 0.624019 0.421314 0.412441
O O7 0.526053 0.727332 0.490958
O O8 0.353482 0.191979 0.980416
O O9 0.770492 0.313255 0.609888
O O10 0.755170 0.890643 0.374722
O O11 0.602177 0.034789 0.423510
O O12 0.794210 0.377599 0.439617
O O13 0.660713 0.258543 0.025029
O O14 0.923419 0.700117 0.611590
O O15 0.884460 0.798938 0.954886
O O16 0.035106 0.273799 0.546357
O O17 0.500000 0.000000 0.500000
#
# Coordination Sequence:
#
# PCOD9057270 Si02
#       8
#     2   2   2   2   2   2   2   2
#     4  11  22  42  65  97 140 177 220 280 341 404
#     4  12  23  44  73 100 137 182 229 287 344 405
#     4  12  25  43  71 103 137 180 230 286 344 407
#     4  11  26  44  69  99 138 184 227 281 344 410
#     4  11  24  45  69  97 141 183 225 281 342 410
#     4  11  24  39  65 104 135 174 223 284 341 399
#     4  12  24  43  73 104 133 176 239 286 334 412
#     4  12  26  48  71 101 143 182 226 285 354 409
#
# _framework density 23.734027000000001
#
# number of rings (size 3 to 8) (size 9 to 14) (size 15 to 20)
#    0.000    0.500    3.750    5.250    1.750    2.000 
#    2.250    1.250    0.000    0.000    0.000    0.000 
#    0.000    0.000    0.000    0.000    0.000    0.000 
#
# Total GULP energy -89567.271004 kJ/mol
# GULP energy per Si atom -5597.954438 kJ/mol
# Density = 2.368001 g / cm^3
# Si number density = 23.734027 Si / 1000 Ang^3
#
#
#
# Elastic Constant Matrix: (Units=GPa)
#
#
# Indices 1 2 3 4 5 6 
#
# 1 128.6253 26.2248 48.7753 4.8197 13.0126 15.8998
# 2 26.2248 83.5896 14.4121 0.0488 8.1158 17.3722
# 3 48.7753 14.4121 147.3747 -12.0725 -2.9607 10.0183
# 4 4.8197 0.0488 -12.0725 26.2186 4.5567 -2.5139
# 5 13.0126 8.1158 -2.9607 4.5567 41.7200 -5.9101
# 6 15.8998 17.3722 10.0183 -2.5139 -5.9101 37.5873
#
#
#
# Elastic Compliance Matrix: (Units=1/GPa)
#
#
# Indices 1 2 3 4 5 6 
#
# 1 0.010233 -0.001609 -0.003322 -0.003171 -0.003253 -0.003424
# 2 -0.001609 0.014155 -0.000492 -0.000004 -0.003169 -0.006229
# 3 -0.003322 -0.000492 0.008310 0.004211 0.001247 -0.000104
# 4 -0.003171 -0.000004 0.004211 0.041406 -0.002874 0.002538
# 5 -0.003253 -0.003169 0.001247 -0.002874 0.026931 0.006551
# 6 -0.003424 -0.006229 -0.000104 0.002538 0.006551 0.032159
#
#
# Mechanical properties :
#
#
# Convention : Reuss Voigt Hill
#
# Bulk Modulus (GPa) = 45.76097 59.82378 52.79237
# Shear Modulus (GPa) = 33.04162 39.11700 36.07931
#
# Velocity S-wave (km/s) = 3.73522 4.06413 3.90314
# Velocity P-wave (km/s) = 6.15833 6.87630 6.52720
#
# Compressibility (1/GPa) = 0.02185268
#
# Stress axis : x y z
#
# Youngs Moduli (GPa) = 97.72053 70.64645 120.33530
#
# Poissons Ratio (x) = 0.11364 0.39974
# Poissons Ratio (y) = 0.15719 0.05926
# Poissons Ratio (z) = 0.32461 0.03479
#
# Static dielectric constant tensor:
#      x y z
#    x 1.873780 -0.036840 -0.004110 
#    y -0.036840 1.970880 -0.020930 
#    z -0.004110 -0.020930 1.911530 
# 
# From -- ./inp_files/461646.got.cif
#   From: 2010.05.17/outbox.cif.g08.bks.cpg/sg2_231_cif.got.tgz:461646.got - 2010.06.03 11:33:40.
