data_PCOD9057841
_publ_section_title
;
Structure prediction by ZEFSAII (Michael W. Deem and Ramdas Pophale) SiO2 
 PCOD9057841
Probable space group: P -1
;
_chemical_formula_sum "Si O2"
_cell_formula_units_Z 12
_cell_length_a 9.852398
_cell_length_b 15.331916
_cell_length_c 11.947709
_cell_angle_alpha 48.762933
_cell_angle_beta 111.851686
_cell_angle_gamma 150.231817
_cell_volume 569.005827
_symmetry_space_group_name_H-M "P -1"
_symmetry_group_IT_number 2
_symmetry_cell_setting 'triclinic'
loop_
_space_group_symop_operation_xyz
x,y,z
-x,-y,-z
loop_
_atom_site_type_symbol
_atom_site_label
_atom_site_fract_x
_atom_site_fract_y
_atom_site_fract_z
Si Si1 0.113216 0.684526 0.156299
Si Si2 0.142776 0.225479 0.389296
Si Si3 0.704999 0.540871 0.977302
Si Si4 0.824683 0.534811 0.660372
Si Si5 0.281336 0.117984 0.031838
Si Si6 0.184639 0.414899 0.640331
O O1 0.026226 0.489030 0.265650
O O2 0.932204 0.575358 0.312174
O O3 0.928504 0.637755 0.053389
O O4 0.500000 0.000000 0.000000
O O5 0.096506 0.267727 0.227540
O O6 0.036320 0.241734 0.440836
O O7 0.514627 0.451554 0.338637
O O8 0.000000 0.000000 0.500000
O O9 0.500000 0.500000 0.000000
O O10 0.447952 0.276098 0.062833
O O11 0.735628 0.486239 0.543597
O O12 0.530442 0.304319 0.849528
O O13 0.131346 0.888465 0.203400
O O14 0.000000 0.000000 0.000000
#
# Coordination Sequence:
#
# PCOD9057841 Si02
#       6
#     2   2   2   2   2   2
#     4  12  26  47  73 107 146 193 236 298 367 422
#     4  11  26  43  73 109 140 187 246 294 355 428
#     4  11  24  44  74 100 143 188 244 292 357 430
#     4  11  26  45  70 105 146 185 242 290 364 421
#     4  11  22  43  72 106 137 190 239 297 356 418
#     4  12  24  46  73 103 146 193 234 296 359 430
#
# _framework density 21.089414999999999
#
# number of rings (size 3 to 8) (size 9 to 14) (size 15 to 20)
#    0.000    0.667    6.667    1.000    4.667    2.667 
#    0.000    1.667    0.000    0.000    0.000    0.000 
#    0.000    0.000    0.000    0.000    0.000    0.000 
#
# Total GULP energy -66821.159501 kJ/mol
# GULP energy per Si atom -5568.429958 kJ/mol
# Density = 2.104141 g / cm^3
# Si number density = 21.089415 Si / 1000 Ang^3
#
#
#
# Elastic Constant Matrix: (Units=GPa)
#
#
# Indices 1 2 3 4 5 6 
#
# 1 176.1806 59.0967 35.5811 5.8667 0.2787 -17.2594
# 2 59.0967 119.2358 43.4771 16.6385 -3.7361 0.1804
# 3 35.5811 43.4771 55.5475 15.8173 0.7735 -15.7486
# 4 5.8667 16.6385 15.8173 34.0328 -14.8267 8.3513
# 5 0.2787 -3.7361 0.7735 -14.8267 39.0251 4.9088
# 6 -17.2594 0.1804 -15.7486 8.3513 4.9088 30.2415
#
#
#
# Elastic Compliance Matrix: (Units=1/GPa)
#
#
# Indices 1 2 3 4 5 6 
#
# 1 0.007388 -0.003386 -0.000473 -0.001094 -0.001351 0.004512
# 2 -0.003386 0.014683 -0.014097 0.005000 0.005064 -0.011564
# 3 -0.000473 -0.014097 0.050914 -0.035435 -0.020785 0.039488
# 4 -0.001094 0.005000 -0.035435 0.068443 0.032639 -0.043306
# 5 -0.001351 0.005064 -0.020785 0.032639 0.042393 -0.027520
# 6 0.004512 -0.011564 0.039488 -0.043306 -0.027520 0.072701
#
#
# Mechanical properties :
#
#
# Convention : Reuss Voigt Hill
#
# Bulk Modulus (GPa) = 26.97268 69.69706 48.33487
# Shear Modulus (GPa) = 16.40472 34.84716 25.62594
#
# Velocity S-wave (km/s) = 2.79205 4.06932 3.48962
# Velocity P-wave (km/s) = 4.81783 7.42962 6.26142
#
# Compressibility (1/GPa) = 0.03707455
#
# Stress axis : x y z
#
# Youngs Moduli (GPa) = 135.36043 68.10447 19.64093
#
# Poissons Ratio (x) = 0.23058 0.00928
# Poissons Ratio (y) = 0.45828 0.27688
# Poissons Ratio (z) = 0.06399 0.96006
#
# Static dielectric constant tensor:
#      x y z
#    x 2.189890 -0.312730 0.080900 
#    y -0.312730 1.986500 -0.100150 
#    z 0.080900 -0.100150 1.809950 
# 
# From -- ./inp_files/164185.got.cif
#   From: 2010.05.17/outbox.cif.g08.bks.cpg/sg2_83_cif.got.tgz:164185.got - 2010.06.03 11:33:40.
