data_PCOD9057401
_publ_section_title
;
Structure prediction by ZEFSAII (Michael W. Deem and Ramdas Pophale) SiO2 
 PCOD9057401
Probable space group: P -1
;
_chemical_formula_sum "Si O2"
_cell_formula_units_Z 14
_cell_length_a 9.503729
_cell_length_b 11.391086
_cell_length_c 12.801932
_cell_angle_alpha 114.716131
_cell_angle_beta 55.412788
_cell_angle_gamma 70.165298
_cell_volume 659.924378
_symmetry_space_group_name_H-M "P -1"
_symmetry_group_IT_number 2
_symmetry_cell_setting 'triclinic'
loop_
_space_group_symop_operation_xyz
x,y,z
-x,-y,-z
loop_
_atom_site_type_symbol
_atom_site_label
_atom_site_fract_x
_atom_site_fract_y
_atom_site_fract_z
Si Si1 0.736914 0.048336 0.843671
Si Si2 0.742315 0.609758 0.085576
Si Si3 0.171932 0.009474 0.987940
Si Si4 0.741850 0.339874 0.916586
Si Si5 0.836455 0.706569 0.887681
Si Si6 0.215952 0.363063 0.451899
Si Si7 0.206452 0.082600 0.454500
O O1 0.708064 0.218223 0.931942
O O2 0.891320 0.923204 0.838089
O O3 0.862828 0.950678 0.638864
O O4 0.450243 0.140220 0.994328
O O5 0.477827 0.853502 0.296809
O O6 0.712500 0.474066 0.059982
O O7 0.819641 0.592588 0.926925
O O8 0.000000 0.500000 0.000000
O O9 0.153102 0.165119 0.006347
O O10 0.483910 0.787682 0.768994
O O11 0.000000 0.000000 0.000000
O O12 0.003220 0.193319 0.677762
O O13 0.500000 0.500000 0.000000
O O14 0.100565 0.533369 0.644813
O O15 0.223826 0.219243 0.454098
O O16 0.000000 0.500000 0.500000
#
# Coordination Sequence:
#
# PCOD9057401 Si02
#       7
#     2   2   2   2   2   2   2
#     4  11  22  42  69  96 132 178 224 282 327 406
#     4  11  25  43  67  97 138 180 221 281 341 402
#     4  12  27  45  66 101 140 174 226 289 340 393
#     4  12  23  42  67 104 133 168 232 278 330 400
#     4  11  22  46  67  97 131 180 234 268 334 411
#     4  12  22  41  76  97 129 183 230 273 337 408
#     4  11  23  43  70 101 130 180 231 275 335 404
#
# _framework density 21.214552000000001
#
# number of rings (size 3 to 8) (size 9 to 14) (size 15 to 20)
#    0.000    0.571    8.571    1.714    2.000    1.143 
#    2.571    0.000    0.000    0.000    0.000    0.000 
#    0.000    0.000    0.000    0.000    0.000    0.000 
#
# Total GULP energy -78040.451259 kJ/mol
# GULP energy per Si atom -5574.317947 kJ/mol
# Density = 2.116627 g / cm^3
# Si number density = 21.214552 Si / 1000 Ang^3
#
#
#
# Elastic Constant Matrix: (Units=GPa)
#
#
# Indices 1 2 3 4 5 6 
#
# 1 109.8985 27.1951 23.4260 23.4443 -18.8059 25.8258
# 2 27.1951 91.5887 25.5623 16.9475 -3.8491 28.0255
# 3 23.4260 25.5623 123.7266 24.1520 -2.7949 4.8667
# 4 23.4443 16.9475 24.1520 25.3815 5.3530 5.3524
# 5 -18.8059 -3.8491 -2.7949 5.3530 20.7335 3.4845
# 6 25.8258 28.0255 4.8667 5.3524 3.4845 43.1202
#
#
#
# Elastic Compliance Matrix: (Units=1/GPa)
#
#
# Indices 1 2 3 4 5 6 
#
# 1 0.023213 0.004263 0.001843 -0.029532 0.032380 -0.015833
# 2 0.004263 0.016993 -0.000660 -0.014682 0.012864 -0.012740
# 3 0.001843 -0.000660 0.010458 -0.012365 0.006291 -0.000829
# 4 -0.029532 -0.014682 -0.012365 0.096295 -0.059653 0.021493
# 5 0.032380 0.012864 0.006291 -0.059653 0.101152 -0.029234
# 6 -0.015833 -0.012740 -0.000829 0.021493 -0.029234 0.040742
#
#
# Mechanical properties :
#
#
# Convention : Reuss Voigt Hill
#
# Bulk Modulus (GPa) = 16.24536 53.06450 34.65493
# Shear Modulus (GPa) = 16.75159 34.44906 25.60033
#
# Velocity S-wave (km/s) = 2.81308 4.03406 3.47758
# Velocity P-wave (km/s) = 4.26913 6.83855 5.70049
#
# Compressibility (1/GPa) = 0.06155603
#
# Stress axis : x y z
#
# Youngs Moduli (GPa) = 43.07922 58.84934 95.61854
#
# Poissons Ratio (x) = -0.25088 -0.17624
# Poissons Ratio (y) = -0.18365 0.06312
# Poissons Ratio (z) = -0.07940 0.03885
#
# Static dielectric constant tensor:
#      x y z
#    x 1.733060 -0.168290 0.100610 
#    y -0.168290 1.925430 -0.073080 
#    z 0.100610 -0.073080 1.760330 
# 
# From -- ./inp_files/236710.got.cif
#   From: 2010.05.17/outbox.cif.g08.bks.cpg/sg2_119_cif.got.tgz:236710.got - 2010.06.03 11:33:40.
