data_PCOD9057943
_publ_section_title
;
Structure prediction by ZEFSAII (Michael W. Deem and Ramdas Pophale) SiO2 
 PCOD9057943
Probable space group: P -1
;
_chemical_formula_sum "Si O2"
_cell_formula_units_Z 15
_cell_length_a 10.285549
_cell_length_b 16.863965
_cell_length_c 13.568657
_cell_angle_alpha 35.427371
_cell_angle_beta 34.852085
_cell_angle_gamma 29.375548
_cell_volume 616.576362
_symmetry_space_group_name_H-M "P -1"
_symmetry_group_IT_number 2
_symmetry_cell_setting 'triclinic'
loop_
_space_group_symop_operation_xyz
x,y,z
-x,-y,-z
loop_
_atom_site_type_symbol
_atom_site_label
_atom_site_fract_x
_atom_site_fract_y
_atom_site_fract_z
Si Si1 0.000000 0.500000 0.000000
Si Si2 0.102389 0.191053 0.333348
Si Si3 0.739894 0.796248 0.562495
Si Si4 0.838036 0.019014 0.765695
Si Si5 0.832214 0.279925 0.785598
Si Si6 0.278557 0.486612 0.207643
Si Si7 0.159726 0.289033 0.913359
Si Si8 0.308743 0.943761 0.957188
O O1 0.103609 0.407466 0.920067
O O2 0.093719 0.627132 0.783944
O O3 0.194576 0.234762 0.332328
O O4 0.990045 0.084951 0.544900
O O5 0.399727 0.077071 0.201366
O O6 0.030782 0.725620 0.395987
O O7 0.625187 0.704209 0.671997
O O8 0.500000 0.000000 0.500000
O O9 0.498574 0.153580 0.819649
O O10 0.844626 0.026457 0.873726
O O11 0.947563 0.824940 0.877357
O O12 0.750395 0.438788 0.741895
O O13 0.604443 0.241248 0.948332
O O14 0.087154 0.105410 0.862006
O O15 0.991314 0.606226 0.199269
O O16 0.500000 0.500000 0.000000
#
# Coordination Sequence:
#
# PCOD9057943 Si02
#       8
#     1   2   2   2   2   2   2   2
#     4  12  26  48  72 106 146 188 246 302 368 426
#     4  12  25  46  76 107 145 193 246 308 363 442
#     4  12  25  44  73 110 144 198 250 298 374 444
#     4  11  25  49  78 104 145 197 249 302 368 437
#     4  11  24  42  73 107 152 191 240 305 371 435
#     4  12  27  45  71 110 151 191 246 311 364 440
#     4  11  26  48  73 108 147 191 249 306 363 444
#     4  11  22  43  76 109 145 193 243 302 371 440
#
# _framework density 24.327888000000002
#
# number of rings (size 3 to 8) (size 9 to 14) (size 15 to 20)
#    0.000    0.533    6.667    1.200    3.733    1.067 
#    2.400    1.333    0.000    0.000    0.000    0.000 
#    0.000    0.000    0.000    0.000    0.000    0.000 
#
# Total GULP energy -83687.046410 kJ/mol
# GULP energy per Si atom -5579.136427 kJ/mol
# Density = 2.427252 g / cm^3
# Si number density = 24.327888 Si / 1000 Ang^3
#
#
#
# Elastic Constant Matrix: (Units=GPa)
#
#
# Indices 1 2 3 4 5 6 
#
# 1 50.1106 17.5101 -4.9472 -1.7241 2.7855 32.4066
# 2 17.5101 92.2254 33.5445 -23.1625 -8.9660 45.5260
# 3 -4.9472 33.5445 166.6440 -9.6076 -24.4984 14.8853
# 4 -1.7241 -23.1625 -9.6076 46.3461 7.6843 -3.2038
# 5 2.7855 -8.9660 -24.4984 7.6843 41.1380 -12.1028
# 6 32.4066 45.5260 14.8853 -3.2038 -12.1028 52.1576
#
#
#
# Elastic Compliance Matrix: (Units=1/GPa)
#
#
# Indices 1 2 3 4 5 6 
#
# 1 0.042114 0.011270 0.001003 0.006795 -0.012473 -0.038767
# 2 0.011270 0.027726 -0.002885 0.012845 -0.008096 -0.031469
# 3 0.001003 -0.002885 0.007079 -0.000522 0.003832 0.000732
# 4 0.006795 0.012845 -0.000522 0.028371 -0.007786 -0.015349
# 5 -0.012473 -0.008096 0.003832 -0.007786 0.033294 0.020970
# 6 -0.038767 -0.031469 0.000732 -0.015349 0.020970 0.074442
#
#
# Mechanical properties :
#
#
# Convention : Reuss Voigt Hill
#
# Bulk Modulus (GPa) = 10.44993 44.57720 27.51356
# Shear Modulus (GPa) = 22.10929 45.45317 33.78123
#
# Velocity S-wave (km/s) = 3.01791 4.32714 3.73041
# Velocity P-wave (km/s) = 4.05567 6.58246 5.46705
#
# Compressibility (1/GPa) = 0.09569446
#
# Stress axis : x y z
#
# Youngs Moduli (GPa) = 23.74497 36.06714 141.25884
#
# Poissons Ratio (x) = -0.40648 -0.14162
# Poissons Ratio (y) = -0.26761 0.40756
# Poissons Ratio (z) = -0.02381 0.10406
#
# Static dielectric constant tensor:
#      x y z
#    x 2.117410 0.028700 0.011880 
#    y 0.028700 1.990150 -0.060900 
#    z 0.011880 -0.060900 1.897670 
# 
# From -- ./inp_files/523192.got.cif
#   From: 2010.05.17/outbox.cif.g08.bks.cpg/sg2_262_cif.got.tgz:523192.got - 2010.06.03 11:33:40.
