data_PCOD9057572
_publ_section_title
;
Structure prediction by ZEFSAII (Michael W. Deem and Ramdas Pophale) SiO2 
 PCOD9057572
Probable space group: P -1
;
_chemical_formula_sum "Si O2"
_cell_formula_units_Z 16
_cell_length_a 9.942101
_cell_length_b 26.868623
_cell_length_c 9.947802
_cell_angle_alpha 154.252413
_cell_angle_beta 132.774122
_cell_angle_gamma 42.162783
_cell_volume 774.264610
_symmetry_space_group_name_H-M "P -1"
_symmetry_group_IT_number 2
_symmetry_cell_setting 'triclinic'
loop_
_space_group_symop_operation_xyz
x,y,z
-x,-y,-z
loop_
_atom_site_type_symbol
_atom_site_label
_atom_site_fract_x
_atom_site_fract_y
_atom_site_fract_z
Si Si1 0.687340 0.015511 0.321153
Si Si2 0.986012 0.002900 0.725253
Si Si3 0.698002 0.734327 0.336899
Si Si4 0.770745 0.258758 0.622907
Si Si5 0.357654 0.231853 0.313541
Si Si6 0.095559 0.742659 0.580883
Si Si7 0.730900 0.474656 0.608895
Si Si8 0.037633 0.611077 0.723624
O O1 0.834203 0.996312 0.246791
O O2 0.524511 0.157603 0.564085
O O3 0.828153 0.986146 0.475748
O O4 0.585513 0.916992 0.003365
O O5 0.080295 0.886465 0.605777
O O6 0.882511 0.134742 0.050560
O O7 0.732573 0.714815 0.472384
O O8 0.858579 0.780753 0.497856
O O9 0.734758 0.604046 0.975982
O O10 0.547129 0.265736 0.503468
O O11 0.798470 0.300188 0.593544
O O12 0.838624 0.334679 0.964089
O O13 0.182739 0.287841 0.221525
O O14 0.173644 0.633073 0.477153
O O15 0.500000 0.500000 0.500000
O O16 0.840601 0.433649 0.441104
O O17 0.000000 0.500000 0.500000
#
# Coordination Sequence:
#
# PCOD9057572 Si02
#       8
#     2   2   2   2   2   2   2   2
#     4  11  22  42  75 106 136 188 235 291 349 421
#     4  11  22  43  72 105 145 178 236 294 353 413
#     4  12  23  43  72 100 137 186 240 287 345 424
#     4  12  27  46  72 108 145 183 233 297 355 415
#     4  12  24  46  76 104 138 191 239 284 355 420
#     4  12  26  45  69 104 145 181 231 296 352 414
#     4  12  27  46  70 103 140 187 240 288 351 420
#     4  12  28  50  73 104 145 187 237 291 350 424
#
# _framework density 20.664770000000001
#
# number of rings (size 3 to 8) (size 9 to 14) (size 15 to 20)
#    0.000    0.250    5.000    4.125    5.250    0.500 
#    2.250    1.250    0.000    0.000    0.000    0.000 
#    0.000    0.000    0.000    0.000    0.000    0.000 
#
# Total GULP energy -89559.352086 kJ/mol
# GULP energy per Si atom -5597.459505 kJ/mol
# Density = 2.061774 g / cm^3
# Si number density = 20.664770 Si / 1000 Ang^3
#
#
#
# Elastic Constant Matrix: (Units=GPa)
#
#
# Indices 1 2 3 4 5 6 
#
# 1 118.8069 49.8693 58.0504 -14.7045 1.9535 14.1418
# 2 49.8693 97.5708 43.2302 0.7750 -2.7608 4.3118
# 3 58.0504 43.2302 155.8177 -13.2963 -8.9739 7.0555
# 4 -14.7045 0.7750 -13.2963 29.0388 -9.0928 4.3222
# 5 1.9535 -2.7608 -8.9739 -9.0928 31.5759 -5.4928
# 6 14.1418 4.3118 7.0555 4.3222 -5.4928 35.0561
#
#
#
# Elastic Compliance Matrix: (Units=1/GPa)
#
#
# Indices 1 2 3 4 5 6 
#
# 1 0.013486 -0.005499 -0.002823 0.006051 -0.001269 -0.005141
# 2 -0.005499 0.014047 -0.002304 -0.004472 -0.000115 0.001488
# 3 -0.002823 -0.002304 0.008634 0.003701 0.003452 -0.000231
# 4 0.006051 -0.004472 0.003701 0.043952 0.011865 -0.006196
# 5 -0.001269 -0.000115 0.003452 0.011865 0.036857 0.004143
# 6 -0.005141 0.001488 -0.000231 -0.006196 0.004143 0.031876
#
#
# Mechanical properties :
#
#
# Convention : Reuss Voigt Hill
#
# Bulk Modulus (GPa) = 67.04572 74.94392 70.99482
# Shear Modulus (GPa) = 28.55915 33.87054 31.21484
#
# Velocity S-wave (km/s) = 3.72159 4.05291 3.89078
# Velocity P-wave (km/s) = 7.14016 7.63195 7.39015
#
# Compressibility (1/GPa) = 0.01491520
#
# Stress axis : x y z
#
# Youngs Moduli (GPa) = 74.15016 71.18955 115.82559
#
# Poissons Ratio (x) = 0.39148 0.32693
# Poissons Ratio (y) = 0.40776 0.26688
# Poissons Ratio (z) = 0.20930 0.16403
#
# Static dielectric constant tensor:
#      x y z
#    x 1.717080 -0.012840 0.017960 
#    y -0.012840 1.756090 0.005590 
#    z 0.017960 0.005590 1.824770 
# 
# From -- ./inp_files/226839.got.cif
#   From: 2010.05.17/outbox.cif.g08.bks.cpg/sg2_114_cif.got.tgz:226839.got - 2010.06.03 11:33:40.
