data_PCOD9057364
_publ_section_title
;
Structure prediction by ZEFSAII (Michael W. Deem and Ramdas Pophale) SiO2 
 PCOD9057364
Probable space group: P -1
;
_chemical_formula_sum "Si O2"
_cell_formula_units_Z 14
_cell_length_a 9.658323
_cell_length_b 20.669074
_cell_length_c 8.096468
_cell_angle_alpha 129.333333
_cell_angle_beta 136.131393
_cell_angle_gamma 30.507629
_cell_volume 568.250187
_symmetry_space_group_name_H-M "P -1"
_symmetry_group_IT_number 2
_symmetry_cell_setting 'triclinic'
loop_
_space_group_symop_operation_xyz
x,y,z
-x,-y,-z
loop_
_atom_site_type_symbol
_atom_site_label
_atom_site_fract_x
_atom_site_fract_y
_atom_site_fract_z
Si Si1 0.462977 0.252479 0.582780
Si Si2 0.066977 0.294584 0.851534
Si Si3 0.830258 0.282858 0.338594
Si Si4 0.949586 0.878440 0.280749
Si Si5 0.368890 0.465225 0.938980
Si Si6 0.330607 0.119130 0.262517
Si Si7 0.319442 0.850877 0.018681
O O1 0.257197 0.237915 0.338156
O O2 0.562483 0.202456 0.778051
O O3 0.750696 0.163885 0.564053
O O4 0.339031 0.385997 0.692792
O O5 0.994945 0.231622 0.782078
O O6 0.417160 0.188202 0.924636
O O7 0.865462 0.347622 0.598666
O O8 0.942413 0.410604 0.037301
O O9 0.619822 0.371282 0.146062
O O10 0.168863 0.156915 0.357017
O O11 0.719779 0.228843 0.224217
O O12 0.693247 0.998695 0.370914
O O13 0.801220 0.907191 0.019750
O O14 0.500000 0.500000 0.000000
O O15 0.000000 0.000000 0.000000
#
# Coordination Sequence:
#
# PCOD9057364 Si02
#       7
#     2   2   2   2   2   2   2
#     4  11  23  44  69  96 138 180 224 282 337 401
#     4  12  25  44  71 100 135 186 224 278 348 393
#     4  11  24  44  69  99 140 179 224 283 340 399
#     4  11  24  41  68  98 138 177 229 281 335 406
#     4  11  23  49  70  97 141 177 234 283 329 411
#     4  11  22  42  68  98 133 182 221 280 345 394
#     4  11  25  42  68 104 140 173 227 279 341 412
#
# _framework density 24.637036999999999
#
# number of rings (size 3 to 8) (size 9 to 14) (size 15 to 20)
#    0.000    0.857    5.714    1.714    4.000    4.571 
#    2.571    1.429    0.000    0.000    0.000    0.000 
#    0.000    0.000    0.000    0.000    0.000    0.000 
#
# Total GULP energy -78375.384894 kJ/mol
# GULP energy per Si atom -5598.241778 kJ/mol
# Density = 2.458096 g / cm^3
# Si number density = 24.637037 Si / 1000 Ang^3
#
#
#
# Elastic Constant Matrix: (Units=GPa)
#
#
# Indices 1 2 3 4 5 6 
#
# 1 80.6344 9.0967 -8.7011 -12.2355 15.8466 -12.7253
# 2 9.0967 89.7898 9.9014 6.6658 -7.0439 -8.5336
# 3 -8.7011 9.9014 60.3167 2.9504 8.6740 3.4825
# 4 -12.2355 6.6658 2.9504 28.2934 -0.9059 3.2648
# 5 15.8466 -7.0439 8.6740 -0.9059 36.4918 5.0778
# 6 -12.7253 -8.5336 3.4825 3.2648 5.0778 42.3368
#
#
#
# Elastic Compliance Matrix: (Units=1/GPa)
#
#
# Indices 1 2 3 4 5 6 
#
# 1 0.016659 -0.002845 0.003584 0.006664 -0.009127 0.004720
# 2 -0.002845 0.012523 -0.002951 -0.003945 0.004015 0.001734
# 3 0.003584 -0.002951 0.018523 0.000138 -0.006487 -0.000274
# 4 0.006664 -0.003945 0.000138 0.039237 -0.002501 -0.001529
# 5 -0.009127 0.004015 -0.006487 -0.002501 0.034363 -0.005329
# 6 0.004720 0.001734 -0.000274 -0.001529 -0.005329 0.026168
#
#
# Mechanical properties :
#
#
# Convention : Reuss Voigt Hill
#
# Bulk Modulus (GPa) = 23.10444 27.92609 25.51527
# Shear Modulus (GPa) = 30.06186 36.12068 33.09127
#
# Velocity S-wave (km/s) = 3.49691 3.83314 3.66888
# Velocity P-wave (km/s) = 5.06979 5.56329 5.32227
#
# Compressibility (1/GPa) = 0.04328172
#
# Stress axis : x y z
#
# Youngs Moduli (GPa) = 60.02750 79.85041 53.98809
#
# Poissons Ratio (x) = 0.22718 -0.19351
# Poissons Ratio (y) = 0.17079 0.15931
# Poissons Ratio (z) = -0.21515 0.23562
#
# Static dielectric constant tensor:
#      x y z
#    x 1.906390 0.025430 -0.035790 
#    y 0.025430 1.991550 -0.014290 
#    z -0.035790 -0.014290 1.990450 
# 
# From -- ./inp_files/190434.got.cif
#   From: 2010.05.17/outbox.cif.g08.bks.cpg/sg2_96_cif.got.tgz:190434.got - 2010.06.03 11:33:40.
