data_PCOD9057653
_publ_section_title
;
Structure prediction by ZEFSAII (Michael W. Deem and Ramdas Pophale) SiO2 
 PCOD9057653
Probable space group: P -1
;
_chemical_formula_sum "Si O2"
_cell_formula_units_Z 16
_cell_length_a 12.397654
_cell_length_b 8.732893
_cell_length_c 13.020891
_cell_angle_alpha 87.061492
_cell_angle_beta 58.872670
_cell_angle_gamma 42.301877
_cell_volume 664.705745
_symmetry_space_group_name_H-M "P -1"
_symmetry_group_IT_number 2
_symmetry_cell_setting 'triclinic'
loop_
_space_group_symop_operation_xyz
x,y,z
-x,-y,-z
loop_
_atom_site_type_symbol
_atom_site_label
_atom_site_fract_x
_atom_site_fract_y
_atom_site_fract_z
Si Si1 0.504155 0.156851 0.880053
Si Si2 0.052503 0.930927 0.596326
Si Si3 0.163177 0.934242 0.849329
Si Si4 0.836861 0.365993 0.813301
Si Si5 0.521282 0.311766 0.659620
Si Si6 0.988914 0.342197 0.277748
Si Si7 0.133585 0.288217 0.539296
Si Si8 0.812977 0.802348 0.031500
O O1 0.487588 0.308000 0.797773
O O2 0.381830 0.121946 0.909008
O O3 0.768222 0.866760 0.782663
O O4 0.384873 0.340455 0.035773
O O5 0.276629 0.805325 0.495211
O O6 0.106227 0.710585 0.619375
O O7 0.000000 0.000000 0.500000
O O8 0.835596 0.205112 0.761333
O O9 0.324366 0.639742 0.730783
O O10 0.260628 0.978922 0.868034
O O11 0.015047 0.164570 0.825530
O O12 0.000000 0.000000 0.000000
O O13 0.946189 0.359617 0.672082
O O14 0.620938 0.038576 0.594115
O O15 0.828763 0.639664 0.384554
O O16 0.048391 0.270336 0.132021
O O17 0.000000 0.500000 0.500000
O O18 0.000000 0.500000 0.000000
#
# Coordination Sequence:
#
# PCOD9057653 Si02
#       8
#     2   2   2   2   2   2   2   2
#     4  12  23  44  73 111 142 193 250 303 372 421
#     4  11  24  45  67 105 148 189 236 299 369 440
#     4  12  24  47  73 108 148 190 241 306 368 440
#     4  11  24  43  73 103 148 190 238 308 364 437
#     4  11  25  44  73 104 145 196 234 301 375 430
#     4  12  24  42  73 109 144 196 244 305 367 433
#     4  11  22  43  67  96 146 187 234 296 360 432
#     4  12  25  45  72 109 151 189 249 306 366 434
#
# _framework density 24.070802
#
# number of rings (size 3 to 8) (size 9 to 14) (size 15 to 20)
#    0.000    0.500    6.250    1.875    0.000    4.500 
#    2.250    0.000    0.000    8.250    0.000    0.000 
#    0.000    0.000    0.000    0.000    0.000    0.000 
#
# Total GULP energy -89208.101810 kJ/mol
# GULP energy per Si atom -5575.506363 kJ/mol
# Density = 2.401602 g / cm^3
# Si number density = 24.070802 Si / 1000 Ang^3
#
#
#
# Elastic Constant Matrix: (Units=GPa)
#
#
# Indices 1 2 3 4 5 6 
#
# 1 46.7446 -17.3198 11.3553 21.6958 8.8670 8.2260
# 2 -17.3198 71.7575 16.4877 12.4020 -9.7511 -4.8210
# 3 11.3553 16.4877 121.1354 15.2379 10.1719 2.3532
# 4 21.6958 12.4020 15.2379 45.6406 16.8873 14.9894
# 5 8.8670 -9.7511 10.1719 16.8873 22.8511 -10.0733
# 6 8.2260 -4.8210 2.3532 14.9894 -10.0733 24.4949
#
#
#
# Elastic Compliance Matrix: (Units=1/GPa)
#
#
# Indices 1 2 3 4 5 6 
#
# 1 0.025234 -0.007081 0.000748 0.021258 -0.047602 -0.042525
# 2 -0.007081 -0.017380 0.003802 0.065582 -0.089334 -0.078278
# 3 0.000748 0.003802 0.007942 -0.014268 0.014747 0.014530
# 4 0.021258 0.065582 -0.014268 -0.122414 0.186540 0.158762
# 5 -0.047602 -0.089334 0.014747 0.186540 -0.210033 -0.203538
# 6 -0.042525 -0.078278 0.014530 0.158762 -0.203538 -0.142553
#
#
# Mechanical properties :
#
#
# Convention : Reuss Voigt Hill
#
# Bulk Modulus (GPa) = 93.17252 28.96486 61.06869
# Shear Modulus (GPa) = -11.09723 33.87161 11.38719
#
# Velocity S-wave (km/s) = -2.14948 3.75529 2.17738
# Velocity P-wave (km/s) = 5.71239 5.55538 5.63443
#
# Compressibility (1/GPa) = 0.01073278
#
# Stress axis : x y z
#
# Youngs Moduli (GPa) = 39.62913 -57.53747 125.91331
#
# Poissons Ratio (x) = -0.40742 -0.09412
# Poissons Ratio (y) = 0.28061 -0.47870
# Poissons Ratio (z) = -0.02962 0.21875
#
# Static dielectric constant tensor:
#      x y z
#    x 2.083970 0.088290 0.098910 
#    y 0.088290 2.036000 0.077030 
#    z 0.098910 0.077030 1.915860 
# 
# From -- ./inp_files/529655.got.cif
#   From: 2010.05.17/outbox.cif.g08.bks.cpg/sg2_265_cif.got.tgz:529655.got - 2010.06.03 11:33:40.
