data_PCOD9057912
_publ_section_title
;
Structure prediction by ZEFSAII (Michael W. Deem and Ramdas Pophale) SiO2 
 PCOD9057912
Probable space group: P -1
;
_chemical_formula_sum "Si O2"
_cell_formula_units_Z 16
_cell_length_a 14.160038
_cell_length_b 8.438758
_cell_length_c 9.389889
_cell_angle_alpha 73.151680
_cell_angle_beta 126.970665
_cell_angle_gamma 72.968307
_cell_volume 679.175746
_symmetry_space_group_name_H-M "P -1"
_symmetry_group_IT_number 2
_symmetry_cell_setting 'triclinic'
loop_
_space_group_symop_operation_xyz
x,y,z
-x,-y,-z
loop_
_atom_site_type_symbol
_atom_site_label
_atom_site_fract_x
_atom_site_fract_y
_atom_site_fract_z
Si Si1 0.102024 0.765280 0.465287
Si Si2 0.031122 0.764175 0.717907
Si Si3 0.555950 0.589216 0.139203
Si Si4 0.483126 0.107714 0.207203
Si Si5 0.691440 0.559605 0.783163
Si Si6 0.430142 0.759871 0.280835
Si Si7 0.815064 0.768338 0.694034
Si Si8 0.103452 0.060395 0.020499
O O1 0.271885 0.591912 0.619632
O O2 0.072564 0.710853 0.605754
O O3 0.069261 0.988255 0.406329
O O4 0.986291 0.800138 0.234639
O O5 0.939190 0.685780 0.708746
O O6 0.182419 0.657307 0.971876
O O7 0.460673 0.661048 0.177998
O O8 0.500000 0.500000 0.000000
O O9 0.544542 0.773588 0.996973
O O10 0.389618 0.274468 0.204674
O O11 0.442058 0.949402 0.216193
O O12 0.657358 0.972429 0.441071
O O13 0.561640 0.604545 0.552050
O O14 0.781614 0.612711 0.754042
O O15 0.268981 0.865486 0.174242
O O16 0.871011 0.827369 0.863048
O O17 0.000000 0.000000 0.000000
#
# Coordination Sequence:
#
# PCOD9057912 Si02
#       8
#     2   2   2   2   2   2   2   2
#     4  11  27  45  64 102 148 192 237 291 365 434
#     4  11  24  45  70  99 144 193 236 297 364 420
#     4  12  28  46  74 106 149 194 247 296 366 441
#     4  11  22  49  75 106 147 190 249 299 362 434
#     4  11  22  47  76 107 139 191 251 296 360 435
#     4  11  26  47  77 109 144 192 245 306 363 431
#     4  11  22  43  74 105 142 189 234 303 361 428
#     4  12  25  44  72 105 148 185 239 301 368 431
#
# _framework density 23.557967999999999
#
# number of rings (size 3 to 8) (size 9 to 14) (size 15 to 20)
#    0.000    0.750    5.000    2.250    7.000    0.000 
#    0.000    3.125    0.000    0.000    0.000    0.000 
#    0.000    0.000    0.000    0.000    0.000    0.000 
#
# Total GULP energy -89720.036283 kJ/mol
# GULP energy per Si atom -5607.502268 kJ/mol
# Density = 2.350435 g / cm^3
# Si number density = 23.557968 Si / 1000 Ang^3
#
#
#
# Elastic Constant Matrix: (Units=GPa)
#
#
# Indices 1 2 3 4 5 6 
#
# 1 165.2431 39.2697 73.1127 7.2552 10.4918 -17.9997
# 2 39.2697 60.6320 30.5159 9.6026 5.6708 -5.0495
# 3 73.1127 30.5159 155.9293 -9.5605 11.3819 0.5068
# 4 7.2552 9.6026 -9.5605 41.9131 -2.3252 2.9189
# 5 10.4918 5.6708 11.3819 -2.3252 45.8644 5.2685
# 6 -17.9997 -5.0495 0.5068 2.9189 5.2685 30.2310
#
#
#
# Elastic Compliance Matrix: (Units=1/GPa)
#
#
# Indices 1 2 3 4 5 6 
#
# 1 0.009266 -0.003148 -0.003770 -0.002214 -0.001543 0.005537
# 2 -0.003148 0.021178 -0.002871 -0.005234 -0.001741 0.002520
# 3 -0.003770 -0.002871 0.009006 0.003556 -0.000477 -0.003135
# 4 -0.002214 -0.005234 0.003556 0.026740 0.002226 -0.005222
# 5 -0.001543 -0.001741 -0.000477 0.002226 0.023231 -0.005465
# 6 0.005537 0.002520 -0.003135 -0.005222 -0.005465 0.038306
#
#
# Mechanical properties :
#
#
# Convention : Reuss Voigt Hill
#
# Bulk Modulus (GPa) = 50.31914 74.17788 62.24851
# Shear Modulus (GPa) = 32.48292 39.52877 36.00584
#
# Velocity S-wave (km/s) = 3.71732 4.10071 3.91371
# Velocity P-wave (km/s) = 6.31115 7.34689 6.84863
#
# Compressibility (1/GPa) = 0.01987315
#
# Stress axis : x y z
#
# Youngs Moduli (GPa) = 107.92034 47.21832 111.04210
#
# Poissons Ratio (x) = 0.14864 0.41860
# Poissons Ratio (y) = 0.33973 0.31876
# Poissons Ratio (z) = 0.40683 0.13555
#
# Static dielectric constant tensor:
#      x y z
#    x 1.884930 0.054310 -0.027200 
#    y 0.054310 1.924260 -0.021570 
#    z -0.027200 -0.021570 1.858160 
# 
# From -- ./inp_files/298384.got.cif
#   From: 2010.05.17/outbox.cif.g08.bks.cpg/sg2_150_cif.got.tgz:298384.got - 2010.06.03 11:33:40.
