data_PCOD9057956
_publ_section_title
;
Structure prediction by ZEFSAII (Michael W. Deem and Ramdas Pophale) SiO2 
 PCOD9057956
Probable space group: P -1
;
_chemical_formula_sum "Si O2"
_cell_formula_units_Z 16
_cell_length_a 10.306031
_cell_length_b 7.955071
_cell_length_c 16.369091
_cell_angle_alpha 55.538534
_cell_angle_beta 36.008656
_cell_angle_gamma 49.741926
_cell_volume 599.323250
_symmetry_space_group_name_H-M "P -1"
_symmetry_group_IT_number 2
_symmetry_cell_setting 'triclinic'
loop_
_space_group_symop_operation_xyz
x,y,z
-x,-y,-z
loop_
_atom_site_type_symbol
_atom_site_label
_atom_site_fract_x
_atom_site_fract_y
_atom_site_fract_z
Si Si1 0.655036 0.782015 0.246556
Si Si2 0.614466 0.622477 0.044301
Si Si3 0.635237 0.765610 0.453043
Si Si4 0.921473 0.568069 0.612605
Si Si5 0.570550 0.231707 0.117336
Si Si6 0.858727 0.975307 0.825923
Si Si7 0.798565 0.930059 0.691463
Si Si8 0.284527 0.610980 0.766962
O O1 0.605560 0.780140 0.367368
O O2 0.811069 0.542827 0.198098
O O3 0.735472 0.982324 0.126729
O O4 0.403118 0.858059 0.304548
O O5 0.683488 0.412645 0.004353
O O6 0.665587 0.498878 0.140410
O O7 0.332883 0.778947 0.130276
O O8 0.727768 0.804671 0.948824
O O9 0.917289 0.647211 0.359809
O O10 0.511224 0.617659 0.600858
O O11 0.500000 0.000000 0.500000
O O12 0.000000 0.500000 0.500000
O O13 0.633730 0.667582 0.735954
O O14 0.961712 0.771886 0.581791
O O15 0.383438 0.197609 0.156541
O O16 0.924878 0.962292 0.699156
O O17 0.089281 0.862820 0.795791
#
# Coordination Sequence:
#
# PCOD9057956 Si02
#       8
#     2   2   2   2   2   2   2   2
#     4   9  20  41  58  90 127 161 197 256 307 369
#     4  11  22  44  64  89 124 162 212 263 308 363
#     4  12  23  36  60  91 127 162 206 247 309 375
#     4   9  18  35  57  85 119 159 195 244 298 359
#     4   8  20  39  65  83 124 160 204 255 305 354
#     4  11  24  41  65  91 121 168 207 258 319 361
#     4   8  19  40  59  88 123 154 207 247 300 367
#     4  12  24  40  63  91 128 161 208 256 308 373
#
# _framework density 26.696777999999998
#
# number of rings (size 3 to 8) (size 9 to 14) (size 15 to 20)
#    1.500    0.250    1.250    4.500    1.750    0.500 
#    4.500    3.750    0.000    0.000    0.000    0.000 
#    0.000    0.000    0.000    0.000    0.000    0.000 
#
# Total GULP energy -89324.358687 kJ/mol
# GULP energy per Si atom -5582.772418 kJ/mol
# Density = 2.663601 g / cm^3
# Si number density = 26.696778 Si / 1000 Ang^3
#
#
#
# Elastic Constant Matrix: (Units=GPa)
#
#
# Indices 1 2 3 4 5 6 
#
# 1 58.0812 16.4743 18.4715 -0.9059 11.7925 -3.6042
# 2 16.4743 172.8381 12.3580 -3.8490 9.9562 -4.4226
# 3 18.4715 12.3580 52.3620 -9.2767 -2.2408 -6.6825
# 4 -0.9059 -3.8490 -9.2767 46.0085 8.0649 3.0811
# 5 11.7925 9.9562 -2.2408 8.0649 41.1433 -2.1311
# 6 -3.6042 -4.4226 -6.6825 3.0811 -2.1311 45.0610
#
#
#
# Elastic Compliance Matrix: (Units=1/GPa)
#
#
# Indices 1 2 3 4 5 6 
#
# 1 0.021173 -0.001127 -0.007463 -0.000113 -0.006170 0.000192
# 2 -0.001127 0.006054 -0.000964 0.000496 -0.001278 0.000267
# 3 -0.007463 -0.000964 0.023081 0.003719 0.003036 0.002621
# 4 -0.000113 0.000496 0.003719 0.023401 -0.004535 -0.001223
# 5 -0.006170 -0.001278 0.003036 -0.004535 0.027512 0.001443
# 6 0.000192 0.000267 0.002621 -0.001223 0.001443 0.022774
#
#
# Mechanical properties :
#
#
# Convention : Reuss Voigt Hill
#
# Bulk Modulus (GPa) = 32.05053 41.98765 37.01909
# Shear Modulus (GPa) = 32.57266 42.17438 37.37352
#
# Velocity S-wave (km/s) = 3.49678 3.97893 3.74562
# Velocity P-wave (km/s) = 5.32304 6.07214 5.70989
#
# Compressibility (1/GPa) = 0.03120073
#
# Stress axis : x y z
#
# Youngs Moduli (GPa) = 47.22942 165.19188 43.32539
#
# Poissons Ratio (x) = 0.18613 0.32333
# Poissons Ratio (y) = 0.05321 0.04177
# Poissons Ratio (z) = 0.35247 0.15925
#
# Static dielectric constant tensor:
#      x y z
#    x 2.176540 0.072210 -0.130850 
#    y 0.072210 2.110130 -0.084590 
#    z -0.130850 -0.084590 2.244800 
# 
# From -- ./inp_files/565163.got.cif
#   From: 2010.05.17/outbox.cif.g08.bks.cpg/sg2_283_cif.got.tgz:565163.got - 2010.06.03 11:33:40.
