data_PCOD9057110
_publ_section_title
;
Structure prediction by ZEFSAII (Michael W. Deem and Ramdas Pophale) SiO2 
 PCOD9057110
Probable space group: P -1
;
_chemical_formula_sum "Si O2"
_cell_formula_units_Z 16
_cell_length_a 20.245409
_cell_length_b 6.199309
_cell_length_c 10.638329
_cell_angle_alpha 82.115703
_cell_angle_beta 29.944430
_cell_angle_gamma 77.717280
_cell_volume 648.165795
_symmetry_space_group_name_H-M "P -1"
_symmetry_group_IT_number 2
_symmetry_cell_setting 'triclinic'
loop_
_space_group_symop_operation_xyz
x,y,z
-x,-y,-z
loop_
_atom_site_type_symbol
_atom_site_label
_atom_site_fract_x
_atom_site_fract_y
_atom_site_fract_z
Si Si1 0.785400 0.604599 0.681725
Si Si2 0.474249 0.047929 0.388217
Si Si3 0.012148 0.134718 0.593664
Si Si4 0.867083 0.189090 0.228139
Si Si5 0.789097 0.445759 0.080942
Si Si6 0.988750 0.714031 0.801039
Si Si7 0.641828 0.933132 0.692825
Si Si8 0.574046 0.513189 0.228410
O O1 0.915969 0.427607 0.445974
O O2 0.716803 0.717917 0.660868
O O3 0.844761 0.791419 0.645448
O O4 0.686708 0.498024 0.935481
O O5 0.375252 0.105438 0.424352
O O6 0.514148 0.295890 0.307836
O O7 0.500000 0.000000 0.500000
O O8 0.519300 0.782075 0.292671
O O9 0.890985 0.333998 0.812366
O O10 0.000000 0.000000 0.500000
O O11 0.998790 0.964779 0.740285
O O12 0.808413 0.296503 0.185522
O O13 0.934128 0.352400 0.191465
O O14 0.745645 0.105790 0.508453
O O15 0.000000 0.000000 0.000000
O O16 0.645147 0.472331 0.251987
O O17 0.840086 0.667637 0.024161
O O18 0.500000 0.000000 0.000000
#
# Coordination Sequence:
#
# PCOD9057110 Si02
#       8
#     2   2   2   2   2   2   2   2
#     4  11  25  45  71 115 148 206 269 332 400 488
#     4  12  30  54  79 115 159 212 279 343 409 484
#     4  11  22  41  70 105 157 200 253 323 403 482
#     4  12  24  48  78 112 160 201 263 337 410 488
#     4  11  25  42  71 114 150 212 258 328 412 480
#     4  11  23  41  73 108 154 200 262 326 401 490
#     4  12  27  51  82 113 159 218 272 337 411 488
#     4  12  28  48  81 112 162 208 279 334 410 483
#
# _framework density 24.685043
#
# number of rings (size 3 to 8) (size 9 to 14) (size 15 to 20)
#    0.000    0.500    3.750    3.750    7.000    5.500 
#    0.000    0.000    0.000    0.000    0.000    0.000 
#    0.000    0.000    0.000    0.000    0.000    0.000 
#
# Total GULP energy -89091.362760 kJ/mol
# GULP energy per Si atom -5568.210172 kJ/mol
# Density = 2.462886 g / cm^3
# Si number density = 24.685043 Si / 1000 Ang^3
#
#
#
# Elastic Constant Matrix: (Units=GPa)
#
#
# Indices 1 2 3 4 5 6 
#
# 1 159.2677 27.5982 1.7137 -14.1268 -9.7814 12.3677
# 2 27.5982 107.0262 24.3809 -17.4204 -13.4910 16.0761
# 3 1.7137 24.3809 44.5617 -14.9012 3.1438 28.5297
# 4 -14.1268 -17.4204 -14.9012 40.5020 2.9337 -3.0062
# 5 -9.7814 -13.4910 3.1438 2.9337 41.2729 -6.3181
# 6 12.3677 16.0761 28.5297 -3.0062 -6.3181 46.9409
#
#
#
# Elastic Compliance Matrix: (Units=1/GPa)
#
#
# Indices 1 2 3 4 5 6 
#
# 1 0.007052 -0.001689 0.003752 0.002856 0.000116 -0.003361
# 2 -0.001689 0.011994 -0.006993 0.001792 0.004118 0.001257
# 3 0.003752 -0.006993 0.051780 0.015891 -0.011147 -0.030547
# 4 0.002856 0.001792 0.015891 0.031865 -0.003664 -0.009477
# 5 0.000116 0.004118 -0.011147 -0.003664 0.028071 0.008877
# 6 -0.003361 0.001257 -0.030547 -0.009477 0.008877 0.040912
#
#
# Mechanical properties :
#
#
# Convention : Reuss Voigt Hill
#
# Bulk Modulus (GPa) = 16.40265 46.47125 31.43695
# Shear Modulus (GPa) = 24.76987 42.88735 33.82861
#
# Velocity S-wave (km/s) = 3.17114 4.17271 3.70592
# Velocity P-wave (km/s) = 4.47966 6.48706 5.57446
#
# Compressibility (1/GPa) = 0.06096578
#
# Stress axis : x y z
#
# Youngs Moduli (GPa) = 141.79414 83.37461 19.31245
#
# Poissons Ratio (x) = 0.14081 -0.07245
# Poissons Ratio (y) = 0.23947 0.13506
# Poissons Ratio (z) = -0.53197 0.58306
#
# Static dielectric constant tensor:
#      x y z
#    x 2.008360 0.012140 0.019130 
#    y 0.012140 2.047120 0.010540 
#    z 0.019130 0.010540 2.025820 
# 
# From -- ./inp_files/468344.got.cif
#   From: 2010.05.17/outbox.cif.g08.bks.cpg/sg2_235_cif.got.tgz:468344.got - 2010.06.03 11:33:40.
