data_PCOD9057444
_publ_section_title
;
Structure prediction by ZEFSAII (Michael W. Deem and Ramdas Pophale) SiO2 
 PCOD9057444
Probable space group: P -1
;
_chemical_formula_sum "Si O2"
_cell_formula_units_Z 16
_cell_length_a 10.076339
_cell_length_b 11.147389
_cell_length_c 8.999435
_cell_angle_alpha 130.461419
_cell_angle_beta 75.332055
_cell_angle_gamma 83.042657
_cell_volume 685.809220
_symmetry_space_group_name_H-M "P -1"
_symmetry_group_IT_number 2
_symmetry_cell_setting 'triclinic'
loop_
_space_group_symop_operation_xyz
x,y,z
-x,-y,-z
loop_
_atom_site_type_symbol
_atom_site_label
_atom_site_fract_x
_atom_site_fract_y
_atom_site_fract_z
Si Si1 0.026988 0.191778 0.277401
Si Si2 0.971022 0.932146 0.296115
Si Si3 0.117688 0.629292 0.837813
Si Si4 0.323329 0.149815 0.048785
Si Si5 0.390602 0.425586 0.394917
Si Si6 0.362536 0.604753 0.226631
Si Si7 0.115570 0.498559 0.219754
Si Si8 0.360186 0.974679 0.594955
O O1 0.205392 0.110725 0.153229
O O2 0.961790 0.240303 0.170842
O O3 0.973552 0.370790 0.521553
O O4 0.961022 0.075356 0.291597
O O5 0.811672 0.910886 0.314968
O O6 0.000000 0.000000 0.500000
O O7 0.113037 0.764231 0.072712
O O8 0.256519 0.488857 0.603169
O O9 0.012345 0.538651 0.856257
O O10 0.423354 0.228032 0.179531
O O11 0.221684 0.318973 0.118510
O O12 0.379664 0.007529 0.790681
O O13 0.500000 0.500000 0.500000
O O14 0.363392 0.525092 0.325454
O O15 0.217495 0.583541 0.182433
O O16 0.366864 0.788299 0.399976
O O17 0.500000 0.500000 0.000000
O O18 0.500000 0.000000 0.500000
#
# Coordination Sequence:
#
# PCOD9057444 Si02
#       8
#     2   2   2   2   2   2   2   2
#     4  11  18  39  70  94 119 161 224 260 307 390
#     4  12  27  41  62  99 135 166 211 281 329 365
#     4  11  20  39  70  93 119 170 218 262 314 391
#     4  10  20  37  69  97 115 165 220 263 307 386
#     4  11  23  42  64  98 133 163 208 276 328 373
#     4  11  24  40  66  93 125 176 219 253 315 399
#     4  10  17  36  68  94 116 151 227 258 296 372
#     4  12  24  42  67  91 132 177 219 259 318 394
#
# _framework density 23.330100999999999
#
# number of rings (size 3 to 8) (size 9 to 14) (size 15 to 20)
#    0.000    1.000    7.500    2.625    1.750    2.000 
#    2.250    1.250    0.000    0.000    0.000    0.000 
#    0.000    0.000    0.000    0.000    0.000    0.000 
#
# Total GULP energy -89230.035875 kJ/mol
# GULP energy per Si atom -5576.877242 kJ/mol
# Density = 2.327700 g / cm^3
# Si number density = 23.330101 Si / 1000 Ang^3
#
#
#
# Elastic Constant Matrix: (Units=GPa)
#
#
# Indices 1 2 3 4 5 6 
#
# 1 98.8509 35.4050 31.1966 -18.8738 3.7884 41.6354
# 2 35.4050 67.4357 30.8472 -13.1077 -2.9869 28.6442
# 3 31.1966 30.8472 170.5077 11.7799 4.5030 22.6195
# 4 -18.8738 -13.1077 11.7799 29.8712 8.9890 2.7011
# 5 3.7884 -2.9869 4.5030 8.9890 33.3534 -9.8173
# 6 41.6354 28.6442 22.6195 2.7011 -9.8173 45.3866
#
#
#
# Elastic Compliance Matrix: (Units=1/GPa)
#
#
# Indices 1 2 3 4 5 6 
#
# 1 0.035446 0.008485 -0.004257 0.039664 -0.026271 -0.043793
# 2 0.008485 0.028985 -0.004524 0.026385 -0.013181 -0.028243
# 3 -0.004257 -0.004524 0.007449 -0.008789 0.002662 0.004147
# 4 0.039664 0.026385 -0.008789 0.092830 -0.044773 -0.063866
# 5 -0.026271 -0.013181 0.002662 -0.044773 0.057061 0.046099
# 6 -0.043793 -0.028243 0.004147 -0.063866 0.046099 0.091736
#
#
# Mechanical properties :
#
#
# Convention : Reuss Voigt Hill
#
# Bulk Modulus (GPa) = 14.02778 59.07687 36.55233
# Shear Modulus (GPa) = 14.79891 37.67863 26.23877
#
# Velocity S-wave (km/s) = 2.52132 4.02309 3.35725
# Velocity P-wave (km/s) = 3.80813 6.85256 5.54344
#
# Compressibility (1/GPa) = 0.07128711
#
# Stress axis : x y z
#
# Youngs Moduli (GPa) = 28.21206 34.50060 134.24655
#
# Poissons Ratio (x) = -0.29274 0.57153
# Poissons Ratio (y) = -0.23938 0.60736
# Poissons Ratio (z) = 0.12011 0.15609
#
# Static dielectric constant tensor:
#      x y z
#    x 2.043290 -0.030830 0.019600 
#    y -0.030830 1.895480 0.016260 
#    z 0.019600 0.016260 1.956950 
# 
# From -- ./inp_files/263337.got.cif
#   From: 2010.05.17/outbox.cif.g08.bks.cpg/sg2_132_cif.got.tgz:263337.got - 2010.06.03 11:33:40.
