data_PCOD9057156
_publ_section_title
;
Structure prediction by ZEFSAII (Michael W. Deem and Ramdas Pophale) SiO2 
 PCOD9057156
Probable space group: P -1
;
_chemical_formula_sum "Si O2"
_cell_formula_units_Z 16
_cell_length_a 13.562536
_cell_length_b 9.011394
_cell_length_c 18.567921
_cell_angle_alpha 132.865181
_cell_angle_beta 27.983877
_cell_angle_gamma 137.034855
_cell_volume 721.601355
_symmetry_space_group_name_H-M "P -1"
_symmetry_group_IT_number 2
_symmetry_cell_setting 'triclinic'
loop_
_space_group_symop_operation_xyz
x,y,z
-x,-y,-z
loop_
_atom_site_type_symbol
_atom_site_label
_atom_site_fract_x
_atom_site_fract_y
_atom_site_fract_z
Si Si1 0.136850 0.885231 0.733010
Si Si2 0.659562 0.668845 0.176102
Si Si3 0.662555 0.551248 0.981518
Si Si4 0.885549 0.827463 0.286207
Si Si5 0.716030 0.101328 0.839908
Si Si6 0.347548 0.587748 0.554137
Si Si7 0.558874 0.733900 0.705875
Si Si8 0.869352 0.384723 0.143157
O O1 0.088121 0.977448 0.720040
O O2 0.260775 0.715803 0.593629
O O3 0.893718 0.756712 0.883615
O O4 0.305026 0.093051 0.738388
O O5 0.530401 0.470786 0.248234
O O6 0.561776 0.609868 0.139384
O O7 0.918531 0.681779 0.010473
O O8 0.722100 0.338955 0.891642
O O9 0.500000 0.500000 0.000000
O O10 0.615882 0.714068 0.437229
O O11 0.941482 0.631871 0.147600
O O12 0.063101 0.893368 0.257878
O O13 0.686246 0.949107 0.739733
O O14 0.500000 0.000000 0.000000
O O15 0.315022 0.352253 0.464823
O O16 0.781322 0.403237 0.286587
O O17 0.344414 0.760036 0.813615
#
# Coordination Sequence:
#
# PCOD9057156 Si02
#       8
#     2   2   2   2   2   2   2   2
#     4  12  25  43  70 101 141 178 229 286 344 401
#     4  12  23  42  72 102 132 176 240 280 345 396
#     4  12  27  43  65 103 145 175 215 288 353 403
#     4  11  22  41  71  97 135 184 222 283 339 404
#     4  12  24  45  68 100 142 180 233 279 343 412
#     4  11  24  46  67 105 139 177 234 286 341 402
#     4  11  24  40  74 100 134 182 232 280 341 408
#     4  11  22  43  69 103 130 175 240 292 328 400
#
# _framework density 22.172906000000001
#
# number of rings (size 3 to 8) (size 9 to 14) (size 15 to 20)
#    0.000    0.500    6.250    3.375    3.500    0.000 
#    0.000    7.500    0.000    0.000    0.000    0.000 
#    0.000    0.000    0.000    0.000    0.000    0.000 
#
# Total GULP energy -89531.811887 kJ/mol
# GULP energy per Si atom -5595.738243 kJ/mol
# Density = 2.212244 g / cm^3
# Si number density = 22.172906 Si / 1000 Ang^3
#
#
#
# Elastic Constant Matrix: (Units=GPa)
#
#
# Indices 1 2 3 4 5 6 
#
# 1 168.4432 27.8222 11.8908 2.8810 0.4566 10.4534
# 2 27.8222 84.0778 -1.4004 0.1177 9.5079 -4.8498
# 3 11.8908 -1.4004 58.2056 -3.4897 4.0555 -6.0618
# 4 2.8810 0.1177 -3.4897 24.9162 -5.8753 2.4241
# 5 0.4566 9.5079 4.0555 -5.8753 36.8037 7.6760
# 6 10.4534 -4.8498 -6.0618 2.4241 7.6760 42.6447
#
#
#
# Elastic Compliance Matrix: (Units=1/GPa)
#
#
# Indices 1 2 3 4 5 6 
#
# 1 0.006623 -0.002487 -0.001767 -0.000500 0.001163 -0.002338
# 2 -0.002487 0.013423 0.001414 -0.000926 -0.004404 0.003182
# 3 -0.001767 0.001414 0.018251 0.001737 -0.002828 0.003599
# 4 -0.000500 -0.000926 0.001737 0.042571 0.007584 -0.003521
# 5 0.001163 -0.004404 -0.002828 0.007584 0.031331 -0.007259
# 6 -0.002338 0.003182 0.003599 -0.003521 -0.007259 0.026403
#
#
# Mechanical properties :
#
#
# Convention : Reuss Voigt Hill
#
# Bulk Modulus (GPa) = 30.65904 43.03910 36.84907
# Shear Modulus (GPa) = 32.22591 39.03384 35.62987
#
# Velocity S-wave (km/s) = 3.81647 4.20030 4.01298
# Velocity P-wave (km/s) = 5.76870 6.55562 6.17471
#
# Compressibility (1/GPa) = 0.03261681
#
# Stress axis : x y z
#
# Youngs Moduli (GPa) = 150.99546 74.49867 54.79009
#
# Poissons Ratio (x) = 0.18525 0.09683
# Poissons Ratio (y) = 0.37547 -0.07746
# Poissons Ratio (z) = 0.26685 -0.10532
#
# Static dielectric constant tensor:
#      x y z
#    x 1.859890 -0.036350 0.036430 
#    y -0.036350 1.844490 -0.028950 
#    z 0.036430 -0.028950 1.842660 
# 
# From -- ./inp_files/597455.got.cif
#   From: 2010.05.17/outbox.cif.g08.bks.cpg/sg2_299_cif.got.tgz:597455.got - 2010.06.03 11:33:40.
