data_PCOD9057934
_publ_section_title
;
Structure prediction by ZEFSAII (Michael W. Deem and Ramdas Pophale) SiO2 
 PCOD9057934
Probable space group: P -1
;
_chemical_formula_sum "Si O2"
_cell_formula_units_Z 14
_cell_length_a 7.521332
_cell_length_b 9.576103
_cell_length_c 9.213633
_cell_angle_alpha 55.368201
_cell_angle_beta 109.464984
_cell_angle_gamma 99.922083
_cell_volume 514.701258
_symmetry_space_group_name_H-M "P -1"
_symmetry_group_IT_number 2
_symmetry_cell_setting 'triclinic'
loop_
_space_group_symop_operation_xyz
x,y,z
-x,-y,-z
loop_
_atom_site_type_symbol
_atom_site_label
_atom_site_fract_x
_atom_site_fract_y
_atom_site_fract_z
Si Si1 0.197021 0.117773 0.052716
Si Si2 0.704783 0.451223 0.452679
Si Si3 0.745433 0.842556 0.282544
Si Si4 0.579268 0.318921 0.073346
Si Si5 0.857463 0.381977 0.853651
Si Si6 0.553888 0.106749 0.593774
Si Si7 0.058383 0.695154 0.645981
O O1 0.388138 0.218793 0.072305
O O2 0.237031 0.953949 0.261275
O O3 0.023571 0.239655 0.978422
O O4 0.197438 0.078918 0.902870
O O5 0.677397 0.652440 0.336422
O O6 0.550626 0.311495 0.448562
O O7 0.867119 0.423193 0.395151
O O8 0.768255 0.396394 0.661623
O O9 0.577907 0.922513 0.284496
O O10 0.916114 0.826149 0.454043
O O11 0.691176 0.340551 0.941728
O O12 0.750776 0.245779 0.263061
O O13 0.500000 0.500000 0.000000
O O14 0.946357 0.568021 0.794854
O O15 0.500000 0.000000 0.500000
#
# Coordination Sequence:
#
# PCOD9057934 Si02
#       7
#     2   2   2   2   2   2   2
#     4  12  25  48  72 107 152 194 254 300 372 456
#     4  11  22  48  76 108 140 199 254 303 365 442
#     4  11  23  48  77 102 148 199 254 308 359 447
#     4  12  25  41  72 114 152 194 248 309 380 439
#     4  11  23  43  76 110 142 196 249 313 366 439
#     4  12  29  45  70 114 156 195 246 311 378 441
#     4  11  22  43  75 110 148 186 254 316 363 430
#
# _framework density 27.200244000000001
#
# number of rings (size 3 to 8) (size 9 to 14) (size 15 to 20)
#    0.000    0.571    4.286    3.857    2.000    5.143 
#    2.571    1.429    0.000    0.000    0.000    0.000 
#    0.000    0.000    0.000    0.000    0.000    0.000 
#
# Total GULP energy -78519.688951 kJ/mol
# GULP energy per Si atom -5608.549211 kJ/mol
# Density = 2.713834 g / cm^3
# Si number density = 27.200244 Si / 1000 Ang^3
#
#
#
# Elastic Constant Matrix: (Units=GPa)
#
#
# Indices 1 2 3 4 5 6 
#
# 1 129.6662 36.0887 17.9144 -4.9537 9.1869 -6.1308
# 2 36.0887 107.2103 40.4026 1.4574 0.0307 12.9213
# 3 17.9144 40.4026 135.8173 15.9843 19.4256 -4.1148
# 4 -4.9537 1.4574 15.9843 50.5853 0.3981 1.2370
# 5 9.1869 0.0307 19.4256 0.3981 44.7719 3.3110
# 6 -6.1308 12.9213 -4.1148 1.2370 3.3110 64.1337
#
#
#
# Elastic Compliance Matrix: (Units=1/GPa)
#
#
# Indices 1 2 3 4 5 6 
#
# 1 0.008844 -0.003175 -0.000008 0.000937 -0.001933 0.001566
# 2 -0.003175 0.012166 -0.003718 0.000570 0.002483 -0.003132
# 3 -0.000008 -0.003718 0.009459 -0.002889 -0.004194 0.001627
# 4 0.000937 0.000570 -0.002889 0.020766 0.000925 -0.000659
# 5 -0.001933 0.002483 -0.004194 0.000925 0.024708 -0.002248
# 6 0.001566 -0.003132 0.001627 -0.000659 -0.002248 0.016606
#
#
# Mechanical properties :
#
#
# Convention : Reuss Voigt Hill
#
# Bulk Modulus (GPa) = 59.99665 62.38949 61.19307
# Shear Modulus (GPa) = 44.68015 50.45071 47.56543
#
# Velocity S-wave (km/s) = 4.05734 4.31140 4.18630
# Velocity P-wave (km/s) = 6.63737 6.91166 6.77590
#
# Compressibility (1/GPa) = 0.01666760
#
# Stress axis : x y z
#
# Youngs Moduli (GPa) = 113.07537 82.19545 105.71815
#
# Poissons Ratio (x) = 0.26094 0.00089
# Poissons Ratio (y) = 0.35898 0.39301
# Poissons Ratio (z) = 0.00096 0.30556
#
# Static dielectric constant tensor:
#      x y z
#    x 2.123600 0.069330 -0.058360 
#    y 0.069330 2.118520 -0.007670 
#    z -0.058360 -0.007670 2.210160 
# 
# From -- ./inp_files/446833.got.cif
#   From: 2010.05.17/outbox.cif.g08.bks.cpg/sg2_224_cif.got.tgz:446833.got - 2010.06.03 11:33:40.
