data_PCOD9057603
_publ_section_title
;
Structure prediction by ZEFSAII (Michael W. Deem and Ramdas Pophale) SiO2 
 PCOD9057603
Probable space group: P -1
;
_chemical_formula_sum "Si O2"
_cell_formula_units_Z 13
_cell_length_a 16.013298
_cell_length_b 7.929971
_cell_length_c 8.394686
_cell_angle_alpha 145.138809
_cell_angle_beta 58.510048
_cell_angle_gamma 115.326900
_cell_volume 519.581231
_symmetry_space_group_name_H-M "P -1"
_symmetry_group_IT_number 2
_symmetry_cell_setting 'triclinic'
loop_
_space_group_symop_operation_xyz
x,y,z
-x,-y,-z
loop_
_atom_site_type_symbol
_atom_site_label
_atom_site_fract_x
_atom_site_fract_y
_atom_site_fract_z
Si Si1 0.271013 0.490158 0.810099
Si Si2 0.545582 0.686706 0.952093
Si Si3 0.912639 0.421085 0.408519
Si Si4 0.252937 0.858323 0.417287
Si Si5 0.500000 0.500000 0.500000
Si Si6 0.347928 0.854808 0.618471
Si Si7 0.153759 0.947068 0.072826
O O1 0.378266 0.473339 0.610327
O O2 0.194680 0.720372 0.986123
O O3 0.225111 0.165103 0.602217
O O4 0.282648 0.613719 0.072545
O O5 0.498120 0.668183 0.811958
O O6 0.644515 0.495682 0.677419
O O7 0.500000 0.500000 0.000000
O O8 0.566135 0.012876 0.253338
O O9 0.830341 0.280269 0.496505
O O10 0.927844 0.196185 0.073172
O O11 0.000000 0.500000 0.500000
O O12 0.877678 0.726172 0.598653
O O13 0.343500 0.953037 0.515719
O O14 0.250151 0.970471 0.884481
#
# Coordination Sequence:
#
# PCOD9057603 Si02
#       7
#     2   2   2   2   1   2   2
#     4  12  26  45  68 106 147 198 238 303 366 421
#     4  12  25  41  63  97 136 188 252 313 343 417
#     4  11  24  47  78 106 135 185 241 296 369 464
#     4  11  24  45  73 102 144 190 240 303 369 441
#     4  12  28  44  70 104 152 198 262 300 356 428
#     4  11  22  43  64  91 132 189 236 281 361 419
#     4  11  23  44  71 100 145 185 230 296 373 434
#
# _framework density 25.020150999999998
#
# number of rings (size 3 to 8) (size 9 to 14) (size 15 to 20)
#    0.000    0.615    1.538    8.308    2.154    2.462 
#    0.000    4.615    0.000    0.000    0.000    0.000 
#    0.000    0.000    0.000    0.000    0.000    0.000 
#
# Total GULP energy -72417.133454 kJ/mol
# GULP energy per Si atom -5570.548727 kJ/mol
# Density = 2.496320 g / cm^3
# Si number density = 25.020151 Si / 1000 Ang^3
#
#
#
# Elastic Constant Matrix: (Units=GPa)
#
#
# Indices 1 2 3 4 5 6 
#
# 1 91.2919 27.1984 8.5918 3.4141 27.4519 -5.1925
# 2 27.1984 75.8981 41.0480 16.8652 13.4444 -7.8056
# 3 8.5918 41.0480 125.4549 17.3515 26.0412 3.9444
# 4 3.4141 16.8652 17.3515 49.0270 -20.4461 4.9515
# 5 27.4519 13.4444 26.0412 -20.4461 47.6746 4.7700
# 6 -5.1925 -7.8056 3.9444 4.9515 4.7700 19.7008
#
#
#
# Elastic Compliance Matrix: (Units=1/GPa)
#
#
# Indices 1 2 3 4 5 6 
#
# 1 0.017081 -0.002324 0.004036 -0.009588 -0.016413 0.009157
# 2 -0.002324 0.021426 -0.004066 -0.010614 -0.008374 0.013386
# 3 0.004036 -0.004066 0.012614 -0.008512 -0.011913 0.001951
# 4 -0.009588 -0.010614 -0.008512 0.044747 0.034826 -0.024707
# 5 -0.016413 -0.008374 -0.011913 0.034826 0.057014 -0.027816
# 6 0.009157 0.013386 0.001951 -0.024707 -0.027816 0.071031
#
#
# Mechanical properties :
#
#
# Convention : Reuss Voigt Hill
#
# Bulk Modulus (GPa) = 21.54608 49.59125 35.56866
# Shear Modulus (GPa) = 20.48409 37.66761 29.07585
#
# Velocity S-wave (km/s) = 2.86440 3.88427 3.41265
# Velocity P-wave (km/s) = 4.42379 6.32300 5.45666
#
# Compressibility (1/GPa) = 0.04641216
#
# Stress axis : x y z
#
# Youngs Moduli (GPa) = 58.54352 46.67246 79.27950
#
# Poissons Ratio (x) = 0.10848 -0.31995
# Poissons Ratio (y) = 0.13607 0.32234
# Poissons Ratio (z) = -0.23627 0.18976
#
# Static dielectric constant tensor:
#      x y z
#    x 2.131740 -0.130580 0.003230 
#    y -0.130580 2.161840 0.024260 
#    z 0.003230 0.024260 1.918890 
# 
# From -- ./inp_files/297160.got.cif
#   From: 2010.05.17/outbox.cif.g08.bks.cpg/sg2_149_cif.got.tgz:297160.got - 2010.06.03 11:33:40.
