data_PCOD9057713
_publ_section_title
;
Structure prediction by ZEFSAII (Michael W. Deem and Ramdas Pophale) SiO2 
 PCOD9057713
Probable space group: P -1
;
_chemical_formula_sum "Si O2"
_cell_formula_units_Z 14
_cell_length_a 13.039834
_cell_length_b 7.784659
_cell_length_c 6.755004
_cell_angle_alpha 96.503269
_cell_angle_beta 100.226191
_cell_angle_gamma 53.335443
_cell_volume 541.274528
_symmetry_space_group_name_H-M "P -1"
_symmetry_group_IT_number 2
_symmetry_cell_setting 'triclinic'
loop_
_space_group_symop_operation_xyz
x,y,z
-x,-y,-z
loop_
_atom_site_type_symbol
_atom_site_label
_atom_site_fract_x
_atom_site_fract_y
_atom_site_fract_z
Si Si1 0.053492 0.276135 0.114328
Si Si2 0.259599 0.488783 0.242855
Si Si3 0.349413 0.163852 0.904043
Si Si4 0.692579 0.853715 0.564979
Si Si5 0.971175 0.325157 0.493205
Si Si6 0.358325 0.709119 0.477597
Si Si7 0.805363 0.029848 0.204900
O O1 0.729705 0.607222 0.980853
O O2 0.095442 0.079593 0.958252
O O3 0.960971 0.286175 0.254209
O O4 0.000000 0.500000 0.000000
O O5 0.362640 0.254231 0.347460
O O6 0.289683 0.660212 0.281220
O O7 0.140732 0.594702 0.373983
O O8 0.312992 0.216485 0.667452
O O9 0.287559 0.036125 0.903889
O O10 0.500000 0.000000 0.000000
O O11 0.821075 0.777821 0.728070
O O12 0.634674 0.098585 0.552301
O O13 0.098670 0.115425 0.600742
O O14 0.000000 0.500000 0.500000
O O15 0.500000 0.500000 0.500000
O O16 0.289389 0.751924 0.675422
#
# Coordination Sequence:
#
# PCOD9057713 Si02
#       7
#     2   2   2   2   2   2   2
#     4  12  22  41  79 108 145 198 236 304 386 447
#     4  12  25  44  77 111 143 200 253 300 384 451
#     4  11  23  42  70 103 143 198 255 301 355 437
#     4  11  24  48  73 105 154 186 253 308 369 434
#     4  12  20  40  72 108 148 189 238 307 382 441
#     4  11  26  49  72 105 155 198 253 315 358 438
#     4  11  22  43  69 103 153 191 241 312 374 435
#
# _framework density 25.864878000000001
#
# number of rings (size 3 to 8) (size 9 to 14) (size 15 to 20)
#    0.000    0.571    7.143    1.714    0.000    2.857 
#    2.571    1.429    0.000    0.000    0.000    0.000 
#    0.000    0.000    0.000    0.000    0.000    0.000 
#
# Total GULP energy -77938.776591 kJ/mol
# GULP energy per Si atom -5567.055471 kJ/mol
# Density = 2.580601 g / cm^3
# Si number density = 25.864878 Si / 1000 Ang^3
#
#
#
# Elastic Constant Matrix: (Units=GPa)
#
#
# Indices 1 2 3 4 5 6 
#
# 1 55.7461 49.9353 41.7214 -1.2809 8.9389 -20.4947
# 2 49.9353 119.4004 87.2477 25.7953 -11.2512 -28.1994
# 3 41.7214 87.2477 209.2293 19.9383 -7.1392 -24.2070
# 4 -1.2809 25.7953 19.9383 61.4609 -1.5217 5.7158
# 5 8.9389 -11.2512 -7.1392 -1.5217 36.8383 10.8121
# 6 -20.4947 -28.1994 -24.2070 5.7158 10.8121 38.3641
#
#
#
# Elastic Compliance Matrix: (Units=1/GPa)
#
#
# Indices 1 2 3 4 5 6 
#
# 1 0.042197 -0.016777 -0.001074 0.006483 -0.019425 0.014041
# 2 -0.016777 0.021909 -0.004343 -0.008218 0.008645 0.003189
# 3 -0.001074 -0.004343 0.006932 -0.000509 0.000061 0.000666
# 4 0.006483 -0.008218 -0.000509 0.020485 -0.001732 -0.005463
# 5 -0.019425 0.008645 0.000061 -0.001732 0.038738 -0.014643
# 6 0.014041 0.003189 0.000666 -0.005463 -0.014643 0.041272
#
#
# Mechanical properties :
#
#
# Convention : Reuss Voigt Hill
#
# Bulk Modulus (GPa) = 37.52598 82.46494 59.99546
# Shear Modulus (GPa) = 22.24159 41.03077 31.63618
#
# Velocity S-wave (km/s) = 2.93561 3.98722 3.50113
# Velocity P-wave (km/s) = 5.10200 7.29037 6.29205
#
# Compressibility (1/GPa) = 0.02664821
#
# Stress axis : x y z
#
# Youngs Moduli (GPa) = 23.69865 45.64433 144.24849
#
# Poissons Ratio (x) = 0.76578 0.15497
# Poissons Ratio (y) = 0.39759 0.62651
# Poissons Ratio (z) = 0.02546 0.19825
#
# Static dielectric constant tensor:
#      x y z
#    x 2.293990 -0.109410 -0.073140 
#    y -0.109410 2.054470 0.031100 
#    z -0.073140 0.031100 2.139810 
# 
# From -- ./inp_files/296185.got.cif
#   From: 2010.05.17/outbox.cif.g08.bks.cpg/sg2_149_cif.got.tgz:296185.got - 2010.06.03 11:33:40.
