data_PCOD9057741
_publ_section_title
;
Structure prediction by ZEFSAII (Michael W. Deem and Ramdas Pophale) SiO2 
 PCOD9057741
Probable space group: P -1
;
_chemical_formula_sum "Si O2"
_cell_formula_units_Z 16
_cell_length_a 11.656855
_cell_length_b 14.647822
_cell_length_c 10.758006
_cell_angle_alpha 28.897760
_cell_angle_beta 115.638660
_cell_angle_gamma 125.430649
_cell_volume 710.113302
_symmetry_space_group_name_H-M "P -1"
_symmetry_group_IT_number 2
_symmetry_cell_setting 'triclinic'
loop_
_space_group_symop_operation_xyz
x,y,z
-x,-y,-z
loop_
_atom_site_type_symbol
_atom_site_label
_atom_site_fract_x
_atom_site_fract_y
_atom_site_fract_z
Si Si1 0.897057 0.336506 0.473568
Si Si2 0.402129 0.746684 0.263427
Si Si3 0.577846 0.152623 0.470614
Si Si4 0.891262 0.233312 0.855748
Si Si5 0.583155 0.276492 0.975156
Si Si6 0.863215 0.913576 0.446543
Si Si7 0.895952 0.523611 0.824987
Si Si8 0.546900 0.624217 0.701042
O O1 0.748885 0.258809 0.424134
O O2 0.883805 0.180093 0.768289
O O3 0.951873 0.566789 0.289522
O O4 0.021631 0.395199 0.361960
O O5 0.240722 0.710578 0.253582
O O6 0.419853 0.651836 0.253035
O O7 0.458999 0.657920 0.506458
O O8 0.500000 0.000000 0.000000
O O9 0.531375 0.334441 0.265761
O O10 0.500000 0.000000 0.500000
O O11 0.525152 0.971463 0.768490
O O12 0.876076 0.070934 0.152222
O O13 0.746230 0.310348 0.015922
O O14 0.556884 0.413521 0.907954
O O15 0.857450 0.705636 0.630294
O O16 0.708468 0.818580 0.552739
O O17 0.000000 0.000000 0.500000
O O18 0.000000 0.500000 0.000000
#
# Coordination Sequence:
#
# PCOD9057741 Si02
#       8
#     2   2   2   2   2   2   2   2
#     4  11  24  43  69 103 139 189 228 286 373 416
#     4  12  19  41  76  99 136 177 224 295 353 417
#     4  12  26  45  71  99 146 190 231 297 355 419
#     4  11  22  43  70 101 143 184 227 292 365 420
#     4  11  24  44  71 100 135 183 233 295 340 427
#     4  11  25  41  70 104 135 180 238 291 338 431
#     4  11  24  43  69  98 136 183 235 283 347 420
#     4  11  25  44  70 107 133 179 244 280 357 422
#
# _framework density 22.531616
#
# number of rings (size 3 to 8) (size 9 to 14) (size 15 to 20)
#    0.000    0.750    5.000    1.875    3.500    2.000 
#    2.250    0.000    0.000    0.000    0.000    0.000 
#    0.000    0.000    0.000    0.000    0.000    0.000 
#
# Total GULP energy -89296.719285 kJ/mol
# GULP energy per Si atom -5581.044955 kJ/mol
# Density = 2.248033 g / cm^3
# Si number density = 22.531616 Si / 1000 Ang^3
#
#
#
# Elastic Constant Matrix: (Units=GPa)
#
#
# Indices 1 2 3 4 5 6 
#
# 1 92.3016 32.3554 16.1626 -1.9309 -0.9161 2.6730
# 2 32.3554 103.4592 -10.6409 3.1033 3.4050 6.7996
# 3 16.1626 -10.6409 46.1221 -4.3957 7.4559 7.6553
# 4 -1.9309 3.1033 -4.3957 40.5767 1.7897 -8.2199
# 5 -0.9161 3.4050 7.4559 1.7897 25.4112 -1.0052
# 6 2.6730 6.7996 7.6553 -8.2199 -1.0052 59.0802
#
#
#
# Elastic Compliance Matrix: (Units=1/GPa)
#
#
# Indices 1 2 3 4 5 6 
#
# 1 0.013835 -0.005191 -0.006678 0.000384 0.003164 0.000944
# 2 -0.005191 0.012119 0.005426 -0.000848 -0.003424 -0.002039
# 3 -0.006678 0.005426 0.027595 0.001901 -0.009349 -0.003793
# 4 0.000384 -0.000848 0.001901 0.025710 -0.002107 0.003375
# 5 0.003164 -0.003424 -0.009349 -0.002107 0.042892 0.001899
# 6 0.000944 -0.002039 -0.003793 0.003375 0.001899 0.018111
#
#
# Mechanical properties :
#
#
# Convention : Reuss Voigt Hill
#
# Bulk Modulus (GPa) = 24.59091 35.29301 29.94196
# Shear Modulus (GPa) = 29.99334 38.61401 34.30368
#
# Velocity S-wave (km/s) = 3.65247 4.14426 3.90612
# Velocity P-wave (km/s) = 5.35958 6.21270 5.80184
#
# Compressibility (1/GPa) = 0.04066543
#
# Stress axis : x y z
#
# Youngs Moduli (GPa) = 72.27970 82.51224 36.23787
#
# Poissons Ratio (x) = 0.42834 0.24198
# Poissons Ratio (y) = 0.37522 -0.19664
# Poissons Ratio (z) = 0.48265 -0.44775
#
# Static dielectric constant tensor:
#      x y z
#    x 1.896920 0.002190 -0.033500 
#    y 0.002190 2.005470 0.030800 
#    z -0.033500 0.030800 1.854610 
# 
# From -- ./inp_files/432320.got.cif
#   From: 2010.05.17/outbox.cif.g08.bks.cpg/sg2_217_cif.got.tgz:432320.got - 2010.06.03 11:33:40.
