data_PCOD9057922
_publ_section_title
;
Structure prediction by ZEFSAII (Michael W. Deem and Ramdas Pophale) SiO2 
 PCOD9057922
Probable space group: P -1
;
_chemical_formula_sum "Si O2"
_cell_formula_units_Z 16
_cell_length_a 9.001801
_cell_length_b 11.813381
_cell_length_c 9.521089
_cell_angle_alpha 92.210452
_cell_angle_beta 45.818746
_cell_angle_gamma 99.903829
_cell_volume 710.522393
_symmetry_space_group_name_H-M "P -1"
_symmetry_group_IT_number 2
_symmetry_cell_setting 'triclinic'
loop_
_space_group_symop_operation_xyz
x,y,z
-x,-y,-z
loop_
_atom_site_type_symbol
_atom_site_label
_atom_site_fract_x
_atom_site_fract_y
_atom_site_fract_z
Si Si1 0.422238 0.723970 0.081847
Si Si2 0.435384 0.526741 0.701354
Si Si3 0.814086 0.960304 0.429982
Si Si4 0.134451 0.905036 0.859936
Si Si5 0.789421 0.527084 0.707258
Si Si6 0.468219 0.778529 0.742251
Si Si7 0.800380 0.682432 0.978090
Si Si8 0.267609 0.942098 0.208459
O O1 0.322624 0.588557 0.140942
O O2 0.256450 0.805011 0.219540
O O3 0.525003 0.763873 0.866298
O O4 0.595605 0.739258 0.089821
O O5 0.500000 0.500000 0.500000
O O6 0.633101 0.541931 0.682196
O O7 0.365320 0.650026 0.752801
O O8 0.263052 0.421747 0.874382
O O9 0.673702 0.831325 0.517613
O O10 0.064825 0.964428 0.258362
O O11 0.752374 0.037761 0.351666
O O12 0.762095 0.010222 0.615614
O O13 0.308155 0.866613 0.843225
O O14 0.982379 0.784743 0.913405
O O15 0.000000 0.000000 0.000000
O O16 0.834553 0.627310 0.799990
O O17 0.000000 0.500000 0.500000
O O18 0.500000 0.000000 0.000000
#
# Coordination Sequence:
#
# PCOD9057922 Si02
#       8
#     2   2   2   2   2   2   2   2
#     4  11  22  43  75 101 143 189 243 305 372 434
#     4  11  26  46  73 108 145 191 241 307 383 440
#     4  11  27  44  70 104 147 192 248 303 370 442
#     4  12  30  47  69 106 153 199 248 307 381 442
#     4  11  25  44  73 108 144 190 247 306 369 449
#     4  12  25  47  72 102 151 189 249 311 370 449
#     4  11  25  49  73 103 148 192 249 308 365 447
#     4  11  23  42  73 108 135 191 250 305 360 437
#
# _framework density 22.518642
#
# number of rings (size 3 to 8) (size 9 to 14) (size 15 to 20)
#    0.000    0.750    3.750    2.625   10.500    2.500 
#    0.000    0.000    0.000    0.000    0.000    0.000 
#    0.000    0.000    0.000    0.000    0.000    0.000 
#
# Total GULP energy -89468.805555 kJ/mol
# GULP energy per Si atom -5591.800347 kJ/mol
# Density = 2.246739 g / cm^3
# Si number density = 22.518642 Si / 1000 Ang^3
#
#
#
# Elastic Constant Matrix: (Units=GPa)
#
#
# Indices 1 2 3 4 5 6 
#
# 1 84.4577 55.5112 43.6519 -11.3440 -3.1470 -5.5071
# 2 55.5112 125.5629 42.6181 -4.3581 5.4948 -7.3503
# 3 43.6519 42.6181 114.4327 -10.4684 3.1146 -4.8200
# 4 -11.3440 -4.3581 -10.4684 43.8706 -4.1212 -3.6359
# 5 -3.1470 5.4948 3.1146 -4.1212 37.2769 -2.2346
# 6 -5.5071 -7.3503 -4.8200 -3.6359 -2.2346 36.7660
#
#
#
# Elastic Compliance Matrix: (Units=1/GPa)
#
#
# Indices 1 2 3 4 5 6 
#
# 1 0.019539 -0.007041 -0.004523 0.003734 0.003569 0.001512
# 2 -0.007041 0.011762 -0.001709 -0.001206 -0.002270 0.000816
# 3 -0.004523 -0.001709 0.011267 0.001309 -0.000895 0.000533
# 4 0.003734 -0.001206 0.001309 0.024519 0.003281 0.003114
# 5 0.003569 -0.002270 -0.000895 0.003281 0.028019 0.001991
# 6 0.001512 0.000816 0.000533 0.003114 0.001991 0.028087
#
#
# Mechanical properties :
#
#
# Convention : Reuss Voigt Hill
#
# Bulk Modulus (GPa) = 62.41174 67.55730 64.98452
# Shear Modulus (GPa) = 32.24146 35.76086 34.00116
#
# Velocity S-wave (km/s) = 3.78798 3.98937 3.88997
# Velocity P-wave (km/s) = 6.84890 7.16141 7.00690
#
# Compressibility (1/GPa) = 0.01602263
#
# Stress axis : x y z
#
# Youngs Moduli (GPa) = 51.18008 85.01817 88.75395
#
# Poissons Ratio (x) = 0.59861 0.40143
# Poissons Ratio (y) = 0.36036 0.15167
# Poissons Ratio (z) = 0.23148 0.14528
#
# Static dielectric constant tensor:
#      x y z
#    x 3.194670 -0.322280 0.698440 
#    y -0.322280 1.962290 -0.165640 
#    z 0.698440 -0.165640 2.212590 
# 
# From -- ./inp_files/187329.got.cif
#   From: 2010.05.17/outbox.cif.g08.bks.cpg/sg2_94_cif.got.tgz:187329.got - 2010.06.03 11:33:40.
