data_PCOD9057990
_publ_section_title
;
Structure prediction by ZEFSAII (Michael W. Deem and Ramdas Pophale) SiO2 
 PCOD9057990
Probable space group: P -1
;
_chemical_formula_sum "Si O2"
_cell_formula_units_Z 15
_cell_length_a 10.325334
_cell_length_b 12.583589
_cell_length_c 18.632517
_cell_angle_alpha 150.755135
_cell_angle_beta 48.173271
_cell_angle_gamma 141.581637
_cell_volume 733.823201
_symmetry_space_group_name_H-M "P -1"
_symmetry_group_IT_number 2
_symmetry_cell_setting 'triclinic'
loop_
_space_group_symop_operation_xyz
x,y,z
-x,-y,-z
loop_
_atom_site_type_symbol
_atom_site_label
_atom_site_fract_x
_atom_site_fract_y
_atom_site_fract_z
Si Si1 0.388640 0.251120 0.177535
Si Si2 0.798736 0.185819 0.532170
Si Si3 0.500000 0.500000 0.000000
Si Si4 0.165011 0.485092 0.480089
Si Si5 0.470414 0.973057 0.749650
Si Si6 0.727355 0.252179 0.153250
Si Si7 0.885763 0.151581 0.636821
Si Si8 0.506713 0.355139 0.747964
O O1 0.257140 0.344095 0.321174
O O2 0.552878 0.263237 0.179577
O O3 0.507520 0.451898 0.186441
O O4 0.252639 0.964454 0.023160
O O5 0.767013 0.097297 0.573333
O O6 0.727534 0.386531 0.671511
O O7 0.034351 0.317960 0.499019
O O8 0.660918 0.940836 0.387504
O O9 0.475233 0.230988 0.882395
O O10 0.486922 0.400258 0.863845
O O11 0.000000 0.500000 0.500000
O O12 0.342426 0.762137 0.609936
O O13 0.709652 0.051812 0.704079
O O14 0.358258 0.848341 0.793883
O O15 0.941374 0.537377 0.240497
O O16 0.000000 0.000000 0.500000
#
# Coordination Sequence:
#
# PCOD9057990 Si02
#       8
#     2   2   1   2   2   2   2   2
#     4  11  25  47  70  99 141 184 229 291 347 414
#     4  11  23  41  66 101 139 180 234 281 345 414
#     4  12  24  42  70 102 136 180 228 288 356 400
#     4  12  24  42  70 104 135 183 231 283 349 412
#     4  12  26  46  72 104 143 183 235 287 347 416
#     4  11  26  49  70 102 144 185 233 287 348 413
#     4  12  26  45  72 105 139 188 233 286 346 418
#     4  11  22  44  67  99 141 181 231 293 340 415
#
# _framework density 20.440888999999999
#
# number of rings (size 3 to 8) (size 9 to 14) (size 15 to 20)
#    0.000    0.533    5.333    3.200    1.867    3.200 
#    0.000    4.000    0.000    0.000    0.000    0.000 
#    0.000    0.000    0.000    0.000    0.000    0.000 
#
# Total GULP energy -83591.653181 kJ/mol
# GULP energy per Si atom -5572.776879 kJ/mol
# Density = 2.039436 g / cm^3
# Si number density = 20.440889 Si / 1000 Ang^3
#
#
#
# Elastic Constant Matrix: (Units=GPa)
#
#
# Indices 1 2 3 4 5 6 
#
# 1 86.6922 31.3247 64.6147 -3.7444 1.5067 -15.3141
# 2 31.3247 81.7674 40.6353 7.6156 19.6099 4.3423
# 3 64.6147 40.6353 183.7113 5.7810 19.8312 8.6440
# 4 -3.7444 7.6156 5.7810 14.4063 -9.7442 -1.0008
# 5 1.5067 19.6099 19.8312 -9.7442 30.3994 2.3392
# 6 -15.3141 4.3423 8.6440 -1.0008 2.3392 30.4017
#
#
#
# Elastic Compliance Matrix: (Units=1/GPa)
#
#
# Indices 1 2 3 4 5 6 
#
# 1 0.036836 -0.022129 -0.015038 0.054644 0.037861 0.024878
# 2 -0.022129 0.033009 0.007501 -0.055506 -0.041603 -0.016621
# 3 -0.015038 0.007501 0.012672 -0.027480 -0.020277 -0.011594
# 4 0.054644 -0.055506 -0.027480 0.203294 0.113013 0.041264
# 5 0.037861 -0.041603 -0.020277 0.113013 0.105278 0.026399
# 6 0.024878 -0.016621 -0.011594 0.041264 0.026399 0.050422
#
#
# Mechanical properties :
#
#
# Convention : Reuss Voigt Hill
#
# Bulk Modulus (GPa) = 43.12831 69.48003 56.30417
# Shear Modulus (GPa) = 9.83144 29.41455 19.62299
#
# Velocity S-wave (km/s) = 2.19548 3.79754 3.10173
# Velocity P-wave (km/s) = 5.25088 7.30020 6.35864
#
# Compressibility (1/GPa) = 0.02318663
#
# Stress axis : x y z
#
# Youngs Moduli (GPa) = 27.14718 30.29453 78.91137
#
# Poissons Ratio (x) = 0.67038 1.18670
# Poissons Ratio (y) = 0.60073 -0.59195
# Poissons Ratio (z) = 0.40825 -0.22725
#
# Static dielectric constant tensor:
#      x y z
#    x 1.746670 -0.004590 -0.007310 
#    y -0.004590 1.758590 -0.005410 
#    z -0.007310 -0.005410 1.708260 
# 
# From -- ./inp_files/388742.got.cif
#   From: 2010.05.17/outbox.cif.g08.bks.cpg/sg2_195_cif.got.tgz:388742.got - 2010.06.03 11:33:40.
