data_PCOD9057455
_publ_section_title
;
Structure prediction by ZEFSAII (Michael W. Deem and Ramdas Pophale) SiO2 
 PCOD9057455
Probable space group: P -1
;
_chemical_formula_sum "Si O2"
_cell_formula_units_Z 14
_cell_length_a 9.438522
_cell_length_b 14.194712
_cell_length_c 11.175704
_cell_angle_alpha 29.532127
_cell_angle_beta 63.938653
_cell_angle_gamma 57.825371
_cell_volume 623.657458
_symmetry_space_group_name_H-M "P -1"
_symmetry_group_IT_number 2
_symmetry_cell_setting 'triclinic'
loop_
_space_group_symop_operation_xyz
x,y,z
-x,-y,-z
loop_
_atom_site_type_symbol
_atom_site_label
_atom_site_fract_x
_atom_site_fract_y
_atom_site_fract_z
Si Si1 0.969335 0.436992 0.884957
Si Si2 0.605652 0.370418 0.830090
Si Si3 0.167079 0.955683 0.065965
Si Si4 0.777331 0.442557 0.169775
Si Si5 0.213939 0.312317 0.534961
Si Si6 0.328252 0.002414 0.619943
Si Si7 0.027066 0.963942 0.364562
O O1 0.107022 0.486129 0.860155
O O2 0.940055 0.545353 0.646707
O O3 0.802084 0.511703 0.949346
O O4 0.014058 0.196280 0.123329
O O5 0.681064 0.225486 0.848877
O O6 0.407760 0.472724 0.803721
O O7 0.689438 0.541701 0.619395
O O8 0.658462 0.218843 0.091047
O O9 0.118774 0.898922 0.275249
O O10 0.192406 0.173240 0.805309
O O11 0.000000 0.000000 0.000000
O O12 0.853879 0.196874 0.410586
O O13 0.306689 0.144300 0.587424
O O14 0.500000 0.000000 0.500000
O O15 0.154894 0.064162 0.541646
#
# Coordination Sequence:
#
# PCOD9057455 Si02
#       7
#     2   2   2   2   2   2   2
#     4  11  23  43  68  94 135 180 216 267 339 391
#     4  11  25  42  68 102 130 174 223 277 324 388
#     4  11  22  44  67  99 135 167 231 271 319 393
#     4  11  26  43  63  99 139 170 220 273 334 394
#     4  11  22  42  70  98 126 180 219 272 324 386
#     4  11  23  39  66  99 134 167 223 274 319 393
#     4  12  24  44  66  98 135 178 215 271 334 393
#
# _framework density 22.448222999999999
#
# number of rings (size 3 to 8) (size 9 to 14) (size 15 to 20)
#    0.000    0.857    5.714    1.286    4.000    7.429 
#    0.000    1.429    0.000    0.000    0.000    0.000 
#    0.000    0.000    0.000    0.000    0.000    0.000 
#
# Total GULP energy -78266.503730 kJ/mol
# GULP energy per Si atom -5590.464552 kJ/mol
# Density = 2.239713 g / cm^3
# Si number density = 22.448223 Si / 1000 Ang^3
#
#
#
# Elastic Constant Matrix: (Units=GPa)
#
#
# Indices 1 2 3 4 5 6 
#
# 1 58.6846 35.5687 32.2404 -10.9003 -14.7059 -11.0237
# 2 35.5687 89.7035 19.3268 -14.6829 -7.2226 -21.8391
# 3 32.2404 19.3268 114.0977 -13.2428 -26.2629 -6.5547
# 4 -10.9003 -14.6829 -13.2428 37.1901 8.5031 3.1411
# 5 -14.7059 -7.2226 -26.2629 8.5031 40.4316 -6.1710
# 6 -11.0237 -21.8391 -6.5547 3.1411 -6.1710 28.5321
#
#
#
# Elastic Compliance Matrix: (Units=1/GPa)
#
#
# Indices 1 2 3 4 5 6 
#
# 1 0.026845 -0.007905 -0.004492 0.001452 0.005798 0.004384
# 2 -0.007905 0.017352 0.000635 0.003556 0.001461 0.010298
# 3 -0.004492 0.000635 0.011659 0.001462 0.006141 0.002596
# 4 0.001452 0.003556 0.001462 0.030291 -0.004358 -0.000658
# 5 0.005798 0.001461 0.006141 -0.004358 0.033930 0.012587
# 6 0.004384 0.010298 0.002596 -0.000658 0.012587 0.048015
#
#
# Mechanical properties :
#
#
# Convention : Reuss Voigt Hill
#
# Bulk Modulus (GPa) = 30.92827 48.52864 39.72846
# Shear Modulus (GPa) = 24.70435 32.92076 28.81256
#
# Velocity S-wave (km/s) = 3.32098 3.83367 3.58650
# Velocity P-wave (km/s) = 5.33973 6.42347 5.90651
#
# Compressibility (1/GPa) = 0.03233288
#
# Stress axis : x y z
#
# Youngs Moduli (GPa) = 37.25052 57.62921 85.77402
#
# Poissons Ratio (x) = 0.45556 0.38526
# Poissons Ratio (y) = 0.29447 -0.05447
# Poissons Ratio (z) = 0.16732 -0.03660
#
# Static dielectric constant tensor:
#      x y z
#    x 1.805690 0.017990 0.017000 
#    y 0.017990 1.961040 0.072220 
#    z 0.017000 0.072220 1.931690 
# 
# From -- ./inp_files/242192.got.cif
#   From: 2010.05.17/outbox.cif.g08.bks.cpg/sg2_122_cif.got.tgz:242192.got - 2010.06.03 11:33:40.
