data_PCOD9057373
_publ_section_title
;
Structure prediction by ZEFSAII (Michael W. Deem and Ramdas Pophale) SiO2 
 PCOD9057373
Probable space group: P -1
;
_chemical_formula_sum "Si O2"
_cell_formula_units_Z 16
_cell_length_a 12.501308
_cell_length_b 9.784546
_cell_length_c 7.524107
_cell_angle_alpha 114.340189
_cell_angle_beta 118.441372
_cell_angle_gamma 103.970025
_cell_volume 617.558567
_symmetry_space_group_name_H-M "P -1"
_symmetry_group_IT_number 2
_symmetry_cell_setting 'triclinic'
loop_
_space_group_symop_operation_xyz
x,y,z
-x,-y,-z
loop_
_atom_site_type_symbol
_atom_site_label
_atom_site_fract_x
_atom_site_fract_y
_atom_site_fract_z
Si Si1 0.038212 0.155048 0.796679
Si Si2 0.040734 0.822116 0.690779
Si Si3 0.461370 0.307078 0.419606
Si Si4 0.178212 0.432462 0.354164
Si Si5 0.365086 0.764978 0.203455
Si Si6 0.756800 0.996894 0.712680
Si Si7 0.467163 0.803670 0.907742
Si Si8 0.033590 0.452320 0.739139
O O1 0.870043 0.057418 0.676355
O O2 0.051464 0.293399 0.736712
O O3 0.061823 0.994729 0.702289
O O4 0.154897 0.290320 0.109388
O O5 0.881574 0.685275 0.576556
O O6 0.074239 0.676253 0.571988
O O7 0.139014 0.909268 0.988050
O O8 0.500000 0.500000 0.500000
O O9 0.587248 0.301491 0.624282
O O10 0.419483 0.198638 0.141348
O O11 0.338423 0.210045 0.421189
O O12 0.323400 0.620404 0.620386
O O13 0.062111 0.480434 0.216788
O O14 0.350356 0.931240 0.336004
O O15 0.454340 0.787853 0.104181
O O16 0.197712 0.614387 0.947749
O O17 0.500000 0.000000 0.000000
#
# Coordination Sequence:
#
# PCOD9057373 Si02
#       8
#     2   2   2   2   2   2   2   2
#     4  11  25  40  70 106 145 182 231 299 364 427
#     4  11  23  42  68 105 145 178 226 299 368 413
#     4  12  31  49  74 104 146 197 244 301 364 429
#     4  11  22  42  69 100 139 183 233 290 356 420
#     4  12  25  50  74 106 145 189 252 297 355 442
#     4  11  24  46  69 102 141 190 241 289 356 431
#     4  12  27  46  77 108 144 198 246 294 357 434
#     4  12  23  41  71 107 138 184 236 298 362 428
#
# _framework density 25.908472
#
# number of rings (size 3 to 8) (size 9 to 14) (size 15 to 20)
#    0.000    0.500    5.000    4.500    7.000    0.500 
#    0.000    0.000    0.000    0.000    0.000    0.000 
#    0.000    0.000    0.000    0.000    0.000    0.000 
#
# Total GULP energy -89255.930674 kJ/mol
# GULP energy per Si atom -5578.495667 kJ/mol
# Density = 2.584950 g / cm^3
# Si number density = 25.908472 Si / 1000 Ang^3
#
#
#
# Elastic Constant Matrix: (Units=GPa)
#
#
# Indices 1 2 3 4 5 6 
#
# 1 85.6848 33.7510 18.0803 0.4851 -7.3650 -1.9336
# 2 33.7510 168.4162 40.3707 39.8033 -3.9045 -15.2739
# 3 18.0803 40.3707 76.4721 24.8347 -6.4869 -2.2753
# 4 0.4851 39.8033 24.8347 35.5944 -9.0954 10.9757
# 5 -7.3650 -3.9045 -6.4869 -9.0954 42.6276 14.0877
# 6 -1.9336 -15.2739 -2.2753 10.9757 14.0877 44.8561
#
#
#
# Elastic Compliance Matrix: (Units=1/GPa)
#
#
# Indices 1 2 3 4 5 6 
#
# 1 0.015003 -0.005289 -0.004422 0.012317 0.006153 -0.006325
# 2 -0.005289 0.012262 0.000828 -0.019575 -0.007524 0.011142
# 3 -0.004422 0.000828 0.019113 -0.017052 -0.003512 0.006336
# 4 0.012317 -0.019575 -0.017052 0.078991 0.025993 -0.034491
# 5 0.006153 -0.007524 -0.003512 0.025993 0.035443 -0.019966
# 6 -0.006325 0.011142 0.006336 -0.034491 -0.019966 0.040846
#
#
# Mechanical properties :
#
#
# Convention : Reuss Voigt Hill
#
# Bulk Modulus (GPa) = 34.94897 57.21970 46.08434
# Shear Modulus (GPa) = 21.83764 40.50703 31.17233
#
# Velocity S-wave (km/s) = 2.90638 3.95836 3.47244
# Velocity P-wave (km/s) = 4.97810 6.55932 5.82264
#
# Compressibility (1/GPa) = 0.02861315
#
# Stress axis : x y z
#
# Youngs Moduli (GPa) = 66.65158 81.55584 52.31905
#
# Poissons Ratio (x) = 0.43134 0.23133
# Poissons Ratio (y) = 0.35251 -0.04331
# Poissons Ratio (z) = 0.29470 -0.06751
#
# Static dielectric constant tensor:
#      x y z
#    x 2.351080 0.156340 -0.181250 
#    y 0.156340 2.098210 -0.181540 
#    z -0.181250 -0.181540 2.446400 
# 
# From -- ./inp_files/297652.got.cif
#   From: 2010.05.17/outbox.cif.g08.bks.cpg/sg2_149_cif.got.tgz:297652.got - 2010.06.03 11:33:40.
