data_PCOD9057353
_publ_section_title
;
Structure prediction by ZEFSAII (Michael W. Deem and Ramdas Pophale) SiO2 
 PCOD9057353
Probable space group: P -1
;
_chemical_formula_sum "Si O2"
_cell_formula_units_Z 16
_cell_length_a 10.147319
_cell_length_b 12.009398
_cell_length_c 8.287936
_cell_angle_alpha 91.994338
_cell_angle_beta 45.235163
_cell_angle_gamma 92.652500
_cell_volume 716.327262
_symmetry_space_group_name_H-M "P -1"
_symmetry_group_IT_number 2
_symmetry_cell_setting 'triclinic'
loop_
_space_group_symop_operation_xyz
x,y,z
-x,-y,-z
loop_
_atom_site_type_symbol
_atom_site_label
_atom_site_fract_x
_atom_site_fract_y
_atom_site_fract_z
Si Si1 0.698125 0.674543 0.231477
Si Si2 0.517934 0.518930 0.737266
Si Si3 0.712059 0.382053 0.788047
Si Si4 0.435281 0.749041 0.704176
Si Si5 0.374194 0.202416 0.009235
Si Si6 0.127152 0.086266 0.491508
Si Si7 0.519472 0.994800 0.675049
Si Si8 0.961855 0.286307 0.825121
O O1 0.599094 0.554062 0.292649
O O2 0.735748 0.724225 0.023563
O O3 0.872365 0.671770 0.199607
O O4 0.222761 0.711738 0.905461
O O5 0.694063 0.449216 0.639164
O O6 0.551636 0.648057 0.673685
O O7 0.371706 0.530467 0.009806
O O8 0.562183 0.276941 0.894402
O O9 0.898658 0.345070 0.714224
O O10 0.445178 0.870410 0.779361
O O11 0.535989 0.752978 0.445377
O O12 0.429000 0.088917 0.865289
O O13 0.245558 0.165239 0.268639
O O14 0.265285 0.010841 0.468922
O O15 0.018394 0.164401 0.711118
O O16 0.000000 0.000000 0.500000
O O17 0.500000 0.000000 0.500000
#
# Coordination Sequence:
#
# PCOD9057353 Si02
#       8
#     2   2   2   2   2   2   2   2
#     4  11  23  44  69  97 136 171 226 272 328 389
#     4   9  20  40  69  95 128 181 215 273 330 387
#     4   9  20  40  68  96 133 171 223 266 334 395
#     4  11  22  42  68  94 134 173 219 273 326 390
#     4  11  23  44  68  97 136 179 213 273 332 397
#     4  12  24  40  64 100 139 171 221 274 327 395
#     4  12  23  43  70  95 130 175 219 267 331 393
#     4  11  23  41  67 100 132 171 223 274 327 389
#
# _framework density 22.336161000000001
#
# number of rings (size 3 to 8) (size 9 to 14) (size 15 to 20)
#    0.000    1.250    2.500    3.750    0.000    3.000 
#    4.500    3.125    2.750    0.000    0.000    0.000 
#    0.000    0.000    0.000    0.000    0.000    0.000 
#
# Total GULP energy -89196.673274 kJ/mol
# GULP energy per Si atom -5574.792080 kJ/mol
# Density = 2.228532 g / cm^3
# Si number density = 22.336161 Si / 1000 Ang^3
#
#
#
# Elastic Constant Matrix: (Units=GPa)
#
#
# Indices 1 2 3 4 5 6 
#
# 1 188.2590 53.4974 24.2619 -11.4395 -10.2535 13.3021
# 2 53.4974 129.9194 3.7734 4.4466 1.7637 12.5770
# 3 24.2619 3.7734 60.1088 -5.4262 -4.3789 2.2146
# 4 -11.4395 4.4466 -5.4262 28.8042 -4.5812 12.4573
# 5 -10.2535 1.7637 -4.3789 -4.5812 19.6895 7.0240
# 6 13.3021 12.5770 2.2146 12.4573 7.0240 27.1594
#
#
#
# Elastic Compliance Matrix: (Units=1/GPa)
#
#
# Indices 1 2 3 4 5 6 
#
# 1 0.007919 -0.002790 -0.001241 0.008640 0.009263 -0.008844
# 2 -0.002790 0.009065 0.000220 -0.002329 -0.002339 -0.001176
# 3 -0.001241 0.000220 0.018450 0.006604 0.007063 -0.005854
# 4 0.008640 -0.002329 0.006604 0.063780 0.036101 -0.042282
# 5 0.009263 -0.002339 0.007063 0.036101 0.080571 -0.041426
# 6 -0.008844 -0.001176 -0.005854 -0.042282 -0.041426 0.072280
#
#
# Mechanical properties :
#
#
# Convention : Reuss Voigt Hill
#
# Bulk Modulus (GPa) = 35.95574 60.15028 48.05301
# Shear Modulus (GPa) = 18.59028 34.91426 26.75227
#
# Velocity S-wave (km/s) = 2.88808 3.95793 3.46455
# Velocity P-wave (km/s) = 5.22052 6.91917 6.12898
#
# Compressibility (1/GPa) = 0.02781197
#
# Stress axis : x y z
#
# Youngs Moduli (GPa) = 126.27800 110.31553 54.20110
#
# Poissons Ratio (x) = 0.30779 0.06724
# Poissons Ratio (y) = 0.35233 -0.01191
# Poissons Ratio (z) = 0.15665 -0.02425
#
# Static dielectric constant tensor:
#      x y z
#    x 1.912830 -0.056510 0.079550 
#    y -0.056510 1.696310 0.040560 
#    z 0.079550 0.040560 1.825390 
# 
# From -- ./inp_files/188210.got.cif
#   From: 2010.05.17/outbox.cif.g08.bks.cpg/sg2_95_cif.got.tgz:188210.got - 2010.06.03 11:33:40.
