data_PCOD9057428
_publ_section_title
;
Structure prediction by ZEFSAII (Michael W. Deem and Ramdas Pophale) SiO2 
 PCOD9057428
Probable space group: P -1
;
_chemical_formula_sum "Si O2"
_cell_formula_units_Z 16
_cell_length_a 8.554856
_cell_length_b 19.239818
_cell_length_c 12.401816
_cell_angle_alpha 152.608229
_cell_angle_beta 128.789738
_cell_angle_gamma 62.319592
_cell_volume 707.673665
_symmetry_space_group_name_H-M "P -1"
_symmetry_group_IT_number 2
_symmetry_cell_setting 'triclinic'
loop_
_space_group_symop_operation_xyz
x,y,z
-x,-y,-z
loop_
_atom_site_type_symbol
_atom_site_label
_atom_site_fract_x
_atom_site_fract_y
_atom_site_fract_z
Si Si1 0.053587 0.027063 0.897635
Si Si2 0.475749 0.464150 0.249475
Si Si3 0.528847 0.879323 0.253811
Si Si4 0.997335 0.091032 0.512982
Si Si5 0.644984 0.918018 0.698924
Si Si6 0.038664 0.389129 0.063632
Si Si7 0.639490 0.429863 0.884665
Si Si8 0.070999 0.356907 0.279905
O O1 0.238459 0.037078 0.075429
O O2 0.004304 0.196556 0.096524
O O3 0.118013 0.985138 0.748268
O O4 0.840398 0.916641 0.702011
O O5 0.284928 0.443277 0.222595
O O6 0.386455 0.513309 0.168104
O O7 0.679239 0.595351 0.550058
O O8 0.558825 0.308127 0.049391
O O9 0.764885 0.880194 0.375311
O O10 0.500000 0.000000 0.500000
O O11 0.467297 0.955390 0.223180
O O12 0.957410 0.252633 0.753434
O O13 0.000000 0.000000 0.500000
O O14 0.472052 0.755270 0.407951
O O15 0.997191 0.332039 0.090003
O O16 0.878604 0.491823 0.111749
O O17 0.500000 0.500000 0.000000
O O18 0.000000 0.500000 0.500000
#
# Coordination Sequence:
#
# PCOD9057428 Si02
#       8
#     2   2   2   2   2   2   2   2
#     4  11  24  44  67 104 147 184 239 298 360 416
#     4  11  25  46  69 104 147 190 232 297 366 427
#     4  11  22  42  70 102 135 189 242 287 344 425
#     4  11  22  42  70  98 143 184 238 295 353 428
#     4  11  24  43  70 104 143 182 242 300 348 417
#     4  11  26  45  71 103 143 191 238 296 371 425
#     4  12  25  45  71 107 141 185 241 301 358 433
#     4  12  24  45  73 107 143 192 245 296 355 437
#
# _framework density 22.609292
#
# number of rings (size 3 to 8) (size 9 to 14) (size 15 to 20)
#    0.000    0.750    3.750    3.750    1.750    0.000 
#    0.000    5.000    0.000    0.000    0.000    0.000 
#    0.000    0.000    0.000    0.000    0.000    0.000 
#
# Total GULP energy -89324.229657 kJ/mol
# GULP energy per Si atom -5582.764354 kJ/mol
# Density = 2.255783 g / cm^3
# Si number density = 22.609292 Si / 1000 Ang^3
#
#
#
# Elastic Constant Matrix: (Units=GPa)
#
#
# Indices 1 2 3 4 5 6 
#
# 1 90.0667 14.5929 28.0289 -4.3978 -8.0531 -4.9565
# 2 14.5929 137.9806 22.8994 -20.1016 -3.7600 11.2361
# 3 28.0289 22.8994 48.3404 -9.3521 0.9002 5.6685
# 4 -4.3978 -20.1016 -9.3521 43.7018 8.7610 -1.0100
# 5 -8.0531 -3.7600 0.9002 8.7610 28.6859 -5.2458
# 6 -4.9565 11.2361 5.6685 -1.0100 -5.2458 39.7778
#
#
#
# Elastic Compliance Matrix: (Units=1/GPa)
#
#
# Indices 1 2 3 4 5 6 
#
# 1 0.014672 -0.000447 -0.009199 -0.001729 0.005601 0.003960
# 2 -0.000447 0.008390 -0.002857 0.003213 -0.000278 -0.001974
# 3 -0.009199 -0.002857 0.029099 0.005149 -0.006393 -0.005198
# 4 -0.001729 0.003213 0.005149 0.027019 -0.008907 -0.002345
# 5 0.005601 -0.000278 -0.006393 -0.008907 0.040563 0.006811
# 6 0.003960 -0.001974 -0.005198 -0.002345 0.006811 0.027770
#
#
# Mechanical properties :
#
#
# Convention : Reuss Voigt Hill
#
# Bulk Modulus (GPa) = 36.82547 45.27002 41.04775
# Shear Modulus (GPa) = 27.53753 36.49086 32.01419
#
# Velocity S-wave (km/s) = 3.49373 4.02179 3.76703
# Velocity P-wave (km/s) = 5.70947 6.45233 6.09223
#
# Compressibility (1/GPa) = 0.02715512
#
# Stress axis : x y z
#
# Youngs Moduli (GPa) = 68.15554 119.18896 34.36599
#
# Poissons Ratio (x) = 0.05326 0.31613
# Poissons Ratio (y) = 0.03045 0.09819
# Poissons Ratio (z) = 0.62695 0.34055
#
# Static dielectric constant tensor:
#      x y z
#    x 3.901310 0.280440 -2.220710 
#    y 0.280440 1.610990 -0.559740 
#    z -2.220710 -0.559740 4.003050 
# 
# From -- ./inp_files/403656.got.cif
#   From: 2010.05.17/outbox.cif.g08.bks.cpg/sg2_202_cif.got.tgz:403656.got - 2010.06.03 11:33:40.
