data_PCOD9057420
_publ_section_title
;
Structure prediction by ZEFSAII (Michael W. Deem and Ramdas Pophale) SiO2 
 PCOD9057420
Probable space group: P -1
;
_chemical_formula_sum "Si O2"
_cell_formula_units_Z 15
_cell_length_a 10.209738
_cell_length_b 8.325210
_cell_length_c 8.028731
_cell_angle_alpha 109.435711
_cell_angle_beta 60.789898
_cell_angle_gamma 93.514194
_cell_volume 557.452401
_symmetry_space_group_name_H-M "P -1"
_symmetry_group_IT_number 2
_symmetry_cell_setting 'triclinic'
loop_
_space_group_symop_operation_xyz
x,y,z
-x,-y,-z
loop_
_atom_site_type_symbol
_atom_site_label
_atom_site_fract_x
_atom_site_fract_y
_atom_site_fract_z
Si Si1 0.306189 0.030786 0.400655
Si Si2 0.500000 0.000000 0.500000
Si Si3 0.012690 0.604749 0.860639
Si Si4 0.231544 0.743227 0.563971
Si Si5 0.446654 0.423809 0.180537
Si Si6 0.707497 0.828512 0.029193
Si Si7 0.006009 0.738463 0.395115
Si Si8 0.724189 0.180609 0.971002
O O1 0.437271 0.131404 0.417941
O O2 0.309859 0.917265 0.537883
O O3 0.344572 0.901521 0.183063
O O4 0.146143 0.135238 0.498089
O O5 0.584255 0.856896 0.258816
O O6 0.028913 0.455413 0.659836
O O7 0.151584 0.713052 0.777422
O O8 0.858095 0.724291 0.972022
O O9 0.000000 0.500000 0.000000
O O10 0.345098 0.576832 0.389728
O O11 0.095677 0.768825 0.519219
O O12 0.500000 0.500000 0.000000
O O13 0.344147 0.277407 0.134505
O O14 0.600064 0.339780 0.143375
O O15 0.745568 0.013656 0.012851
O O16 0.121443 0.767076 0.183801
#
# Coordination Sequence:
#
# PCOD9057420 Si02
#       8
#     2   1   2   2   2   2   2   2
#     4  11  23  42  68 101 136 176 228 281 346 406
#     4  12  26  42  64  96 142 184 216 278 348 410
#     4  12  26  43  66 102 143 184 224 280 346 413
#     4  11  23  43  73 101 135 180 232 286 336 401
#     4  12  21  42  69 102 137 171 228 286 336 396
#     4  12  25  44  67  98 139 179 235 278 342 409
#     4  11  22  42  70 100 135 174 234 284 337 398
#     4  11  23  41  70 102 129 177 232 288 331 395
#
# _framework density 26.908128999999999
#
# number of rings (size 3 to 8) (size 9 to 14) (size 15 to 20)
#    0.000    0.533    5.333    4.800    1.867    2.133 
#    0.000    2.667    0.000    5.600    0.000    0.000 
#    0.000    0.000    0.000    0.000    0.000    0.000 
#
# Total GULP energy -83958.211125 kJ/mol
# GULP energy per Si atom -5597.214075 kJ/mol
# Density = 2.684688 g / cm^3
# Si number density = 26.908129 Si / 1000 Ang^3
#
#
#
# Elastic Constant Matrix: (Units=GPa)
#
#
# Indices 1 2 3 4 5 6 
#
# 1 138.8532 50.4034 24.6254 27.0453 -27.1573 -30.5223
# 2 50.4034 155.0674 38.2535 -1.3798 -27.9238 -14.4013
# 3 24.6254 38.2535 117.6867 -0.2614 -29.0707 -21.2422
# 4 27.0453 -1.3798 -0.2614 58.2907 -1.3528 -10.9261
# 5 -27.1573 -27.9238 -29.0707 -1.3528 46.7329 22.4835
# 6 -30.5223 -14.4013 -21.2422 -10.9261 22.4835 64.8819
#
#
#
# Elastic Compliance Matrix: (Units=1/GPa)
#
#
# Indices 1 2 3 4 5 6 
#
# 1 0.010071 -0.002518 -0.000126 -0.004215 0.002998 0.002389
# 2 -0.002518 0.008096 -0.001533 0.001300 0.002760 -0.000627
# 3 -0.000126 -0.001533 0.010480 0.000449 0.004858 0.001424
# 4 -0.004215 0.001300 0.000449 0.019555 -0.002001 0.002439
# 5 0.002998 0.002760 0.004858 -0.002001 0.031414 -0.007610
# 6 0.002389 -0.000627 0.001424 0.002439 -0.007610 0.019911
#
#
# Mechanical properties :
#
#
# Convention : Reuss Voigt Hill
#
# Bulk Modulus (GPa) = 49.28333 70.90797 60.09565
# Shear Modulus (GPa) = 43.61277 53.86941 48.74109
#
# Velocity S-wave (km/s) = 4.03029 4.47920 4.26066
# Velocity P-wave (km/s) = 6.32557 7.29109 6.82542
#
# Compressibility (1/GPa) = 0.02029084
#
# Stress axis : x y z
#
# Youngs Moduli (GPa) = 99.29725 123.52100 95.42149
#
# Poissons Ratio (x) = 0.31103 0.01207
# Poissons Ratio (y) = 0.25004 0.14630
# Poissons Ratio (z) = 0.01256 0.18938
#
# Static dielectric constant tensor:
#      x y z
#    x 2.362560 0.096020 0.009680 
#    y 0.096020 2.148190 -0.114630 
#    z 0.009680 -0.114630 2.144400 
# 
# From -- ./inp_files/237421.got.cif
#   From: 2010.05.17/outbox.cif.g08.bks.cpg/sg2_119_cif.got.tgz:237421.got - 2010.06.03 11:33:40.
