data_PCOD9057533
_publ_section_title
;
Structure prediction by ZEFSAII (Michael W. Deem and Ramdas Pophale) SiO2 
 PCOD9057533
Probable space group: P -1
;
_chemical_formula_sum "Si O2"
_cell_formula_units_Z 14
_cell_length_a 14.061326
_cell_length_b 11.344075
_cell_length_c 11.624871
_cell_angle_alpha 137.869671
_cell_angle_beta 130.859152
_cell_angle_gamma 31.577529
_cell_volume 650.051248
_symmetry_space_group_name_H-M "P -1"
_symmetry_group_IT_number 2
_symmetry_cell_setting 'triclinic'
loop_
_space_group_symop_operation_xyz
x,y,z
-x,-y,-z
loop_
_atom_site_type_symbol
_atom_site_label
_atom_site_fract_x
_atom_site_fract_y
_atom_site_fract_z
Si Si1 0.458688 0.338951 0.323729
Si Si2 0.955881 0.244077 0.673797
Si Si3 0.135472 0.482451 0.672941
Si Si4 0.610584 0.470395 0.174410
Si Si5 0.483659 0.884712 0.543841
Si Si6 0.282943 0.968168 0.901715
Si Si7 0.150042 0.342467 0.264918
O O1 0.500000 0.500000 0.500000
O O2 0.245463 0.540353 0.280412
O O3 0.511446 0.193085 0.379056
O O4 0.562635 0.167054 0.169879
O O5 0.950429 0.379241 0.657221
O O6 0.000000 0.000000 0.500000
O O7 0.100575 0.149928 0.814510
O O8 0.215582 0.587754 0.770092
O O9 0.000000 0.500000 0.500000
O O10 0.003621 0.630208 0.786617
O O11 0.316124 0.185445 0.622768
O O12 0.482965 0.729418 0.337085
O O13 0.676880 0.249683 0.152609
O O14 0.500000 0.500000 0.000000
O O15 0.682015 0.775694 0.604925
O O16 0.254646 0.148378 0.101512
#
# Coordination Sequence:
#
# PCOD9057533 Si02
#       7
#     2   2   2   2   2   2   2
#     4  11  22  42  73 102 133 190 224 292 374 417
#     4  11  23  41  72 104 142 179 237 293 357 431
#     4  12  27  45  74  99 140 201 241 285 362 423
#     4  12  27  47  73 105 145 193 244 300 354 423
#     4  11  24  48  72 100 147 182 242 297 356 435
#     4  12  25  44  69 105 146 177 243 300 352 428
#     4  11  26  46  70 108 144 188 235 301 365 427
#
# _framework density 21.536764999999999
#
# number of rings (size 3 to 8) (size 9 to 14) (size 15 to 20)
#    0.000    0.571    4.286    3.429    2.000    5.143 
#    0.000    0.000    0.000    0.000    0.000    0.000 
#    0.000    0.000    0.000    0.000    0.000    0.000 
#
# Total GULP energy -78271.329040 kJ/mol
# GULP energy per Si atom -5590.809217 kJ/mol
# Density = 2.148775 g / cm^3
# Si number density = 21.536765 Si / 1000 Ang^3
#
#
#
# Elastic Constant Matrix: (Units=GPa)
#
#
# Indices 1 2 3 4 5 6 
#
# 1 156.4730 51.2845 31.7993 8.3289 -12.7224 -10.4812
# 2 51.2845 134.0077 18.6720 -9.3855 -5.8606 -4.8637
# 3 31.7993 18.6720 108.8939 4.2725 -18.6938 -12.9994
# 4 8.3289 -9.3855 4.2725 33.7317 -3.1178 13.9224
# 5 -12.7224 -5.8606 -18.6938 -3.1178 36.4499 1.4189
# 6 -10.4812 -4.8637 -12.9994 13.9224 1.4189 19.4473
#
#
#
# Elastic Compliance Matrix: (Units=1/GPa)
#
#
# Indices 1 2 3 4 5 6 
#
# 1 0.008502 -0.003257 -0.000560 -0.005917 0.001357 0.007530
# 2 -0.003257 0.009113 -0.001249 0.005198 0.000290 -0.004054
# 3 -0.000560 -0.001249 0.011964 -0.005940 0.004792 0.011286
# 4 -0.005917 0.005198 -0.005940 0.051010 0.001742 -0.042505
# 5 0.001357 0.000290 0.004792 0.001742 0.030541 0.000532
# 6 0.007530 -0.004054 0.011286 -0.042505 0.000532 0.092400
#
#
# Mechanical properties :
#
#
# Convention : Reuss Voigt Hill
#
# Bulk Modulus (GPa) = 51.42827 66.98735 59.20781
# Shear Modulus (GPa) = 22.71224 37.76702 30.23963
#
# Velocity S-wave (km/s) = 3.25095 4.19215 3.75119
# Velocity P-wave (km/s) = 6.16626 7.38941 6.80537
#
# Compressibility (1/GPa) = 0.01944456
#
# Stress axis : x y z
#
# Youngs Moduli (GPa) = 117.61801 109.73845 83.58404
#
# Poissons Ratio (x) = 0.35747 0.04682
# Poissons Ratio (y) = 0.38314 0.10444
# Poissons Ratio (z) = 0.06588 0.13712
#
# Static dielectric constant tensor:
#      x y z
#    x 1.870420 0.029070 0.017170 
#    y 0.029070 1.738900 0.025100 
#    z 0.017170 0.025100 1.773870 
# 
# From -- ./inp_files/451937.got.cif
#   From: 2010.05.17/outbox.cif.g08.bks.cpg/sg2_226_cif.got.tgz:451937.got - 2010.06.03 11:33:40.
