data_PCOD9057027
_publ_section_title
;
Structure prediction by ZEFSAII (Michael W. Deem and Ramdas Pophale) SiO2 
 PCOD9057027
Probable space group: P -1
;
_chemical_formula_sum "Si O2"
_cell_formula_units_Z 12
_cell_length_a 10.287818
_cell_length_b 7.802602
_cell_length_c 14.681781
_cell_angle_alpha 115.482242
_cell_angle_beta 25.368781
_cell_angle_gamma 116.789063
_cell_volume 449.925320
_symmetry_space_group_name_H-M "P -1"
_symmetry_group_IT_number 2
_symmetry_cell_setting 'triclinic'
loop_
_space_group_symop_operation_xyz
x,y,z
-x,-y,-z
loop_
_atom_site_type_symbol
_atom_site_label
_atom_site_fract_x
_atom_site_fract_y
_atom_site_fract_z
Si Si1 0.655171 0.807360 0.148749
Si Si2 0.231237 0.666575 0.743036
Si Si3 0.830575 0.162795 0.375870
Si Si4 0.761989 0.123582 0.726249
Si Si5 0.238644 0.486206 0.266414
Si Si6 0.888437 0.771042 0.304023
O O1 0.421580 0.830913 0.383439
O O2 0.541436 0.914019 0.155733
O O3 0.565010 0.581592 0.119943
O O4 0.004719 0.805831 0.955757
O O5 0.225897 0.717533 0.650016
O O6 0.590357 0.730820 0.551556
O O7 0.125798 0.440785 0.777417
O O8 0.157606 0.275197 0.231050
O O9 0.834815 0.938982 0.306916
O O10 0.841655 0.355046 0.715992
O O11 0.822970 0.124608 0.795807
O O12 0.000000 0.000000 0.500000
O O13 0.000000 0.500000 0.500000
#
# Coordination Sequence:
#
# PCOD9057027 Si02
#       6
#     2   2   2   2   2   2
#     4   9  21  38  68  90 120 165 209 250 310 362
#     4  11  24  43  60  92 131 163 199 260 304 371
#     4  11  20  41  64  88 125 167 202 255 308 363
#     4  10  17  36  64  92 118 158 207 253 301 358
#     4   8  16  32  61  86 118 154 199 253 298 350
#     4  11  23  39  64  90 129 164 204 251 316 363
#
# _framework density 26.671092999999999
#
# number of rings (size 3 to 8) (size 9 to 14) (size 15 to 20)
#    1.000    1.000    3.333    0.500    0.000    3.333 
#    0.000   11.667    0.000    0.000    0.000    0.000 
#    0.000    0.000    0.000    0.000    0.000    0.000 
#
# Total GULP energy -66882.990651 kJ/mol
# GULP energy per Si atom -5573.582554 kJ/mol
# Density = 2.661039 g / cm^3
# Si number density = 26.671093 Si / 1000 Ang^3
#
#
#
# Elastic Constant Matrix: (Units=GPa)
#
#
# Indices 1 2 3 4 5 6 
#
# 1 91.0410 17.2089 14.3954 -0.9711 -11.6924 10.4470
# 2 17.2089 176.1839 14.7642 36.5659 -6.1155 4.4737
# 3 14.3954 14.7642 121.1134 20.5882 -10.9111 0.1773
# 4 -0.9711 36.5659 20.5882 17.3830 0.5220 -0.9795
# 5 -11.6924 -6.1155 -10.9111 0.5220 47.4039 -2.8166
# 6 10.4470 4.4737 0.1773 -0.9795 -2.8166 35.1296
#
#
#
# Elastic Compliance Matrix: (Units=1/GPa)
#
#
# Indices 1 2 3 4 5 6 
#
# 1 0.012620 -0.002869 -0.002612 0.009611 0.001860 -0.002957
# 2 -0.002869 0.012114 0.004306 -0.030884 0.002103 -0.001404
# 3 -0.002612 0.004306 0.012391 -0.023985 0.003012 -0.000261
# 4 0.009611 -0.030884 -0.023985 0.151962 -0.008525 0.004750
# 5 0.001860 0.002103 0.003012 -0.008525 0.022657 0.000743
# 6 -0.002957 -0.001404 -0.000261 0.004750 0.000743 0.029718
#
#
# Mechanical properties :
#
#
# Convention : Reuss Voigt Hill
#
# Bulk Modulus (GPa) = 28.75668 53.45280 41.10474
# Shear Modulus (GPa) = 19.57692 42.78129 31.17911
#
# Velocity S-wave (km/s) = 2.71221 4.00938 3.42281
# Velocity P-wave (km/s) = 4.54020 6.44349 5.57369
#
# Compressibility (1/GPa) = 0.03477453
#
# Stress axis : x y z
#
# Youngs Moduli (GPa) = 79.23848 82.55093 80.70242
#
# Poissons Ratio (x) = 0.23683 0.21081
# Poissons Ratio (y) = 0.22732 -0.34749
# Poissons Ratio (z) = 0.20699 -0.35545
#
# Static dielectric constant tensor:
#      x y z
#    x 1.890460 0.020190 0.047490 
#    y 0.020190 2.092730 -0.036310 
#    z 0.047490 -0.036310 2.124830 
# 
# From -- ./inp_files/425165.got.cif
#   From: 2010.05.17/outbox.cif.g08.bks.cpg/sg2_213_cif.got.tgz:425165.got - 2010.06.03 11:33:40.
