data_PCOD9057374
_publ_section_title
;
Structure prediction by ZEFSAII (Michael W. Deem and Ramdas Pophale) SiO2 
 PCOD9057374
Probable space group: P -1
;
_chemical_formula_sum "Si O2"
_cell_formula_units_Z 14
_cell_length_a 9.293130
_cell_length_b 9.146584
_cell_length_c 14.719284
_cell_angle_alpha 114.428438
_cell_angle_beta 46.111805
_cell_angle_gamma 90.203980
_cell_volume 740.609745
_symmetry_space_group_name_H-M "P -1"
_symmetry_group_IT_number 2
_symmetry_cell_setting 'triclinic'
loop_
_space_group_symop_operation_xyz
x,y,z
-x,-y,-z
loop_
_atom_site_type_symbol
_atom_site_label
_atom_site_fract_x
_atom_site_fract_y
_atom_site_fract_z
Si Si1 0.680392 0.560409 0.478348
Si Si2 0.843400 0.744847 0.864743
Si Si3 0.457475 0.634389 0.970119
Si Si4 0.015306 0.174858 0.000680
Si Si5 0.535463 0.486007 0.268560
Si Si6 0.024456 0.961873 0.198513
Si Si7 0.534258 0.172511 0.508298
O O1 0.500000 0.500000 0.500000
O O2 0.641486 0.550430 0.600611
O O3 0.592970 0.747470 0.511204
O O4 0.927193 0.424322 0.306532
O O5 0.636611 0.714737 0.915191
O O6 0.836317 0.771583 0.983904
O O7 0.856949 0.920766 0.864234
O O8 0.486238 0.536536 0.834902
O O9 0.500000 0.500000 0.000000
O O10 0.212036 0.797145 0.125894
O O11 0.770897 0.330489 0.152739
O O12 0.067843 0.129264 0.861298
O O13 0.000000 0.000000 0.000000
O O14 0.544739 0.667664 0.343087
O O15 0.799370 0.106181 0.375844
O O16 0.500000 0.000000 0.500000
#
# Coordination Sequence:
#
# PCOD9057374 Si02
#       7
#     2   2   2   2   2   2   2
#     4  10  17  36  67  93 118 149 206 256 298 355
#     4  11  19  38  66  90 119 161 205 246 302 367
#     4  11  27  41  59  85 131 166 203 250 310 360
#     4   9  17  32  65  94 114 147 202 257 296 344
#     4  10  20  42  62  89 123 163 205 250 303 365
#     4  10  21  40  60  91 123 157 206 253 296 372
#     4  11  22  37  66  98 125 154 201 260 315 356
#
# _framework density 18.903343
#
# number of rings (size 3 to 8) (size 9 to 14) (size 15 to 20)
#    0.000    1.714    5.714    1.286    2.000    1.714 
#    0.000    5.000    0.000    0.000    0.000    0.000 
#    0.000    0.000    0.000    0.000    0.000    0.000 
#
# Total GULP energy -77969.150932 kJ/mol
# GULP energy per Si atom -5569.225067 kJ/mol
# Density = 1.886032 g / cm^3
# Si number density = 18.903343 Si / 1000 Ang^3
#
#
#
# Elastic Constant Matrix: (Units=GPa)
#
#
# Indices 1 2 3 4 5 6 
#
# 1 84.7885 33.9437 30.7376 8.6004 10.8402 -10.0581
# 2 33.9437 110.5129 26.5576 22.0741 8.8560 -18.2973
# 3 30.7376 26.5576 83.0646 28.0663 4.9984 -10.4057
# 4 8.6004 22.0741 28.0663 26.1948 -4.3573 -3.9482
# 5 10.8402 8.8560 4.9984 -4.3573 26.2856 5.5386
# 6 -10.0581 -18.2973 -10.4057 -3.9482 5.5386 33.6415
#
#
#
# Elastic Compliance Matrix: (Units=1/GPa)
#
#
# Indices 1 2 3 4 5 6 
#
# 1 0.015523 -0.003392 -0.005069 0.002819 -0.004306 0.002268
# 2 -0.003392 0.013972 0.002832 -0.013898 -0.007645 0.007089
# 3 -0.005069 0.002832 0.023007 -0.025989 -0.008711 0.005525
# 4 0.002819 -0.013898 -0.025989 0.079324 0.023577 -0.009327
# 5 -0.004306 -0.007645 -0.008711 0.023577 0.050856 -0.013745
# 6 0.002268 0.007089 0.005525 -0.009327 -0.013745 0.037136
#
#
# Mechanical properties :
#
#
# Convention : Reuss Voigt Hill
#
# Bulk Modulus (GPa) = 24.24593 51.20487 37.72540
# Shear Modulus (GPa) = 20.42284 29.69952 25.06118
#
# Velocity S-wave (km/s) = 3.29048 3.96804 3.64504
# Velocity P-wave (km/s) = 5.22403 6.93832 6.14129
#
# Compressibility (1/GPa) = 0.04124403
#
# Stress axis : x y z
#
# Youngs Moduli (GPa) = 64.41940 71.56981 43.46568
#
# Poissons Ratio (x) = 0.24278 0.22032
# Poissons Ratio (y) = 0.21853 -0.12310
# Poissons Ratio (z) = 0.32653 -0.20269
#
# Static dielectric constant tensor:
#      x y z
#    x 1.657590 -0.040580 0.034720 
#    y -0.040580 1.705850 -0.022710 
#    z 0.034720 -0.022710 1.715000 
# 
# From -- ./inp_files/153796.got.cif
#   From: 2010.05.17/outbox.cif.g08.bks.cpg/sg2_77_cif.got.tgz:153796.got - 2010.06.03 11:33:40.
