data_PCOD9057460
_publ_section_title
;
Structure prediction by ZEFSAII (Michael W. Deem and Ramdas Pophale) SiO2 
 PCOD9057460
Probable space group: P -1
;
_chemical_formula_sum "Si O2"
_cell_formula_units_Z 16
_cell_length_a 9.255301
_cell_length_b 17.746837
_cell_length_c 7.772475
_cell_angle_alpha 46.262984
_cell_angle_beta 118.132571
_cell_angle_gamma 128.541599
_cell_volume 719.586006
_symmetry_space_group_name_H-M "P -1"
_symmetry_group_IT_number 2
_symmetry_cell_setting 'triclinic'
loop_
_space_group_symop_operation_xyz
x,y,z
-x,-y,-z
loop_
_atom_site_type_symbol
_atom_site_label
_atom_site_fract_x
_atom_site_fract_y
_atom_site_fract_z
Si Si1 0.095060 0.821435 0.715227
Si Si2 0.282717 0.956829 0.931110
Si Si3 0.988760 0.203499 0.695078
Si Si4 0.312792 0.318777 0.289222
Si Si5 0.566986 0.416571 0.006940
Si Si6 0.697575 0.326301 0.907435
Si Si7 0.299362 0.165425 0.828693
Si Si8 0.696414 0.546527 0.433745
O O1 0.094813 0.835184 0.484740
O O2 0.886290 0.777057 0.732827
O O3 0.222026 0.927731 0.744571
O O4 0.151418 0.718144 0.941451
O O5 0.163545 0.844662 0.164748
O O6 0.500000 0.000000 0.000000
O O7 0.250008 0.058809 0.840268
O O8 0.132459 0.148914 0.884955
O O9 0.119653 0.344503 0.560825
O O10 0.319620 0.445833 0.106140
O O11 0.326955 0.276144 0.553668
O O12 0.492228 0.335525 0.259127
O O13 0.675741 0.377990 0.996380
O O14 0.370336 0.405087 0.842479
O O15 0.498867 0.210372 0.954444
O O16 0.728608 0.431995 0.626854
O O17 0.500000 0.500000 0.500000
#
# Coordination Sequence:
#
# PCOD9057460 Si02
#       8
#     2   2   2   2   2   2   2   2
#     4  11  25  43  61  98 129 165 215 272 318 374
#     4  12  27  46  65  90 135 172 216 277 318 365
#     4  11  24  43  70  97 123 170 222 259 322 388
#     4  10  22  38  64  98 130 159 215 269 314 382
#     4  10  19  36  65  97 129 167 207 257 323 393
#     4  11  20  38  66  93 128 171 203 257 329 387
#     4  11  21  44  66  90 122 174 221 255 318 385
#     4  10  17  36  68  95 125 163 202 259 318 388
#
# _framework density 22.235007
#
# number of rings (size 3 to 8) (size 9 to 14) (size 15 to 20)
#    0.000    1.250    5.000    3.375    0.000    5.500 
#    2.250    3.750    0.000    0.000    0.000    0.000 
#    0.000    0.000    0.000    0.000    0.000    0.000 
#
# Total GULP energy -89227.870718 kJ/mol
# GULP energy per Si atom -5576.741920 kJ/mol
# Density = 2.218440 g / cm^3
# Si number density = 22.235007 Si / 1000 Ang^3
#
#
#
# Elastic Constant Matrix: (Units=GPa)
#
#
# Indices 1 2 3 4 5 6 
#
# 1 60.2123 17.8188 13.4702 -7.2632 -7.3963 10.7966
# 2 17.8188 130.5828 4.1387 14.0104 -5.9804 2.2411
# 3 13.4702 4.1387 21.5869 -1.4265 -6.2584 9.7945
# 4 -7.2632 14.0104 -1.4265 26.3652 -4.6958 4.8393
# 5 -7.3963 -5.9804 -6.2584 -4.6958 32.6295 -6.2592
# 6 10.7966 2.2411 9.7945 4.8393 -6.2592 38.1214
#
#
#
# Elastic Compliance Matrix: (Units=1/GPa)
#
#
# Indices 1 2 3 4 5 6 
#
# 1 0.021930 -0.003401 -0.009747 0.008598 0.002925 -0.004118
# 2 -0.003401 0.008748 -0.000506 -0.005832 0.000154 0.001345
# 3 -0.009747 -0.000506 0.060477 0.004426 0.007621 -0.012058
# 4 0.008598 -0.005832 0.004426 0.046324 0.006864 -0.007983
# 5 0.002925 0.000154 0.007621 0.006864 0.034161 0.001942
# 6 -0.004118 0.001345 -0.012058 -0.007983 0.001942 0.031750
#
#
# Mechanical properties :
#
#
# Convention : Reuss Voigt Hill
#
# Bulk Modulus (GPa) = 15.66270 31.47082 23.56676
# Shear Modulus (GPa) = 19.84283 31.22017 25.53150
#
# Velocity S-wave (km/s) = 2.99057 3.75120 3.39227
# Velocity P-wave (km/s) = 4.35708 5.73990 5.09561
#
# Compressibility (1/GPa) = 0.06384594
#
# Stress axis : x y z
#
# Youngs Moduli (GPa) = 45.59966 114.31342 16.53522
#
# Poissons Ratio (x) = 0.38883 0.16118
# Poissons Ratio (y) = 0.15510 0.00836
# Poissons Ratio (z) = 0.44448 0.05780
#
# Static dielectric constant tensor:
#      x y z
#    x 1.812140 -0.013130 -0.050050 
#    y -0.013130 1.880120 0.039880 
#    z -0.050050 0.039880 1.953010 
# 
# From -- ./inp_files/216825.got.cif
#   From: 2010.05.17/outbox.cif.g08.bks.cpg/sg2_109_cif.got.tgz:216825.got - 2010.06.03 11:33:40.
