data_PCOD9057189
_publ_section_title
;
Structure prediction by ZEFSAII (Michael W. Deem and Ramdas Pophale) SiO2 
 PCOD9057189
Probable space group: P -1
;
_chemical_formula_sum "Si O2"
_cell_formula_units_Z 13
_cell_length_a 10.341933
_cell_length_b 12.329178
_cell_length_c 5.681488
_cell_angle_alpha 65.237246
_cell_angle_beta 124.125046
_cell_angle_gamma 112.372877
_cell_volume 534.234009
_symmetry_space_group_name_H-M "P -1"
_symmetry_group_IT_number 2
_symmetry_cell_setting 'triclinic'
loop_
_space_group_symop_operation_xyz
x,y,z
-x,-y,-z
loop_
_atom_site_type_symbol
_atom_site_label
_atom_site_fract_x
_atom_site_fract_y
_atom_site_fract_z
Si Si1 0.676629 0.306698 0.305007
Si Si2 0.995386 0.743451 0.226951
Si Si3 0.856340 0.923695 0.574567
Si Si4 0.423918 0.950420 0.716796
Si Si5 0.500000 0.500000 0.000000
Si Si6 0.146123 0.480569 0.012424
Si Si7 0.262137 0.303937 0.621199
O O1 0.572979 0.191478 0.178318
O O2 0.605615 0.402525 0.303259
O O3 0.817416 0.250138 0.616527
O O4 0.755165 0.396148 0.096771
O O5 0.915150 0.735763 0.408076
O O6 0.930245 0.845279 0.917477
O O7 0.925146 0.607853 0.188307
O O8 0.734084 0.822841 0.390932
O O9 0.752019 0.015958 0.487930
O O10 0.000000 0.000000 0.500000
O O11 0.500000 0.000000 0.500000
O O12 0.500000 0.000000 0.000000
O O13 0.615476 0.621112 0.134854
O O14 0.259298 0.403897 0.326791
O O15 0.000000 0.500000 0.000000
#
# Coordination Sequence:
#
# PCOD9057189 Si02
#       7
#     2   2   2   2   1   2   2
#     4  12  26  46  78 111 152 209 258 331 406 482
#     4  11  24  47  76 110 151 199 266 337 395 476
#     4  11  28  50  83 115 152 213 285 336 401 488
#     4  12  32  55  79 119 170 221 272 336 418 498
#     4  12  26  44  72 108 156 194 252 312 416 480
#     4  11  22  41  72 110 145 190 261 324 397 470
#     4  11  24  45  74 110 154 200 260 335 403 486
#
# _framework density 24.333904
#
# number of rings (size 3 to 8) (size 9 to 14) (size 15 to 20)
#    0.000    0.615    3.077    3.231    8.615    3.077 
#    0.000    0.000    0.000    0.000    0.000    0.000 
#    0.000    0.000    0.000    0.000    0.000    0.000 
#
# Total GULP energy -72372.910018 kJ/mol
# GULP energy per Si atom -5567.146924 kJ/mol
# Density = 2.427852 g / cm^3
# Si number density = 24.333904 Si / 1000 Ang^3
#
#
#
# Elastic Constant Matrix: (Units=GPa)
#
#
# Indices 1 2 3 4 5 6 
#
# 1 61.7110 30.1680 21.8118 -15.8744 1.6598 -16.5961
# 2 30.1680 201.0386 45.6206 -20.2025 5.3609 -13.7790
# 3 21.8118 45.6206 89.8285 -9.2724 17.7512 0.8186
# 4 -15.8744 -20.2025 -9.2724 45.4370 -1.8068 8.0415
# 5 1.6598 5.3609 17.7512 -1.8068 38.0047 -11.2570
# 6 -16.5961 -13.7790 0.8186 8.0415 -11.2570 45.3740
#
#
#
# Elastic Compliance Matrix: (Units=1/GPa)
#
#
# Indices 1 2 3 4 5 6 
#
# 1 0.021845 -0.001209 -0.005086 0.004825 0.004159 0.007891
# 2 -0.001209 0.006014 -0.002823 0.001463 0.001016 0.001428
# 3 -0.005086 -0.002823 0.015527 0.000723 -0.008120 -0.005141
# 4 0.004825 0.001463 0.000723 0.024885 -0.000246 -0.002275
# 5 0.004159 0.001016 -0.008120 -0.000246 0.032776 0.010151
# 6 0.007891 0.001428 -0.005141 -0.002275 0.010151 0.028373
#
#
# Mechanical properties :
#
#
# Convention : Reuss Voigt Hill
#
# Bulk Modulus (GPa) = 39.76223 60.86431 50.31327
# Shear Modulus (GPa) = 32.04294 42.76164 37.40229
#
# Velocity S-wave (km/s) = 3.63271 4.19655 3.92477
# Velocity P-wave (km/s) = 5.82848 6.96762 6.42336
#
# Compressibility (1/GPa) = 0.02514949
#
# Stress axis : x y z
#
# Youngs Moduli (GPa) = 45.77743 166.27537 64.40235
#
# Poissons Ratio (x) = 0.20104 0.32754
# Poissons Ratio (y) = 0.05535 0.18184
# Poissons Ratio (z) = 0.23282 0.46947
#
# Static dielectric constant tensor:
#      x y z
#    x 2.070890 -0.046260 0.116000 
#    y -0.046260 1.946010 0.021760 
#    z 0.116000 0.021760 1.769880 
# 
# From -- ./inp_files/65732.got.cif
#   From: 2010.05.17/outbox.cif.g08.bks.cpg/sg2_33_cif.got.tgz:65732.got - 2010.06.03 11:33:40.
