data_PCOD9057554
_publ_section_title
;
Structure prediction by ZEFSAII (Michael W. Deem and Ramdas Pophale) SiO2 
 PCOD9057554
Probable space group: P -1
;
_chemical_formula_sum "Si O2"
_cell_formula_units_Z 16
_cell_length_a 28.275863
_cell_length_b 9.356007
_cell_length_c 9.237870
_cell_angle_alpha 63.789861
_cell_angle_beta 38.134156
_cell_angle_gamma 36.023912
_cell_volume 749.538643
_symmetry_space_group_name_H-M "P -1"
_symmetry_group_IT_number 2
_symmetry_cell_setting 'triclinic'
loop_
_space_group_symop_operation_xyz
x,y,z
-x,-y,-z
loop_
_atom_site_type_symbol
_atom_site_label
_atom_site_fract_x
_atom_site_fract_y
_atom_site_fract_z
Si Si1 0.013516 0.222604 0.254140
Si Si2 0.050394 0.746684 0.924079
Si Si3 0.204512 0.616993 0.183649
Si Si4 0.429068 0.695614 0.729699
Si Si5 0.386044 0.330097 0.607619
Si Si6 0.541796 0.698605 0.098101
Si Si7 0.101508 0.356922 0.178996
Si Si8 0.645794 0.729391 0.599421
O O1 0.057109 0.313894 0.175869
O O2 0.860925 0.430826 0.576804
O O3 0.101257 0.941857 0.259786
O O4 0.031880 0.171439 0.058705
O O5 0.072017 0.580569 0.075975
O O6 0.201625 0.519697 0.596396
O O7 0.000000 0.000000 0.000000
O O8 0.267393 0.486714 0.932877
O O9 0.323732 0.477487 0.060646
O O10 0.500000 0.500000 0.500000
O O11 0.536157 0.641766 0.553573
O O12 0.440398 0.517209 0.879698
O O13 0.267481 0.035394 0.955307
O O14 0.334903 0.394599 0.541123
O O15 0.500000 0.000000 0.500000
O O16 0.417798 0.982029 0.369935
O O17 0.540414 0.801207 0.908793
O O18 0.000000 0.500000 0.500000
#
# Coordination Sequence:
#
# PCOD9057554 Si02
#       8
#     2   2   2   2   2   2   2   2
#     4  11  25  45  73  98 145 187 234 289 353 427
#     4  12  27  46  72 104 143 188 235 290 353 429
#     4  11  22  42  74 101 133 188 234 283 358 415
#     4  12  24  45  74  99 139 187 234 292 349 421
#     4  12  23  40  67 101 135 175 232 286 347 417
#     4  11  22  45  70  99 137 182 231 291 350 413
#     4  12  29  45  72 110 145 187 240 294 357 423
#     4  11  25  42  70 103 139 179 233 290 350 415
#
# _framework density 21.346464000000001
#
# number of rings (size 3 to 8) (size 9 to 14) (size 15 to 20)
#    0.000    0.500    5.000    2.625    8.750    0.500 
#    0.000    1.250    0.000    0.000    0.000    0.000 
#    0.000    0.000    0.000    0.000    0.000    0.000 
#
# Total GULP energy -89204.221027 kJ/mol
# GULP energy per Si atom -5575.263814 kJ/mol
# Density = 2.129788 g / cm^3
# Si number density = 21.346464 Si / 1000 Ang^3
#
#
#
# Elastic Constant Matrix: (Units=GPa)
#
#
# Indices 1 2 3 4 5 6 
#
# 1 108.4071 23.1873 19.2096 3.4106 18.4825 5.0359
# 2 23.1873 116.0195 25.6506 0.9086 2.4249 25.7394
# 3 19.2096 25.6506 92.2744 3.8538 16.1939 5.1038
# 4 3.4106 0.9086 3.8538 30.6679 -10.9526 -2.1873
# 5 18.4825 2.4249 16.1939 -10.9526 24.4140 2.6715
# 6 5.0359 25.7394 5.1038 -2.1873 2.6715 26.5888
#
#
#
# Elastic Compliance Matrix: (Units=1/GPa)
#
#
# Indices 1 2 3 4 5 6 
#
# 1 0.011715 -0.002283 0.000369 -0.005282 -0.011325 0.000624
# 2 -0.002283 0.012106 -0.003060 0.000996 0.004211 -0.011040
# 3 0.000369 -0.003060 0.013901 -0.005896 -0.011945 0.000939
# 4 -0.005282 0.000996 -0.005896 0.043775 0.027226 0.002033
# 5 -0.011325 0.004211 -0.011945 0.027226 0.069735 -0.004405
# 6 0.000624 -0.011040 0.000939 0.002033 -0.004405 0.048609
#
#
# Mechanical properties :
#
#
# Convention : Reuss Voigt Hill
#
# Bulk Modulus (GPa) = 36.00356 50.31067 43.15712
# Shear Modulus (GPa) = 22.82619 32.91103 27.86861
#
# Velocity S-wave (km/s) = 3.27359 3.93078 3.61714
# Velocity P-wave (km/s) = 5.58493 6.64990 6.14055
#
# Compressibility (1/GPa) = 0.02777503
#
# Stress axis : x y z
#
# Youngs Moduli (GPa) = 85.35722 82.60657 71.93490
#
# Poissons Ratio (x) = 0.18863 -0.02658
# Poissons Ratio (y) = 0.19491 0.22010
# Poissons Ratio (z) = -0.03154 0.25275
#
# Static dielectric constant tensor:
#      x y z
#    x 3.596370 -0.882370 -0.530730 
#    y -0.882370 2.280820 0.274070 
#    z -0.530730 0.274070 2.102920 
# 
# From -- ./inp_files/356594.got.cif
#   From: 2010.05.17/outbox.cif.g08.bks.cpg/sg2_179_cif.got.tgz:356594.got - 2010.06.03 11:33:40.
