data_PCOD9057417
_publ_section_title
;
Structure prediction by ZEFSAII (Michael W. Deem and Ramdas Pophale) SiO2 
 PCOD9057417
Probable space group: P -1
;
_chemical_formula_sum "Si O2"
_cell_formula_units_Z 16
_cell_length_a 8.178247
_cell_length_b 15.183255
_cell_length_c 8.700561
_cell_angle_alpha 111.502843
_cell_angle_beta 93.470930
_cell_angle_gamma 44.298772
_cell_volume 667.302503
_symmetry_space_group_name_H-M "P -1"
_symmetry_group_IT_number 2
_symmetry_cell_setting 'triclinic'
loop_
_space_group_symop_operation_xyz
x,y,z
-x,-y,-z
loop_
_atom_site_type_symbol
_atom_site_label
_atom_site_fract_x
_atom_site_fract_y
_atom_site_fract_z
Si Si1 0.295757 0.602776 0.331764
Si Si2 0.730287 0.158714 0.546632
Si Si3 0.943970 0.530838 0.693190
Si Si4 0.153996 0.629909 0.703909
Si Si5 0.514262 0.084457 0.671374
Si Si6 0.864114 0.923010 0.871043
Si Si7 0.027966 0.379160 0.863761
Si Si8 0.620332 0.188353 0.206660
O O1 0.265625 0.728587 0.378412
O O2 0.184644 0.625548 0.513865
O O3 0.580036 0.455204 0.277174
O O4 0.203171 0.588268 0.164074
O O5 0.568647 0.164625 0.654192
O O6 0.625864 0.181123 0.385728
O O7 0.000000 0.000000 0.500000
O O8 0.646636 0.663687 0.776956
O O9 0.000000 0.500000 0.500000
O O10 0.091799 0.562459 0.753888
O O11 0.066911 0.391113 0.695147
O O12 0.922394 0.792877 0.838427
O O13 0.253746 0.217174 0.824930
O O14 0.500000 0.000000 0.500000
O O15 0.736896 0.973798 0.730857
O O16 0.138025 0.851924 0.840968
O O17 0.688361 0.058495 0.055953
O O18 0.000000 0.500000 0.000000
#
# Coordination Sequence:
#
# PCOD9057417 Si02
#       8
#     2   2   2   2   2   2   2   2
#     4  11  23  44  71 101 134 186 238 289 344 424
#     4  12  23  45  70 102 135 184 239 284 348 426
#     4  12  24  43  72 102 132 182 236 293 340 417
#     4  11  22  42  70 100 133 178 245 283 343 414
#     4  12  26  46  70 102 144 189 237 283 354 427
#     4  11  24  45  67 101 141 186 222 294 353 418
#     4  12  26  46  68 103 147 181 227 295 360 411
#     4  11  24  43  70 103 138 178 235 288 356 413
#
# _framework density 23.977132000000001
#
# number of rings (size 3 to 8) (size 9 to 14) (size 15 to 20)
#    0.000    0.500    3.750    5.250    1.750    1.500 
#    4.500    1.250    0.000    0.000    0.000    0.000 
#    0.000    0.000    0.000    0.000    0.000    0.000 
#
# Total GULP energy -89193.283256 kJ/mol
# GULP energy per Si atom -5574.580203 kJ/mol
# Density = 2.392256 g / cm^3
# Si number density = 23.977132 Si / 1000 Ang^3
#
#
#
# Elastic Constant Matrix: (Units=GPa)
#
#
# Indices 1 2 3 4 5 6 
#
# 1 90.7031 30.2144 23.9039 1.3543 21.3300 -17.6691
# 2 30.2144 116.0614 2.6061 16.9177 9.1211 -25.8821
# 3 23.9039 2.6061 51.5853 14.2991 33.0811 -12.9294
# 4 1.3543 16.9177 14.2991 27.8312 0.9835 -7.9398
# 5 21.3300 9.1211 33.0811 0.9835 36.7315 -3.1922
# 6 -17.6691 -25.8821 -12.9294 -7.9398 -3.1922 54.7631
#
#
#
# Elastic Compliance Matrix: (Units=1/GPa)
#
#
# Indices 1 2 3 4 5 6 
#
# 1 0.014805 -0.003996 -0.006900 0.005882 -0.001372 0.002032
# 2 -0.003996 0.013887 0.016011 -0.014204 -0.014634 0.006142
# 3 -0.006900 0.016011 0.087481 -0.047464 -0.076210 0.014671
# 4 0.005882 -0.014204 -0.047464 0.066065 0.040737 -0.004069
# 5 -0.001372 -0.014634 -0.076210 0.040737 0.098007 -0.013733
# 6 0.002032 0.006142 0.014671 -0.004069 -0.013733 0.023892
#
#
# Mechanical properties :
#
#
# Convention : Reuss Voigt Hill
#
# Bulk Modulus (GPa) = 7.91111 41.31095 24.61103
# Shear Modulus (GPa) = 14.87918 37.30684 26.09301
#
# Velocity S-wave (km/s) = 2.49380 3.94881 3.30244
# Velocity P-wave (km/s) = 3.40568 6.16908 4.98278
#
# Compressibility (1/GPa) = 0.12640454
#
# Stress axis : x y z
#
# Youngs Moduli (GPa) = 67.54475 72.00981 11.43112
#
# Poissons Ratio (x) = 0.28772 0.07887
# Poissons Ratio (y) = 0.26988 -0.18303
# Poissons Ratio (z) = 0.46605 -1.15298
#
# Static dielectric constant tensor:
#      x y z
#    x 1.941620 0.000420 -0.052280 
#    y 0.000420 1.807750 -0.043550 
#    z -0.052280 -0.043550 2.084310 
# 
# From -- ./inp_files/208372.got.cif
#   From: 2010.05.17/outbox.cif.g08.bks.cpg/sg2_105_cif.got.tgz:208372.got - 2010.06.03 11:33:40.
