data_PCOD9057739
_publ_section_title
;
Structure prediction by ZEFSAII (Michael W. Deem and Ramdas Pophale) SiO2 
 PCOD9057739
Probable space group: P -1
;
_chemical_formula_sum "Si O2"
_cell_formula_units_Z 16
_cell_length_a 11.833430
_cell_length_b 14.554952
_cell_length_c 9.015476
_cell_angle_alpha 142.938153
_cell_angle_beta 70.104647
_cell_angle_gamma 127.238328
_cell_volume 711.376982
_symmetry_space_group_name_H-M "P -1"
_symmetry_group_IT_number 2
_symmetry_cell_setting 'triclinic'
loop_
_space_group_symop_operation_xyz
x,y,z
-x,-y,-z
loop_
_atom_site_type_symbol
_atom_site_label
_atom_site_fract_x
_atom_site_fract_y
_atom_site_fract_z
Si Si1 0.832759 0.021378 0.910513
Si Si2 0.971020 0.828669 0.462357
Si Si3 0.496232 0.660882 0.123527
Si Si4 0.372618 0.315306 0.226891
Si Si5 0.881892 0.447374 0.163474
Si Si6 0.131475 0.385848 0.337279
Si Si7 0.833071 0.552842 0.941761
Si Si8 0.264984 0.954773 0.345493
O O1 0.924822 0.939020 0.717118
O O2 0.696852 0.871658 0.883321
O O3 0.777288 0.042775 0.804136
O O4 0.956040 0.214862 0.187593
O O5 0.906614 0.631201 0.319028
O O6 0.142667 0.934409 0.486111
O O7 0.891982 0.758108 0.245667
O O8 0.326789 0.587847 0.098989
O O9 0.585314 0.852032 0.425200
O O10 0.500000 0.500000 0.000000
O O11 0.562376 0.688497 0.965141
O O12 0.500000 0.500000 0.500000
O O13 0.234893 0.326310 0.271777
O O14 0.847455 0.455763 0.360672
O O15 0.036954 0.470798 0.111876
O O16 0.757359 0.243652 0.889598
O O17 0.180412 0.452688 0.234562
#
# Coordination Sequence:
#
# PCOD9057739 Si02
#       8
#     2   2   2   2   2   2   2   2
#     4  12  24  42  72 106 133 179 239 289 341 400
#     4  11  22  43  70 101 138 176 235 292 336 398
#     4  12  25  44  71 101 142 181 231 283 345 411
#     4  12  26  44  67 105 143 181 223 290 350 404
#     4  11  25  46  70 100 144 179 231 286 347 407
#     4  12  24  44  72 102 136 180 231 287 344 404
#     4  11  23  43  70  98 134 184 226 280 343 411
#     4  11  24  43  69 104 137 183 229 282 347 414
#
# _framework density 22.491591
#
# number of rings (size 3 to 8) (size 9 to 14) (size 15 to 20)
#    0.000    0.500    5.000    5.625    1.750    0.000 
#    0.000    4.375    0.000    0.000    0.000    0.000 
#    0.000    0.000    0.000    0.000    0.000    0.000 
#
# Total GULP energy -89554.586519 kJ/mol
# GULP energy per Si atom -5597.161657 kJ/mol
# Density = 2.244040 g / cm^3
# Si number density = 22.491591 Si / 1000 Ang^3
#
#
#
# Elastic Constant Matrix: (Units=GPa)
#
#
# Indices 1 2 3 4 5 6 
#
# 1 47.3065 20.2847 16.8592 12.9549 15.1437 -6.6317
# 2 20.2847 127.9634 19.1710 -6.2620 2.4202 4.4370
# 3 16.8592 19.1710 103.9840 -1.1547 4.8675 11.1851
# 4 12.9549 -6.2620 -1.1547 42.1400 3.5761 3.8183
# 5 15.1437 2.4202 4.8675 3.5761 33.5048 8.2231
# 6 -6.6317 4.4370 11.1851 3.8183 8.2231 39.2899
#
#
#
# Elastic Compliance Matrix: (Units=1/GPa)
#
#
# Indices 1 2 3 4 5 6 
#
# 1 0.035989 -0.005581 -0.005538 -0.011780 -0.016988 0.012982
# 2 -0.005581 0.008978 -0.000545 0.003076 0.002256 -0.002572
# 3 -0.005538 -0.000545 0.011050 0.002187 0.001837 -0.004616
# 4 -0.011780 0.003076 0.002187 0.028164 0.003348 -0.006396
# 5 -0.016988 0.002256 0.001837 0.003348 0.039754 -0.012291
# 6 0.012982 -0.002572 -0.004616 -0.006396 -0.012291 0.032441
#
#
# Mechanical properties :
#
#
# Convention : Reuss Voigt Hill
#
# Bulk Modulus (GPa) = 30.59093 43.54262 37.06678
# Shear Modulus (GPa) = 26.23278 37.84954 32.04116
#
# Velocity S-wave (km/s) = 3.41887 4.10668 3.77846
# Velocity P-wave (km/s) = 5.40514 6.47209 5.96253
#
# Compressibility (1/GPa) = 0.03268943
#
# Stress axis : x y z
#
# Youngs Moduli (GPa) = 27.78622 111.38216 90.49680
#
# Poissons Ratio (x) = 0.62157 0.50118
# Poissons Ratio (y) = 0.15506 0.04934
# Poissons Ratio (z) = 0.15388 0.06073
#
# Static dielectric constant tensor:
#      x y z
#    x 1.848600 -0.062570 0.007450 
#    y -0.062570 1.870640 -0.004320 
#    z 0.007450 -0.004320 1.825590 
# 
# From -- ./inp_files/207714.got.cif
#   From: 2010.05.17/outbox.cif.g08.bks.cpg/sg2_104_cif.got.tgz:207714.got - 2010.06.03 11:33:40.
