data_PCOD9057259
_publ_section_title
;
Structure prediction by ZEFSAII (Michael W. Deem and Ramdas Pophale) SiO2 
 PCOD9057259
Probable space group: P -1
;
_chemical_formula_sum "Si O2"
_cell_formula_units_Z 14
_cell_length_a 11.215081
_cell_length_b 11.799016
_cell_length_c 5.751191
_cell_angle_alpha 103.175150
_cell_angle_beta 74.897215
_cell_angle_gamma 131.329849
_cell_volume 550.099137
_symmetry_space_group_name_H-M "P -1"
_symmetry_group_IT_number 2
_symmetry_cell_setting 'triclinic'
loop_
_space_group_symop_operation_xyz
x,y,z
-x,-y,-z
loop_
_atom_site_type_symbol
_atom_site_label
_atom_site_fract_x
_atom_site_fract_y
_atom_site_fract_z
Si Si1 0.176533 0.961820 0.957821
Si Si2 0.422049 0.115637 0.556099
Si Si3 0.144508 0.414012 0.489471
Si Si4 0.817073 0.196541 0.728947
Si Si5 0.548578 0.395863 0.888420
Si Si6 0.091074 0.130052 0.325466
Si Si7 0.669959 0.307675 0.158152
O O1 0.043272 0.906680 0.804575
O O2 0.346830 0.024098 0.794088
O O3 0.104680 0.822591 0.100328
O O4 0.200115 0.102060 0.128778
O O5 0.439865 0.262949 0.687334
O O6 0.587048 0.196501 0.372042
O O7 0.298962 0.975376 0.383898
O O8 0.267809 0.506165 0.257678
O O9 0.170314 0.291849 0.467748
O O10 0.193161 0.529925 0.724300
O O11 0.951583 0.312584 0.527603
O O12 0.725528 0.249827 0.909377
O O13 0.500000 0.500000 0.000000
O O14 0.552902 0.326969 0.094502
O O15 0.000000 0.000000 0.500000
#
# Coordination Sequence:
#
# PCOD9057259 Si02
#       7
#     2   2   2   2   2   2   2
#     4  11  23  38  71 100 140 170 230 286 342 400
#     4  11  24  46  70 102 136 189 232 287 339 416
#     4  11  25  45  70 105 137 180 230 294 349 416
#     4  12  25  46  69 107 137 183 239 289 343 410
#     4  11  27  48  69 101 140 189 230 286 358 414
#     4  11  22  42  65 106 135 175 222 283 345 403
#     4  11  28  46  69  97 147 187 232 286 348 417
#
# _framework density 25.449960000000001
#
# number of rings (size 3 to 8) (size 9 to 14) (size 15 to 20)
#    0.000    0.857    2.857    2.571    2.000    9.714 
#    0.000    0.000    0.000    0.000    0.000    0.000 
#    0.000    0.000    0.000    0.000    0.000    0.000 
#
# Total GULP energy -78156.898487 kJ/mol
# GULP energy per Si atom -5582.635606 kJ/mol
# Density = 2.539203 g / cm^3
# Si number density = 25.449960 Si / 1000 Ang^3
#
#
#
# Elastic Constant Matrix: (Units=GPa)
#
#
# Indices 1 2 3 4 5 6 
#
# 1 71.9786 42.1242 27.6012 21.1035 -26.0908 -13.8879
# 2 42.1242 133.1388 52.4701 19.3690 -13.7844 16.4579
# 3 27.6012 52.4701 118.2297 14.3801 -45.5463 -1.1304
# 4 21.1035 19.3690 14.3801 52.4625 0.7911 -8.5458
# 5 -26.0908 -13.7844 -45.5463 0.7911 43.0493 3.2261
# 6 -13.8879 16.4579 -1.1304 -8.5458 3.2261 38.6771
#
#
#
# Elastic Compliance Matrix: (Units=1/GPa)
#
#
# Indices 1 2 3 4 5 6 
#
# 1 0.029544 -0.010035 0.006912 -0.008535 0.021306 0.011418
# 2 -0.010035 0.013783 -0.007058 -0.000468 -0.008448 -0.009073
# 3 0.006912 -0.007058 0.019138 -0.005257 0.022046 0.003044
# 4 -0.008535 -0.000468 -0.005257 0.024843 -0.011599 0.003437
# 5 0.021306 -0.008448 0.022046 -0.011599 0.056630 0.004603
# 6 0.011418 -0.009073 0.003044 0.003437 0.004603 0.034280
#
#
# Mechanical properties :
#
#
# Convention : Reuss Voigt Hill
#
# Bulk Modulus (GPa) = 23.75220 63.08201 43.41711
# Shear Modulus (GPa) = 23.51667 40.24788 31.88228
#
# Velocity S-wave (km/s) = 3.04309 3.98106 3.54325
# Velocity P-wave (km/s) = 4.65837 6.78029 5.81690
#
# Compressibility (1/GPa) = 0.04210137
#
# Stress axis : x y z
#
# Youngs Moduli (GPa) = 33.84771 72.55512 52.25135
#
# Poissons Ratio (x) = 0.72810 -0.36114
# Poissons Ratio (y) = 0.33967 0.36880
# Poissons Ratio (z) = -0.23394 0.51211
#
# Static dielectric constant tensor:
#      x y z
#    x 2.045620 0.051300 -0.000460 
#    y 0.051300 2.005520 0.003900 
#    z -0.000460 0.003900 2.053940 
# 
# From -- ./inp_files/69672.got.cif
#   From: 2010.05.17/outbox.cif.g08.bks.cpg/sg2_35_cif.got.tgz:69672.got - 2010.06.03 11:33:40.
