data_PCOD9057728
_publ_section_title
;
Structure prediction by ZEFSAII (Michael W. Deem and Ramdas Pophale) SiO2 
 PCOD9057728
Probable space group: P -1
;
_chemical_formula_sum "Si O2"
_cell_formula_units_Z 15
_cell_length_a 16.377691
_cell_length_b 11.556770
_cell_length_c 8.468842
_cell_angle_alpha 41.880222
_cell_angle_beta 42.588691
_cell_angle_gamma 43.427211
_cell_volume 665.508828
_symmetry_space_group_name_H-M "P -1"
_symmetry_group_IT_number 2
_symmetry_cell_setting 'triclinic'
loop_
_space_group_symop_operation_xyz
x,y,z
-x,-y,-z
loop_
_atom_site_type_symbol
_atom_site_label
_atom_site_fract_x
_atom_site_fract_y
_atom_site_fract_z
Si Si1 0.020147 0.447329 0.708841
Si Si2 0.244038 0.267089 0.086144
Si Si3 0.500000 0.000000 0.500000
Si Si4 0.470712 0.653858 0.711706
Si Si5 0.652523 0.170485 0.618924
Si Si6 0.419674 0.318529 0.043038
Si Si7 0.922030 0.191786 0.316504
Si Si8 0.234504 0.463099 0.592333
O O1 0.909401 0.628097 0.767263
O O2 0.000000 0.500000 0.500000
O O3 0.163703 0.427457 0.577432
O O4 0.997133 0.267177 0.000357
O O5 0.309738 0.048149 0.245706
O O6 0.313698 0.362452 0.008269
O O7 0.263604 0.291700 0.848335
O O8 0.448179 0.834960 0.668714
O O9 0.578512 0.850260 0.677763
O O10 0.431757 0.720609 0.519869
O O11 0.401543 0.506441 0.974351
O O12 0.625619 0.529741 0.628285
O O13 0.560194 0.239142 0.833453
O O14 0.791227 0.186881 0.428913
O O15 0.867081 0.356968 0.355952
O O16 0.000000 0.000000 0.500000
#
# Coordination Sequence:
#
# PCOD9057728 Si02
#       8
#     2   2   1   2   2   2   2   2
#     4  11  26  45  67  98 141 189 233 292 361 417
#     4  11  22  43  71 102 137 185 236 290 352 419
#     4  12  28  42  62 102 154 188 220 280 364 436
#     4  12  24  44  70 103 140 188 228 291 353 419
#     4  12  22  44  75 104 135 175 248 296 339 419
#     4  12  24  45  69 106 141 182 235 292 357 412
#     4  11  23  45  72 103 131 186 241 295 344 417
#     4  11  22  43  69  96 137 181 239 287 350 415
#
# _framework density 22.539144
#
# number of rings (size 3 to 8) (size 9 to 14) (size 15 to 20)
#    0.000    0.533    4.000    6.800    1.867    0.000 
#    2.400    2.667    0.000    0.000    0.000    0.000 
#    0.000    0.000    0.000    0.000    0.000    0.000 
#
# Total GULP energy -83558.942334 kJ/mol
# GULP energy per Si atom -5570.596156 kJ/mol
# Density = 2.248784 g / cm^3
# Si number density = 22.539144 Si / 1000 Ang^3
#
#
#
# Elastic Constant Matrix: (Units=GPa)
#
#
# Indices 1 2 3 4 5 6 
#
# 1 203.5128 29.2450 59.8036 -2.7863 -4.3704 -8.2925
# 2 29.2450 63.2475 44.9920 -25.6694 -3.6895 -1.9574
# 3 59.8036 44.9920 82.2104 -34.9737 15.1215 -0.3854
# 4 -2.7863 -25.6694 -34.9737 33.7698 -3.0384 -3.4645
# 5 -4.3704 -3.6895 15.1215 -3.0384 48.3461 -6.3313
# 6 -8.2925 -1.9574 -0.3854 -3.4645 -6.3313 36.2723
#
#
#
# Elastic Compliance Matrix: (Units=1/GPa)
#
#
# Indices 1 2 3 4 5 6 
#
# 1 0.008108 0.000264 -0.010991 -0.010028 0.003750 0.001448
# 2 0.000264 0.030097 -0.014079 0.009411 0.007813 0.003797
# 3 -0.010991 -0.014079 0.044493 0.032976 -0.014191 -0.002127
# 4 -0.010028 0.009411 0.032976 0.070032 -0.005540 0.004288
# 5 0.003750 0.007813 -0.014191 -0.005540 0.026392 0.005206
# 6 0.001448 0.003797 -0.002127 0.004288 0.005206 0.029401
#
#
# Mechanical properties :
#
#
# Convention : Reuss Voigt Hill
#
# Bulk Modulus (GPa) = 30.22519 68.56132 49.39326
# Shear Modulus (GPa) = 18.57600 38.00631 28.29116
#
# Velocity S-wave (km/s) = 2.87394 4.11084 3.54673
# Velocity P-wave (km/s) = 4.94489 7.28126 6.22369
#
# Compressibility (1/GPa) = 0.03308498
#
# Stress axis : x y z
#
# Youngs Moduli (GPa) = 123.33516 33.22580 22.47521
#
# Poissons Ratio (x) = -0.00876 0.24704
# Poissons Ratio (y) = -0.03250 0.31642
# Poissons Ratio (z) = 1.35564 0.46778
#
# Static dielectric constant tensor:
#      x y z
#    x 1.848380 0.040530 -0.011290 
#    y 0.040530 1.833490 0.009280 
#    z -0.011290 0.009280 1.900950 
# 
# From -- ./inp_files/306151.got.cif
#   From: 2010.05.17/outbox.cif.g08.bks.cpg/sg2_154_cif.got.tgz:306151.got - 2010.06.03 11:33:40.
