data_PCOD9057191
_publ_section_title
;
Structure prediction by ZEFSAII (Michael W. Deem and Ramdas Pophale) SiO2 
 PCOD9057191
Probable space group: P -1
;
_chemical_formula_sum "Si O2"
_cell_formula_units_Z 16
_cell_length_a 22.968484
_cell_length_b 18.167656
_cell_length_c 13.764552
_cell_angle_alpha 148.286314
_cell_angle_beta 159.775385
_cell_angle_gamma 21.293808
_cell_volume 708.222040
_symmetry_space_group_name_H-M "P -1"
_symmetry_group_IT_number 2
_symmetry_cell_setting 'triclinic'
loop_
_space_group_symop_operation_xyz
x,y,z
-x,-y,-z
loop_
_atom_site_type_symbol
_atom_site_label
_atom_site_fract_x
_atom_site_fract_y
_atom_site_fract_z
Si Si1 0.171020 0.480636 0.601689
Si Si2 0.263995 0.425753 0.195523
Si Si3 0.287590 0.857434 0.265157
Si Si4 0.490268 0.798685 0.871345
Si Si5 0.213508 0.217634 0.512766
Si Si6 0.803965 0.226967 0.493068
Si Si7 0.936280 0.732828 0.327528
Si Si8 0.568055 0.432981 0.159468
O O1 0.198728 0.304600 0.483555
O O2 0.981820 0.654773 0.420701
O O3 0.059453 0.616791 0.678753
O O4 0.426353 0.382283 0.845754
O O5 0.516513 0.268104 0.478716
O O6 0.343753 0.360173 0.134668
O O7 0.116316 0.661836 0.239269
O O8 0.100624 0.389811 0.925654
O O9 0.384848 0.677159 0.142906
O O10 0.304404 0.003419 0.412729
O O11 0.000000 0.000000 0.000000
O O12 0.322160 0.772357 0.614143
O O13 0.623767 0.787445 0.162002
O O14 0.309531 0.026816 0.800458
O O15 0.602970 0.371468 0.256963
O O16 0.000000 0.000000 0.500000
O O17 0.168343 0.681988 0.597553
#
# Coordination Sequence:
#
# PCOD9057191 Si02
#       8
#     2   2   2   2   2   2   2   2
#     4  11  23  41  65  96 133 176 223 275 340 395
#     4  11  25  41  70 104 131 173 235 280 329 405
#     4  11  23  42  67  98 136 174 226 276 338 409
#     4  12  22  43  73  99 131 174 231 285 330 398
#     4  11  22  41  72  93 129 177 224 276 335 400
#     4  11  24  45  66  98 136 177 219 283 346 400
#     4  12  24  42  67  98 139 179 224 283 339 392
#     4  11  24  41  66  95 135 182 225 273 340 407
#
# _framework density 22.591784000000001
#
# number of rings (size 3 to 8) (size 9 to 14) (size 15 to 20)
#    0.000    0.750    6.250    1.875    0.000    3.000 
#    2.250    0.625    0.000    0.000    0.000    0.000 
#    0.000    0.000    0.000    0.000    0.000    0.000 
#
# Total GULP energy -89286.168338 kJ/mol
# GULP energy per Si atom -5580.385521 kJ/mol
# Density = 2.254036 g / cm^3
# Si number density = 22.591784 Si / 1000 Ang^3
#
#
#
# Elastic Constant Matrix: (Units=GPa)
#
#
# Indices 1 2 3 4 5 6 
#
# 1 89.0817 30.7450 27.4292 1.1458 9.8248 27.7531
# 2 30.7450 151.8447 21.4183 16.0929 8.0302 27.3683
# 3 27.4292 21.4183 70.5385 0.4043 18.4039 14.2290
# 4 1.1458 16.0929 0.4043 31.5006 4.4040 6.1337
# 5 9.8248 8.0302 18.4039 4.4040 27.7475 -8.1506
# 6 27.7531 27.3683 14.2290 6.1337 -8.1506 40.2850
#
#
#
# Elastic Compliance Matrix: (Units=1/GPa)
#
#
# Indices 1 2 3 4 5 6 
#
# 1 0.016983 -0.000775 -0.001279 0.003675 -0.009396 -0.013182
# 2 -0.000775 0.008146 -0.000399 -0.002752 -0.002856 -0.005018
# 3 -0.001279 -0.000399 0.021500 0.004506 -0.017544 -0.010678
# 4 0.003675 -0.002752 0.004506 0.036701 -0.012357 -0.010342
# 5 -0.009396 -0.002856 -0.017544 -0.012357 0.062339 0.029104
# 6 -0.013182 -0.005018 -0.010678 -0.010342 0.029104 0.048548
#
#
# Mechanical properties :
#
#
# Convention : Reuss Voigt Hill
#
# Bulk Modulus (GPa) = 23.96729 52.29444 38.13086
# Shear Modulus (GPa) = 23.47073 35.36480 29.41777
#
# Velocity S-wave (km/s) = 3.22670 3.96078 3.61244
# Velocity P-wave (km/s) = 4.95116 6.64190 5.85785
#
# Compressibility (1/GPa) = 0.04172354
#
# Stress axis : x y z
#
# Youngs Moduli (GPa) = 58.88306 122.75980 46.51056
#
# Poissons Ratio (x) = 0.09512 0.05949
# Poissons Ratio (y) = 0.04562 0.01856
# Poissons Ratio (z) = 0.07531 0.04899
#
# Static dielectric constant tensor:
#      x y z
#    x 1.852280 -0.004370 -0.030570 
#    y -0.004370 1.846400 -0.005350 
#    z -0.030570 -0.005350 1.980880 
# 
# From -- ./inp_files/543185.got.cif
#   From: 2010.05.17/outbox.cif.g08.bks.cpg/sg2_272_cif.got.tgz:543185.got - 2010.06.03 11:33:40.
