data_PCOD9057952
_publ_section_title
;
Structure prediction by ZEFSAII (Michael W. Deem and Ramdas Pophale) SiO2 
 PCOD9057952
Probable space group: P -1
;
_chemical_formula_sum "Si O2"
_cell_formula_units_Z 16
_cell_length_a 12.957893
_cell_length_b 18.296223
_cell_length_c 9.034369
_cell_angle_alpha 82.812834
_cell_angle_beta 110.857869
_cell_angle_gamma 155.795025
_cell_volume 700.415365
_symmetry_space_group_name_H-M "P -1"
_symmetry_group_IT_number 2
_symmetry_cell_setting 'triclinic'
loop_
_space_group_symop_operation_xyz
x,y,z
-x,-y,-z
loop_
_atom_site_type_symbol
_atom_site_label
_atom_site_fract_x
_atom_site_fract_y
_atom_site_fract_z
Si Si1 0.295216 0.571919 0.521885
Si Si2 0.040889 0.596193 0.899626
Si Si3 0.290492 0.130100 0.075216
Si Si4 0.891865 0.154333 0.971653
Si Si5 0.329272 0.315129 0.500817
Si Si6 0.608747 0.431463 0.910443
Si Si7 0.340587 0.898094 0.601828
Si Si8 0.748756 0.038159 0.225170
O O1 0.482267 0.732727 0.700871
O O2 0.523975 0.654468 0.541118
O O3 0.132769 0.514312 0.318242
O O4 0.003762 0.351038 0.509738
O O5 0.873996 0.552472 0.926226
O O6 0.000000 0.500000 0.000000
O O7 0.414268 0.831907 0.026868
O O8 0.160305 0.966281 0.024567
O O9 0.463292 0.283803 0.992313
O O10 0.000000 0.000000 0.000000
O O11 0.583096 0.001399 0.794438
O O12 0.944506 0.205408 0.160170
O O13 0.191425 0.372904 0.979964
O O14 0.500000 0.500000 0.500000
O O15 0.378286 0.319008 0.694169
O O16 0.956556 0.095689 0.343318
O O17 0.299903 0.950718 0.649051
O O18 0.500000 0.000000 0.500000
#
# Coordination Sequence:
#
# PCOD9057952 Si02
#       8
#     2   2   2   2   2   2   2   2
#     4  11  25  47  70 107 153 191 249 314 372 439
#     4  11  24  44  75 109 143 194 249 314 364 441
#     4  12  30  50  72 110 159 200 246 312 382 448
#     4  12  24  47  76 103 152 200 248 311 371 437
#     4  11  22  43  80 108 142 196 250 314 366 444
#     4  11  25  47  76 109 144 195 256 295 377 457
#     4  12  25  41  73 114 149 190 249 309 373 448
#     4  12  22  44  76 109 144 194 253 303 372 435
#
# _framework density 22.843589000000001
#
# number of rings (size 3 to 8) (size 9 to 14) (size 15 to 20)
#    0.000    0.500    5.000    3.375    0.000    4.000 
#    0.000    3.125    0.000    0.000    0.000    0.000 
#    0.000    0.000    0.000    0.000    0.000    0.000 
#
# Total GULP energy -89362.030317 kJ/mol
# GULP energy per Si atom -5585.126895 kJ/mol
# Density = 2.279160 g / cm^3
# Si number density = 22.843589 Si / 1000 Ang^3
#
#
#
# Elastic Constant Matrix: (Units=GPa)
#
#
# Indices 1 2 3 4 5 6 
#
# 1 87.6331 51.5421 61.6207 -9.9096 14.0621 6.4913
# 2 51.5421 126.0521 67.7879 -20.6923 2.3952 -1.5033
# 3 61.6207 67.7879 139.1592 9.7075 14.0837 2.9348
# 4 -9.9096 -20.6923 9.7075 29.1089 8.9363 11.0548
# 5 14.0621 2.3952 14.0837 8.9363 41.2481 5.2519
# 6 6.4913 -1.5033 2.9348 11.0548 5.2519 33.7284
#
#
#
# Elastic Compliance Matrix: (Units=1/GPa)
#
#
# Indices 1 2 3 4 5 6 
#
# 1 0.021902 -0.001830 -0.008973 0.013781 -0.006386 -0.007038
# 2 -0.001830 0.014726 -0.007206 0.013372 -0.000324 -0.002697
# 3 -0.008973 -0.007206 0.015558 -0.015542 0.000895 0.005007
# 4 0.013781 0.013372 -0.015542 0.064984 -0.011677 -0.020185
# 5 -0.006386 -0.000324 0.000895 -0.011677 0.028598 0.000511
# 6 -0.007038 -0.002697 0.005007 -0.020185 0.000511 0.036984
#
#
# Mechanical properties :
#
#
# Convention : Reuss Voigt Hill
#
# Bulk Modulus (GPa) = 61.85725 79.41620 70.63672
# Shear Modulus (GPa) = 22.30557 32.27668 27.29112
#
# Velocity S-wave (km/s) = 3.12821 3.76299 3.46019
# Velocity P-wave (km/s) = 6.33916 7.32945 6.85222
#
# Compressibility (1/GPa) = 0.01616625
#
# Stress axis : x y z
#
# Youngs Moduli (GPa) = 45.65807 67.90772 64.27705
#
# Poissons Ratio (x) = 0.12429 0.57678
# Poissons Ratio (y) = 0.08357 0.46318
# Poissons Ratio (z) = 0.40971 0.48934
#
# Static dielectric constant tensor:
#      x y z
#    x 1.723430 -0.225570 -0.140610 
#    y -0.225570 1.587740 -0.126740 
#    z -0.140610 -0.126740 1.801350 
# 
# From -- ./inp_files/319341.got.cif
#   From: 2010.05.17/outbox.cif.g08.bks.cpg/sg2_160_cif.got.tgz:319341.got - 2010.06.03 11:33:40.
