data_PCOD9057749
_publ_section_title
;
Structure prediction by ZEFSAII (Michael W. Deem and Ramdas Pophale) SiO2 
 PCOD9057749
Probable space group: P -1
;
_chemical_formula_sum "Si O2"
_cell_formula_units_Z 16
_cell_length_a 11.587791
_cell_length_b 9.053037
_cell_length_c 17.428541
_cell_angle_alpha 142.484853
_cell_angle_beta 144.458011
_cell_angle_gamma 38.950105
_cell_volume 600.334413
_symmetry_space_group_name_H-M "P -1"
_symmetry_group_IT_number 2
_symmetry_cell_setting 'triclinic'
loop_
_space_group_symop_operation_xyz
x,y,z
-x,-y,-z
loop_
_atom_site_type_symbol
_atom_site_label
_atom_site_fract_x
_atom_site_fract_y
_atom_site_fract_z
Si Si1 0.817856 0.876662 0.765655
Si Si2 0.594146 0.711854 0.117495
Si Si3 0.836849 0.527499 0.312216
Si Si4 0.976845 0.961698 0.565628
Si Si5 0.554463 0.436860 0.782900
Si Si6 0.847466 0.681745 0.104258
Si Si7 0.276876 0.234116 0.166370
Si Si8 0.536125 0.357350 0.560813
O O1 0.818128 0.866945 0.853714
O O2 0.664954 0.715077 0.598283
O O3 0.031651 0.727773 0.771153
O O4 0.710158 0.171888 0.799758
O O5 0.688256 0.752036 0.265559
O O6 0.788269 0.588593 0.115144
O O7 0.419214 0.968108 0.092337
O O8 0.500000 0.500000 0.000000
O O9 0.674003 0.487921 0.268004
O O10 0.996431 0.671160 0.480844
O O11 0.131492 0.052867 0.742948
O O12 0.000000 0.000000 0.500000
O O13 0.747701 0.154416 0.552435
O O14 0.547489 0.356666 0.658718
O O15 0.661709 0.653916 0.939566
O O16 0.078059 0.467013 0.117223
O O17 0.448149 0.364652 0.336406
#
# Coordination Sequence:
#
# PCOD9057749 Si02
#       8
#     2   2   2   2   2   2   2   2
#     4  12  24  43  77 105 139 192 245 296 355 417
#     4  12  22  40  69 108 142 180 234 306 352 408
#     4  12  24  41  73 107 141 183 246 295 357 420
#     4  11  22  43  70 105 139 179 241 297 343 411
#     4  12  27  49  69 106 156 189 230 295 368 437
#     4  11  25  41  72 105 146 186 234 295 366 418
#     4  11  24  42  71 107 138 184 247 296 349 421
#     4  11  26  48  72 104 150 192 236 294 364 426
#
# _framework density 26.651813000000001
#
# number of rings (size 3 to 8) (size 9 to 14) (size 15 to 20)
#    0.000    0.500    6.250    1.500    3.500    4.500 
#    0.000    0.625    0.000    0.000    0.000    0.000 
#    0.000    0.000    0.000    0.000    0.000    0.000 
#
# Total GULP energy -89501.300618 kJ/mol
# GULP energy per Si atom -5593.831289 kJ/mol
# Density = 2.659115 g / cm^3
# Si number density = 26.651813 Si / 1000 Ang^3
#
#
#
# Elastic Constant Matrix: (Units=GPa)
#
#
# Indices 1 2 3 4 5 6 
#
# 1 183.3470 46.2315 36.5857 -1.7039 -7.2507 -26.5636
# 2 46.2315 84.7449 20.6578 15.2797 -4.0226 -13.5730
# 3 36.5857 20.6578 115.9108 7.3647 16.9943 0.4122
# 4 -1.7039 15.2797 7.3647 33.2636 5.5782 -4.9717
# 5 -7.2507 -4.0226 16.9943 5.5782 47.0513 -4.2439
# 6 -26.5636 -13.5730 0.4122 -4.9717 -4.2439 36.4849
#
#
#
# Elastic Compliance Matrix: (Units=1/GPa)
#
#
# Indices 1 2 3 4 5 6 
#
# 1 0.007516 -0.003176 -0.002267 0.002774 0.001819 0.004906
# 2 -0.003176 0.015825 -0.001762 -0.007039 0.002600 0.002938
# 3 -0.002267 -0.001762 0.010395 -0.001340 -0.004377 -0.003115
# 4 0.002774 -0.007039 -0.001340 0.034882 -0.003486 0.003764
# 5 0.001819 0.002600 -0.004377 -0.003486 0.024172 0.004677
# 6 0.004906 0.002938 -0.003115 0.003764 0.004677 0.033166
#
#
# Mechanical properties :
#
#
# Convention : Reuss Voigt Hill
#
# Bulk Modulus (GPa) = 51.74303 65.66142 58.70222
# Shear Modulus (GPa) = 34.05845 42.06181 38.06013
#
# Velocity S-wave (km/s) = 3.57866 3.97696 3.78305
# Velocity P-wave (km/s) = 6.04420 6.76598 6.41525
#
# Compressibility (1/GPa) = 0.01932627
#
# Stress axis : x y z
#
# Youngs Moduli (GPa) = 133.05631 63.19018 96.20270
#
# Poissons Ratio (x) = 0.20067 0.21805
# Poissons Ratio (y) = 0.42253 0.16955
# Poissons Ratio (z) = 0.30159 0.11137
#
# Static dielectric constant tensor:
#      x y z
#    x 2.028020 0.002070 0.016420 
#    y 0.002070 2.118130 -0.016650 
#    z 0.016420 -0.016650 2.330460 
# 
# From -- ./inp_files/567070.got.cif
#   From: 2010.05.17/outbox.cif.g08.bks.cpg/sg2_284_cif.got.tgz:567070.got - 2010.06.03 11:33:40.
