data_PCOD9057907
_publ_section_title
;
Structure prediction by ZEFSAII (Michael W. Deem and Ramdas Pophale) SiO2 
 PCOD9057907
Probable space group: P -1
;
_chemical_formula_sum "Si O2"
_cell_formula_units_Z 14
_cell_length_a 5.328182
_cell_length_b 28.745460
_cell_length_c 11.590974
_cell_angle_alpha 22.937055
_cell_angle_beta 62.098661
_cell_angle_gamma 59.422170
_cell_volume 595.651607
_symmetry_space_group_name_H-M "P -1"
_symmetry_group_IT_number 2
_symmetry_cell_setting 'triclinic'
loop_
_space_group_symop_operation_xyz
x,y,z
-x,-y,-z
loop_
_atom_site_type_symbol
_atom_site_label
_atom_site_fract_x
_atom_site_fract_y
_atom_site_fract_z
Si Si1 0.301238 0.884103 0.525335
Si Si2 0.349982 0.949902 0.038608
Si Si3 0.728589 0.614421 0.296799
Si Si4 0.649596 0.456088 0.252845
Si Si5 0.276486 0.685080 0.667221
Si Si6 0.718355 0.649547 0.954297
Si Si7 0.338633 0.115493 0.341879
O O1 0.447874 0.754387 0.729403
O O2 0.397077 0.857019 0.699060
O O3 0.968346 0.919027 0.478960
O O4 0.481459 0.990320 0.230115
O O5 0.410778 0.803623 0.357654
O O6 0.500000 0.000000 0.000000
O O7 0.000000 0.000000 0.000000
O O8 0.531496 0.592866 0.496192
O O9 0.000000 0.500000 0.500000
O O10 0.644008 0.612780 0.182381
O O11 0.785426 0.749848 0.994449
O O12 0.779190 0.354181 0.363376
O O13 0.467570 0.568474 0.958883
O O14 0.832864 0.529264 0.126494
O O15 0.980477 0.718383 0.729523
O O16 0.500000 0.000000 0.500000
#
# Coordination Sequence:
#
# PCOD9057907 Si02
#       7
#     2   2   2   2   2   2   2
#     4  11  24  44  75 100 145 187 250 297 369 435
#     4  12  25  44  73 105 140 193 244 296 359 444
#     4  11  23  43  74 103 142 189 255 294 371 440
#     4  11  24  44  67 103 146 188 242 303 375 430
#     4  11  25  43  67 106 147 188 239 309 368 434
#     4  11  22  43  74 102 144 194 246 305 363 447
#     4  11  26  47  70 107 144 192 237 317 367 438
#
# _framework density 23.50367
#
# number of rings (size 3 to 8) (size 9 to 14) (size 15 to 20)
#    0.000    0.857    2.857    3.857    6.000    1.143 
#    0.000    0.000    0.000    0.000    0.000    0.000 
#    0.000    0.000    0.000    0.000    0.000    0.000 
#
# Total GULP energy -77984.883515 kJ/mol
# GULP energy per Si atom -5570.348823 kJ/mol
# Density = 2.345017 g / cm^3
# Si number density = 23.503670 Si / 1000 Ang^3
#
#
#
# Elastic Constant Matrix: (Units=GPa)
#
#
# Indices 1 2 3 4 5 6 
#
# 1 95.8502 38.1293 15.7500 -8.8836 -13.5304 4.7068
# 2 38.1293 97.7768 55.7419 -5.2769 -9.6889 15.1222
# 3 15.7500 55.7419 117.3604 3.9475 -23.6499 4.6824
# 4 -8.8836 -5.2769 3.9475 40.9212 0.7712 -6.2953
# 5 -13.5304 -9.6889 -23.6499 0.7712 35.6040 -1.2922
# 6 4.7068 15.1222 4.6824 -6.2953 -1.2922 40.1563
#
#
#
# Elastic Compliance Matrix: (Units=1/GPa)
#
#
# Indices 1 2 3 4 5 6 
#
# 1 0.013220 -0.005739 0.001784 0.002004 0.004635 0.000867
# 2 -0.005739 0.017556 -0.007996 0.001086 -0.002917 -0.004930
# 3 0.001784 -0.007996 0.013638 -0.001926 0.007645 0.001156
# 4 0.002004 0.001086 -0.001926 0.025764 -0.000650 0.003599
# 5 0.004635 -0.002917 0.007645 -0.000650 0.034171 0.000662
# 6 0.000867 -0.004930 0.001156 0.003599 0.000662 0.027108
#
#
# Mechanical properties :
#
#
# Convention : Reuss Voigt Hill
#
# Bulk Modulus (GPa) = 48.75164 58.91444 53.83304
# Shear Modulus (GPa) = 30.82682 36.76072 33.79377
#
# Velocity S-wave (km/s) = 3.62550 3.95909 3.79596
# Velocity P-wave (km/s) = 6.18973 6.78378 6.49355
#
# Compressibility (1/GPa) = 0.02051213
#
# Stress axis : x y z
#
# Youngs Moduli (GPa) = 75.64158 56.96165 73.32276
#
# Poissons Ratio (x) = 0.32689 -0.13078
# Poissons Ratio (y) = 0.43410 0.58628
# Poissons Ratio (z) = -0.13492 0.45546
#
# Static dielectric constant tensor:
#      x y z
#    x 2.012140 0.143660 0.030020 
#    y 0.143660 2.009400 0.061800 
#    z 0.030020 0.061800 1.980060 
# 
# From -- ./inp_files/371579.got.cif
#   From: 2010.05.17/outbox.cif.g08.bks.cpg/sg2_186_cif.got.tgz:371579.got - 2010.06.03 11:33:40.
