data_PCOD9057552
_publ_section_title
;
Structure prediction by ZEFSAII (Michael W. Deem and Ramdas Pophale) SiO2 
 PCOD9057552
Probable space group: P -1
;
_chemical_formula_sum "Si O2"
_cell_formula_units_Z 16
_cell_length_a 11.249452
_cell_length_b 7.650824
_cell_length_c 9.461173
_cell_angle_alpha 70.306230
_cell_angle_beta 81.193664
_cell_angle_gamma 54.606047
_cell_volume 624.040039
_symmetry_space_group_name_H-M "P -1"
_symmetry_group_IT_number 2
_symmetry_cell_setting 'triclinic'
loop_
_space_group_symop_operation_xyz
x,y,z
-x,-y,-z
loop_
_atom_site_type_symbol
_atom_site_label
_atom_site_fract_x
_atom_site_fract_y
_atom_site_fract_z
Si Si1 0.159515 0.120732 0.451027
Si Si2 0.426143 0.423045 0.645714
Si Si3 0.709059 0.932415 0.256073
Si Si4 0.655859 0.389236 0.074003
Si Si5 0.616801 0.907048 0.784853
Si Si6 0.845111 0.303576 0.526570
Si Si7 0.864756 0.141382 0.881494
Si Si8 0.841047 0.724334 0.007322
O O1 0.243407 0.185427 0.314339
O O2 0.985491 0.277431 0.441258
O O3 0.225293 0.122281 0.587226
O O4 0.185036 0.877252 0.483535
O O5 0.500000 0.500000 0.500000
O O6 0.361147 0.536117 0.779746
O O7 0.297743 0.457508 0.558689
O O8 0.550383 0.171385 0.735863
O O9 0.728857 0.125066 0.148467
O O10 0.531746 0.063010 0.246663
O O11 0.802421 0.741698 0.174260
O O12 0.500000 0.500000 0.000000
O O13 0.754471 0.368628 0.929355
O O14 0.691865 0.771541 0.951352
O O15 0.878800 0.232646 0.703546
O O16 0.834825 0.948796 0.903310
O O17 0.000000 0.000000 0.000000
O O18 0.000000 0.500000 0.000000
#
# Coordination Sequence:
#
# PCOD9057552 Si02
#       8
#     2   2   2   2   2   2   2   2
#     4  11  23  43  69  99 135 181 230 286 346 409
#     4  12  22  41  70 105 136 184 228 284 352 416
#     4  11  24  46  66 101 141 183 229 287 344 418
#     4  11  23  40  66 100 134 171 234 278 335 413
#     4  12  25  45  69  99 146 183 227 285 352 417
#     4  11  22  42  73  99 138 175 235 293 353 398
#     4  11  24  42  69  98 134 172 226 290 337 404
#     4  11  25  46  67  97 139 184 230 276 351 418
#
# _framework density 25.639378000000001
#
# number of rings (size 3 to 8) (size 9 to 14) (size 15 to 20)
#    0.000    0.750    3.750    4.500    1.750    3.000 
#    0.000    6.250    0.000    0.000    0.000    0.000 
#    0.000    0.000    0.000    0.000    0.000    0.000 
#
# Total GULP energy -89349.300405 kJ/mol
# GULP energy per Si atom -5584.331275 kJ/mol
# Density = 2.558102 g / cm^3
# Si number density = 25.639378 Si / 1000 Ang^3
#
#
#
# Elastic Constant Matrix: (Units=GPa)
#
#
# Indices 1 2 3 4 5 6 
#
# 1 131.4571 33.1200 40.3931 14.7017 6.6091 -31.3996
# 2 33.1200 67.6111 61.5535 0.2235 0.0530 -9.2162
# 3 40.3931 61.5535 162.6883 18.8431 12.0281 -21.0748
# 4 14.7017 0.2235 18.8431 32.6556 -10.3581 2.7736
# 5 6.6091 0.0530 12.0281 -10.3581 56.3303 -3.5765
# 6 -31.3996 -9.2162 -21.0748 2.7736 -3.5765 47.9241
#
#
#
# Elastic Compliance Matrix: (Units=1/GPa)
#
#
# Indices 1 2 3 4 5 6 
#
# 1 0.011262 -0.005698 0.001287 -0.007154 -0.002457 0.007080
# 2 -0.005698 0.026835 -0.010737 0.010341 0.004612 -0.003548
# 3 0.001287 -0.010737 0.011761 -0.008924 -0.004029 0.004166
# 4 -0.007154 0.010341 -0.008924 0.042829 0.010080 -0.008349
# 5 -0.002457 0.004612 -0.004029 0.010080 0.020653 -0.001536
# 6 0.007080 -0.003548 0.004166 -0.008349 -0.001536 0.027023
#
#
# Mechanical properties :
#
#
# Convention : Reuss Voigt Hill
#
# Bulk Modulus (GPa) = 51.11919 70.20997 60.66458
# Shear Modulus (GPa) = 28.22031 42.49466 35.35749
#
# Velocity S-wave (km/s) = 3.32122 4.07553 3.71756
# Velocity P-wave (km/s) = 5.88969 7.04200 6.49146
#
# Compressibility (1/GPa) = 0.01956213
#
# Stress axis : x y z
#
# Youngs Moduli (GPa) = 88.79593 37.26489 85.03000
#
# Poissons Ratio (x) = 0.21233 -0.10944
# Poissons Ratio (y) = 0.50594 0.91295
# Poissons Ratio (z) = -0.11428 0.40011
#
# Static dielectric constant tensor:
#      x y z
#    x 2.091140 0.055320 -0.148990 
#    y 0.055320 1.979030 0.141050 
#    z -0.148990 0.141050 1.848960 
# 
# From -- ./inp_files/243539.got.cif
#   From: 2010.05.17/outbox.cif.g08.bks.cpg/sg2_122_cif.got.tgz:243539.got - 2010.06.03 11:33:40.
