data_PCOD9057317
_publ_section_title
;
Structure prediction by ZEFSAII (Michael W. Deem and Ramdas Pophale) SiO2 
 PCOD9057317
Probable space group: P -1
;
_chemical_formula_sum "Si O2"
_cell_formula_units_Z 16
_cell_length_a 16.124849
_cell_length_b 9.028157
_cell_length_c 11.990066
_cell_angle_alpha 93.754155
_cell_angle_beta 152.974672
_cell_angle_gamma 78.157221
_cell_volume 748.730261
_symmetry_space_group_name_H-M "P -1"
_symmetry_group_IT_number 2
_symmetry_cell_setting 'triclinic'
loop_
_space_group_symop_operation_xyz
x,y,z
-x,-y,-z
loop_
_atom_site_type_symbol
_atom_site_label
_atom_site_fract_x
_atom_site_fract_y
_atom_site_fract_z
Si Si1 0.407461 0.804154 0.300900
Si Si2 0.517947 0.999462 0.775495
Si Si3 0.777637 0.557633 0.776810
Si Si4 0.261766 0.310062 0.599844
Si Si5 0.664001 0.673693 0.050002
Si Si6 0.189452 0.885913 0.274534
Si Si7 0.713011 0.392396 0.489667
Si Si8 0.167907 0.597428 0.927382
O O1 0.639610 0.732581 0.594877
O O2 0.312416 0.810236 0.307911
O O3 0.375429 0.964083 0.203531
O O4 0.309384 0.701172 0.102491
O O5 0.326561 0.964322 0.505522
O O6 0.435402 0.162413 0.753797
O O7 0.645714 0.844666 0.986302
O O8 0.668450 0.467876 0.563094
O O9 0.781879 0.508785 0.906682
O O10 0.000000 0.500000 0.000000
O O11 0.294675 0.327780 0.770417
O O12 0.242801 0.474023 0.522648
O O13 0.053197 0.291015 0.328274
O O14 0.808513 0.524847 0.151518
O O15 0.459820 0.648144 0.778056
O O16 0.137982 0.772649 0.298950
O O17 0.000000 0.000000 0.000000
#
# Coordination Sequence:
#
# PCOD9057317 Si02
#       8
#     2   2   2   2   2   2   2   2
#     4  12  23  40  64  95 134 174 204 266 334 400
#     4  11  24  42  61  93 128 176 216 264 329 382
#     4  12  21  38  68  97 129 160 216 267 328 385
#     4  12  24  44  67  92 127 176 226 266 316 386
#     4  11  25  44  64  93 130 172 223 274 318 375
#     4  11  25  40  62 101 139 166 207 267 336 400
#     4  11  22  42  67  96 123 170 215 267 322 388
#     4  12  23  40  67  96 129 164 221 271 324 387
#
# _framework density 21.369510999999999
#
# number of rings (size 3 to 8) (size 9 to 14) (size 15 to 20)
#    0.000    0.500    5.000    4.125    1.750    1.000 
#    0.000    0.625    0.000    0.000    0.000    0.000 
#    0.000    0.000    0.000    0.000    0.000    0.000 
#
# Total GULP energy -89275.383382 kJ/mol
# GULP energy per Si atom -5579.711461 kJ/mol
# Density = 2.132087 g / cm^3
# Si number density = 21.369511 Si / 1000 Ang^3
#
#
#
# Elastic Constant Matrix: (Units=GPa)
#
#
# Indices 1 2 3 4 5 6 
#
# 1 90.8488 41.8675 18.1850 -6.8128 -22.8637 1.8469
# 2 41.8675 99.6665 14.5932 -9.0703 -10.2709 19.5658
# 3 18.1850 14.5932 63.4995 -7.5879 -1.9143 -0.5785
# 4 -6.8128 -9.0703 -7.5879 27.2554 -4.0322 -6.2188
# 5 -22.8637 -10.2709 -1.9143 -4.0322 46.2165 1.7839
# 6 1.8469 19.5658 -0.5785 -6.2188 1.7839 23.7151
#
#
#
# Elastic Compliance Matrix: (Units=1/GPa)
#
#
# Indices 1 2 3 4 5 6 
#
# 1 0.016256 -0.006300 -0.002588 0.003190 0.006651 0.004204
# 2 -0.006300 0.015463 -0.001793 0.000385 0.000753 -0.012266
# 3 -0.002588 -0.001793 0.017417 0.004247 -0.000713 0.003273
# 4 0.003190 0.000385 0.004247 0.041864 0.005101 0.010132
# 5 0.006651 0.000753 -0.000713 0.005101 0.025578 -0.001743
# 6 0.004204 -0.012266 0.003273 0.010132 -0.001743 0.054828
#
#
# Mechanical properties :
#
#
# Convention : Reuss Voigt Hill
#
# Bulk Modulus (GPa) = 36.00223 44.81180 40.40701
# Shear Modulus (GPa) = 24.74960 31.39532 28.07246
#
# Velocity S-wave (km/s) = 3.40689 3.83713 3.62839
# Velocity P-wave (km/s) = 5.68858 6.37549 6.04180
#
# Compressibility (1/GPa) = 0.02777606
#
# Stress axis : x y z
#
# Youngs Moduli (GPa) = 61.51608 64.67130 57.41521
#
# Poissons Ratio (x) = 0.40740 0.14857
# Poissons Ratio (y) = 0.38752 0.10292
# Poissons Ratio (z) = 0.15918 0.11593
#
# Static dielectric constant tensor:
#      x y z
#    x 1.771200 -0.029420 0.038290 
#    y -0.029420 1.874880 -0.035900 
#    z 0.038290 -0.035900 1.750520 
# 
# From -- ./inp_files/379485.got.cif
#   From: 2010.05.17/outbox.cif.g08.bks.cpg/sg2_190_cif.got.tgz:379485.got - 2010.06.03 11:33:40.
