data_PCOD9057321
_publ_section_title
;
Structure prediction by ZEFSAII (Michael W. Deem and Ramdas Pophale) SiO2 
 PCOD9057321
Probable space group: P -1
;
_chemical_formula_sum "Si O2"
_cell_formula_units_Z 14
_cell_length_a 11.795565
_cell_length_b 9.761097
_cell_length_c 9.197895
_cell_angle_alpha 132.202525
_cell_angle_beta 79.238708
_cell_angle_gamma 121.718052
_cell_volume 643.627950
_symmetry_space_group_name_H-M "P -1"
_symmetry_group_IT_number 2
_symmetry_cell_setting 'triclinic'
loop_
_space_group_symop_operation_xyz
x,y,z
-x,-y,-z
loop_
_atom_site_type_symbol
_atom_site_label
_atom_site_fract_x
_atom_site_fract_y
_atom_site_fract_z
Si Si1 0.217364 0.208518 0.585171
Si Si2 0.410911 0.908834 0.605015
Si Si3 0.011062 0.716774 0.224570
Si Si4 0.854550 0.773650 0.900188
Si Si5 0.911854 0.413258 0.606656
Si Si6 0.628938 0.746235 0.140639
Si Si7 0.633525 0.496066 0.500403
O O1 0.322202 0.203443 0.667633
O O2 0.286203 0.415659 0.607436
O O3 0.114087 0.247972 0.731484
O O4 0.141556 0.971239 0.349075
O O5 0.247279 0.775446 0.515769
O O6 0.424126 0.745336 0.589243
O O7 0.500000 0.000000 0.500000
O O8 0.432679 0.124799 0.827092
O O9 0.023543 0.675297 0.362463
O O10 0.000000 0.500000 0.000000
O O11 0.899929 0.607084 0.815255
O O12 0.749820 0.662737 0.708838
O O13 0.759823 0.792006 0.052425
O O14 0.000000 0.000000 0.000000
O O15 0.000000 0.500000 0.500000
O O16 0.500000 0.500000 0.000000
O O17 0.500000 0.500000 0.500000
#
# Coordination Sequence:
#
# PCOD9057321 Si02
#       7
#     2   2   2   2   2   2   2
#     4  11  25  45  70 101 146 179 229 299 355 413
#     4  11  23  43  70  96 132 187 232 278 348 424
#     4  11  24  41  70 103 139 180 229 289 358 418
#     4  11  25  40  70 104 136 178 238 291 344 421
#     4  11  22  42  67  97 138 177 230 286 346 420
#     4  12  24  46  71 100 139 186 238 286 353 433
#     4  11  25  47  69  99 141 184 231 294 360 418
#
# _framework density 21.751695999999999
#
# number of rings (size 3 to 8) (size 9 to 14) (size 15 to 20)
#    0.000    0.857    1.429    6.857    6.000    0.000 
#    0.000    1.429    0.000    0.000    0.000    0.000 
#    0.000    0.000    0.000    0.000    0.000    0.000 
#
# Total GULP energy -78045.407717 kJ/mol
# GULP energy per Si atom -5574.671980 kJ/mol
# Density = 2.170219 g / cm^3
# Si number density = 21.751696 Si / 1000 Ang^3
#
#
#
# Elastic Constant Matrix: (Units=GPa)
#
#
# Indices 1 2 3 4 5 6 
#
# 1 126.4002 57.8555 25.7594 10.5070 -3.3673 -10.9060
# 2 57.8555 172.2171 39.1608 14.4626 -10.0650 -2.9315
# 3 25.7594 39.1608 62.6705 23.9551 -16.6182 1.3796
# 4 10.5070 14.4626 23.9551 47.0855 -1.0684 -3.5655
# 5 -3.3673 -10.0650 -16.6182 -1.0684 35.3873 0.5371
# 6 -10.9060 -2.9315 1.3796 -3.5655 0.5371 58.3485
#
#
#
# Elastic Compliance Matrix: (Units=1/GPa)
#
#
# Indices 1 2 3 4 5 6 
#
# 1 0.009829 -0.002729 -0.002733 0.000145 -0.001147 0.001784
# 2 -0.002729 0.007539 -0.003576 0.000115 0.000209 -0.000042
# 3 -0.002733 -0.003576 0.026800 -0.011840 0.010983 -0.002149
# 4 0.000145 0.000115 -0.011840 0.027240 -0.004722 0.002021
# 5 -0.001147 0.000209 0.010983 -0.004722 0.033240 -0.001058
# 6 0.001784 -0.000042 -0.002149 0.002021 -0.001058 0.017654
#
#
# Mechanical properties :
#
#
# Convention : Reuss Voigt Hill
#
# Bulk Modulus (GPa) = 38.32908 67.42657 52.87782
# Shear Modulus (GPa) = 33.53991 44.06507 38.80249
#
# Velocity S-wave (km/s) = 3.93102 4.50580 4.22819
# Velocity P-wave (km/s) = 6.18574 7.62464 6.94257
#
# Compressibility (1/GPa) = 0.02608985
#
# Stress axis : x y z
#
# Youngs Moduli (GPa) = 101.73971 132.65033 37.31342
#
# Poissons Ratio (x) = 0.36204 0.10199
# Poissons Ratio (y) = 0.27768 0.13344
# Poissons Ratio (z) = 0.27809 0.47439
#
# Static dielectric constant tensor:
#      x y z
#    x 1.744560 -0.094480 -0.209310 
#    y -0.094480 1.660690 -0.204580 
#    z -0.209310 -0.204580 1.386610 
# 
# From -- ./inp_files/188822.got.cif
#   From: 2010.05.17/outbox.cif.g08.bks.cpg/sg2_95_cif.got.tgz:188822.got - 2010.06.03 11:33:40.
