data_PCOD9057064
_publ_section_title
;
Structure prediction by ZEFSAII (Michael W. Deem and Ramdas Pophale) SiO2 
 PCOD9057064
Probable space group: P -1
;
_chemical_formula_sum "Si O2"
_cell_formula_units_Z 14
_cell_length_a 9.536274
_cell_length_b 4.978321
_cell_length_c 12.226345
_cell_angle_alpha 93.627506
_cell_angle_beta 94.401967
_cell_angle_gamma 101.546020
_cell_volume 565.178092
_symmetry_space_group_name_H-M "P -1"
_symmetry_group_IT_number 2
_symmetry_cell_setting 'triclinic'
loop_
_space_group_symop_operation_xyz
x,y,z
-x,-y,-z
loop_
_atom_site_type_symbol
_atom_site_label
_atom_site_fract_x
_atom_site_fract_y
_atom_site_fract_z
Si Si1 0.148477 0.547785 0.233338
Si Si2 0.191288 0.527047 0.469025
Si Si3 0.630879 0.884912 0.553542
Si Si4 0.131897 0.409267 0.704603
Si Si5 0.282235 0.012057 0.812509
Si Si6 0.839163 0.841091 0.965551
Si Si7 0.606161 0.007677 0.792199
O O1 0.133054 0.388014 0.344997
O O2 0.131483 0.413191 0.110219
O O3 0.313148 0.701741 0.243870
O O4 0.019416 0.710285 0.246577
O O5 0.235821 0.854364 0.456596
O O6 0.108552 0.458332 0.576245
O O7 0.329598 0.391444 0.495631
O O8 0.595374 0.829177 0.677942
O O9 0.500000 0.000000 0.500000
O O10 0.239260 0.202706 0.719985
O O11 0.196999 0.701447 0.774875
O O12 0.450189 0.008200 0.828719
O O13 0.235342 0.156937 0.921458
O O14 0.723952 0.945444 0.882560
O O15 0.000000 0.000000 0.000000
#
# Coordination Sequence:
#
# PCOD9057064 Si02
#       7
#     2   2   2   2   2   2   2
#     4  11  26  45  75 104 146 191 243 298 363 423
#     4  11  23  42  69 105 140 186 239 295 350 427
#     4  11  22  41  69 104 147 187 226 292 364 429
#     4  12  26  48  72 110 146 192 240 294 363 429
#     4  12  29  46  76 106 147 190 239 299 358 429
#     4  12  25  49  75 102 146 192 246 298 357 427
#     4  11  26  46  71 111 143 188 245 296 362 427
#
# _framework density 24.770952000000001
#
# number of rings (size 3 to 8) (size 9 to 14) (size 15 to 20)
#    0.000    0.571    2.857    4.714    4.000    2.857 
#    0.000    3.571    0.000    0.000    0.000    0.000 
#    0.000    0.000    0.000    0.000    0.000    0.000 
#
# Total GULP energy -78157.257702 kJ/mol
# GULP energy per Si atom -5582.661264 kJ/mol
# Density = 2.471457 g / cm^3
# Si number density = 24.770952 Si / 1000 Ang^3
#
#
#
# Elastic Constant Matrix: (Units=GPa)
#
#
# Indices 1 2 3 4 5 6 
#
# 1 129.1391 -7.1281 26.0063 1.2005 -2.4853 3.7816
# 2 -7.1281 54.7118 -3.1905 2.2650 11.3268 -4.8103
# 3 26.0063 -3.1905 111.9848 -7.0459 -4.6602 6.9117
# 4 1.2005 2.2650 -7.0459 36.2046 -9.1231 8.6101
# 5 -2.4853 11.3268 -4.6602 -9.1231 51.5888 -8.5572
# 6 3.7816 -4.8103 6.9117 8.6101 -8.5572 34.8011
#
#
#
# Elastic Compliance Matrix: (Units=1/GPa)
#
#
# Indices 1 2 3 4 5 6 
#
# 1 0.008194 0.000996 -0.001909 -0.000688 -0.000158 -0.000242
# 2 0.000996 0.019636 -0.000183 -0.002955 -0.004423 0.002286
# 3 -0.001909 -0.000183 0.009714 0.002724 0.000944 -0.002189
# 4 -0.000688 -0.002955 0.002724 0.031421 0.005196 -0.007371
# 5 -0.000158 -0.004423 0.000944 0.005196 0.021902 0.003318
# 6 -0.000242 0.002286 -0.002189 -0.007371 0.003318 0.032151
#
#
# Mechanical properties :
#
#
# Convention : Reuss Voigt Hill
#
# Bulk Modulus (GPa) = 28.28810 36.35678 32.32244
# Shear Modulus (GPa) = 36.49824 43.19544 39.84684
#
# Velocity S-wave (km/s) = 3.84269 4.18041 4.01510
# Velocity P-wave (km/s) = 5.57970 6.16523 5.87976
#
# Compressibility (1/GPa) = 0.03535056
#
# Stress axis : x y z
#
# Youngs Moduli (GPa) = 122.04780 50.92758 102.94722
#
# Poissons Ratio (x) = -0.05073 0.19656
# Poissons Ratio (y) = -0.12157 0.01884
# Poissons Ratio (z) = 0.23303 0.00932
#
# Static dielectric constant tensor:
#      x y z
#    x 2.007040 -0.010720 0.036760 
#    y -0.010720 2.078430 0.085210 
#    z 0.036760 0.085210 2.297560 
# 
# From -- ./inp_files/27603.got.cif
#   From: 2010.05.17/outbox.cif.g08.bks.cpg/sg2_14_cif.got.tgz:27603.got - 2010.06.03 11:33:40.
