data_PCOD9057743
_publ_section_title
;
Structure prediction by ZEFSAII (Michael W. Deem and Ramdas Pophale) SiO2 
 PCOD9057743
Probable space group: P -1
;
_chemical_formula_sum "Si O2"
_cell_formula_units_Z 14
_cell_length_a 13.563065
_cell_length_b 9.020299
_cell_length_c 19.633093
_cell_angle_alpha 138.928786
_cell_angle_beta 155.516824
_cell_angle_gamma 50.206390
_cell_volume 644.565103
_symmetry_space_group_name_H-M "P -1"
_symmetry_group_IT_number 2
_symmetry_cell_setting 'triclinic'
loop_
_space_group_symop_operation_xyz
x,y,z
-x,-y,-z
loop_
_atom_site_type_symbol
_atom_site_label
_atom_site_fract_x
_atom_site_fract_y
_atom_site_fract_z
Si Si1 0.108333 0.722669 0.327965
Si Si2 0.859963 0.212052 0.979824
Si Si3 0.562888 0.808804 0.022137
Si Si4 0.750407 0.468018 0.373417
Si Si5 0.297022 0.656305 0.928068
Si Si6 0.430456 0.081853 0.558143
Si Si7 0.123703 0.769682 0.501263
O O1 0.245232 0.760628 0.500255
O O2 0.257790 0.881663 0.421077
O O3 0.040546 0.456529 0.172035
O O4 0.845579 0.798323 0.202765
O O5 0.669364 0.161787 0.781446
O O6 0.729594 0.233749 0.978006
O O7 0.000000 0.000000 0.000000
O O8 0.448987 0.583907 0.829521
O O9 0.399698 0.825971 0.991845
O O10 0.500000 0.000000 0.000000
O O11 0.709083 0.703582 0.462676
O O12 0.000000 0.500000 0.500000
O O13 0.743001 0.269911 0.357851
O O14 0.063422 0.470821 0.700297
O O15 0.500000 0.500000 0.000000
O O16 0.500000 0.000000 0.500000
O O17 0.000000 0.000000 0.500000
#
# Coordination Sequence:
#
# PCOD9057743 Si02
#       7
#     2   2   2   2   2   2   2
#     4  11  26  47  72 103 143 190 246 288 357 440
#     4  11  27  50  75 103 146 191 241 294 359 431
#     4  12  23  41  69 110 143 184 233 295 359 418
#     4  12  24  42  72 110 149 183 231 301 357 410
#     4  11  22  43  70 102 143 182 234 293 350 418
#     4  12  29  51  73 104 146 187 242 306 360 425
#     4  11  23  38  68 106 144 183 234 284 355 421
#
# _framework density 21.720071000000001
#
# number of rings (size 3 to 8) (size 9 to 14) (size 15 to 20)
#    0.000    0.571    5.714    2.571    6.000    1.143 
#    2.571    0.000    0.000    0.000    0.000    0.000 
#    0.000    0.000    0.000    0.000    0.000    0.000 
#
# Total GULP energy -78192.487855 kJ/mol
# GULP energy per Si atom -5585.177704 kJ/mol
# Density = 2.167064 g / cm^3
# Si number density = 21.720071 Si / 1000 Ang^3
#
#
#
# Elastic Constant Matrix: (Units=GPa)
#
#
# Indices 1 2 3 4 5 6 
#
# 1 192.9625 64.7835 56.0479 15.4141 -19.6170 12.2890
# 2 64.7835 153.7497 29.2258 16.2292 -9.3676 1.2645
# 3 56.0479 29.2258 96.6885 7.9907 -22.7982 1.6001
# 4 15.4141 16.2292 7.9907 36.0706 7.1815 -1.9400
# 5 -19.6170 -9.3676 -22.7982 7.1815 36.7845 7.9254
# 6 12.2890 1.2645 1.6001 -1.9400 7.9254 48.0325
#
#
#
# Elastic Compliance Matrix: (Units=1/GPa)
#
#
# Indices 1 2 3 4 5 6 
#
# 1 0.007272 -0.002140 -0.002759 -0.002154 0.002521 -0.002215
# 2 -0.002140 0.007875 -0.000705 -0.002650 0.000922 0.000105
# 3 -0.002759 -0.000705 0.014388 -0.003390 0.008196 -0.001244
# 4 -0.002154 -0.002650 -0.003390 0.033032 -0.011218 0.003919
# 5 0.002521 0.000922 0.008196 -0.011218 0.037674 -0.007612
# 6 -0.002215 0.000105 -0.001244 0.003919 -0.007612 0.022839
#
#
# Mechanical properties :
#
#
# Convention : Reuss Voigt Hill
#
# Bulk Modulus (GPa) = 54.56708 82.61280 68.58994
# Shear Modulus (GPa) = 35.61303 43.73375 39.67339
#
# Velocity S-wave (km/s) = 4.05364 4.49209 4.27848
# Velocity P-wave (km/s) = 6.86198 8.06368 7.48698
#
# Compressibility (1/GPa) = 0.01832607
#
# Stress axis : x y z
#
# Youngs Moduli (GPa) = 137.51741 126.98417 69.50012
#
# Poissons Ratio (x) = 0.27179 0.19177
# Poissons Ratio (y) = 0.29433 0.04899
# Poissons Ratio (z) = 0.37945 0.08952
#
# Static dielectric constant tensor:
#      x y z
#    x 1.726160 -0.016060 -0.090240 
#    y -0.016060 1.772660 -0.011250 
#    z -0.090240 -0.011250 1.909220 
# 
# From -- ./inp_files/257872.got.cif
#   From: 2010.05.17/outbox.cif.g08.bks.cpg/sg2_129_cif.got.tgz:257872.got - 2010.06.03 11:33:40.
