data_PCOD9057361
_publ_section_title
;
Structure prediction by ZEFSAII (Michael W. Deem and Ramdas Pophale) SiO2 
 PCOD9057361
Probable space group: P -1
;
_chemical_formula_sum "Si O2"
_cell_formula_units_Z 16
_cell_length_a 9.594465
_cell_length_b 15.287955
_cell_length_c 8.233196
_cell_angle_alpha 132.168260
_cell_angle_beta 83.022356
_cell_angle_gamma 73.517200
_cell_volume 771.197529
_symmetry_space_group_name_H-M "P -1"
_symmetry_group_IT_number 2
_symmetry_cell_setting 'triclinic'
loop_
_space_group_symop_operation_xyz
x,y,z
-x,-y,-z
loop_
_atom_site_type_symbol
_atom_site_label
_atom_site_fract_x
_atom_site_fract_y
_atom_site_fract_z
Si Si1 0.286721 0.859047 0.481024
Si Si2 0.897103 0.442679 0.861356
Si Si3 0.508622 0.635598 0.638912
Si Si4 0.446341 0.405123 0.793647
Si Si5 0.997623 0.842396 0.636357
Si Si6 0.182876 0.863279 0.133742
Si Si7 0.111930 0.157159 0.977156
Si Si8 0.173411 0.403906 0.272583
O O1 0.470474 0.737493 0.299118
O O2 0.210484 0.873648 0.332416
O O3 0.178763 0.820607 0.567433
O O4 0.252912 0.005174 0.726256
O O5 0.827439 0.517745 0.792723
O O6 0.995398 0.282476 0.618174
O O7 0.743550 0.494482 0.062026
O O8 0.000000 0.500000 0.000000
O O9 0.500000 0.500000 0.500000
O O10 0.501501 0.646122 0.459592
O O11 0.673864 0.621346 0.671102
O O12 0.352183 0.757822 0.897351
O O13 0.500000 0.500000 0.000000
O O14 0.942090 0.837327 0.820486
O O15 0.885888 0.989987 0.758747
O O16 0.046896 0.819274 0.070152
O O17 0.169405 0.265281 0.068912
O O18 0.000000 0.500000 0.500000
#
# Coordination Sequence:
#
# PCOD9057361 Si02
#       8
#     2   2   2   2   2   2   2   2
#     4  11  23  42  70 102 130 176 226 276 327 395
#     4  12  27  42  67 100 137 176 219 272 336 393
#     4  12  26  45  70  99 133 176 224 276 331 399
#     4  12  24  45  70  96 132 171 227 275 326 396
#     4  11  22  42  68  97 136 174 224 266 330 394
#     4  11  24  43  71 100 132 177 225 273 331 393
#     4  11  23  42  69  99 136 175 219 276 332 396
#     4  12  25  45  67 102 136 174 222 273 338 392
#
# _framework density 20.746956000000001
#
# number of rings (size 3 to 8) (size 9 to 14) (size 15 to 20)
#    0.000    0.500    2.500    8.250    3.500    0.000 
#    2.250    2.500    0.000    0.000    0.000    0.000 
#    0.000    0.000    0.000    0.000    0.000    0.000 
#
# Total GULP energy -89467.906854 kJ/mol
# GULP energy per Si atom -5591.744178 kJ/mol
# Density = 2.069973 g / cm^3
# Si number density = 20.746956 Si / 1000 Ang^3
#
#
#
# Elastic Constant Matrix: (Units=GPa)
#
#
# Indices 1 2 3 4 5 6 
#
# 1 107.3148 18.1806 48.9468 29.8585 15.7085 -11.4850
# 2 18.1806 58.1138 19.3645 7.7486 12.0487 -6.7157
# 3 48.9468 19.3645 147.0916 31.5614 0.1768 -3.0407
# 4 29.8585 7.7486 31.5614 40.1923 9.1477 3.6314
# 5 15.7085 12.0487 0.1768 9.1477 35.0679 6.1956
# 6 -11.4850 -6.7157 -3.0407 3.6314 6.1956 31.4343
#
#
#
# Elastic Compliance Matrix: (Units=1/GPa)
#
#
# Indices 1 2 3 4 5 6 
#
# 1 0.014414 -0.000597 -0.002924 -0.007675 -0.005439 0.006815
# 2 -0.000597 0.020417 -0.002263 -0.000486 -0.007576 0.005474
# 3 -0.002924 -0.002263 0.009200 -0.005362 0.003571 -0.000746
# 4 -0.007675 -0.000486 -0.005362 0.036567 -0.004719 -0.006721
# 5 -0.005439 -0.007576 0.003571 -0.004719 0.036520 -0.009913
# 6 0.006815 0.005474 -0.000746 -0.006721 -0.009913 0.038130
#
#
# Mechanical properties :
#
#
# Convention : Reuss Voigt Hill
#
# Bulk Modulus (GPa) = 30.80300 53.94491 42.37396
# Shear Modulus (GPa) = 28.14764 36.40745 32.27754
#
# Velocity S-wave (km/s) = 3.68735 4.19362 3.94861
# Velocity P-wave (km/s) = 5.74526 7.03608 6.42318
#
# Compressibility (1/GPa) = 0.03246437
#
# Stress axis : x y z
#
# Youngs Moduli (GPa) = 69.37815 48.97994 108.69610
#
# Poissons Ratio (x) = 0.02922 0.31779
# Poissons Ratio (y) = 0.04139 0.24594
# Poissons Ratio (z) = 0.20284 0.11083
#
# Static dielectric constant tensor:
#      x y z
#    x 1.731370 0.006380 -0.034130 
#    y 0.006380 1.734140 -0.001410 
#    z -0.034130 -0.001410 1.733890 
# 
# From -- ./inp_files/204207.got.cif
#   From: 2010.05.17/outbox.cif.g08.bks.cpg/sg2_103_cif.got.tgz:204207.got - 2010.06.03 11:33:40.
