data_PCOD9057122
_publ_section_title
;
Structure prediction by ZEFSAII (Michael W. Deem and Ramdas Pophale) SiO2 
 PCOD9057122
Probable space group: P -1
;
_chemical_formula_sum "Si O2"
_cell_formula_units_Z 16
_cell_length_a 18.611157
_cell_length_b 25.078824
_cell_length_c 9.964719
_cell_angle_alpha 131.339018
_cell_angle_beta 57.318858
_cell_angle_gamma 163.506157
_cell_volume 891.263972
_symmetry_space_group_name_H-M "P -1"
_symmetry_group_IT_number 2
_symmetry_cell_setting 'triclinic'
loop_
_space_group_symop_operation_xyz
x,y,z
-x,-y,-z
loop_
_atom_site_type_symbol
_atom_site_label
_atom_site_fract_x
_atom_site_fract_y
_atom_site_fract_z
Si Si1 0.195919 0.622184 0.120086
Si Si2 0.218637 0.878125 0.778689
Si Si3 0.712059 0.452783 0.183275
Si Si4 0.443025 0.161207 0.230192
Si Si5 0.185966 0.361418 0.403858
Si Si6 0.825884 0.907952 0.627394
Si Si7 0.093006 0.006771 0.004184
Si Si8 0.988102 0.540860 0.452991
O O1 0.109465 0.592219 0.292395
O O2 0.515550 0.893911 0.206726
O O3 0.154456 0.503885 0.967196
O O4 0.000000 0.500000 0.000000
O O5 0.951894 0.700809 0.678176
O O6 0.169129 0.755949 0.644126
O O7 0.275697 0.964086 0.003029
O O8 0.613706 0.331497 0.215055
O O9 0.880577 0.652032 0.409379
O O10 0.428231 0.256909 0.075989
O O11 0.243390 0.067957 0.318928
O O12 0.670795 0.314211 0.359720
O O13 0.522967 0.630620 0.497116
O O14 0.062894 0.186050 0.216150
O O15 0.961687 0.025456 0.834195
O O16 0.000000 0.000000 0.500000
O O17 0.000000 0.000000 0.000000
O O18 0.000000 0.500000 0.500000
#
# Coordination Sequence:
#
# PCOD9057122 Si02
#       8
#     2   2   2   2   2   2   2   2
#     4  11  19  38  62  88 114 152 212 237 266 366
#     4  11  18  38  67  81 108 167 204 229 284 352
#     4   9  18  33  59  83 110 147 200 240 271 342
#     4   9  18  38  56  80 117 149 196 236 282 346
#     4  10  17  36  65  83 111 158 192 234 291 341
#     4  10  21  37  61  87 114 149 197 235 281 363
#     4  10  20  37  58  87 118 145 188 249 293 328
#     4  12  24  37  58  91 125 152 187 252 303 330
#
# _framework density 17.952034000000001
#
# number of rings (size 3 to 8) (size 9 to 14) (size 15 to 20)
#    0.000    2.000    8.750    0.375    0.000    3.000 
#    2.250    0.000    2.750    0.000    0.000    0.000 
#    0.000    0.000    0.000    0.000    0.000    0.000 
#
# Total GULP energy -89170.247303 kJ/mol
# GULP energy per Si atom -5573.140456 kJ/mol
# Density = 1.791117 g / cm^3
# Si number density = 17.952034 Si / 1000 Ang^3
#
#
#
# Elastic Constant Matrix: (Units=GPa)
#
#
# Indices 1 2 3 4 5 6 
#
# 1 142.0136 29.2134 75.8405 -7.0168 -6.1520 12.3475
# 2 29.2134 36.3520 44.0724 -10.5504 -8.7429 12.1546
# 3 75.8405 44.0724 169.9348 2.8193 -31.2088 7.5815
# 4 -7.0168 -10.5504 2.8193 27.7057 12.0032 -7.3466
# 5 -6.1520 -8.7429 -31.2088 12.0032 31.9636 -0.9209
# 6 12.3475 12.1546 7.5815 -7.3466 -0.9209 22.2159
#
#
#
# Elastic Compliance Matrix: (Units=1/GPa)
#
#
# Indices 1 2 3 4 5 6 
#
# 1 0.010217 -0.001281 -0.005140 0.004284 -0.005069 -0.002017
# 2 -0.001281 0.058043 -0.015538 0.021983 -0.008339 -0.018818
# 3 -0.005140 -0.015538 0.015158 -0.014835 0.015187 0.001909
# 4 0.004284 0.021983 -0.014835 0.063264 -0.031108 0.010286
# 5 -0.005069 -0.008339 0.015187 -0.031108 0.054371 -0.005836
# 6 -0.002017 -0.018818 0.001909 0.010286 -0.005836 0.058938
#
#
# Mechanical properties :
#
#
# Convention : Reuss Voigt Hill
#
# Bulk Modulus (GPa) = 25.31606 71.83922 48.57764
# Shear Modulus (GPa) = 15.76909 29.65531 22.71220
#
# Velocity S-wave (km/s) = 2.96700 4.06879 3.56077
# Velocity P-wave (km/s) = 5.08627 7.88528 6.63505
#
# Compressibility (1/GPa) = 0.03950061
#
# Stress axis : x y z
#
# Youngs Moduli (GPa) = 97.87247 17.22865 65.97013
#
# Poissons Ratio (x) = 0.02207 0.33907
# Poissons Ratio (y) = 0.12535 1.02507
# Poissons Ratio (z) = 0.50304 0.26771
#
# Static dielectric constant tensor:
#      x y z
#    x 1.613190 0.025610 -0.027280 
#    y 0.025610 1.609120 0.008490 
#    z -0.027280 0.008490 1.661090 
# 
# From -- ./inp_files/212613.got.cif
#   From: 2010.05.17/outbox.cif.g08.bks.cpg/sg2_107_cif.got.tgz:212613.got - 2010.06.03 11:33:40.
