data_PCOD9057395
_publ_section_title
;
Structure prediction by ZEFSAII (Michael W. Deem and Ramdas Pophale) SiO2 
 PCOD9057395
Probable space group: P -1
;
_chemical_formula_sum "Si O2"
_cell_formula_units_Z 14
_cell_length_a 16.692529
_cell_length_b 9.665585
_cell_length_c 17.027927
_cell_angle_alpha 115.648826
_cell_angle_beta 153.609134
_cell_angle_gamma 46.284447
_cell_volume 719.273765
_symmetry_space_group_name_H-M "P -1"
_symmetry_group_IT_number 2
_symmetry_cell_setting 'triclinic'
loop_
_space_group_symop_operation_xyz
x,y,z
-x,-y,-z
loop_
_atom_site_type_symbol
_atom_site_label
_atom_site_fract_x
_atom_site_fract_y
_atom_site_fract_z
Si Si1 0.262710 0.779092 0.864004
Si Si2 0.426716 0.706884 0.441728
Si Si3 0.700757 0.769631 0.811238
Si Si4 0.352580 0.512551 0.581484
Si Si5 0.216474 0.925494 0.035249
Si Si6 0.316738 0.897091 0.629512
Si Si7 0.749390 0.956295 0.214838
O O1 0.294386 0.878917 0.845343
O O2 0.500000 0.500000 0.000000
O O3 0.264353 0.863468 0.969653
O O4 0.960982 0.900255 0.615094
O O5 0.500000 0.500000 0.500000
O O6 0.507740 0.798301 0.589323
O O7 0.598835 0.601221 0.486632
O O8 0.102373 0.909367 0.187894
O O9 0.566079 0.829309 0.793199
O O10 0.727914 0.932685 0.861031
O O11 0.000000 0.500000 0.000000
O O12 0.576542 0.310913 0.790603
O O13 0.387227 0.671354 0.633867
O O14 0.044461 0.692053 0.388040
O O15 0.249440 0.982517 0.680595
O O16 0.500000 0.000000 0.000000
#
# Coordination Sequence:
#
# PCOD9057395 Si02
#       7
#     2   2   2   2   2   2   2
#     4  11  22  42  69  93 130 174 215 268 328 387
#     4  12  22  45  68  95 131 175 218 265 332 386
#     4  12  25  40  71  98 130 174 218 269 323 390
#     4  11  24  43  66  93 133 173 215 270 326 389
#     4  12  24  43  66 102 131 169 222 271 325 387
#     4  11  22  43  66  93 129 175 218 262 331 387
#     4  11  24  41  63  97 130 170 219 272 321 387
#
# _framework density 19.464077
#
# number of rings (size 3 to 8) (size 9 to 14) (size 15 to 20)
#    0.000    0.571    4.286    5.571    2.000    1.714 
#    2.571    2.857    0.000    0.000    0.000    0.000 
#    0.000    0.000    0.000    0.000    0.000    0.000 
#
# Total GULP energy -78314.907578 kJ/mol
# GULP energy per Si atom -5593.921970 kJ/mol
# Density = 1.941978 g / cm^3
# Si number density = 19.464077 Si / 1000 Ang^3
#
#
#
# Elastic Constant Matrix: (Units=GPa)
#
#
# Indices 1 2 3 4 5 6 
#
# 1 103.4792 23.8820 39.1372 -12.5283 1.0040 -34.5115
# 2 23.8820 94.7157 52.3551 -11.6125 0.4237 -17.6393
# 3 39.1372 52.3551 111.0144 -27.8312 3.1694 5.2469
# 4 -12.5283 -11.6125 -27.8312 46.6756 -4.8703 -6.5272
# 5 1.0040 0.4237 3.1694 -4.8703 42.7778 8.5987
# 6 -34.5115 -17.6393 5.2469 -6.5272 8.5987 31.2077
#
#
#
# Elastic Compliance Matrix: (Units=1/GPa)
#
#
# Indices 1 2 3 4 5 6 
#
# 1 0.027746 0.009644 -0.014527 0.006277 -0.007383 0.041924
# 2 0.009644 0.021080 -0.013748 0.002908 -0.004458 0.026728
# 3 -0.014527 -0.013748 0.022472 0.002612 0.004817 -0.028395
# 4 0.006277 0.002908 0.002612 0.027325 -0.000048 0.013875
# 5 -0.007383 -0.004458 0.004817 -0.000048 0.027042 -0.018955
# 6 0.041924 0.026728 -0.028395 0.013875 -0.018955 0.106411
#
#
# Mechanical properties :
#
#
# Convention : Reuss Voigt Hill
#
# Bulk Modulus (GPa) = 29.38065 59.99532 44.68799
# Shear Modulus (GPa) = 17.81363 37.05455 27.43409
#
# Velocity S-wave (km/s) = 3.02852 4.36792 3.75837
# Velocity P-wave (km/s) = 5.23037 7.50525 6.46860
#
# Compressibility (1/GPa) = 0.03403600
#
# Stress axis : x y z
#
# Youngs Moduli (GPa) = 36.04131 47.43860 44.49939
#
# Poissons Ratio (x) = -0.45751 0.64644
# Poissons Ratio (y) = -0.34759 0.61179
# Poissons Ratio (z) = 0.52357 0.65220
#
# Static dielectric constant tensor:
#      x y z
#    x 1.684750 -0.023720 -0.000050 
#    y -0.023720 1.660030 0.016000 
#    z -0.000050 0.016000 1.674820 
# 
# From -- ./inp_files/188980.got.cif
#   From: 2010.05.17/outbox.cif.g08.bks.cpg/sg2_95_cif.got.tgz:188980.got - 2010.06.03 11:33:40.
