data_PCOD9057257
_publ_section_title
;
Structure prediction by ZEFSAII (Michael W. Deem and Ramdas Pophale) SiO2 
 PCOD9057257
Probable space group: P -1
;
_chemical_formula_sum "Si O2"
_cell_formula_units_Z 14
_cell_length_a 15.167813
_cell_length_b 25.116146
_cell_length_c 14.645210
_cell_angle_alpha 160.627722
_cell_angle_beta 160.886669
_cell_angle_gamma 20.796682
_cell_volume 555.323207
_symmetry_space_group_name_H-M "P -1"
_symmetry_group_IT_number 2
_symmetry_cell_setting 'triclinic'
loop_
_space_group_symop_operation_xyz
x,y,z
-x,-y,-z
loop_
_atom_site_type_symbol
_atom_site_label
_atom_site_fract_x
_atom_site_fract_y
_atom_site_fract_z
Si Si1 0.628690 0.456626 0.695982
Si Si2 0.719686 0.154682 0.434251
Si Si3 0.011767 0.835258 0.545271
Si Si4 0.956601 0.699368 0.451647
Si Si5 0.256497 0.313880 0.588152
Si Si6 0.574122 0.014728 0.889350
Si Si7 0.396875 0.472267 0.753713
O O1 0.777736 0.296494 0.655441
O O2 0.283715 0.545620 0.523953
O O3 0.734294 0.351509 0.534775
O O4 0.754207 0.604502 0.062361
O O5 0.535229 0.278314 0.534772
O O6 0.000000 0.000000 0.500000
O O7 0.565250 0.067869 0.072195
O O8 0.958111 0.842440 0.612016
O O9 0.715353 0.856456 0.237525
O O10 0.134964 0.970953 0.844736
O O11 0.830218 0.765450 0.534887
O O12 0.395255 0.174804 0.419158
O O13 0.949706 0.456288 0.482151
O O14 0.474637 0.404302 0.975761
O O15 0.500000 0.500000 0.000000
#
# Coordination Sequence:
#
# PCOD9057257 Si02
#       7
#     2   2   2   2   2   2   2
#     4  11  22  42  65 104 140 179 237 284 347 416
#     4  11  24  46  72 101 137 181 232 294 353 403
#     4  11  24  41  70 104 144 187 231 284 351 402
#     4  12  22  42  71 100 143 187 230 286 341 417
#     4  12  25  47  70 102 144 185 231 287 347 418
#     4  11  26  45  68 107 149 179 234 290 345 420
#     4  12  26  47  72 100 136 187 240 284 350 420
#
# _framework density 25.210543000000001
#
# number of rings (size 3 to 8) (size 9 to 14) (size 15 to 20)
#    0.000    0.571    2.857    5.571    0.000    2.286 
#    0.000    9.286    0.000    0.000    0.000    0.000 
#    0.000    0.000    0.000    0.000    0.000    0.000 
#
# Total GULP energy -78420.224676 kJ/mol
# GULP energy per Si atom -5601.444620 kJ/mol
# Density = 2.515316 g / cm^3
# Si number density = 25.210543 Si / 1000 Ang^3
#
#
#
# Elastic Constant Matrix: (Units=GPa)
#
#
# Indices 1 2 3 4 5 6 
#
# 1 154.8002 21.9294 19.4469 4.5547 -18.8645 -9.1584
# 2 21.9294 106.1289 25.5751 -0.1258 -20.0974 -10.2866
# 3 19.4469 25.5751 107.0690 11.4050 -7.3355 -17.8015
# 4 4.5547 -0.1258 11.4050 46.7256 -15.3268 -10.5854
# 5 -18.8645 -20.0974 -7.3355 -15.3268 44.3949 3.0957
# 6 -9.1584 -10.2866 -17.8015 -10.5854 3.0957 36.5498
#
#
#
# Elastic Compliance Matrix: (Units=1/GPa)
#
#
# Indices 1 2 3 4 5 6 
#
# 1 0.007032 -0.000629 -0.000821 0.000664 0.002717 0.001148
# 2 -0.000629 0.011311 -0.002137 0.002901 0.005337 0.002374
# 3 -0.000821 -0.002137 0.010824 -0.001807 -0.000429 0.003978
# 4 0.000664 0.002901 -0.001807 0.026649 0.010011 0.006973
# 5 0.002717 0.005337 -0.000429 0.010011 0.029314 0.002390
# 6 0.001148 0.002374 0.003978 0.006973 0.002390 0.032070
#
#
# Mechanical properties :
#
#
# Convention : Reuss Voigt Hill
#
# Bulk Modulus (GPa) = 45.46551 55.76677 50.61614
# Shear Modulus (GPa) = 37.96408 45.60383 41.78396
#
# Velocity S-wave (km/s) = 3.88478 4.25775 4.07553
# Velocity P-wave (km/s) = 6.18025 6.80733 6.50135
#
# Compressibility (1/GPa) = 0.02199470
#
# Stress axis : x y z
#
# Youngs Moduli (GPa) = 142.21605 88.40678 92.39032
#
# Poissons Ratio (x) = 0.05557 0.07584
# Poissons Ratio (y) = 0.08940 0.19739
# Poissons Ratio (z) = 0.11673 0.18888
#
# Static dielectric constant tensor:
#      x y z
#    x 2.114850 0.041350 0.020470 
#    y 0.041350 1.938000 0.008950 
#    z 0.020470 0.008950 1.918240 
# 
# From -- ./inp_files/535733.got.cif
#   From: 2010.05.17/outbox.cif.g08.bks.cpg/sg2_268_cif.got.tgz:535733.got - 2010.06.03 11:33:40.
