data_PCOD9057024
_publ_section_title
;
Structure prediction by ZEFSAII (Michael W. Deem and Ramdas Pophale) SiO2 
 PCOD9057024
Probable space group: P -1
;
_chemical_formula_sum "Si O2"
_cell_formula_units_Z 13
_cell_length_a 11.885275
_cell_length_b 10.059471
_cell_length_c 9.873950
_cell_angle_alpha 139.482924
_cell_angle_beta 56.553854
_cell_angle_gamma 104.635827
_cell_volume 609.088120
_symmetry_space_group_name_H-M "P -1"
_symmetry_group_IT_number 2
_symmetry_cell_setting 'triclinic'
loop_
_space_group_symop_operation_xyz
x,y,z
-x,-y,-z
loop_
_atom_site_type_symbol
_atom_site_label
_atom_site_fract_x
_atom_site_fract_y
_atom_site_fract_z
Si Si1 0.335465 0.759969 0.207990
Si Si2 0.115728 0.881310 0.219937
Si Si3 0.334637 0.375584 0.082487
Si Si4 0.721491 0.854398 0.814188
Si Si5 0.700792 0.773986 0.294916
Si Si6 0.534597 0.718456 0.610558
Si Si7 0.000000 0.500000 0.000000
O O1 0.260558 0.781613 0.130207
O O2 0.504222 0.666911 0.008046
O O3 0.298217 0.995374 0.476356
O O4 0.285004 0.609139 0.228112
O O5 0.062974 0.693451 0.049625
O O6 0.146847 0.063701 0.248508
O O7 0.000000 0.000000 0.500000
O O8 0.337094 0.223460 0.834762
O O9 0.250895 0.317003 0.216337
O O10 0.660718 0.755515 0.649251
O O11 0.598067 0.069142 0.110092
O O12 0.584213 0.716570 0.421375
O O13 0.852042 0.604918 0.096555
O O14 0.500000 0.500000 0.500000
#
# Coordination Sequence:
#
# PCOD9057024 Si02
#       7
#     2   2   2   2   2   2   1
#     4  11  22  41  68  95 133 177 214 264 337 390
#     4  12  23  45  70  91 128 182 226 267 320 401
#     4  11  25  39  68 102 136 165 214 280 334 385
#     4  11  23  42  62 101 131 167 221 278 323 384
#     4  12  23  42  66  99 130 179 218 263 331 397
#     4  11  23  37  66  98 134 168 220 271 324 390
#     4  12  24  40  70  92 124 178 234 258 314 402
#
# _framework density 21.343381999999998
#
# number of rings (size 3 to 8) (size 9 to 14) (size 15 to 20)
#    0.000    0.615    6.154    2.308    4.308    0.000 
#    0.000    1.538    0.000    0.000    0.000    0.000 
#    0.000    0.000    0.000    0.000    0.000    0.000 
#
# Total GULP energy -72452.878344 kJ/mol
# GULP energy per Si atom -5573.298334 kJ/mol
# Density = 2.129480 g / cm^3
# Si number density = 21.343382 Si / 1000 Ang^3
#
#
#
# Elastic Constant Matrix: (Units=GPa)
#
#
# Indices 1 2 3 4 5 6 
#
# 1 56.4337 16.7431 6.5755 -8.1779 4.8119 18.2099
# 2 16.7431 176.2182 4.5116 -10.6802 9.1359 30.6365
# 3 6.5755 4.5116 21.1911 -4.9878 6.7755 3.9324
# 4 -8.1779 -10.6802 -4.9878 41.4667 6.9976 5.6706
# 5 4.8119 9.1359 6.7755 6.9976 24.1092 10.4546
# 6 18.2099 30.6365 3.9324 5.6706 10.4546 40.1702
#
#
#
# Elastic Compliance Matrix: (Units=1/GPa)
#
#
# Indices 1 2 3 4 5 6 
#
# 1 0.022338 0.000168 -0.003516 0.005565 -0.000576 -0.010546
# 2 0.000168 0.006818 0.000557 0.002805 -0.001245 -0.005403
# 3 -0.003516 0.000557 0.056157 0.009310 -0.017525 -0.001082
# 4 0.005565 0.002805 0.009310 0.029773 -0.010362 -0.007080
# 5 -0.000576 -0.001245 -0.017525 -0.010362 0.054212 -0.009720
# 6 -0.010546 -0.005403 -0.001082 -0.007080 -0.009720 0.037431
#
#
# Mechanical properties :
#
#
# Convention : Reuss Voigt Hill
#
# Bulk Modulus (GPa) = 12.54186 34.38926 23.46556
# Shear Modulus (GPa) = 20.93027 36.21672 28.57350
#
# Velocity S-wave (km/s) = 3.13492 4.12376 3.66287
# Velocity P-wave (km/s) = 4.35805 6.23067 5.37652
#
# Compressibility (1/GPa) = 0.07973301
#
# Stress axis : x y z
#
# Youngs Moduli (GPa) = 44.76619 146.66075 17.80708
#
# Poissons Ratio (x) = -0.02468 0.06261
# Poissons Ratio (y) = -0.00753 -0.00992
# Poissons Ratio (z) = 0.15740 -0.08172
#
# Static dielectric constant tensor:
#      x y z
#    x 1.765290 0.031650 -0.011430 
#    y 0.031650 1.793200 0.002110 
#    z -0.011430 0.002110 1.822530 
# 
# From -- ./inp_files/245752.got.cif
#   From: 2010.05.17/outbox.cif.g08.bks.cpg/sg2_123_cif.got.tgz:245752.got - 2010.06.03 11:33:40.
