data_PCOD9057669
_publ_section_title
;
Structure prediction by ZEFSAII (Michael W. Deem and Ramdas Pophale) SiO2 
 PCOD9057669
Probable space group: P -1
;
_chemical_formula_sum "Si O2"
_cell_formula_units_Z 16
_cell_length_a 9.347773
_cell_length_b 11.516044
_cell_length_c 11.971050
_cell_angle_alpha 49.873909
_cell_angle_beta 54.635846
_cell_angle_gamma 76.368972
_cell_volume 783.817845
_symmetry_space_group_name_H-M "P -1"
_symmetry_group_IT_number 2
_symmetry_cell_setting 'triclinic'
loop_
_space_group_symop_operation_xyz
x,y,z
-x,-y,-z
loop_
_atom_site_type_symbol
_atom_site_label
_atom_site_fract_x
_atom_site_fract_y
_atom_site_fract_z
Si Si1 0.893724 0.336354 0.995520
Si Si2 0.474510 0.211054 0.945418
Si Si3 0.561568 0.111453 0.736630
Si Si4 0.110140 0.279422 0.539911
Si Si5 0.183598 0.016022 0.831494
Si Si6 0.818643 0.601375 0.985574
Si Si7 0.179518 0.607693 0.248181
Si Si8 0.951561 0.166601 0.441621
O O1 0.074800 0.385341 0.954483
O O2 0.834516 0.150794 0.119022
O O3 0.767267 0.427991 0.065090
O O4 0.915629 0.409676 0.817018
O O5 0.533767 0.224733 0.780646
O O6 0.644253 0.258574 0.919729
O O7 0.345316 0.320892 0.966956
O O8 0.391375 0.033434 0.125153
O O9 0.370593 0.064002 0.787153
O O10 0.737988 0.163526 0.547964
O O11 0.180077 0.153127 0.659201
O O12 0.235707 0.449846 0.357746
O O13 0.946620 0.329258 0.647764
O O14 0.037367 0.214489 0.493943
O O15 0.000000 0.000000 0.000000
O O16 0.951991 0.710707 0.770261
O O17 0.000000 0.000000 0.500000
#
# Coordination Sequence:
#
# PCOD9057669 Si02
#       8
#     2   2   2   2   2   2   2   2
#     4  11  23  44  67  98 133 181 227 273 337 410
#     4  11  22  43  68 101 131 180 233 277 332 411
#     4  11  24  40  70 103 137 176 233 278 334 412
#     4  11  24  43  69 101 134 180 219 283 347 396
#     4  12  23  43  70 101 135 178 228 285 336 398
#     4  11  25  43  69  96 139 185 223 278 348 404
#     4  11  22  44  71  99 133 174 230 281 332 404
#     4  12  23  44  66  99 142 182 218 282 346 403
#
# _framework density 20.412904999999999
#
# number of rings (size 3 to 8) (size 9 to 14) (size 15 to 20)
#    0.000    0.750    6.250    1.500    1.750    0.500 
#    6.750    1.875    0.000    0.000    0.000    0.000 
#    0.000    0.000    0.000    0.000    0.000    0.000 
#
# Total GULP energy -89273.433396 kJ/mol
# GULP energy per Si atom -5579.589587 kJ/mol
# Density = 2.036644 g / cm^3
# Si number density = 20.412905 Si / 1000 Ang^3
#
#
#
# Elastic Constant Matrix: (Units=GPa)
#
#
# Indices 1 2 3 4 5 6 
#
# 1 78.3646 45.9403 35.4009 14.5819 4.7881 1.3671
# 2 45.9403 155.5392 39.5057 -1.0776 -0.2992 2.8172
# 3 35.4009 39.5057 73.4945 -3.0344 10.1145 -5.6459
# 4 14.5819 -1.0776 -3.0344 35.8659 -10.6988 7.7285
# 5 4.7881 -0.2992 10.1145 -10.6988 32.7474 4.9815
# 6 1.3671 2.8172 -5.6459 7.7285 4.9815 30.7640
#
#
#
# Elastic Compliance Matrix: (Units=1/GPa)
#
#
# Indices 1 2 3 4 5 6 
#
# 1 0.021040 -0.004442 -0.007432 -0.011070 -0.004689 0.001648
# 2 -0.004442 0.008560 -0.002937 0.003257 0.003070 -0.002441
# 3 -0.007432 -0.002937 0.019901 0.002122 -0.005085 0.004542
# 4 -0.011070 0.003257 0.002122 0.039994 0.015890 -0.012037
# 5 -0.004689 0.003070 -0.005085 0.015890 0.039752 -0.011435
# 6 0.001648 -0.002441 0.004542 -0.012037 -0.011435 0.038365
#
#
# Mechanical properties :
#
#
# Convention : Reuss Voigt Hill
#
# Bulk Modulus (GPa) = 50.30459 61.01023 55.65741
# Shear Modulus (GPa) = 24.52651 32.31222 28.41937
#
# Velocity S-wave (km/s) = 3.47006 3.98292 3.73530
# Velocity P-wave (km/s) = 6.38373 7.14874 6.77704
#
# Compressibility (1/GPa) = 0.01987890
#
# Stress axis : x y z
#
# Youngs Moduli (GPa) = 47.52807 116.82216 50.24804
#
# Poissons Ratio (x) = 0.51897 0.37344
# Poissons Ratio (y) = 0.21114 0.14758
# Poissons Ratio (z) = 0.35322 0.34311
#
# Static dielectric constant tensor:
#      x y z
#    x 1.702460 -0.012340 0.000860 
#    y -0.012340 1.757110 -0.025880 
#    z 0.000860 -0.025880 1.765590 
# 
# From -- ./inp_files/388998.got.cif
#   From: 2010.05.17/outbox.cif.g08.bks.cpg/sg2_195_cif.got.tgz:388998.got - 2010.06.03 11:33:40.
