data_PCOD9057365
_publ_section_title
;
Structure prediction by ZEFSAII (Michael W. Deem and Ramdas Pophale) SiO2 
 PCOD9057365
Probable space group: P -1
;
_chemical_formula_sum "Si O2"
_cell_formula_units_Z 15
_cell_length_a 8.983022
_cell_length_b 21.764199
_cell_length_c 9.546350
_cell_angle_alpha 126.025230
_cell_angle_beta 134.463068
_cell_angle_gamma 32.427230
_cell_volume 714.257517
_symmetry_space_group_name_H-M "P -1"
_symmetry_group_IT_number 2
_symmetry_cell_setting 'triclinic'
loop_
_space_group_symop_operation_xyz
x,y,z
-x,-y,-z
loop_
_atom_site_type_symbol
_atom_site_label
_atom_site_fract_x
_atom_site_fract_y
_atom_site_fract_z
Si Si1 0.027529 0.264803 0.030667
Si Si2 0.849204 0.355309 0.720985
Si Si3 0.904472 0.125709 0.743467
Si Si4 0.706408 0.387303 0.258305
Si Si5 0.390344 0.705729 0.718436
Si Si6 0.000000 0.500000 0.000000
Si Si7 0.267893 0.875281 0.681085
Si Si8 0.778249 0.676977 0.306722
O O1 0.362172 0.210599 0.212538
O O2 0.773875 0.362898 0.107645
O O3 0.924678 0.312881 0.870476
O O4 0.053254 0.166846 0.926960
O O5 0.652038 0.489754 0.769795
O O6 0.640269 0.347920 0.498551
O O7 0.143015 0.285920 0.718454
O O8 0.872797 0.122146 0.550289
O O9 0.556622 0.220920 0.707682
O O10 0.099455 0.001425 0.763318
O O11 0.776448 0.289496 0.252905
O O12 0.944870 0.382185 0.478296
O O13 0.745522 0.615294 0.882959
O O14 0.244735 0.822589 0.722579
O O15 0.177221 0.415207 0.862450
#
# Coordination Sequence:
#
# PCOD9057365 Si02
#       8
#     2   2   2   2   2   1   2   2
#     4  12  24  44  70 102 134 183 227 286 342 404
#     4  11  22  43  65 101 142 177 224 276 345 415
#     4  11  25  47  70  98 137 182 235 287 331 396
#     4  11  22  43  65 101 142 177 224 276 345 415
#     4  11  22  42  68  98 136 181 223 279 341 406
#     4  12  20  38  68  96 136 176 214 280 338 396
#     4  11  25  47  70  98 137 182 235 287 331 396
#     4  11  22  42  68  98 136 181 223 279 341 406
#
# _framework density 21.000827000000001
#
# number of rings (size 3 to 8) (size 9 to 14) (size 15 to 20)
#    0.000    0.800    5.333    3.200    0.000    0.000 
#    2.400   12.000    0.000    0.000    0.000    0.000 
#    0.000    0.000    0.000    0.000    0.000    0.000 
#
# Total GULP energy -83628.030446 kJ/mol
# GULP energy per Si atom -5575.202030 kJ/mol
# Density = 2.095303 g / cm^3
# Si number density = 21.000827 Si / 1000 Ang^3
#
#
#
# Elastic Constant Matrix: (Units=GPa)
#
#
# Indices 1 2 3 4 5 6 
#
# 1 39.6547 2.4497 -2.9914 3.0989 -5.8815 14.1527
# 2 2.4497 55.4383 -10.9278 -0.3941 -12.1199 21.0986
# 3 -2.9914 -10.9278 76.8382 2.9235 -12.7958 16.3366
# 4 3.0989 -0.3941 2.9235 28.7157 -0.1098 -3.2774
# 5 -5.8815 -12.1199 -12.7958 -0.1098 32.2928 -2.3146
# 6 14.1527 21.0986 16.3366 -3.2774 -2.3146 40.8881
#
#
#
# Elastic Compliance Matrix: (Units=1/GPa)
#
#
# Indices 1 2 3 4 5 6 
#
# 1 0.035906 0.011975 0.010435 -0.007300 0.013524 -0.022596
# 2 0.011975 0.034962 0.014650 -0.005356 0.019127 -0.027385
# 3 0.010435 0.014650 0.022368 -0.005394 0.014831 -0.019701
# 4 -0.007300 -0.005356 -0.005394 0.037231 -0.004622 0.010168
# 5 0.013524 0.019127 0.014831 -0.004622 0.045159 -0.018291
# 6 -0.022596 -0.027385 -0.019701 0.010168 -0.018291 0.054060
#
#
# Mechanical properties :
#
#
# Convention : Reuss Voigt Hill
#
# Bulk Modulus (GPa) = 5.97534 16.55469 11.26502
# Shear Modulus (GPa) = 23.65725 32.60603 28.13164
#
# Velocity S-wave (km/s) = 3.35997 3.94459 3.66396
# Velocity P-wave (km/s) = 4.23131 5.35223 4.82443
#
# Compressibility (1/GPa) = 0.16735443
#
# Stress axis : x y z
#
# Youngs Moduli (GPa) = 27.85062 28.60218 44.70712
#
# Poissons Ratio (x) = -0.34250 -0.46651
# Poissons Ratio (y) = -0.33350 -0.65495
# Poissons Ratio (z) = -0.29062 -0.41902
#
# Static dielectric constant tensor:
#      x y z
#    x 1.644880 0.010220 -0.083020 
#    y 0.010220 1.701700 -0.010360 
#    z -0.083020 -0.010360 1.632350 
# 
# From -- ./inp_files/198276.got.cif
#   From: 2010.05.17/outbox.cif.g08.bks.cpg/sg2_100_cif.got.tgz:198276.got - 2010.06.03 11:33:40.
