data_PCOD9057341
_publ_section_title
;
Structure prediction by ZEFSAII (Michael W. Deem and Ramdas Pophale) SiO2 
 PCOD9057341
Probable space group: P -1
;
_chemical_formula_sum "Si O2"
_cell_formula_units_Z 16
_cell_length_a 13.701542
_cell_length_b 9.110066
_cell_length_c 14.940691
_cell_angle_alpha 128.910627
_cell_angle_beta 151.653394
_cell_angle_gamma 54.485725
_cell_volume 687.013902
_symmetry_space_group_name_H-M "P -1"
_symmetry_group_IT_number 2
_symmetry_cell_setting 'triclinic'
loop_
_space_group_symop_operation_xyz
x,y,z
-x,-y,-z
loop_
_atom_site_type_symbol
_atom_site_label
_atom_site_fract_x
_atom_site_fract_y
_atom_site_fract_z
Si Si1 0.070454 0.703357 0.889451
Si Si2 0.252958 0.104087 0.156362
Si Si3 0.415529 0.835407 0.428954
Si Si4 0.664520 0.096022 0.230034
Si Si5 0.871534 0.650756 0.516118
Si Si6 0.002401 0.718347 0.115634
Si Si7 0.093943 0.988914 0.436386
Si Si8 0.477331 0.516548 0.221148
O O1 0.892195 0.766921 0.841730
O O2 0.968098 0.645937 0.691986
O O3 0.243511 0.548428 0.008119
O O4 0.193400 0.891016 0.042135
O O5 0.482925 0.136500 0.383253
O O6 0.208460 0.175699 0.048088
O O7 0.173464 0.820392 0.234537
O O8 0.488320 0.640303 0.366516
O O9 0.500000 0.000000 0.500000
O O10 0.723077 0.020041 0.347124
O O11 0.570987 0.309939 0.239397
O O12 0.883795 0.068414 0.345891
O O13 0.500000 0.000000 0.000000
O O14 0.635561 0.600658 0.311787
O O15 0.000000 0.500000 0.500000
O O16 0.876373 0.858916 0.558829
O O17 0.055440 0.783900 0.283166
O O18 0.000000 0.500000 0.000000
#
# Coordination Sequence:
#
# PCOD9057341 Si02
#       8
#     2   2   2   2   2   2   2   2
#     4  11  23  40  73 105 142 182 238 300 357 432
#     4  11  22  42  68 103 143 189 227 291 371 419
#     4  12  23  44  72 106 141 185 236 296 363 427
#     4  11  29  50  75  96 144 203 239 293 366 436
#     4  12  25  45  71 107 142 182 244 309 354 414
#     4  12  28  45  71 109 149 190 238 301 368 442
#     4  11  27  52  70 105 148 187 243 302 363 432
#     4  12  25  43  75 107 137 190 249 292 357 443
#
# _framework density 23.289193000000001
#
# number of rings (size 3 to 8) (size 9 to 14) (size 15 to 20)
#    0.000    0.500    6.250    1.500    5.250    3.000 
#    0.000    0.000    0.000    0.000    0.000    0.000 
#    0.000    0.000    0.000    0.000    0.000    0.000 
#
# Total GULP energy -89553.999466 kJ/mol
# GULP energy per Si atom -5597.124967 kJ/mol
# Density = 2.323619 g / cm^3
# Si number density = 23.289193 Si / 1000 Ang^3
#
#
#
# Elastic Constant Matrix: (Units=GPa)
#
#
# Indices 1 2 3 4 5 6 
#
# 1 56.0239 14.5301 22.8631 2.6487 -2.0836 -14.0291
# 2 14.5301 122.1774 48.5970 5.7631 -2.9446 -18.9562
# 3 22.8631 48.5970 157.6253 -17.4899 -17.8046 1.6806
# 4 2.6487 5.7631 -17.4899 40.2666 -2.9230 -4.2496
# 5 -2.0836 -2.9446 -17.8046 -2.9230 37.7342 3.9324
# 6 -14.0291 -18.9562 1.6806 -4.2496 3.9324 36.4670
#
#
#
# Elastic Compliance Matrix: (Units=1/GPa)
#
#
# Indices 1 2 3 4 5 6 
#
# 1 0.021473 0.000326 -0.003745 -0.002305 -0.001621 0.008509
# 2 0.000326 0.010678 -0.003913 -0.002776 -0.001807 0.005728
# 3 -0.003745 -0.003913 0.009176 0.004719 0.004583 -0.003842
# 4 -0.002305 -0.002776 0.004719 0.027751 0.004006 0.000255
# 5 -0.001621 -0.001807 0.004583 0.004006 0.029208 -0.004457
# 6 0.008509 0.005728 -0.003842 0.000255 -0.004457 0.034360
#
#
# Mechanical properties :
#
#
# Convention : Reuss Voigt Hill
#
# Bulk Modulus (GPa) = 37.50407 56.42297 46.96352
# Shear Modulus (GPa) = 32.01086 39.54934 35.78010
#
# Velocity S-wave (km/s) = 3.71144 4.12537 3.92387
# Velocity P-wave (km/s) = 5.87409 6.85356 6.38264
#
# Compressibility (1/GPa) = 0.02666377
#
# Stress axis : x y z
#
# Youngs Moduli (GPa) = 46.57102 93.64649 108.98120
#
# Poissons Ratio (x) = -0.03049 0.40808
# Poissons Ratio (y) = -0.01516 0.42640
# Poissons Ratio (z) = 0.17439 0.36640
#
# Static dielectric constant tensor:
#      x y z
#    x 1.915530 0.000430 -0.024850 
#    y 0.000430 1.880190 0.003130 
#    z -0.024850 0.003130 1.867650 
# 
# From -- ./inp_files/530185.got.cif
#   From: 2010.05.17/outbox.cif.g08.bks.cpg/sg2_266_cif.got.tgz:530185.got - 2010.06.03 11:33:40.
