data_PCOD9057813
_publ_section_title
;
Structure prediction by ZEFSAII (Michael W. Deem and Ramdas Pophale) SiO2 
 PCOD9057813
Probable space group: P -1
;
_chemical_formula_sum "Si O2"
_cell_formula_units_Z 13
_cell_length_a 14.250675
_cell_length_b 6.315312
_cell_length_c 8.638636
_cell_angle_alpha 90.569297
_cell_angle_beta 140.228981
_cell_angle_gamma 95.480607
_cell_volume 490.822208
_symmetry_space_group_name_H-M "P -1"
_symmetry_group_IT_number 2
_symmetry_cell_setting 'triclinic'
loop_
_space_group_symop_operation_xyz
x,y,z
-x,-y,-z
loop_
_atom_site_type_symbol
_atom_site_label
_atom_site_fract_x
_atom_site_fract_y
_atom_site_fract_z
Si Si1 0.619962 0.439343 0.772933
Si Si2 0.000000 0.500000 0.500000
Si Si3 0.667541 0.748629 0.460194
Si Si4 0.676151 0.040915 0.210979
Si Si5 0.862340 0.410678 0.647269
Si Si6 0.818602 0.124989 0.865984
Si Si7 0.156603 0.142434 0.831980
O O1 0.500000 0.500000 0.500000
O O2 0.508507 0.335889 0.765391
O O3 0.716077 0.273527 0.822658
O O4 0.724537 0.651356 0.963537
O O5 0.023391 0.480498 0.336725
O O6 0.044637 0.257511 0.588676
O O7 0.719791 0.845217 0.362873
O O8 0.765704 0.566395 0.610229
O O9 0.706062 0.940282 0.632200
O O10 0.748439 0.012408 0.138968
O O11 0.746852 0.257541 0.387818
O O12 0.500000 0.000000 0.000000
O O13 0.909899 0.267847 0.847875
O O14 0.903209 0.995137 0.094368
#
# Coordination Sequence:
#
# PCOD9057813 Si02
#       7
#     2   1   2   2   2   2   2
#     4  12  23  41  77 111 154 181 235 316 375 437
#     4  12  30  52  70 100 154 204 252 292 346 438
#     4  11  22  43  71 110 148 183 237 303 374 440
#     4  11  25  41  75 112 144 184 241 309 385 429
#     4  11  25  49  70 101 147 194 243 299 356 432
#     4  11  24  44  73 112 138 191 241 294 383 425
#     4  12  27  46  72 111 145 196 245 297 366 431
#
# _framework density 26.486167999999999
#
# number of rings (size 3 to 8) (size 9 to 14) (size 15 to 20)
#    0.000    0.615    4.615    2.308    6.462    2.462 
#    0.000    3.077    0.000    0.000    0.000    0.000 
#    0.000    0.000    0.000    0.000    0.000    0.000 
#
# Total GULP energy -72577.750438 kJ/mol
# GULP energy per Si atom -5582.903880 kJ/mol
# Density = 2.642588 g / cm^3
# Si number density = 26.486168 Si / 1000 Ang^3
#
#
#
# Elastic Constant Matrix: (Units=GPa)
#
#
# Indices 1 2 3 4 5 6 
#
# 1 147.7305 65.8579 57.0130 -12.6213 -9.1170 -11.9462
# 2 65.8579 141.2137 60.5664 -10.0255 -3.3617 -0.4872
# 3 57.0130 60.5664 101.2838 -11.9010 1.4398 15.1398
# 4 -12.6213 -10.0255 -11.9010 55.2577 14.0232 -12.7833
# 5 -9.1170 -3.3617 1.4398 14.0232 46.2417 -19.9636
# 6 -11.9462 -0.4872 15.1398 -12.7833 -19.9636 55.4338
#
#
#
# Elastic Compliance Matrix: (Units=1/GPa)
#
#
# Indices 1 2 3 4 5 6 
#
# 1 0.010724 -0.002553 -0.005258 0.001069 0.004124 0.005456
# 2 -0.002553 0.010458 -0.004985 0.000318 0.000873 0.001291
# 3 -0.005258 -0.004985 0.017176 0.001257 -0.005593 -0.007592
# 4 0.001069 0.000318 0.001257 0.020556 -0.004784 0.002908
# 5 0.004124 0.000873 -0.005593 -0.004784 0.029244 0.011852
# 6 0.005456 0.001291 -0.007592 0.002908 0.011852 0.026239
#
#
# Mechanical properties :
#
#
# Convention : Reuss Voigt Hill
#
# Bulk Modulus (GPa) = 78.33506 84.12252 81.22879
# Shear Modulus (GPa) = 34.66369 45.17269 39.91819
#
# Velocity S-wave (km/s) = 3.62159 4.13427 3.88639
# Velocity P-wave (km/s) = 6.86498 7.39050 7.13258
#
# Compressibility (1/GPa) = 0.01276568
#
# Stress axis : x y z
#
# Youngs Moduli (GPa) = 93.25255 95.62269 58.22123
#
# Poissons Ratio (x) = 0.24412 0.30614
# Poissons Ratio (y) = 0.23807 0.29021
# Poissons Ratio (z) = 0.49034 0.47664
#
# Static dielectric constant tensor:
#      x y z
#    x 2.084960 0.117280 -0.068370 
#    y 0.117280 2.114570 -0.002330 
#    z -0.068370 -0.002330 2.084420 
# 
# From -- ./inp_files/89126.got.cif
#   From: 2010.05.17/outbox.cif.g08.bks.cpg/sg2_45_cif.got.tgz:89126.got - 2010.06.03 11:33:40.
