data_PCOD9057800
_publ_section_title
;
Structure prediction by ZEFSAII (Michael W. Deem and Ramdas Pophale) SiO2 
 PCOD9057800
Probable space group: P -1
;
_chemical_formula_sum "Si O2"
_cell_formula_units_Z 12
_cell_length_a 9.181096
_cell_length_b 13.628812
_cell_length_c 9.572257
_cell_angle_alpha 144.643327
_cell_angle_beta 49.255718
_cell_angle_gamma 135.813626
_cell_volume 476.197589
_symmetry_space_group_name_H-M "P -1"
_symmetry_group_IT_number 2
_symmetry_cell_setting 'triclinic'
loop_
_space_group_symop_operation_xyz
x,y,z
-x,-y,-z
loop_
_atom_site_type_symbol
_atom_site_label
_atom_site_fract_x
_atom_site_fract_y
_atom_site_fract_z
Si Si1 0.403494 0.686310 0.177784
Si Si2 0.132303 0.993349 0.043975
Si Si3 0.191689 0.952315 0.542058
Si Si4 0.470109 0.066027 0.247592
Si Si5 0.857129 0.595492 0.754173
Si Si6 0.515666 0.482558 0.635645
O O1 0.636550 0.846531 0.265153
O O2 0.313752 0.537127 0.185012
O O3 0.256448 0.796251 0.384336
O O4 0.382552 0.565274 0.909551
O O5 0.055056 0.100444 0.332577
O O6 0.017467 0.786418 0.941590
O O7 0.355828 0.995446 0.858975
O O8 0.000000 0.000000 0.000000
O O9 0.257964 0.969309 0.358101
O O10 0.500144 0.279124 0.453834
O O11 0.500000 0.000000 0.000000
O O12 0.743849 0.621154 0.715402
O O13 0.000000 0.500000 0.500000
O O14 0.500000 0.500000 0.500000
#
# Coordination Sequence:
#
# PCOD9057800 Si02
#       6
#     2   2   2   2   2   2
#     4  11  22  43  71 103 137 187 228 287 343 416
#     4  12  25  42  73 104 133 183 238 287 338 417
#     4  11  22  43  72 103 139 180 238 280 346 416
#     4  12  27  47  69 102 145 184 225 292 358 408
#     4  12  22  43  71 102 135 179 243 281 336 417
#     4  12  25  43  68 102 139 182 222 288 354 400
#
# _framework density 25.199625000000001
#
# number of rings (size 3 to 8) (size 9 to 14) (size 15 to 20)
#    0.000    0.333    5.000    5.500    2.333    0.667 
#    0.000    0.833    0.000    0.000    0.000    0.000 
#    0.000    0.000    0.000    0.000    0.000    0.000 
#
# Total GULP energy -66981.775558 kJ/mol
# GULP energy per Si atom -5581.814630 kJ/mol
# Density = 2.514227 g / cm^3
# Si number density = 25.199625 Si / 1000 Ang^3
#
#
#
# Elastic Constant Matrix: (Units=GPa)
#
#
# Indices 1 2 3 4 5 6 
#
# 1 52.0339 12.6914 19.3052 -16.5470 -6.6775 -22.9885
# 2 12.6914 114.5638 39.6347 -25.5377 4.8296 -7.3034
# 3 19.3052 39.6347 170.1192 -26.2051 -8.5892 -8.4818
# 4 -16.5470 -25.5377 -26.2051 46.8202 -3.6761 8.9896
# 5 -6.6775 4.8296 -8.5892 -3.6761 53.0839 -16.1609
# 6 -22.9885 -7.3034 -8.4818 8.9896 -16.1609 31.2746
#
#
#
# Elastic Compliance Matrix: (Units=1/GPa)
#
#
# Indices 1 2 3 4 5 6 
#
# 1 0.039553 -0.000930 -0.000528 0.007757 0.016108 0.034807
# 2 -0.000930 0.010428 -0.001738 0.004410 -0.001231 -0.000623
# 3 -0.000528 -0.001738 0.006899 0.002628 0.001766 0.001234
# 4 0.007757 0.004410 0.002628 0.028026 0.003269 0.001078
# 5 0.016108 -0.001231 0.001766 0.003269 0.029507 0.026340
# 6 0.034807 -0.000623 0.001234 0.001078 0.026340 0.071050
#
#
# Mechanical properties :
#
#
# Convention : Reuss Voigt Hill
#
# Bulk Modulus (GPa) = 19.80690 53.33107 36.56899
# Shear Modulus (GPa) = 23.95971 43.90812 33.93392
#
# Velocity S-wave (km/s) = 3.08684 4.17875 3.67359
# Velocity P-wave (km/s) = 4.53672 6.67023 5.70411
#
# Compressibility (1/GPa) = 0.05048745
#
# Stress axis : x y z
#
# Youngs Moduli (GPa) = 25.28268 95.89395 144.95696
#
# Poissons Ratio (x) = 0.08917 0.07656
# Poissons Ratio (y) = 0.02351 0.25194
# Poissons Ratio (z) = 0.01335 0.16667
#
# Static dielectric constant tensor:
#      x y z
#    x 2.129850 -0.002400 -0.033960 
#    y -0.002400 2.022090 0.019740 
#    z -0.033960 0.019740 2.127150 
# 
# From -- ./inp_files/156570.got.cif
#   From: 2010.05.17/outbox.cif.g08.bks.cpg/sg2_79_cif.got.tgz:156570.got - 2010.06.03 11:33:40.
