data_PCOD9057812
_publ_section_title
;
Structure prediction by ZEFSAII (Michael W. Deem and Ramdas Pophale) SiO2 
 PCOD9057812
Probable space group: P -1
;
_chemical_formula_sum "Si O2"
_cell_formula_units_Z 16
_cell_length_a 14.115857
_cell_length_b 5.510885
_cell_length_c 17.931115
_cell_angle_alpha 114.918757
_cell_angle_beta 139.253127
_cell_angle_gamma 44.168256
_cell_volume 611.093719
_symmetry_space_group_name_H-M "P -1"
_symmetry_group_IT_number 2
_symmetry_cell_setting 'triclinic'
loop_
_space_group_symop_operation_xyz
x,y,z
-x,-y,-z
loop_
_atom_site_type_symbol
_atom_site_label
_atom_site_fract_x
_atom_site_fract_y
_atom_site_fract_z
Si Si1 0.276172 0.723281 0.376926
Si Si2 0.036974 0.546833 0.233891
Si Si3 0.346330 0.621570 0.244681
Si Si4 0.796093 0.399141 0.985421
Si Si5 0.286299 0.687610 0.924233
Si Si6 0.584451 0.776321 0.314546
Si Si7 0.940085 0.547694 0.589923
Si Si8 0.356492 0.169559 0.798128
O O1 0.500000 0.500000 0.500000
O O2 0.254720 0.854301 0.295872
O O3 0.226556 0.473039 0.308179
O O4 0.145066 0.041743 0.400862
O O5 0.072926 0.506017 0.338157
O O6 0.865982 0.976391 0.174104
O O7 0.945777 0.432440 0.110511
O O8 0.182253 0.717478 0.102098
O O9 0.466484 0.698421 0.280665
O O10 0.477949 0.200279 0.293124
O O11 0.569409 0.791320 0.895544
O O12 0.774476 0.205309 0.012604
O O13 0.276532 0.389090 0.856404
O O14 0.500000 0.500000 0.000000
O O15 0.789541 0.574168 0.452414
O O16 0.614894 0.656701 0.230541
O O17 0.169036 0.234396 0.665236
#
# Coordination Sequence:
#
# PCOD9057812 Si02
#       8
#     2   2   2   2   2   2   2   2
#     4  12  26  48  74 102 142 196 245 305 357 435
#     4  12  25  42  73 107 140 192 245 298 367 432
#     4  11  27  48  76 106 145 197 248 299 368 428
#     4  11  24  45  69 106 147 187 238 302 368 435
#     4  12  21  40  69 103 148 187 234 291 364 445
#     4  11  26  48  72 109 148 193 242 304 366 435
#     4  12  25  45  71 110 145 189 245 298 366 438
#     4  11  22  43  71 109 146 187 235 301 369 437
#
# _framework density 26.182562000000001
#
# number of rings (size 3 to 8) (size 9 to 14) (size 15 to 20)
#    0.000    0.500    5.000    3.000    3.500    2.500 
#    0.000    6.250    0.000    0.000    0.000    0.000 
#    0.000    0.000    0.000    0.000    0.000    0.000 
#
# Total GULP energy -89412.958601 kJ/mol
# GULP energy per Si atom -5588.309913 kJ/mol
# Density = 2.612297 g / cm^3
# Si number density = 26.182562 Si / 1000 Ang^3
#
#
#
# Elastic Constant Matrix: (Units=GPa)
#
#
# Indices 1 2 3 4 5 6 
#
# 1 116.7475 -3.8126 41.4268 15.6560 -3.0216 17.2968
# 2 -3.8126 55.2506 19.4128 1.5419 3.0657 -0.3115
# 3 41.4268 19.4128 215.5540 -7.1470 16.6833 15.3742
# 4 15.6560 1.5419 -7.1470 34.2366 -5.1994 -6.6553
# 5 -3.0216 3.0657 16.6833 -5.1994 58.2547 8.2789
# 6 17.2968 -0.3115 15.3742 -6.6553 8.2789 38.0787
#
#
#
# Elastic Compliance Matrix: (Units=1/GPa)
#
#
# Indices 1 2 3 4 5 6 
#
# 1 0.011136 0.001620 -0.002207 -0.006508 0.001337 -0.005582
# 2 0.001620 0.019020 -0.002054 -0.002106 -0.000516 -0.000007
# 3 -0.002207 -0.002054 0.005456 0.001926 -0.001313 -0.000595
# 4 -0.006508 -0.002106 0.001926 0.034398 0.001166 0.007920
# 5 0.001337 -0.000516 -0.001313 0.001166 0.018290 -0.003854
# 6 -0.005582 -0.000007 -0.000595 0.007920 -0.003854 0.031259
#
#
# Mechanical properties :
#
#
# Convention : Reuss Voigt Hill
#
# Bulk Modulus (GPa) = 32.97025 55.73403 44.35214
# Shear Modulus (GPa) = 37.05019 48.14902 42.59960
#
# Velocity S-wave (km/s) = 3.76582 4.29298 4.03801
# Velocity P-wave (km/s) = 5.61501 6.77538 6.22230
#
# Compressibility (1/GPa) = 0.03033037
#
# Stress axis : x y z
#
# Youngs Moduli (GPa) = 89.79908 52.57607 183.27590
#
# Poissons Ratio (x) = -0.08517 0.40453
# Poissons Ratio (y) = -0.14547 0.37639
# Poissons Ratio (z) = 0.19821 0.10797
#
# Static dielectric constant tensor:
#      x y z
#    x 2.134010 0.029390 0.039520 
#    y 0.029390 2.268900 0.043330 
#    z 0.039520 0.043330 2.002870 
# 
# From -- ./inp_files/67326.got.cif
#   From: 2010.05.17/outbox.cif.g08.bks.cpg/sg2_34_cif.got.tgz:67326.got - 2010.06.03 11:33:40.
