data_PCOD9057370
_publ_section_title
;
Structure prediction by ZEFSAII (Michael W. Deem and Ramdas Pophale) SiO2 
 PCOD9057370
Probable space group: P -1
;
_chemical_formula_sum "Si O2"
_cell_formula_units_Z 16
_cell_length_a 18.894489
_cell_length_b 9.972348
_cell_length_c 22.225349
_cell_angle_alpha 144.962856
_cell_angle_beta 160.998340
_cell_angle_gamma 33.409940
_cell_volume 740.542243
_symmetry_space_group_name_H-M "P -1"
_symmetry_group_IT_number 2
_symmetry_cell_setting 'triclinic'
loop_
_space_group_symop_operation_xyz
x,y,z
-x,-y,-z
loop_
_atom_site_type_symbol
_atom_site_label
_atom_site_fract_x
_atom_site_fract_y
_atom_site_fract_z
Si Si1 0.488310 0.934670 0.396841
Si Si2 0.044383 0.295521 0.014925
Si Si3 0.460837 0.791317 0.575618
Si Si4 0.068081 0.223206 0.482835
Si Si5 0.433318 0.788222 0.899801
Si Si6 0.648000 0.640889 0.138643
Si Si7 0.056126 0.220988 0.253620
Si Si8 0.160894 0.639973 0.994719
O O1 0.275814 0.850891 0.177123
O O2 0.740632 0.730729 0.526034
O O3 0.500000 0.000000 0.500000
O O4 0.505736 0.138848 0.440109
O O5 0.320031 0.182042 0.202443
O O6 0.000000 0.500000 0.000000
O O7 0.936982 0.407683 0.035932
O O8 0.954543 0.057962 0.846821
O O9 0.500000 0.500000 0.500000
O O10 0.221196 0.990778 0.479486
O O11 0.235519 0.223601 0.672545
O O12 0.000000 0.500000 0.500000
O O13 0.831135 0.196265 0.306563
O O14 0.613947 0.556675 0.926264
O O15 0.493893 0.806722 0.024860
O O16 0.500000 0.000000 0.000000
O O17 0.835845 0.419732 0.175800
O O18 0.500000 0.500000 0.000000
O O19 0.029054 0.291370 0.186236
#
# Coordination Sequence:
#
# PCOD9057370 Si02
#       8
#     2   2   2   2   2   2   2   2
#     4  12  23  43  70 102 135 186 236 284 359 431
#     4  12  25  43  68 104 146 189 232 300 366 424
#     4  12  28  46  71 111 148 183 240 305 365 420
#     4  12  25  50  78 106 148 194 249 299 357 448
#     4  11  27  46  71 106 145 192 241 307 365 425
#     4  11  23  42  74 103 135 190 246 290 353 436
#     4  11  22  42  69 100 136 181 238 293 348 424
#     4  11  24  46  70 100 145 187 244 292 356 438
#
# _framework density 21.605789999999999
#
# number of rings (size 3 to 8) (size 9 to 14) (size 15 to 20)
#    0.000    0.500    3.750    4.875    1.750    2.500 
#    0.000    0.000    0.000    0.000    0.000    0.000 
#    0.000    0.000    0.000    0.000    0.000    0.000 
#
# Total GULP energy -89184.026112 kJ/mol
# GULP energy per Si atom -5574.001632 kJ/mol
# Density = 2.155661 g / cm^3
# Si number density = 21.605790 Si / 1000 Ang^3
#
#
#
# Elastic Constant Matrix: (Units=GPa)
#
#
# Indices 1 2 3 4 5 6 
#
# 1 131.2870 55.5379 20.9040 6.6477 7.6105 22.7392
# 2 55.5379 80.0822 16.8158 4.4470 9.8936 1.9073
# 3 20.9040 16.8158 88.1993 -8.9037 8.6177 19.0129
# 4 6.6477 4.4470 -8.9037 27.9938 -0.8973 -0.1412
# 5 7.6105 9.8936 8.6177 -0.8973 40.6018 -5.6191
# 6 22.7392 1.9073 19.0129 -0.1412 -5.6191 51.7312
#
#
#
# Elastic Compliance Matrix: (Units=1/GPa)
#
#
# Indices 1 2 3 4 5 6 
#
# 1 0.012040 -0.007939 -0.000349 -0.001765 -0.000977 -0.004982
# 2 -0.007939 0.018793 -0.002431 -0.001924 -0.002140 0.003453
# 3 -0.000349 -0.002431 0.013741 0.004722 -0.002861 -0.005105
# 4 -0.001765 -0.001924 0.004722 0.037962 0.000536 -0.000727
# 5 -0.000977 -0.002140 -0.002861 0.000536 0.026569 0.004447
# 6 -0.004982 0.003453 -0.005105 -0.000727 0.004447 0.023751
#
#
# Mechanical properties :
#
#
# Convention : Reuss Voigt Hill
#
# Bulk Modulus (GPa) = 43.22260 54.00933 48.61596
# Shear Modulus (GPa) = 30.86341 37.81939 34.34140
#
# Velocity S-wave (km/s) = 3.78362 4.18835 3.99112
# Velocity P-wave (km/s) = 6.25590 6.96000 6.61732
#
# Compressibility (1/GPa) = 0.02313605
#
# Stress axis : x y z
#
# Youngs Moduli (GPa) = 83.05728 53.21268 72.77628
#
# Poissons Ratio (x) = 0.42247 0.02537
# Poissons Ratio (y) = 0.65941 0.17690
# Poissons Ratio (z) = 0.02896 0.12934
#
# Static dielectric constant tensor:
#      x y z
#    x 1.872060 -0.074910 0.090680 
#    y -0.074910 1.868460 -0.150170 
#    z 0.090680 -0.150170 2.050450 
# 
# From -- ./inp_files/599784.got.cif
#   From: 2010.05.17/outbox.cif.g08.bks.cpg/sg2_300_cif.got.tgz:599784.got - 2010.06.03 11:33:40.
