data_PCOD9057690
_publ_section_title
;
Structure prediction by ZEFSAII (Michael W. Deem and Ramdas Pophale) SiO2 
 PCOD9057690
Probable space group: P -1
;
_chemical_formula_sum "Si O2"
_cell_formula_units_Z 16
_cell_length_a 9.132565
_cell_length_b 5.322102
_cell_length_c 19.637541
_cell_angle_alpha 115.997604
_cell_angle_beta 109.517295
_cell_angle_gamma 55.215712
_cell_volume 700.011317
_symmetry_space_group_name_H-M "P -1"
_symmetry_group_IT_number 2
_symmetry_cell_setting 'triclinic'
loop_
_space_group_symop_operation_xyz
x,y,z
-x,-y,-z
loop_
_atom_site_type_symbol
_atom_site_label
_atom_site_fract_x
_atom_site_fract_y
_atom_site_fract_z
Si Si1 0.853760 0.833373 0.330617
Si Si2 0.064371 0.710676 0.139687
Si Si3 0.756139 0.708534 0.162134
Si Si4 0.796066 0.100323 0.489796
Si Si5 0.080515 0.094229 0.312011
Si Si6 0.824531 0.094028 0.027140
Si Si7 0.424548 0.116102 0.078091
Si Si8 0.678788 0.820839 0.550881
O O1 0.743925 0.775353 0.247741
O O2 0.978026 0.481482 0.340522
O O3 0.734310 0.059510 0.400290
O O4 0.973049 0.969407 0.328649
O O5 0.257792 0.471850 0.109440
O O6 0.964343 0.586163 0.160575
O O7 0.078535 0.969983 0.220627
O O8 0.915550 0.837971 0.072045
O O9 0.730590 0.429689 0.092102
O O10 0.594971 0.027296 0.140526
O O11 0.700422 0.480680 0.537480
O O12 0.804349 0.841464 0.514113
O O13 0.000000 0.000000 0.500000
O O14 0.276630 0.002700 0.360262
O O15 0.683450 0.077670 0.953188
O O16 0.000000 0.000000 0.000000
O O17 0.500000 0.000000 0.000000
O O18 0.500000 0.000000 0.500000
#
# Coordination Sequence:
#
# PCOD9057690 Si02
#       8
#     2   2   2   2   2   2   2   2
#     4  11  23  41  71  99 133 181 231 281 335 412
#     4  11  24  43  65  93 136 176 219 281 351 403
#     4  11  24  43  64  99 132 176 228 279 347 407
#     4  12  22  42  71 100 133 180 235 273 331 407
#     4  11  22  43  68  96 137 182 223 275 351 411
#     4  12  22  42  67  92 126 174 221 276 344 405
#     4  12  24  42  67  97 132 170 227 289 336 410
#     4  12  25  42  67 106 142 179 225 285 343 406
#
# _framework density 22.856773
#
# number of rings (size 3 to 8) (size 9 to 14) (size 15 to 20)
#    0.000    0.500    6.250    3.000    0.000    1.000 
#    0.000    3.750    0.000    0.000    0.000    0.000 
#    0.000    0.000    0.000    0.000    0.000    0.000 
#
# Total GULP energy -89156.203149 kJ/mol
# GULP energy per Si atom -5572.262697 kJ/mol
# Density = 2.280475 g / cm^3
# Si number density = 22.856773 Si / 1000 Ang^3
#
#
#
# Elastic Constant Matrix: (Units=GPa)
#
#
# Indices 1 2 3 4 5 6 
#
# 1 68.0475 13.5348 3.1594 4.1178 0.9296 -4.0774
# 2 13.5348 76.7991 -0.8300 4.9391 4.8396 0.1107
# 3 3.1594 -0.8300 109.5779 4.6201 11.0196 4.9224
# 4 4.1178 4.9391 4.6201 36.5185 -0.4986 4.6622
# 5 0.9296 4.8396 11.0196 -0.4986 31.1078 -4.5602
# 6 -4.0774 0.1107 4.9224 4.6622 -4.5602 38.5093
#
#
#
# Elastic Compliance Matrix: (Units=1/GPa)
#
#
# Indices 1 2 3 4 5 6 
#
# 1 0.015454 -0.002657 -0.000528 -0.001560 0.000399 0.001947
# 2 -0.002657 0.013745 0.000503 -0.001595 -0.002331 -0.000468
# 3 -0.000528 0.000503 0.009637 -0.001074 -0.003728 -0.001601
# 4 -0.001560 -0.001595 -0.001074 0.028351 0.000634 -0.003381
# 5 0.000399 -0.002331 -0.003728 0.000634 0.034492 0.004533
# 6 0.001947 -0.000468 -0.001601 -0.003381 0.004533 0.027326
#
#
# Mechanical properties :
#
#
# Convention : Reuss Voigt Hill
#
# Bulk Modulus (GPa) = 29.87381 31.79476 30.83429
# Shear Modulus (GPa) = 34.35818 37.13114 35.74466
#
# Velocity S-wave (km/s) = 3.88131 4.03490 3.95885
# Velocity P-wave (km/s) = 5.76060 5.97058 5.86653
#
# Compressibility (1/GPa) = 0.03347413
#
# Stress axis : x y z
#
# Youngs Moduli (GPa) = 64.70732 72.75447 103.76588
#
# Poissons Ratio (x) = 0.19330 0.05474
# Poissons Ratio (y) = 0.17192 -0.05224
# Poissons Ratio (z) = 0.03414 -0.03663
#
# Static dielectric constant tensor:
#      x y z
#    x 0.681710 -0.650300 -0.321680 
#    y -0.650300 1.577590 -0.216060 
#    z -0.321680 -0.216060 1.856820 
# 
# From -- ./inp_files/112363.got.cif
#   From: 2010.05.17/outbox.cif.g08.bks.cpg/sg2_57_cif.got.tgz:112363.got - 2010.06.03 11:33:40.
