data_PCOD9057312
_publ_section_title
;
Structure prediction by ZEFSAII (Michael W. Deem and Ramdas Pophale) SiO2 
 PCOD9057312
Probable space group: P -1
;
_chemical_formula_sum "Si O2"
_cell_formula_units_Z 16
_cell_length_a 13.156672
_cell_length_b 9.030390
_cell_length_c 8.976557
_cell_angle_alpha 47.846810
_cell_angle_beta 85.872222
_cell_angle_gamma 89.708142
_cell_volume 787.256996
_symmetry_space_group_name_H-M "P -1"
_symmetry_group_IT_number 2
_symmetry_cell_setting 'triclinic'
loop_
_space_group_symop_operation_xyz
x,y,z
-x,-y,-z
loop_
_atom_site_type_symbol
_atom_site_label
_atom_site_fract_x
_atom_site_fract_y
_atom_site_fract_z
Si Si1 0.108623 0.466630 0.082692
Si Si2 0.701066 0.267982 0.072971
Si Si3 0.746917 0.812995 0.909141
Si Si4 0.892032 0.541414 0.554207
Si Si5 0.283647 0.733226 0.405053
Si Si6 0.610405 0.446235 0.215645
Si Si7 0.606516 0.490070 0.665691
Si Si8 0.256073 0.169964 0.744752
O O1 0.099817 0.455772 0.270077
O O2 0.191824 0.650495 0.922631
O O3 0.159613 0.279130 0.125680
O O4 0.000000 0.500000 0.000000
O O5 0.613709 0.281179 0.197729
O O6 0.715761 0.051320 0.152192
O O7 0.672525 0.428263 0.842432
O O8 0.649755 0.657919 0.997578
O O9 0.756309 0.819725 0.083194
O O10 0.731450 0.038643 0.711708
O O11 0.810651 0.371993 0.607458
O O12 0.847511 0.750802 0.367017
O O13 0.000000 0.500000 0.500000
O O14 0.305638 0.613186 0.632755
O O15 0.383353 0.701257 0.313886
O O16 0.504263 0.467409 0.293899
O O17 0.657687 0.674910 0.441211
#
# Coordination Sequence:
#
# PCOD9057312 Si02
#       8
#     2   2   2   2   2   2   2   2
#     4  11  24  43  66  95 127 160 213 264 310 379
#     4  11  24  43  65  93 130 168 210 262 317 371
#     4  11  23  41  66  93 131 167 208 260 313 369
#     4  11  23  43  68  92 128 166 206 259 320 376
#     4  11  23  42  64  94 130 166 212 257 311 379
#     4  11  25  39  66  95 130 167 213 265 306 371
#     4  11  22  43  64  94 129 169 215 257 313 372
#     4  11  22  42  67  90 130 171 206 257 319 372
#
# _framework density 20.323732
#
# number of rings (size 3 to 8) (size 9 to 14) (size 15 to 20)
#    0.000    1.000    6.250    1.500    3.500    3.000 
#    0.000    3.750    0.000    0.000    0.000    0.000 
#    0.000    0.000    0.000    0.000    0.000    0.000 
#
# Total GULP energy -89299.458710 kJ/mol
# GULP energy per Si atom -5581.216169 kJ/mol
# Density = 2.027747 g / cm^3
# Si number density = 20.323732 Si / 1000 Ang^3
#
#
#
# Elastic Constant Matrix: (Units=GPa)
#
#
# Indices 1 2 3 4 5 6 
#
# 1 108.7077 58.4054 39.6219 -5.4614 3.3059 -30.7226
# 2 58.4054 175.6803 54.8962 -6.2117 -3.6616 -36.3178
# 3 39.6219 54.8962 66.7190 -16.3469 4.5758 -4.1414
# 4 -5.4614 -6.2117 -16.3469 36.8311 -3.5087 -3.3293
# 5 3.3059 -3.6616 4.5758 -3.5087 19.3339 10.3514
# 6 -30.7226 -36.3178 -4.1414 -3.3293 10.3514 35.5031
#
#
#
# Elastic Compliance Matrix: (Units=1/GPa)
#
#
# Indices 1 2 3 4 5 6 
#
# 1 0.017498 0.000384 -0.009123 -0.000792 -0.010204 0.017371
# 2 0.000384 0.010106 -0.008043 -0.001068 -0.001895 0.010184
# 3 -0.009123 -0.008043 0.028317 0.008887 0.001617 -0.012457
# 4 -0.000792 -0.001068 0.008887 0.031184 0.002749 0.001382
# 5 -0.010204 -0.001895 0.001617 0.002749 0.069619 -0.030621
# 6 0.017371 0.010184 -0.012457 0.001382 -0.030621 0.061221
#
#
# Mechanical properties :
#
#
# Convention : Reuss Voigt Hill
#
# Bulk Modulus (GPa) = 44.72885 72.99488 58.86186
# Shear Modulus (GPa) = 19.30793 31.54585 25.42689
#
# Velocity S-wave (km/s) = 3.08558 3.94403 3.54092
# Velocity P-wave (km/s) = 5.89495 7.53223 6.76332
#
# Compressibility (1/GPa) = 0.02235694
#
# Stress axis : x y z
#
# Youngs Moduli (GPa) = 57.14975 98.95449 35.31487
#
# Poissons Ratio (x) = -0.03800 0.32218
# Poissons Ratio (y) = -0.02195 0.28402
# Poissons Ratio (z) = 0.52138 0.79585
#
# Static dielectric constant tensor:
#      x y z
#    x 1.737950 0.008410 0.002000 
#    y 0.008410 1.744630 0.032530 
#    z 0.002000 0.032530 1.739280 
# 
# From -- ./inp_files/202714.got.cif
#   From: 2010.05.17/outbox.cif.g08.bks.cpg/sg2_102_cif.got.tgz:202714.got - 2010.06.03 11:33:40.
