data_PCOD9057128
_publ_section_title
;
Structure prediction by ZEFSAII (Michael W. Deem and Ramdas Pophale) SiO2 
 PCOD9057128
Probable space group: P -1
;
_chemical_formula_sum "Si O2"
_cell_formula_units_Z 16
_cell_length_a 12.912336
_cell_length_b 18.407125
_cell_length_c 8.452683
_cell_angle_alpha 74.681780
_cell_angle_beta 65.736275
_cell_angle_gamma 21.855438
_cell_volume 639.863581
_symmetry_space_group_name_H-M "P -1"
_symmetry_group_IT_number 2
_symmetry_cell_setting 'triclinic'
loop_
_space_group_symop_operation_xyz
x,y,z
-x,-y,-z
loop_
_atom_site_type_symbol
_atom_site_label
_atom_site_fract_x
_atom_site_fract_y
_atom_site_fract_z
Si Si1 0.134024 0.565310 0.739188
Si Si2 0.261076 0.073884 0.778888
Si Si3 0.583873 0.254354 0.368040
Si Si4 0.187109 0.286292 0.848717
Si Si5 0.774704 0.204288 0.722638
Si Si6 0.274713 0.703169 0.960496
Si Si7 0.138374 0.125745 0.454639
Si Si8 0.736962 0.658281 0.705837
O O1 0.306247 0.416250 0.574037
O O2 0.433741 0.397267 0.760306
O O3 0.984239 0.732753 0.662522
O O4 0.883310 0.679275 0.942287
O O5 0.205160 0.190472 0.818661
O O6 0.191896 0.119058 0.607392
O O7 0.039405 0.149373 0.960418
O O8 0.600314 0.825764 0.724702
O O9 0.532524 0.224962 0.278603
O O10 0.577403 0.341478 0.248032
O O11 0.927897 0.033636 0.353725
O O12 0.899862 0.511111 0.827529
O O13 0.526100 0.109513 0.688964
O O14 0.761974 0.219138 0.912081
O O15 0.890707 0.211739 0.573742
O O16 0.500000 0.500000 0.000000
O O17 0.000000 0.500000 0.500000
#
# Coordination Sequence:
#
# PCOD9057128 Si02
#       8
#     2   2   2   2   2   2   2   2
#     4  12  27  42  69  97 146 194 218 281 353 420
#     4  11  24  44  76 105 131 179 237 298 346 402
#     4  12  24  44  69 101 145 175 230 292 346 416
#     4  12  26  47  70 108 143 180 237 285 351 421
#     4  11  23  44  66 103 136 179 237 283 344 416
#     4  11  22  41  71 102 130 177 233 294 347 399
#     4  11  23  47  69  99 139 181 235 287 343 415
#     4  12  24  46  76 104 134 181 236 293 348 406
#
# _framework density 25.005331000000002
#
# number of rings (size 3 to 8) (size 9 to 14) (size 15 to 20)
#    0.000    0.500    3.750    6.375    3.500    1.000 
#    2.250    1.250    0.000    0.000    0.000    0.000 
#    0.000    0.000    0.000    0.000    0.000    0.000 
#
# Total GULP energy -89689.972608 kJ/mol
# GULP energy per Si atom -5605.623288 kJ/mol
# Density = 2.494842 g / cm^3
# Si number density = 25.005331 Si / 1000 Ang^3
#
#
#
# Elastic Constant Matrix: (Units=GPa)
#
#
# Indices 1 2 3 4 5 6 
#
# 1 59.0371 19.2336 20.8565 -4.2700 -12.3670 -0.6508
# 2 19.2336 148.6621 16.7770 -5.8197 16.0841 16.9478
# 3 20.8565 16.7770 130.3233 -4.8045 -1.3182 7.0490
# 4 -4.2700 -5.8197 -4.8045 46.5815 2.8728 -8.2166
# 5 -12.3670 16.0841 -1.3182 2.8728 16.6367 2.8550
# 6 -0.6508 16.9478 7.0490 -8.2166 2.8550 39.6017
#
#
#
# Elastic Compliance Matrix: (Units=1/GPa)
#
#
# Indices 1 2 3 4 5 6 
#
# 1 0.024722 -0.005545 -0.003095 0.000122 0.023182 0.001684
# 2 -0.005545 0.009209 -0.000238 0.000892 -0.012702 -0.002889
# 3 -0.003095 -0.000238 0.008268 0.000398 -0.001270 -0.001247
# 4 0.000122 0.000892 0.000398 0.022794 -0.005478 0.004674
# 5 0.023182 -0.012702 -0.001270 -0.005478 0.090747 -0.001636
# 6 0.001684 -0.002889 -0.001247 0.004674 -0.001636 0.027825
#
#
# Mechanical properties :
#
#
# Convention : Reuss Voigt Hill
#
# Bulk Modulus (GPa) = 40.90693 50.19520 45.55107
# Shear Modulus (GPa) = 23.87002 39.30767 31.58885
#
# Velocity S-wave (km/s) = 3.09301 3.96911 3.55813
# Velocity P-wave (km/s) = 5.39911 6.41268 5.92760
#
# Compressibility (1/GPa) = 0.02444573
#
# Stress axis : x y z
#
# Youngs Moduli (GPa) = 40.45029 108.58497 120.94348
#
# Poissons Ratio (x) = 0.60206 0.37428
# Poissons Ratio (y) = 0.22428 0.02873
# Poissons Ratio (z) = 0.12518 0.02579
#
# Static dielectric constant tensor:
#      x y z
#    x 1.381560 0.120840 -0.157400 
#    y 0.120840 1.965000 0.073490 
#    z -0.157400 0.073490 1.916960 
# 
# From -- ./inp_files/319325.got.cif
#   From: 2010.05.17/outbox.cif.g08.bks.cpg/sg2_160_cif.got.tgz:319325.got - 2010.06.03 11:33:40.
