data_PCOD9057385
_publ_section_title
;
Structure prediction by ZEFSAII (Michael W. Deem and Ramdas Pophale) SiO2 
 PCOD9057385
Probable space group: P -1
;
_chemical_formula_sum "Si O2"
_cell_formula_units_Z 14
_cell_length_a 13.744242
_cell_length_b 16.615956
_cell_length_c 9.292984
_cell_angle_alpha 129.721433
_cell_angle_beta 129.961998
_cell_angle_gamma 22.321739
_cell_volume 610.422694
_symmetry_space_group_name_H-M "P -1"
_symmetry_group_IT_number 2
_symmetry_cell_setting 'triclinic'
loop_
_space_group_symop_operation_xyz
x,y,z
-x,-y,-z
loop_
_atom_site_type_symbol
_atom_site_label
_atom_site_fract_x
_atom_site_fract_y
_atom_site_fract_z
Si Si1 0.970164 0.911814 0.788638
Si Si2 0.532213 0.929494 0.290723
Si Si3 0.296178 0.475306 0.561081
Si Si4 0.976027 0.641694 0.174955
Si Si5 0.906084 0.083560 0.665361
Si Si6 0.364131 0.333066 0.745090
Si Si7 0.994908 0.747117 0.008446
O O1 0.140699 0.687111 0.717131
O O2 0.026827 0.905355 0.672513
O O3 0.671023 0.100746 0.749125
O O4 0.000000 0.000000 0.000000
O O5 0.712388 0.855725 0.259834
O O6 0.696892 0.708144 0.239140
O O7 0.500000 0.000000 0.500000
O O8 0.254893 0.109755 0.158255
O O9 0.597219 0.291344 0.629092
O O10 0.256398 0.411821 0.569709
O O11 0.198460 0.512369 0.353649
O O12 0.978694 0.709595 0.110480
O O13 0.000000 0.500000 0.000000
O O14 0.995036 0.135168 0.852624
O O15 0.000000 0.000000 0.500000
O O16 0.260554 0.513602 0.923232
#
# Coordination Sequence:
#
# PCOD9057385 Si02
#       7
#     2   2   2   2   2   2   2
#     4  11  22  42  69 103 141 181 234 290 354 423
#     4  12  27  46  73 103 141 192 241 291 351 421
#     4  11  26  46  71 105 145 186 238 291 358 427
#     4  12  27  47  70 102 144 191 235 295 351 420
#     4  11  26  43  71 103 142 185 231 295 356 422
#     4  11  23  43  70 102 139 183 236 287 350 420
#     4  12  26  46  73 105 142 186 238 292 359 421
#
# _framework density 22.934926000000001
#
# number of rings (size 3 to 8) (size 9 to 14) (size 15 to 20)
#    0.000    0.571    1.429    6.429    4.000    8.000 
#    0.000    0.000    0.000    0.000    0.000    0.000 
#    0.000    0.000    0.000    0.000    0.000    0.000 
#
# Total GULP energy -78261.356751 kJ/mol
# GULP energy per Si atom -5590.096911 kJ/mol
# Density = 2.288273 g / cm^3
# Si number density = 22.934926 Si / 1000 Ang^3
#
#
#
# Elastic Constant Matrix: (Units=GPa)
#
#
# Indices 1 2 3 4 5 6 
#
# 1 122.2526 18.7403 19.2579 -11.9692 -36.2926 13.2014
# 2 18.7403 65.5030 10.2175 3.4634 -7.7670 10.0727
# 3 19.2579 10.2175 87.6546 -9.4216 -13.5098 4.3029
# 4 -11.9692 3.4634 -9.4216 41.3853 0.5678 -8.1610
# 5 -36.2926 -7.7670 -13.5098 0.5678 49.7548 -1.4607
# 6 13.2014 10.0727 4.3029 -8.1610 -1.4607 37.3941
#
#
#
# Elastic Compliance Matrix: (Units=1/GPa)
#
#
# Indices 1 2 3 4 5 6 
#
# 1 0.011427 -0.002003 -0.000669 0.002717 0.007736 -0.002522
# 2 -0.002003 0.017008 -0.001571 -0.003232 0.000676 -0.004372
# 3 -0.000669 -0.001571 0.012437 0.002718 0.002610 -0.000077
# 4 0.002717 -0.003232 0.002718 0.026904 0.002071 0.005551
# 5 0.007736 0.000676 0.002610 0.002071 0.026481 -0.001727
# 6 -0.002522 -0.004372 -0.000077 0.005551 -0.001727 0.029963
#
#
# Mechanical properties :
#
#
# Convention : Reuss Voigt Hill
#
# Bulk Modulus (GPa) = 30.87822 41.31573 36.09698
# Shear Modulus (GPa) = 34.84256 40.85316 37.84786
#
# Velocity S-wave (km/s) = 3.90191 4.22508 4.06671
# Velocity P-wave (km/s) = 5.81313 6.46956 6.15011
#
# Compressibility (1/GPa) = 0.03238528
#
# Stress axis : x y z
#
# Youngs Moduli (GPa) = 87.51103 58.79574 80.40665
#
# Poissons Ratio (x) = 0.11779 0.05379
# Poissons Ratio (y) = 0.17532 0.12632
# Poissons Ratio (z) = 0.05854 0.09237
#
# Static dielectric constant tensor:
#      x y z
#    x 1.679640 -0.097510 -0.189370 
#    y -0.097510 1.777330 -0.135270 
#    z -0.189370 -0.135270 1.671080 
# 
# From -- ./inp_files/28155.got.cif
#   From: 2010.05.17/outbox.cif.g08.bks.cpg/sg2_15_cif.got.tgz:28155.got - 2010.06.03 11:33:40.
