data_PCOD9057930
_publ_section_title
;
Structure prediction by ZEFSAII (Michael W. Deem and Ramdas Pophale) SiO2 
 PCOD9057930
Probable space group: P -1
;
_chemical_formula_sum "Si O2"
_cell_formula_units_Z 14
_cell_length_a 12.704145
_cell_length_b 7.541100
_cell_length_c 7.282256
_cell_angle_alpha 64.685185
_cell_angle_beta 99.741512
_cell_angle_gamma 113.872340
_cell_volume 576.708129
_symmetry_space_group_name_H-M "P -1"
_symmetry_group_IT_number 2
_symmetry_cell_setting 'triclinic'
loop_
_space_group_symop_operation_xyz
x,y,z
-x,-y,-z
loop_
_atom_site_type_symbol
_atom_site_label
_atom_site_fract_x
_atom_site_fract_y
_atom_site_fract_z
Si Si1 0.452263 0.618015 0.785240
Si Si2 0.165530 0.023600 0.021077
Si Si3 0.342473 0.496517 0.437464
Si Si4 0.076852 0.548940 0.182666
Si Si5 0.406885 0.980453 0.144028
Si Si6 0.264565 0.435435 0.079091
Si Si7 0.919954 0.811797 0.428698
O O1 0.423992 0.510047 0.626796
O O2 0.644479 0.571569 0.736401
O O3 0.528593 0.860990 0.742277
O O4 0.323907 0.566839 0.859800
O O5 0.093016 0.080464 0.814511
O O6 0.186056 0.199945 0.103779
O O7 0.099020 0.780612 0.161950
O O8 0.297544 0.035539 0.016124
O O9 0.217501 0.320175 0.523672
O O10 0.360781 0.744400 0.316327
O O11 0.191430 0.542691 0.121353
O O12 0.037965 0.375944 0.409036
O O13 0.000000 0.500000 0.000000
O O14 0.500000 0.000000 0.000000
O O15 0.500000 0.500000 0.000000
O O16 0.000000 0.000000 0.500000
#
# Coordination Sequence:
#
# PCOD9057930 Si02
#       7
#     2   2   2   2   2   2   2
#     4  12  23  43  69 102 145 191 241 301 363 437
#     4  12  23  46  74 103 153 188 246 312 355 450
#     4  11  24  45  67 105 148 181 251 299 355 451
#     4  11  24  47  73 103 151 191 243 318 370 431
#     4  12  23  44  72 106 150 201 239 305 376 432
#     4  11  24  44  74 104 143 195 246 299 373 443
#     4  11  22  43  75 105 140 190 244 301 372 435
#
# _framework density 24.275711000000001
#
# number of rings (size 3 to 8) (size 9 to 14) (size 15 to 20)
#    0.000    0.571    8.571    0.429    0.000    1.143 
#    5.143    6.429    0.000    0.000    0.000    0.000 
#    0.000    0.000    0.000    0.000    0.000    0.000 
#
# Total GULP energy -78027.702206 kJ/mol
# GULP energy per Si atom -5573.407300 kJ/mol
# Density = 2.422046 g / cm^3
# Si number density = 24.275711 Si / 1000 Ang^3
#
#
#
# Elastic Constant Matrix: (Units=GPa)
#
#
# Indices 1 2 3 4 5 6 
#
# 1 61.7555 13.3441 27.4742 4.2017 6.0569 14.5111
# 2 13.3441 247.1109 82.0150 11.7084 4.2225 19.7735
# 3 27.4742 82.0150 173.1615 21.0518 18.3731 11.4260
# 4 4.2017 11.7084 21.0518 67.3219 9.2092 8.4896
# 5 6.0569 4.2225 18.3731 9.2092 33.7520 12.6523
# 6 14.5111 19.7735 11.4260 8.4896 12.6523 29.0201
#
#
#
# Elastic Compliance Matrix: (Units=1/GPa)
#
#
# Indices 1 2 3 4 5 6 
#
# 1 0.019517 0.000682 -0.003012 0.000638 0.001597 -0.009921
# 2 0.000682 0.005098 -0.002494 0.000048 0.001974 -0.003708
# 3 -0.003012 -0.002494 0.007889 -0.001602 -0.003846 0.002245
# 4 0.000638 0.000048 -0.001602 0.016057 -0.002359 -0.003390
# 5 0.001597 0.001974 -0.003846 -0.002359 0.038023 -0.016516
# 6 -0.009921 -0.003708 0.002245 -0.003390 -0.016516 0.049255
#
#
# Mechanical properties :
#
#
# Convention : Reuss Voigt Hill
#
# Bulk Modulus (GPa) = 43.75103 80.85494 62.30299
# Shear Modulus (GPa) = 32.65762 49.96511 41.31137
#
# Velocity S-wave (km/s) = 3.67178 4.54170 4.12971
# Velocity P-wave (km/s) = 6.00314 7.80269 6.96131
#
# Compressibility (1/GPa) = 0.02285661
#
# Stress axis : x y z
#
# Youngs Moduli (GPa) = 51.23845 196.14743 126.76537
#
# Poissons Ratio (x) = -0.13379 0.38181
# Poissons Ratio (y) = -0.03495 0.31609
# Poissons Ratio (z) = 0.15433 0.48910
#
# Static dielectric constant tensor:
#      x y z
#    x 2.825650 0.058970 0.333420 
#    y 0.058970 1.931990 0.004600 
#    z 0.333420 0.004600 2.147020 
# 
# From -- ./inp_files/324547.got.cif
#   From: 2010.05.17/outbox.cif.g08.bks.cpg/sg2_163_cif.got.tgz:324547.got - 2010.06.03 11:33:40.
