data_PCOD9057429
_publ_section_title
;
Structure prediction by ZEFSAII (Michael W. Deem and Ramdas Pophale) SiO2 
 PCOD9057429
Probable space group: P -1
;
_chemical_formula_sum "Si O2"
_cell_formula_units_Z 16
_cell_length_a 22.310388
_cell_length_b 10.145834
_cell_length_c 17.214327
_cell_angle_alpha 141.552604
_cell_angle_beta 16.771706
_cell_angle_gamma 147.283130
_cell_volume 601.431950
_symmetry_space_group_name_H-M "P -1"
_symmetry_group_IT_number 2
_symmetry_cell_setting 'triclinic'
loop_
_space_group_symop_operation_xyz
x,y,z
-x,-y,-z
loop_
_atom_site_type_symbol
_atom_site_label
_atom_site_fract_x
_atom_site_fract_y
_atom_site_fract_z
Si Si1 0.945160 0.056809 0.509949
Si Si2 0.699237 0.235186 0.276639
Si Si3 0.119427 0.391941 0.918101
Si Si4 0.743853 0.341801 0.972301
Si Si5 0.769754 0.969865 0.317723
Si Si6 0.724024 0.163708 0.620508
Si Si7 0.230668 0.335370 0.155070
Si Si8 0.551698 0.518589 0.700133
O O1 0.176573 0.159910 0.214705
O O2 0.724115 0.806050 0.636489
O O3 0.869045 0.259414 0.714190
O O4 0.000000 0.000000 0.500000
O O5 0.784023 0.383884 0.159288
O O6 0.423199 0.045671 0.512242
O O7 0.696061 0.417503 0.428943
O O8 0.891359 0.180827 0.053406
O O9 0.097963 0.503023 0.078569
O O10 0.284717 0.273774 0.677484
O O11 0.648170 0.498330 0.119102
O O12 0.511712 0.090672 0.177203
O O13 0.781028 0.151297 0.454035
O O14 0.000000 0.000000 0.000000
O O15 0.690122 0.391798 0.788140
O O16 0.964073 0.217503 0.393853
O O17 0.425030 0.370954 0.866921
#
# Coordination Sequence:
#
# PCOD9057429 Si02
#       8
#     2   2   2   2   2   2   2   2
#     4  12  27  44  68 103 140 185 235 295 363 428
#     4  11  24  46  72 104 144 186 239 296 357 421
#     4  11  25  44  73 104 140 189 243 295 351 431
#     4  12  21  44  73  99 137 190 240 294 357 422
#     4  12  25  43  70 104 143 191 239 290 360 422
#     4  11  22  42  70 102 137 182 241 294 348 430
#     4  11  25  43  71 105 137 182 241 293 356 432
#     4  12  23  45  73 104 137 189 239 295 359 426
#
# _framework density 26.603176000000001
#
# number of rings (size 3 to 8) (size 9 to 14) (size 15 to 20)
#    0.000    0.500    5.000    4.500    1.750    1.000 
#    0.000    0.000    0.000    0.000    0.000    0.000 
#    0.000    0.000    0.000    0.000    0.000    0.000 
#
# Total GULP energy -89707.540700 kJ/mol
# GULP energy per Si atom -5606.721294 kJ/mol
# Density = 2.654263 g / cm^3
# Si number density = 26.603176 Si / 1000 Ang^3
#
#
#
# Elastic Constant Matrix: (Units=GPa)
#
#
# Indices 1 2 3 4 5 6 
#
# 1 149.9232 32.1976 44.3854 -11.8873 10.1674 16.6947
# 2 32.1976 95.7629 28.4126 -4.9565 1.9167 24.3130
# 3 44.3854 28.4126 100.1635 -10.1529 24.3656 4.3244
# 4 -11.8873 -4.9565 -10.1529 34.1299 0.6599 8.5591
# 5 10.1674 1.9167 24.3656 0.6599 65.7524 -7.2171
# 6 16.6947 24.3130 4.3244 8.5591 -7.2171 50.9275
#
#
#
# Elastic Compliance Matrix: (Units=1/GPa)
#
#
# Indices 1 2 3 4 5 6 
#
# 1 0.008264 -0.001190 -0.002858 0.002461 -0.000470 -0.002378
# 2 -0.001190 0.013331 -0.002802 0.002212 0.000143 -0.006088
# 3 -0.002858 -0.002802 0.013397 0.002654 -0.004461 0.000059
# 4 0.002461 0.002212 0.002654 0.033342 -0.002649 -0.008067
# 5 -0.000470 0.000143 -0.004461 -0.002649 0.017326 0.003365
# 6 -0.002378 -0.006088 0.000059 -0.008067 0.003365 0.025149
#
#
# Mechanical properties :
#
#
# Convention : Reuss Voigt Hill
#
# Bulk Modulus (GPa) = 46.96700 61.76011 54.36355
# Shear Modulus (GPa) = 37.99228 46.21887 42.10558
#
# Velocity S-wave (km/s) = 3.78314 4.17267 3.98267
# Velocity P-wave (km/s) = 6.06431 6.81767 6.45199
#
# Compressibility (1/GPa) = 0.02129155
#
# Stress axis : x y z
#
# Youngs Moduli (GPa) = 121.01386 75.01237 74.64567
#
# Poissons Ratio (x) = 0.08925 0.21333
# Poissons Ratio (y) = 0.14399 0.20917
# Poissons Ratio (z) = 0.34585 0.21019
#
# Static dielectric constant tensor:
#      x y z
#    x 2.086840 -0.083730 -0.059970 
#    y -0.083730 2.443770 0.233990 
#    z -0.059970 0.233990 2.495490 
# 
# From -- ./inp_files/579243.got.cif
#   From: 2010.05.17/outbox.cif.g08.bks.cpg/sg2_290_cif.got.tgz:579243.got - 2010.06.03 11:33:40.
