data_PCOD9057098
_publ_section_title
;
Structure prediction by ZEFSAII (Michael W. Deem and Ramdas Pophale) SiO2 
 PCOD9057098
Probable space group: P -1
;
_chemical_formula_sum "Si O2"
_cell_formula_units_Z 15
_cell_length_a 18.298975
_cell_length_b 21.622122
_cell_length_c 8.634119
_cell_angle_alpha 39.673219
_cell_angle_beta 37.191317
_cell_angle_gamma 17.558281
_cell_volume 621.992450
_symmetry_space_group_name_H-M "P -1"
_symmetry_group_IT_number 2
_symmetry_cell_setting 'triclinic'
loop_
_space_group_symop_operation_xyz
x,y,z
-x,-y,-z
loop_
_atom_site_type_symbol
_atom_site_label
_atom_site_fract_x
_atom_site_fract_y
_atom_site_fract_z
Si Si1 0.993671 0.200758 0.937713
Si Si2 0.649949 0.894367 0.615863
Si Si3 0.519318 0.351438 0.953032
Si Si4 0.000000 0.500000 0.000000
Si Si5 0.073881 0.808520 0.249382
Si Si6 0.730012 0.137712 0.696793
Si Si7 0.503756 0.822095 0.471606
Si Si8 0.286425 0.448367 0.621265
O O1 0.965423 0.141633 0.962560
O O2 0.100345 0.219032 0.636324
O O3 0.724515 0.409608 0.066362
O O4 0.201626 0.017396 0.060816
O O5 0.500000 0.000000 0.500000
O O6 0.493571 0.075679 0.649174
O O7 0.766130 0.720447 0.844723
O O8 0.758036 0.231930 0.868387
O O9 0.568628 0.304469 0.780503
O O10 0.460979 0.288036 0.249027
O O11 0.954776 0.426161 0.127277
O O12 0.235025 0.594845 0.384863
O O13 0.792017 0.987069 0.449786
O O14 0.560934 0.254465 0.606934
O O15 0.000000 0.000000 0.500000
O O16 0.709454 0.646783 0.327908
#
# Coordination Sequence:
#
# PCOD9057098 Si02
#       8
#     2   2   2   1   2   2   2   2
#     4  11  23  45  65 103 139 178 241 286 357 433
#     4  11  24  49  75 105 143 188 244 309 356 426
#     4  12  23  40  74 101 137 190 230 282 364 435
#     4  12  24  48  72 102 148 184 242 308 360 410
#     4  11  22  41  70 100 138 181 233 284 343 437
#     4  12  27  43  66 106 149 182 232 300 361 427
#     4  11  23  44  72 103 131 191 238 275 372 431
#     4  12  26  46  68 103 145 182 239 301 349 430
#
# _framework density 24.116047999999999
#
# number of rings (size 3 to 8) (size 9 to 14) (size 15 to 20)
#    0.000    0.533    6.667    3.200    1.867    3.733 
#    2.400    1.333    0.000    0.000    0.000    0.000 
#    0.000    0.000    0.000    0.000    0.000    0.000 
#
# Total GULP energy -83606.529242 kJ/mol
# GULP energy per Si atom -5573.768616 kJ/mol
# Density = 2.406116 g / cm^3
# Si number density = 24.116048 Si / 1000 Ang^3
#
#
#
# Elastic Constant Matrix: (Units=GPa)
#
#
# Indices 1 2 3 4 5 6 
#
# 1 98.4061 58.5306 16.9325 -8.7342 3.9839 0.4846
# 2 58.5306 144.7004 15.8146 -10.4941 16.5480 10.0702
# 3 16.9325 15.8146 86.8748 -17.4218 0.6846 9.5835
# 4 -8.7342 -10.4941 -17.4218 40.4255 -3.7411 5.3099
# 5 3.9839 16.5480 0.6846 -3.7411 20.9084 2.0353
# 6 0.4846 10.0702 9.5835 5.3099 2.0353 42.3970
#
#
#
# Elastic Compliance Matrix: (Units=1/GPa)
#
#
# Indices 1 2 3 4 5 6 
#
# 1 0.013799 -0.005656 -0.001668 0.000791 0.001910 0.001372
# 2 -0.005656 0.010201 -0.000276 0.000971 -0.006609 -0.002100
# 3 -0.001668 -0.000276 0.013502 0.006028 0.001542 -0.003796
# 4 0.000791 0.000971 0.006028 0.028897 0.004583 -0.005442
# 5 0.001910 -0.006609 0.001542 0.004583 0.053654 -0.001950
# 6 0.001372 -0.002100 -0.003796 -0.005442 -0.001950 0.025703
#
#
# Mechanical properties :
#
#
# Convention : Reuss Voigt Hill
#
# Bulk Modulus (GPa) = 44.83781 56.94852 50.89316
# Shear Modulus (GPa) = 29.69315 36.65974 33.17645
#
# Velocity S-wave (km/s) = 3.51274 3.90313 3.71307
# Velocity P-wave (km/s) = 5.92329 6.63160 6.28743
#
# Compressibility (1/GPa) = 0.02230261
#
# Stress axis : x y z
#
# Youngs Moduli (GPa) = 72.46839 98.02775 74.06520
#
# Poissons Ratio (x) = 0.55444 0.12352
# Poissons Ratio (y) = 0.40987 0.02044
# Poissons Ratio (z) = 0.12086 0.02706
#
# Static dielectric constant tensor:
#      x y z
#    x 1.968630 -0.047780 -0.007890 
#    y -0.047780 2.200660 0.315800 
#    z -0.007890 0.315800 2.477940 
# 
# From -- ./inp_files/182031.got.cif
#   From: 2010.05.17/outbox.cif.g08.bks.cpg/sg2_92_cif.got.tgz:182031.got - 2010.06.03 11:33:40.
