data_PCOD9057553
_publ_section_title
;
Structure prediction by ZEFSAII (Michael W. Deem and Ramdas Pophale) SiO2 
 PCOD9057553
Probable space group: P -1
;
_chemical_formula_sum "Si O2"
_cell_formula_units_Z 16
_cell_length_a 12.208487
_cell_length_b 14.250595
_cell_length_c 8.795925
_cell_angle_alpha 70.049582
_cell_angle_beta 48.426380
_cell_angle_gamma 43.645420
_cell_volume 760.988660
_symmetry_space_group_name_H-M "P -1"
_symmetry_group_IT_number 2
_symmetry_cell_setting 'triclinic'
loop_
_space_group_symop_operation_xyz
x,y,z
-x,-y,-z
loop_
_atom_site_type_symbol
_atom_site_label
_atom_site_fract_x
_atom_site_fract_y
_atom_site_fract_z
Si Si1 0.935605 0.138711 0.309697
Si Si2 0.508201 0.964110 0.687124
Si Si3 0.323386 0.844954 0.989032
Si Si4 0.918716 0.806862 0.584962
Si Si5 0.205435 0.256256 0.981357
Si Si6 0.820056 0.398086 0.102485
Si Si7 0.270729 0.650372 0.099251
Si Si8 0.520901 0.278609 0.748017
O O1 0.858901 0.279042 0.228246
O O2 0.729073 0.178852 0.514961
O O3 0.053299 0.112239 0.372715
O O4 0.097395 0.001524 0.134985
O O5 0.721192 0.897019 0.606697
O O6 0.500000 0.000000 0.500000
O O7 0.327193 0.104660 0.874918
O O8 0.468706 0.864066 0.785418
O O9 0.294340 0.755766 0.975673
O O10 0.415407 0.767438 0.110109
O O11 0.125060 0.706826 0.348952
O O12 0.881180 0.735177 0.778959
O O13 0.369220 0.264129 0.845936
O O14 0.011997 0.374845 0.986988
O O15 0.605392 0.557362 0.242981
O O16 0.827532 0.363833 0.939695
O O17 0.500000 0.500000 0.000000
#
# Coordination Sequence:
#
# PCOD9057553 Si02
#       8
#     2   2   2   2   2   2   2   2
#     4  11  24  42  71 107 136 183 242 294 345 412
#     4  12  25  45  69 108 144 183 229 298 351 417
#     4  12  24  44  73 103 138 184 240 283 355 415
#     4  11  22  42  73  99 142 186 226 292 350 407
#     4  11  24  44  71 104 141 178 244 283 344 422
#     4  11  24  46  65 103 147 182 232 294 346 416
#     4  12  26  46  70 102 147 187 230 293 352 419
#     4  12  23  43  74 104 138 189 239 286 350 418
#
# _framework density 21.025279999999999
#
# number of rings (size 3 to 8) (size 9 to 14) (size 15 to 20)
#    0.000    0.500    6.250    3.000    1.750    2.500 
#    0.000    3.750    0.000    0.000    0.000    0.000 
#    0.000    0.000    0.000    0.000    0.000    0.000 
#
# Total GULP energy -89488.276880 kJ/mol
# GULP energy per Si atom -5593.017305 kJ/mol
# Density = 2.097743 g / cm^3
# Si number density = 21.025280 Si / 1000 Ang^3
#
#
#
# Elastic Constant Matrix: (Units=GPa)
#
#
# Indices 1 2 3 4 5 6 
#
# 1 82.6630 17.1248 24.2122 -8.0206 -10.7707 -6.9850
# 2 17.1248 114.4422 31.5949 3.0167 -8.4485 -0.5887
# 3 24.2122 31.5949 91.1236 1.1768 -16.1182 -5.2028
# 4 -8.0206 3.0167 1.1768 24.2273 -2.2236 1.7481
# 5 -10.7707 -8.4485 -16.1182 -2.2236 35.6410 -1.4289
# 6 -6.9850 -0.5887 -5.2028 1.7481 -1.4289 36.8176
#
#
#
# Elastic Compliance Matrix: (Units=1/GPa)
#
#
# Indices 1 2 3 4 5 6 
#
# 1 0.014257 -0.001270 -0.002727 0.005145 0.003183 0.002178
# 2 -0.001270 0.009824 -0.002988 -0.001424 0.000488 -0.000420
# 3 -0.002727 -0.002988 0.013660 -0.000882 0.004654 0.001588
# 4 0.005145 -0.001424 -0.000882 0.043600 0.003495 -0.001106
# 5 0.003183 0.000488 0.004654 0.003495 0.031551 0.002328
# 6 0.002178 -0.000420 0.001588 -0.001106 0.002328 0.027935
#
#
# Mechanical properties :
#
#
# Convention : Reuss Voigt Hill
#
# Bulk Modulus (GPa) = 42.06778 48.23251 45.15015
# Shear Modulus (GPa) = 30.72744 33.69034 32.20889
#
# Velocity S-wave (km/s) = 3.82704 4.00731 3.91821
# Velocity P-wave (km/s) = 6.29126 6.66344 6.48002
#
# Compressibility (1/GPa) = 0.02377116
#
# Stress axis : x y z
#
# Youngs Moduli (GPa) = 70.14023 101.78702 73.20656
#
# Poissons Ratio (x) = 0.12927 0.19964
# Poissons Ratio (y) = 0.08908 0.21875
# Poissons Ratio (z) = 0.19127 0.30416
#
# Static dielectric constant tensor:
#      x y z
#    x 1.767270 0.007910 -0.016730 
#    y 0.007910 1.761800 -0.011820 
#    z -0.016730 -0.011820 1.732740 
# 
# From -- ./inp_files/272366.got.cif
#   From: 2010.05.17/outbox.cif.g08.bks.cpg/sg2_137_cif.got.tgz:272366.got - 2010.06.03 11:33:40.
