data_PCOD9057125
_publ_section_title
;
Structure prediction by ZEFSAII (Michael W. Deem and Ramdas Pophale) SiO2 
 PCOD9057125
Probable space group: P -1
;
_chemical_formula_sum "Si O2"
_cell_formula_units_Z 16
_cell_length_a 9.136130
_cell_length_b 14.352158
_cell_length_c 14.166486
_cell_angle_alpha 30.503818
_cell_angle_beta 89.703496
_cell_angle_gamma 110.042345
_cell_volume 687.840517
_symmetry_space_group_name_H-M "P -1"
_symmetry_group_IT_number 2
_symmetry_cell_setting 'triclinic'
loop_
_space_group_symop_operation_xyz
x,y,z
-x,-y,-z
loop_
_atom_site_type_symbol
_atom_site_label
_atom_site_fract_x
_atom_site_fract_y
_atom_site_fract_z
Si Si1 0.898327 0.147189 0.051890
Si Si2 0.838275 0.964333 0.910737
Si Si3 0.426512 0.621158 0.156082
Si Si4 0.486365 0.074548 0.828284
Si Si5 0.050548 0.812516 0.479633
Si Si6 0.079362 0.422554 0.639433
Si Si7 0.351256 0.387980 0.010308
Si Si8 0.926432 0.503281 0.099108
O O1 0.902473 0.224270 0.089573
O O2 0.990134 0.380019 0.779152
O O3 0.687330 0.932575 0.192379
O O4 0.057272 0.123831 0.055868
O O5 0.851769 0.115309 0.689061
O O6 0.973356 0.153897 0.829370
O O7 0.603337 0.731024 0.137169
O O8 0.189864 0.372244 0.377987
O O9 0.437464 0.853765 0.955998
O O10 0.519183 0.586316 0.099013
O O11 0.686152 0.355068 0.559520
O O12 0.500000 0.000000 0.000000
O O13 0.095851 0.691362 0.661476
O O14 0.159023 0.087165 0.282555
O O15 0.000000 0.500000 0.500000
O O16 0.500000 0.500000 0.000000
O O17 0.264375 0.520954 0.882665
O O18 0.000000 0.500000 0.000000
#
# Coordination Sequence:
#
# PCOD9057125 Si02
#       8
#     2   2   2   2   2   2   2   2
#     4  12  25  46  67 108 149 186 252 306 356 448
#     4  11  24  46  67 107 148 189 243 304 360 439
#     4  11  22  41  71 100 141 187 233 293 361 425
#     4  12  24  41  72 109 146 194 247 293 363 439
#     4  11  24  47  77 101 151 187 234 303 374 424
#     4  12  23  40  73 101 145 197 239 297 369 423
#     4  11  27  50  72 110 142 183 245 303 365 439
#     4  12  26  48  77 109 143 190 248 306 364 440
#
# _framework density 23.261206000000001
#
# number of rings (size 3 to 8) (size 9 to 14) (size 15 to 20)
#    0.000    0.500    6.250    2.625    1.750    4.000 
#    0.000    2.500    0.000    0.000    0.000    0.000 
#    0.000    0.000    0.000    0.000    0.000    0.000 
#
# Total GULP energy -89229.685993 kJ/mol
# GULP energy per Si atom -5576.855375 kJ/mol
# Density = 2.320826 g / cm^3
# Si number density = 23.261206 Si / 1000 Ang^3
#
#
#
# Elastic Constant Matrix: (Units=GPa)
#
#
# Indices 1 2 3 4 5 6 
#
# 1 142.9453 35.9204 44.2482 -9.3895 -13.7298 17.5210
# 2 35.9204 149.7757 34.5574 -5.9167 -13.4555 -5.6830
# 3 44.2482 34.5574 88.3070 -16.8830 -25.3534 21.4505
# 4 -9.3895 -5.9167 -16.8830 41.2752 14.8777 -8.7418
# 5 -13.7298 -13.4555 -25.3534 14.8777 55.0480 -11.1814
# 6 17.5210 -5.6830 21.4505 -8.7418 -11.1814 44.4356
#
#
#
# Elastic Compliance Matrix: (Units=1/GPa)
#
#
# Indices 1 2 3 4 5 6 
#
# 1 0.008604 -0.001385 -0.003318 0.000027 -0.000133 -0.001996
# 2 -0.001385 0.007880 -0.002910 -0.000024 0.000893 0.003179
# 3 -0.003318 -0.002910 0.017395 0.003121 0.004467 -0.005723
# 4 0.000027 -0.000024 0.003121 0.028083 -0.005626 0.002589
# 5 -0.000133 0.000893 0.004467 -0.005626 0.022447 0.002552
# 6 -0.001996 0.003179 -0.005723 0.002589 0.002552 0.027612
#
#
# Mechanical properties :
#
#
# Convention : Reuss Voigt Hill
#
# Bulk Modulus (GPa) = 53.60893 67.83109 60.72001
# Shear Modulus (GPa) = 37.46309 45.90524 41.68417
#
# Velocity S-wave (km/s) = 4.01751 4.44719 4.23780
# Velocity P-wave (km/s) = 6.67960 7.45613 7.07852
#
# Compressibility (1/GPa) = 0.01865361
#
# Stress axis : x y z
#
# Youngs Moduli (GPa) = 116.22111 126.90225 57.48886
#
# Poissons Ratio (x) = 0.17573 0.19073
# Poissons Ratio (y) = 0.16094 0.16731
# Poissons Ratio (z) = 0.38558 0.36933
#
# Static dielectric constant tensor:
#      x y z
#    x 1.951950 -0.002410 0.049690 
#    y -0.002410 1.927460 -0.042950 
#    z 0.049690 -0.042950 1.977270 
# 
# From -- ./inp_files/505041.got.cif
#   From: 2010.05.17/outbox.cif.g08.bks.cpg/sg2_253_cif.got.tgz:505041.got - 2010.06.03 11:33:40.
