data_PCOD9057269
_publ_section_title
;
Structure prediction by ZEFSAII (Michael W. Deem and Ramdas Pophale) SiO2 
 PCOD9057269
Probable space group: P -1
;
_chemical_formula_sum "Si O2"
_cell_formula_units_Z 16
_cell_length_a 7.696848
_cell_length_b 16.581354
_cell_length_c 7.804105
_cell_angle_alpha 140.228183
_cell_angle_beta 105.894396
_cell_angle_gamma 72.035286
_cell_volume 604.994250
_symmetry_space_group_name_H-M "P -1"
_symmetry_group_IT_number 2
_symmetry_cell_setting 'triclinic'
loop_
_space_group_symop_operation_xyz
x,y,z
-x,-y,-z
loop_
_atom_site_type_symbol
_atom_site_label
_atom_site_fract_x
_atom_site_fract_y
_atom_site_fract_z
Si Si1 0.962908 0.063930 0.821511
Si Si2 0.221441 0.857384 0.735964
Si Si3 0.792602 0.571119 0.396077
Si Si4 0.254150 0.706892 0.020538
Si Si5 0.118359 0.580708 0.286024
Si Si6 0.620957 0.637098 0.827872
Si Si7 0.678786 0.900334 0.431966
Si Si8 0.537708 0.782525 0.496464
O O1 0.848514 0.966842 0.540664
O O2 0.147746 0.975782 0.783756
O O3 0.854664 0.102741 0.033566
O O4 0.921516 0.194055 0.918633
O O5 0.154669 0.719306 0.457638
O O6 0.438405 0.833677 0.726994
O O7 0.801484 0.421285 0.133327
O O8 0.707016 0.609454 0.619966
O O9 0.656416 0.647636 0.347761
O O10 0.991477 0.604500 0.461292
O O11 0.400794 0.667326 0.840368
O O12 0.378735 0.766235 0.290628
O O13 0.300678 0.484107 0.229485
O O14 0.000000 0.500000 0.000000
O O15 0.685717 0.764853 0.123498
O O16 0.665372 0.869751 0.580925
O O17 0.500000 0.000000 0.500000
#
# Coordination Sequence:
#
# PCOD9057269 Si02
#       8
#     2   2   2   2   2   2   2   2
#     4  11  23  45  65  92 143 176 219 274 331 393
#     4  11  25  43  66 100 133 178 222 275 330 392
#     4  12  24  41  68 102 131 172 227 275 331 390
#     4  11  22  42  65  96 134 174 214 275 333 398
#     4  12  24  45  68  98 138 176 223 277 330 391
#     4  11  23  41  68  97 132 174 219 279 332 391
#     4  11  23  47  67  97 131 174 223 271 336 396
#     4  11  23  41  68  97 128 175 224 271 333 394
#
# _framework density 26.446532000000001
#
# number of rings (size 3 to 8) (size 9 to 14) (size 15 to 20)
#    0.000    0.750    2.500    7.125    0.000    1.000 
#    6.750    0.000    0.000    0.000    0.000    0.000 
#    0.000    0.000    0.000    0.000    0.000    0.000 
#
# Total GULP energy -89718.393339 kJ/mol
# GULP energy per Si atom -5607.399584 kJ/mol
# Density = 2.638634 g / cm^3
# Si number density = 26.446532 Si / 1000 Ang^3
#
#
#
# Elastic Constant Matrix: (Units=GPa)
#
#
# Indices 1 2 3 4 5 6 
#
# 1 83.4452 24.9022 28.2488 19.3037 -22.8151 13.2798
# 2 24.9022 136.2018 37.6043 57.0391 -18.1560 -19.6763
# 3 28.2488 37.6043 133.3709 22.7755 -10.1125 -1.4246
# 4 19.3037 57.0391 22.7755 56.2874 4.1509 -10.2409
# 5 -22.8151 -18.1560 -10.1125 4.1509 47.6450 3.5026
# 6 13.2798 -19.6763 -1.4246 -10.2409 3.5026 45.5145
#
#
#
# Elastic Compliance Matrix: (Units=1/GPa)
#
#
# Indices 1 2 3 4 5 6 
#
# 1 0.018342 0.001093 -0.002020 -0.008723 0.010096 -0.007682
# 2 0.001093 0.015251 -0.001325 -0.015426 0.007236 0.002205
# 3 -0.002020 -0.001325 0.008590 -0.001492 0.000487 -0.000088
# 4 -0.008723 -0.015426 -0.001492 0.039080 -0.014197 0.005715
# 5 0.010096 0.007236 0.000487 -0.014197 0.030313 -0.005329
# 6 -0.007682 0.002205 -0.000088 0.005715 -0.005329 0.026859
#
#
# Mechanical properties :
#
#
# Convention : Reuss Voigt Hill
#
# Bulk Modulus (GPa) = 26.53936 59.39206 42.96571
# Shear Modulus (GPa) = 32.15427 47.37357 39.76392
#
# Velocity S-wave (km/s) = 3.49065 4.23696 3.88178
# Velocity P-wave (km/s) = 5.12865 6.81483 6.03096
#
# Compressibility (1/GPa) = 0.03767988
#
# Stress axis : x y z
#
# Youngs Moduli (GPa) = 54.51824 65.56765 116.41133
#
# Poissons Ratio (x) = -0.07169 0.23518
# Poissons Ratio (y) = -0.05961 0.15427
# Poissons Ratio (z) = 0.11014 0.08689
#
# Static dielectric constant tensor:
#      x y z
#    x 2.015240 0.031630 -0.025930 
#    y 0.031630 2.116220 -0.087680 
#    z -0.025930 -0.087680 2.105000 
# 
# From -- ./inp_files/209456.got.cif
#   From: 2010.05.17/outbox.cif.g08.bks.cpg/sg2_105_cif.got.tgz:209456.got - 2010.06.03 11:33:40.
