data_PCOD9057802
_publ_section_title
;
Structure prediction by ZEFSAII (Michael W. Deem and Ramdas Pophale) SiO2 
 PCOD9057802
Probable space group: P -1
;
_chemical_formula_sum "Si O2"
_cell_formula_units_Z 16
_cell_length_a 17.410605
_cell_length_b 8.852606
_cell_length_c 11.339482
_cell_angle_alpha 52.406659
_cell_angle_beta 140.369432
_cell_angle_gamma 98.738014
_cell_volume 686.632744
_symmetry_space_group_name_H-M "P -1"
_symmetry_group_IT_number 2
_symmetry_cell_setting 'triclinic'
loop_
_space_group_symop_operation_xyz
x,y,z
-x,-y,-z
loop_
_atom_site_type_symbol
_atom_site_label
_atom_site_fract_x
_atom_site_fract_y
_atom_site_fract_z
Si Si1 0.214465 0.396160 0.451509
Si Si2 0.142963 0.443291 0.773870
Si Si3 0.382418 0.858404 0.338818
Si Si4 0.958554 0.341624 0.193821
Si Si5 0.180934 0.649567 0.515599
Si Si6 0.627384 0.808817 0.484743
Si Si7 0.590255 0.270211 0.304286
Si Si8 0.893383 0.126203 0.032438
O O1 0.234117 0.432152 0.593059
O O2 0.366309 0.233543 0.627661
O O3 0.110794 0.311351 0.357517
O O4 0.120446 0.672281 0.159665
O O5 0.069841 0.608509 0.724849
O O6 0.226561 0.523974 0.757367
O O7 0.000000 0.500000 0.500000
O O8 0.270150 0.153387 0.089310
O O9 0.513151 0.792907 0.433501
O O10 0.446885 0.718281 0.606795
O O11 0.273266 0.803184 0.182203
O O12 0.963142 0.131837 0.235737
O O13 0.803552 0.591655 0.837127
O O14 0.244853 0.786374 0.480280
O O15 0.999417 0.869362 0.212811
O O16 0.592159 0.061241 0.350268
O O17 0.500000 0.500000 0.000000
#
# Coordination Sequence:
#
# PCOD9057802 Si02
#       8
#     2   2   2   2   2   2   2   2
#     4  11  22  43  71 104 142 188 236 291 351 420
#     4  12  24  44  72 105 144 184 228 293 356 420
#     4  12  25  47  69 104 143 188 235 287 365 417
#     4  11  23  42  73 104 142 187 236 289 355 411
#     4  12  24  43  73 104 141 182 242 288 352 412
#     4  11  25  45  72  99 146 187 233 292 357 421
#     4  12  26  46  72 104 138 186 242 289 349 426
#     4  11  23  41  72 105 137 182 240 297 340 417
#
# _framework density 23.302121
#
# number of rings (size 3 to 8) (size 9 to 14) (size 15 to 20)
#    0.000    0.500    5.000    4.500    1.750    2.500 
#    0.000    2.500    0.000    0.000    0.000    0.000 
#    0.000    0.000    0.000    0.000    0.000    0.000 
#
# Total GULP energy -89475.219957 kJ/mol
# GULP energy per Si atom -5592.201247 kJ/mol
# Density = 2.324908 g / cm^3
# Si number density = 23.302121 Si / 1000 Ang^3
#
#
#
# Elastic Constant Matrix: (Units=GPa)
#
#
# Indices 1 2 3 4 5 6 
#
# 1 200.2606 74.1316 36.6538 7.0697 4.4048 -12.5977
# 2 74.1316 94.4623 9.3496 3.9562 -3.7405 -0.7536
# 3 36.6538 9.3496 55.6480 0.2529 -5.2165 3.2978
# 4 7.0697 3.9562 0.2529 21.1073 -0.6461 -2.6221
# 5 4.4048 -3.7405 -5.2165 -0.6461 31.6129 1.3812
# 6 -12.5977 -0.7536 3.2978 -2.6221 1.3812 35.9362
#
#
#
# Elastic Compliance Matrix: (Units=1/GPa)
#
#
# Indices 1 2 3 4 5 6 
#
# 1 0.008551 -0.006246 -0.005051 -0.001307 -0.002937 0.003348
# 2 -0.006246 0.015442 0.001947 -0.001009 0.003096 -0.002237
# 3 -0.005051 0.001947 0.021634 0.000734 0.004687 -0.003842
# 4 -0.001307 -0.001009 0.000734 0.048393 0.001044 0.002944
# 5 -0.002937 0.003096 0.004687 0.001044 0.033316 -0.002599
# 6 0.003348 -0.002237 -0.003842 0.002944 -0.002599 0.029621
#
#
# Mechanical properties :
#
#
# Convention : Reuss Voigt Hill
#
# Bulk Modulus (GPa) = 37.13723 65.62677 51.38200
# Shear Modulus (GPa) = 27.08079 33.08035 30.08057
#
# Velocity S-wave (km/s) = 3.41274 3.77188 3.59680
# Velocity P-wave (km/s) = 5.61257 6.86979 6.27276
#
# Compressibility (1/GPa) = 0.02692715
#
# Stress axis : x y z
#
# Youngs Moduli (GPa) = 116.94070 64.75810 46.22448
#
# Poissons Ratio (x) = 0.40447 0.23348
# Poissons Ratio (y) = 0.73039 -0.08999
# Poissons Ratio (z) = 0.59066 -0.12607
#
# Static dielectric constant tensor:
#      x y z
#    x 1.910600 -0.006060 0.013070 
#    y -0.006060 1.932380 0.080820 
#    z 0.013070 0.080820 1.952420 
# 
# From -- ./inp_files/461921.got.cif
#   From: 2010.05.17/outbox.cif.g08.bks.cpg/sg2_231_cif.got.tgz:461921.got - 2010.06.03 11:33:40.
