data_PCOD9057921
_publ_section_title
;
Structure prediction by ZEFSAII (Michael W. Deem and Ramdas Pophale) SiO2 
 PCOD9057921
Probable space group: P -1
;
_chemical_formula_sum "Si O2"
_cell_formula_units_Z 16
_cell_length_a 20.015187
_cell_length_b 6.212680
_cell_length_c 9.327113
_cell_angle_alpha 78.573464
_cell_angle_beta 38.911670
_cell_angle_gamma 70.592587
_cell_volume 683.520933
_symmetry_space_group_name_H-M "P -1"
_symmetry_group_IT_number 2
_symmetry_cell_setting 'triclinic'
loop_
_space_group_symop_operation_xyz
x,y,z
-x,-y,-z
loop_
_atom_site_type_symbol
_atom_site_label
_atom_site_fract_x
_atom_site_fract_y
_atom_site_fract_z
Si Si1 0.170999 0.320530 0.827566
Si Si2 0.229866 0.671230 0.463809
Si Si3 0.725290 0.650403 0.820772
Si Si4 0.006151 0.045636 0.154313
Si Si5 0.414272 0.727524 0.675549
Si Si6 0.316574 0.012267 0.404894
Si Si7 0.487810 0.999942 0.742490
Si Si8 0.186591 0.603200 0.034467
O O1 0.181806 0.507019 0.667435
O O2 0.238693 0.091457 0.661709
O O3 0.211883 0.412981 0.891340
O O4 0.058071 0.258743 0.058381
O O5 0.283844 0.547305 0.246638
O O6 0.118763 0.874757 0.589341
O O7 0.318339 0.756760 0.396336
O O8 0.736374 0.841306 0.664703
O O9 0.616634 0.783561 0.074440
O O10 0.821449 0.532069 0.787808
O O11 0.083276 0.815330 0.130374
O O12 0.000000 0.000000 0.000000
O O13 0.500000 0.500000 0.500000
O O14 0.435467 0.924787 0.512857
O O15 0.291836 0.700447 0.872554
O O16 0.446137 0.798438 0.770285
O O17 0.431965 0.058965 0.246549
#
# Coordination Sequence:
#
# PCOD9057921 Si02
#       8
#     2   2   2   2   2   2   2   2
#     4  11  22  43  75 101 134 167 236 286 344 398
#     4  11  25  46  69 103 138 180 234 283 343 412
#     4  11  28  44  64 102 146 186 226 277 349 414
#     4  12  24  44  75 105 130 177 234 293 344 400
#     4  11  23  42  71 105 138 171 235 288 342 399
#     4  11  24  44  70 100 141 182 230 281 338 412
#     4  11  24  43  69 102 136 186 230 283 339 407
#     4  12  26  43  71 105 138 181 226 290 345 406
#
# _framework density 23.408208999999999
#
# number of rings (size 3 to 8) (size 9 to 14) (size 15 to 20)
#    0.000    0.750    3.750    3.000    5.250    2.000 
#    0.000    1.250    0.000    0.000    0.000    0.000 
#    0.000    0.000    0.000    0.000    0.000    0.000 
#
# Total GULP energy -89386.324516 kJ/mol
# GULP energy per Si atom -5586.645282 kJ/mol
# Density = 2.335493 g / cm^3
# Si number density = 23.408209 Si / 1000 Ang^3
#
#
#
# Elastic Constant Matrix: (Units=GPa)
#
#
# Indices 1 2 3 4 5 6 
#
# 1 152.3174 68.2146 38.9201 0.7468 6.8295 13.0532
# 2 68.2146 76.8253 30.6743 4.7570 9.0407 7.4954
# 3 38.9201 30.6743 49.9690 9.0736 7.9998 22.7443
# 4 0.7468 4.7570 9.0736 42.6339 1.1940 8.1346
# 5 6.8295 9.0407 7.9998 1.1940 29.3663 -5.0223
# 6 13.0532 7.4954 22.7443 8.1346 -5.0223 44.3667
#
#
#
# Elastic Compliance Matrix: (Units=1/GPa)
#
#
# Indices 1 2 3 4 5 6 
#
# 1 0.011482 -0.008831 -0.003972 0.001604 0.001061 -0.000024
# 2 -0.008831 0.024482 -0.008873 -0.001179 -0.002515 0.002942
# 3 -0.003972 -0.008873 0.038820 -0.003552 -0.009801 -0.017691
# 4 0.001604 -0.001179 -0.003552 0.024920 -0.000583 -0.003087
# 5 0.001061 -0.002515 -0.009801 -0.000583 0.038924 0.009650
# 6 -0.000024 0.002942 -0.017691 -0.003087 0.009650 0.032777
#
#
# Mechanical properties :
#
#
# Convention : Reuss Voigt Hill
#
# Bulk Modulus (GPa) = 31.81554 61.63664 46.72609
# Shear Modulus (GPa) = 22.19908 32.69357 27.44633
#
# Velocity S-wave (km/s) = 3.08286 3.74126 3.42791
# Velocity P-wave (km/s) = 5.12769 6.71201 5.97262
#
# Compressibility (1/GPa) = 0.03143118
#
# Stress axis : x y z
#
# Youngs Moduli (GPa) = 87.09609 40.84614 25.75994
#
# Poissons Ratio (x) = 0.36069 0.10233
# Poissons Ratio (y) = 0.76910 0.22857
# Poissons Ratio (z) = 0.34599 0.36244
#
# Static dielectric constant tensor:
#      x y z
#    x 1.922180 -0.036320 0.005600 
#    y -0.036320 1.936290 -0.009660 
#    z 0.005600 -0.009660 1.877660 
# 
# From -- ./inp_files/106893.got.cif
#   From: 2010.05.17/outbox.cif.g08.bks.cpg/sg2_54_cif.got.tgz:106893.got - 2010.06.03 11:33:40.
