data_PCOD9057557
_publ_section_title
;
Structure prediction by ZEFSAII (Michael W. Deem and Ramdas Pophale) SiO2 
 PCOD9057557
Probable space group: P -1
;
_chemical_formula_sum "Si O2"
_cell_formula_units_Z 14
_cell_length_a 16.355244
_cell_length_b 7.084619
_cell_length_c 7.379467
_cell_angle_alpha 98.885832
_cell_angle_beta 91.494214
_cell_angle_gamma 38.316824
_cell_volume 517.431917
_symmetry_space_group_name_H-M "P -1"
_symmetry_group_IT_number 2
_symmetry_cell_setting 'triclinic'
loop_
_space_group_symop_operation_xyz
x,y,z
-x,-y,-z
loop_
_atom_site_type_symbol
_atom_site_label
_atom_site_fract_x
_atom_site_fract_y
_atom_site_fract_z
Si Si1 0.165771 0.352571 0.646770
Si Si2 0.832752 0.070075 0.940308
Si Si3 0.640361 0.351738 0.676204
Si Si4 0.115746 0.574265 0.042943
Si Si5 0.392919 0.575048 0.727881
Si Si6 0.308729 0.410447 0.491044
Si Si7 0.039420 0.170923 0.567405
O O1 0.278354 0.248714 0.512921
O O2 0.104688 0.256649 0.608505
O O3 0.033539 0.712678 0.613972
O O4 0.207536 0.311013 0.852392
O O5 0.773583 0.081144 0.759795
O O6 0.846919 0.272559 0.953730
O O7 0.723243 0.213512 0.103028
O O8 0.975376 0.756717 0.981359
O O9 0.520766 0.458455 0.776172
O O10 0.639359 0.284538 0.456131
O O11 0.630976 0.601144 0.687936
O O12 0.080920 0.617852 0.259601
O O13 0.402704 0.332013 0.639725
O O14 0.163161 0.794887 0.548476
#
# Coordination Sequence:
#
# PCOD9057557 Si02
#       7
#     2   2   2   2   2   2   2
#     4  11  22  34  52  78 108 142 175 213 263 314
#     4  11  18  29  54  81 103 144 174 209 269 311
#     4   9  18  31  53  78 107 135 179 223 254 309
#     4  11  19  32  50  77 111 136 173 213 260 319
#     4   9  18  32  50  79 107 134 182 220 256 305
#     4  10  17  37  53  75 105 135 172 221 259 304
#     4  11  22  34  52  78 108 142 175 213 263 314
#
# _framework density 27.056698999999998
#
# number of rings (size 3 to 8) (size 9 to 14) (size 15 to 20)
#    0.857    0.857    2.857    3.857    0.000    0.000 
#    0.000    1.429    0.000    3.429    0.000    2.000 
#    0.000    0.000    0.000    0.000    0.000    0.000 
#
# Total GULP energy -77985.175388 kJ/mol
# GULP energy per Si atom -5570.369671 kJ/mol
# Density = 2.699512 g / cm^3
# Si number density = 27.056699 Si / 1000 Ang^3
#
#
#
# Elastic Constant Matrix: (Units=GPa)
#
#
# Indices 1 2 3 4 5 6 
#
# 1 245.5554 52.9744 32.9666 -2.1169 -37.5771 5.9818
# 2 52.9744 38.0395 11.3375 -10.3279 -4.8332 0.2227
# 3 32.9666 11.3375 150.0421 6.7410 -2.7261 -5.4651
# 4 -2.1169 -10.3279 6.7410 20.1990 -13.1844 4.0677
# 5 -37.5771 -4.8332 -2.7261 -13.1844 43.3328 6.6936
# 6 5.9818 0.2227 -5.4651 4.0677 6.6936 52.0869
#
#
#
# Elastic Compliance Matrix: (Units=1/GPa)
#
#
# Indices 1 2 3 4 5 6 
#
# 1 0.006886 -0.008525 -0.000849 0.000450 0.005346 -0.001565
# 2 -0.008525 0.048263 -0.003102 0.030257 0.007445 -0.002872
# 3 -0.000849 -0.003102 0.007382 -0.006324 -0.002811 0.001740
# 4 0.000450 0.030257 -0.006324 0.091115 0.032974 -0.012198
# 5 0.005346 0.007445 -0.002811 0.032974 0.039731 -0.008621
# 6 -0.001565 -0.002872 0.001740 -0.012198 -0.008621 0.021634
#
#
# Mechanical properties :
#
#
# Convention : Reuss Voigt Hill
#
# Bulk Modulus (GPa) = 26.61145 69.79933 48.20539
# Shear Modulus (GPa) = 19.80277 45.54765 32.67521
#
# Velocity S-wave (km/s) = 2.70830 4.10740 3.47891
# Velocity P-wave (km/s) = 4.43132 6.95325 5.83028
#
# Compressibility (1/GPa) = 0.03757781
#
# Stress axis : x y z
#
# Youngs Moduli (GPa) = 145.23062 20.71964 135.46159
#
# Poissons Ratio (x) = 0.17664 0.11498
# Poissons Ratio (y) = 1.23815 0.42026
# Poissons Ratio (z) = 0.12327 0.06428
#
# Static dielectric constant tensor:
#      x y z
#    x 2.067730 0.033350 -0.048900 
#    y 0.033350 2.351390 0.070090 
#    z -0.048900 0.070090 2.217230 
# 
# From -- ./inp_files/292562.got.cif
#   From: 2010.05.17/outbox.cif.g08.bks.cpg/sg2_147_cif.got.tgz:292562.got - 2010.06.03 11:33:40.
