data_PCOD9057974
_publ_section_title
;
Structure prediction by ZEFSAII (Michael W. Deem and Ramdas Pophale) SiO2 
 PCOD9057974
Probable space group: P -1
;
_chemical_formula_sum "Si O2"
_cell_formula_units_Z 14
_cell_length_a 9.003816
_cell_length_b 13.892195
_cell_length_c 10.004472
_cell_angle_alpha 57.021424
_cell_angle_beta 40.606263
_cell_angle_gamma 79.559108
_cell_volume 618.473669
_symmetry_space_group_name_H-M "P -1"
_symmetry_group_IT_number 2
_symmetry_cell_setting 'triclinic'
loop_
_space_group_symop_operation_xyz
x,y,z
-x,-y,-z
loop_
_atom_site_type_symbol
_atom_site_label
_atom_site_fract_x
_atom_site_fract_y
_atom_site_fract_z
Si Si1 0.202320 0.565595 0.638908
Si Si2 0.519596 0.020858 0.632091
Si Si3 0.025057 0.753620 0.730327
Si Si4 0.761612 0.682338 0.228154
Si Si5 0.214575 0.639103 0.277505
Si Si6 0.994315 0.839597 0.203522
Si Si7 0.283067 0.185787 0.320609
O O1 0.023649 0.618916 0.792990
O O2 0.463382 0.606047 0.509946
O O3 0.271872 0.637629 0.395593
O O4 0.887963 0.582246 0.220873
O O5 0.640774 0.928609 0.675871
O O6 0.500000 0.000000 0.500000
O O7 0.704415 0.158218 0.456543
O O8 0.237497 0.971449 0.918774
O O9 0.944348 0.812312 0.614165
O O10 0.828283 0.739284 0.992332
O O11 0.873873 0.788239 0.181951
O O12 0.100291 0.738949 0.253389
O O13 0.000000 0.500000 0.500000
O O14 0.469555 0.685516 0.980768
O O15 0.797471 0.832107 0.456525
#
# Coordination Sequence:
#
# PCOD9057974 Si02
#       7
#     2   2   2   2   2   2   2
#     4  11  24  42  68 101 132 180 221 274 335 396
#     4  11  26  45  69 101 134 173 232 282 322 398
#     4  12  24  46  69  96 137 182 221 275 334 396
#     4  11  24  43  67 100 140 170 224 278 329 401
#     4  11  22  44  66  98 139 171 225 277 326 407
#     4  11  24  44  69  99 132 178 224 275 335 395
#     4  11  26  44  69 100 133 180 224 271 345 390
#
# _framework density 22.636372000000001
#
# number of rings (size 3 to 8) (size 9 to 14) (size 15 to 20)
#    0.000    0.857    5.714    0.857    2.000    2.857 
#    5.143    0.000    0.000    0.000    0.000    0.000 
#    0.000    0.000    0.000    0.000    0.000    0.000 
#
# Total GULP energy -78289.731865 kJ/mol
# GULP energy per Si atom -5592.123705 kJ/mol
# Density = 2.258485 g / cm^3
# Si number density = 22.636372 Si / 1000 Ang^3
#
#
#
# Elastic Constant Matrix: (Units=GPa)
#
#
# Indices 1 2 3 4 5 6 
#
# 1 74.2268 35.0699 5.3268 6.5542 1.1319 2.4513
# 2 35.0699 89.5495 18.1107 2.8829 -2.8975 2.8838
# 3 5.3268 18.1107 110.9631 15.0999 -2.0466 24.3632
# 4 6.5542 2.8829 15.0999 36.0910 6.2261 3.6546
# 5 1.1319 -2.8975 -2.0466 6.2261 37.3920 -6.5429
# 6 2.4513 2.8838 24.3632 3.6546 -6.5429 27.9800
#
#
#
# Elastic Compliance Matrix: (Units=1/GPa)
#
#
# Indices 1 2 3 4 5 6 
#
# 1 0.016857 -0.006687 0.000945 -0.002639 -0.000791 -0.001451
# 2 -0.006687 0.014242 -0.002385 0.000707 0.001304 0.001407
# 3 0.000945 -0.002385 0.012068 -0.003907 -0.000650 -0.009987
# 4 -0.002639 0.000707 -0.003907 0.030899 -0.005534 -0.001770
# 5 -0.000791 0.001304 -0.000650 -0.005534 0.029162 0.008043
# 6 -0.001451 0.001407 -0.009987 -0.001770 0.008043 0.046530
#
#
# Mechanical properties :
#
#
# Convention : Reuss Voigt Hill
#
# Bulk Modulus (GPa) = 37.15373 43.52824 40.34099
# Shear Modulus (GPa) = 28.57457 34.70808 31.64133
#
# Velocity S-wave (km/s) = 3.55678 3.91997 3.74278
# Velocity P-wave (km/s) = 5.77205 6.30550 6.04466
#
# Compressibility (1/GPa) = 0.02691519
#
# Stress axis : x y z
#
# Youngs Moduli (GPa) = 59.32399 70.21474 82.86219
#
# Poissons Ratio (x) = 0.46949 -0.07833
# Poissons Ratio (y) = 0.39667 0.19759
# Poissons Ratio (z) = -0.05608 0.16743
#
# Static dielectric constant tensor:
#      x y z
#    x 1.840700 -0.015760 -0.008280 
#    y -0.015760 1.813330 -0.004250 
#    z -0.008280 -0.004250 1.853080 
# 
# From -- ./inp_files/88607.got.cif
#   From: 2010.05.17/outbox.cif.g08.bks.cpg/sg2_45_cif.got.tgz:88607.got - 2010.06.03 11:33:40.
