data_PCOD9057515
_publ_section_title
;
Structure prediction by ZEFSAII (Michael W. Deem and Ramdas Pophale) SiO2 
 PCOD9057515
Probable space group: P -1
;
_chemical_formula_sum "Si O2"
_cell_formula_units_Z 16
_cell_length_a 7.818493
_cell_length_b 9.765635
_cell_length_c 13.703137
_cell_angle_alpha 90.281384
_cell_angle_beta 45.438840
_cell_angle_gamma 78.541247
_cell_volume 714.839321
_symmetry_space_group_name_H-M "P -1"
_symmetry_group_IT_number 2
_symmetry_cell_setting 'triclinic'
loop_
_space_group_symop_operation_xyz
x,y,z
-x,-y,-z
loop_
_atom_site_type_symbol
_atom_site_label
_atom_site_fract_x
_atom_site_fract_y
_atom_site_fract_z
Si Si1 0.273536 0.625191 0.131409
Si Si2 0.185207 0.861205 0.476125
Si Si3 0.788062 0.441662 0.631930
Si Si4 0.519986 0.260434 0.238142
Si Si5 0.599268 0.831940 0.064669
Si Si6 0.792882 0.858783 0.780242
Si Si7 0.587614 0.007533 0.353583
Si Si8 0.979987 0.799871 0.083609
O O1 0.159620 0.582050 0.274427
O O2 0.405626 0.744301 0.113606
O O3 0.078644 0.675531 0.122485
O O4 0.500000 0.500000 0.000000
O O5 0.208443 0.710446 0.415659
O O6 0.062516 0.860352 0.632308
O O7 0.443070 0.899106 0.368340
O O8 0.000000 0.000000 0.500000
O O9 0.532849 0.571069 0.720188
O O10 0.000000 0.500000 0.500000
O O11 0.302189 0.248526 0.250731
O O12 0.502535 0.163578 0.338576
O O13 0.777568 0.194992 0.076208
O O14 0.779946 0.782215 0.083923
O O15 0.420189 0.991831 0.151433
O O16 0.775293 0.825336 0.899928
O O17 0.500000 0.000000 0.500000
O O18 0.866582 0.936494 0.200271
#
# Coordination Sequence:
#
# PCOD9057515 Si02
#       8
#     2   2   2   2   2   2   2   2
#     4  12  26  48  73 105 149 199 248 301 377 444
#     4  12  24  46  72 105 146 193 250 298 372 449
#     4  12  25  45  77 107 147 194 245 308 379 441
#     4  12  24  49  71 110 146 195 246 310 374 439
#     4  11  25  43  73 109 142 195 250 305 368 437
#     4  11  22  42  72 107 144 187 250 305 371 434
#     4  12  29  45  72 111 148 196 248 308 374 440
#     4  12  26  47  75 109 149 189 256 307 365 452
#
# _framework density 22.382653000000001
#
# number of rings (size 3 to 8) (size 9 to 14) (size 15 to 20)
#    0.000    0.250    6.250    1.875    7.000    0.500 
#    2.250    0.625    0.000    0.000    0.000    0.000 
#    0.000    0.000    0.000    0.000    0.000    0.000 
#
# Total GULP energy -89446.205491 kJ/mol
# GULP energy per Si atom -5590.387843 kJ/mol
# Density = 2.233171 g / cm^3
# Si number density = 22.382653 Si / 1000 Ang^3
#
#
#
# Elastic Constant Matrix: (Units=GPa)
#
#
# Indices 1 2 3 4 5 6 
#
# 1 98.7699 46.0611 39.7980 -6.0442 24.5966 -27.9800
# 2 46.0611 142.2999 46.6180 10.3921 21.7902 -8.0122
# 3 39.7980 46.6180 169.8968 -18.9969 30.7534 -20.5817
# 4 -6.0442 10.3921 -18.9969 46.9589 -4.4321 5.3052
# 5 24.5966 21.7902 30.7534 -4.4321 38.3373 -12.8129
# 6 -27.9800 -8.0122 -20.5817 5.3052 -12.8129 35.2566
#
#
#
# Elastic Compliance Matrix: (Units=1/GPa)
#
#
# Indices 1 2 3 4 5 6 
#
# 1 0.016089 -0.003896 -0.000620 0.001177 -0.004193 0.009821
# 2 -0.003896 0.009393 -0.001873 -0.003298 -0.002547 -0.002480
# 3 -0.000620 -0.001873 0.007784 0.002919 -0.003847 0.001790
# 4 0.001177 -0.003298 0.002919 0.023603 0.001082 -0.001270
# 5 -0.004193 -0.002547 -0.003847 0.001082 0.035653 0.006642
# 6 0.009821 -0.002480 0.001790 -0.001270 0.006642 0.039243
#
#
# Mechanical properties :
#
#
# Convention : Reuss Voigt Hill
#
# Bulk Modulus (GPa) = 48.80392 75.10230 61.95311
# Shear Modulus (GPa) = 33.03092 42.67653 37.85373
#
# Velocity S-wave (km/s) = 3.84570 4.37129 4.11689
# Velocity P-wave (km/s) = 6.44755 7.68793 7.09490
#
# Compressibility (1/GPa) = 0.02049016
#
# Stress axis : x y z
#
# Youngs Moduli (GPa) = 62.15319 106.45842 128.46058
#
# Poissons Ratio (x) = 0.41475 0.07959
# Poissons Ratio (y) = 0.24214 0.24060
# Poissons Ratio (z) = 0.03851 0.19939
#
# Static dielectric constant tensor:
#      x y z
#    x 2.052190 0.126460 -0.108160 
#    y 0.126460 1.984250 0.004500 
#    z -0.108160 0.004500 1.978640 
# 
# From -- ./inp_files/495018.got.cif
#   From: 2010.05.17/outbox.cif.g08.bks.cpg/sg2_248_cif.got.tgz:495018.got - 2010.06.03 11:33:40.
