data_PCOD9057508
_publ_section_title
;
Structure prediction by ZEFSAII (Michael W. Deem and Ramdas Pophale) SiO2 
 PCOD9057508
Probable space group: P -1
;
_chemical_formula_sum "Si O2"
_cell_formula_units_Z 14
_cell_length_a 17.119470
_cell_length_b 11.706114
_cell_length_c 9.563509
_cell_angle_alpha 87.915077
_cell_angle_beta 70.175726
_cell_angle_gamma 149.619436
_cell_volume 658.773180
_symmetry_space_group_name_H-M "P -1"
_symmetry_group_IT_number 2
_symmetry_cell_setting 'triclinic'
loop_
_space_group_symop_operation_xyz
x,y,z
-x,-y,-z
loop_
_atom_site_type_symbol
_atom_site_label
_atom_site_fract_x
_atom_site_fract_y
_atom_site_fract_z
Si Si1 0.976735 0.672726 0.280220
Si Si2 0.543958 0.093470 0.732016
Si Si3 0.715733 0.763691 0.755500
Si Si4 0.693275 0.475525 0.817957
Si Si5 0.145142 0.908295 0.578381
Si Si6 0.022840 0.393617 0.021134
Si Si7 0.280305 0.909195 0.264826
O O1 0.708935 0.318603 0.488791
O O2 0.024600 0.737744 0.085091
O O3 0.082560 0.910695 0.298706
O O4 0.107950 0.730154 0.258732
O O5 0.548539 0.219302 0.803778
O O6 0.290833 0.725809 0.878696
O O7 0.674027 0.165691 0.743693
O O8 0.758447 0.684220 0.718316
O O9 0.690114 0.791512 0.618151
O O10 0.500000 0.500000 0.000000
O O11 0.907459 0.671106 0.713603
O O12 0.525667 0.274237 0.059859
O O13 0.186641 0.847760 0.464199
O O14 0.136130 0.855564 0.746126
O O15 0.000000 0.500000 0.000000
#
# Coordination Sequence:
#
# PCOD9057508 Si02
#       7
#     2   2   2   2   2   2   2
#     4  11  24  43  69 102 139 184 225 288 349 402
#     4  12  24  41  73 105 138 183 230 289 349 415
#     4  11  23  46  73  98 137 181 247 288 325 403
#     4  12  22  40  73 102 129 179 239 287 333 392
#     4  11  24  43  71 102 135 187 227 287 339 411
#     4  12  27  44  66 106 152 176 223 284 365 422
#     4  11  22  42  72 103 136 174 241 286 340 404
#
# _framework density 21.251624
#
# number of rings (size 3 to 8) (size 9 to 14) (size 15 to 20)
#    0.000    0.571    7.143    3.429    2.000    0.000 
#    0.000    1.429    0.000    0.000    0.000    0.000 
#    0.000    0.000    0.000    0.000    0.000    0.000 
#
# Total GULP energy -78159.577989 kJ/mol
# GULP energy per Si atom -5582.826999 kJ/mol
# Density = 2.120325 g / cm^3
# Si number density = 21.251624 Si / 1000 Ang^3
#
#
#
# Elastic Constant Matrix: (Units=GPa)
#
#
# Indices 1 2 3 4 5 6 
#
# 1 116.6738 39.1847 40.5144 9.7869 9.2611 -30.6721
# 2 39.1847 56.6198 24.9207 14.1997 10.8133 -14.1825
# 3 40.5144 24.9207 172.8380 12.9346 18.6141 2.7877
# 4 9.7869 14.1997 12.9346 38.2863 6.0823 3.8517
# 5 9.2611 10.8133 18.6141 6.0823 46.8948 -7.8961
# 6 -30.6721 -14.1825 2.7877 3.8517 -7.8961 30.9753
#
#
#
# Elastic Compliance Matrix: (Units=1/GPa)
#
#
# Indices 1 2 3 4 5 6 
#
# 1 0.015042 -0.005488 -0.002990 -0.002486 0.002075 0.013490
# 2 -0.005488 0.026578 -0.001832 -0.008265 -0.001997 0.007418
# 3 -0.002990 -0.001832 0.007123 -0.000023 -0.002673 -0.005119
# 4 -0.002486 -0.008265 -0.000023 0.031504 -0.003543 -0.011065
# 5 0.002075 -0.001997 -0.002673 -0.003543 0.024243 0.008002
# 6 0.013490 0.007418 -0.005119 -0.011065 0.008002 0.052914
#
#
# Mechanical properties :
#
#
# Convention : Reuss Voigt Hill
#
# Bulk Modulus (GPa) = 35.55676 61.70794 48.63235
# Shear Modulus (GPa) = 26.68102 39.33208 33.00655
#
# Velocity S-wave (km/s) = 3.54712 4.30674 3.94525
# Velocity P-wave (km/s) = 5.79169 7.33693 6.60962
#
# Compressibility (1/GPa) = 0.02812405
#
# Stress axis : x y z
#
# Youngs Moduli (GPa) = 66.47890 37.62447 140.39218
#
# Poissons Ratio (x) = 0.20649 0.41973
# Poissons Ratio (y) = 0.36485 0.25718
# Poissons Ratio (z) = 0.19875 0.06892
#
# Static dielectric constant tensor:
#      x y z
#    x 1.781330 -0.002550 0.014890 
#    y -0.002550 1.760600 -0.020140 
#    z 0.014890 -0.020140 1.848840 
# 
# From -- ./inp_files/332048.got.cif
#   From: 2010.05.17/outbox.cif.g08.bks.cpg/sg2_167_cif.got.tgz:332048.got - 2010.06.03 11:33:40.
