data_PCOD9057375
_publ_section_title
;
Structure prediction by ZEFSAII (Michael W. Deem and Ramdas Pophale) SiO2 
 PCOD9057375
Probable space group: P -1
;
_chemical_formula_sum "Si O2"
_cell_formula_units_Z 14
_cell_length_a 11.348974
_cell_length_b 11.707441
_cell_length_c 10.126130
_cell_angle_alpha 139.413477
_cell_angle_beta 107.168493
_cell_angle_gamma 104.638658
_cell_volume 536.435382
_symmetry_space_group_name_H-M "P -1"
_symmetry_group_IT_number 2
_symmetry_cell_setting 'triclinic'
loop_
_space_group_symop_operation_xyz
x,y,z
-x,-y,-z
loop_
_atom_site_type_symbol
_atom_site_label
_atom_site_fract_x
_atom_site_fract_y
_atom_site_fract_z
Si Si1 0.266742 0.709017 0.025863
Si Si2 0.112581 0.017226 0.442169
Si Si3 0.193430 0.463993 0.282719
Si Si4 0.725775 0.173933 0.586623
Si Si5 0.707959 0.594049 0.377588
Si Si6 0.549255 0.844861 0.881574
Si Si7 0.142436 0.904370 0.986759
O O1 0.202904 0.640463 0.096977
O O2 0.495644 0.929478 0.299372
O O3 0.228682 0.855565 0.075760
O O4 0.187593 0.468891 0.696017
O O5 0.195696 0.932376 0.457857
O O6 0.288126 0.298350 0.666359
O O7 0.000000 0.000000 0.500000
O O8 0.947831 0.802402 0.088675
O O9 0.212748 0.666117 0.387161
O O10 0.402045 0.615776 0.517075
O O11 0.083487 0.366573 0.299296
O O12 0.517760 0.318826 0.149239
O O13 0.799729 0.836905 0.721076
O O14 0.760165 0.032983 0.064811
O O15 0.500000 0.000000 0.000000
#
# Coordination Sequence:
#
# PCOD9057375 Si02
#       7
#     2   2   2   2   2   2   2
#     4  11  22  43  70  98 141 180 232 284 347 411
#     4  11  25  40  67 109 141 181 231 280 353 416
#     4  11  24  43  71  99 138 184 227 285 347 409
#     4  11  22  42  69 100 143 182 223 291 349 409
#     4  11  24  44  68  97 140 180 233 286 340 412
#     4  12  25  47  71  98 137 185 235 287 346 406
#     4  11  24  45  66 103 133 181 233 279 347 408
#
# _framework density 26.098201
#
# number of rings (size 3 to 8) (size 9 to 14) (size 15 to 20)
#    0.000    0.857    5.714    1.714    2.000    4.571 
#    0.000    2.857    0.000    0.000    0.000    0.000 
#    0.000    0.000    0.000    0.000    0.000    0.000 
#
# Total GULP energy -78376.123976 kJ/mol
# GULP energy per Si atom -5598.294570 kJ/mol
# Density = 2.603880 g / cm^3
# Si number density = 26.098201 Si / 1000 Ang^3
#
#
#
# Elastic Constant Matrix: (Units=GPa)
#
#
# Indices 1 2 3 4 5 6 
#
# 1 136.9000 64.8542 39.4732 12.9039 -13.9655 8.5293
# 2 64.8542 184.8259 42.9090 33.4976 -9.3048 29.4345
# 3 39.4732 42.9090 73.1274 7.5638 0.1953 -5.4340
# 4 12.9039 33.4976 7.5638 56.7131 0.6620 12.4278
# 5 -13.9655 -9.3048 0.1953 0.6620 48.7751 1.7755
# 6 8.5293 29.4345 -5.4340 12.4278 1.7755 39.1957
#
#
#
# Elastic Compliance Matrix: (Units=1/GPa)
#
#
# Indices 1 2 3 4 5 6 
#
# 1 0.009859 -0.002159 -0.004127 -0.000195 0.002472 -0.001146
# 2 -0.002159 0.008578 -0.004004 -0.002808 0.001280 -0.005694
# 3 -0.004127 -0.004004 0.018836 -0.000679 -0.002260 0.006834
# 4 -0.000195 -0.002808 -0.000679 0.020394 -0.000706 -0.004377
# 5 0.002472 0.001280 -0.002260 -0.000706 0.021566 -0.002565
# 6 -0.001146 -0.005694 0.006834 -0.004377 -0.002565 0.032490
#
#
# Mechanical properties :
#
#
# Convention : Reuss Voigt Hill
#
# Bulk Modulus (GPa) = 59.90267 76.59181 68.24724
# Shear Modulus (GPa) = 36.26683 45.44458 40.85571
#
# Velocity S-wave (km/s) = 3.73182 4.17741 3.96088
# Velocity P-wave (km/s) = 6.44758 7.25802 6.86477
#
# Compressibility (1/GPa) = 0.01669375
#
# Stress axis : x y z
#
# Youngs Moduli (GPa) = 101.42716 116.57781 53.09059
#
# Poissons Ratio (x) = 0.25171 0.21908
# Poissons Ratio (y) = 0.21900 0.21257
# Poissons Ratio (z) = 0.41854 0.46677
#
# Static dielectric constant tensor:
#      x y z
#    x 2.005440 0.016020 -0.027310 
#    y 0.016020 2.039800 0.001690 
#    z -0.027310 0.001690 2.132080 
# 
# From -- ./inp_files/426980.got.cif
#   From: 2010.05.17/outbox.cif.g08.bks.cpg/sg2_214_cif.got.tgz:426980.got - 2010.06.03 11:33:40.
