data_PCOD9057824
_publ_section_title
;
Structure prediction by ZEFSAII (Michael W. Deem and Ramdas Pophale) SiO2 
 PCOD9057824
Probable space group: P -1
;
_chemical_formula_sum "Si O2"
_cell_formula_units_Z 14
_cell_length_a 19.321074
_cell_length_b 9.017492
_cell_length_c 7.358358
_cell_angle_alpha 58.456006
_cell_angle_beta 56.140356
_cell_angle_gamma 28.354710
_cell_volume 503.854976
_symmetry_space_group_name_H-M "P -1"
_symmetry_group_IT_number 2
_symmetry_cell_setting 'triclinic'
loop_
_space_group_symop_operation_xyz
x,y,z
-x,-y,-z
loop_
_atom_site_type_symbol
_atom_site_label
_atom_site_fract_x
_atom_site_fract_y
_atom_site_fract_z
Si Si1 0.426512 0.686479 0.180113
Si Si2 0.669804 0.726325 0.595643
Si Si3 0.917322 0.524694 0.461457
Si Si4 0.288024 0.266649 0.850903
Si Si5 0.821745 0.136591 0.590520
Si Si6 0.665201 0.501520 0.098848
Si Si7 0.067484 0.172783 0.989629
O O1 0.317079 0.723615 0.384219
O O2 0.500000 0.500000 0.000000
O O3 0.552597 0.534792 0.230923
O O4 0.325797 0.028621 0.061135
O O5 0.751676 0.738009 0.578042
O O6 0.617765 0.910425 0.364797
O O7 0.780822 0.401873 0.530793
O O8 0.623154 0.679774 0.858470
O O9 0.915803 0.657807 0.207789
O O10 0.000000 0.500000 0.500000
O O11 0.021214 0.172068 0.536469
O O12 0.341372 0.348486 0.825327
O O13 0.106403 0.577788 0.910364
O O14 0.852140 0.987971 0.832103
O O15 0.832528 0.131925 0.082543
#
# Coordination Sequence:
#
# PCOD9057824 Si02
#       7
#     2   2   2   2   2   2   2
#     4  12  24  48  70  96 146 191 225 277 349 423
#     4  11  25  41  70 103 135 176 233 289 341 399
#     4  12  24  39  69 107 139 171 232 293 343 407
#     4  12  25  45  74 100 139 182 234 286 345 406
#     4  11  23  44  69  98 139 186 224 282 353 403
#     4  11  27  46  70 103 140 184 230 283 346 415
#     4  11  22  43  71  99 136 180 232 277 355 402
#
# _framework density 27.785774
#
# number of rings (size 3 to 8) (size 9 to 14) (size 15 to 20)
#    0.000    0.571    5.714    3.429    4.000    0.571 
#    0.000    0.714    0.000    0.000    0.000    0.000 
#    0.000    0.000    0.000    0.000    0.000    0.000 
#
# Total GULP energy -78371.229724 kJ/mol
# GULP energy per Si atom -5597.944980 kJ/mol
# Density = 2.772253 g / cm^3
# Si number density = 27.785774 Si / 1000 Ang^3
#
#
#
# Elastic Constant Matrix: (Units=GPa)
#
#
# Indices 1 2 3 4 5 6 
#
# 1 170.9915 18.7434 11.8624 5.1542 0.2408 -9.7797
# 2 18.7434 78.5918 23.6108 0.1059 -4.2563 -10.4089
# 3 11.8624 23.6108 84.9455 -14.3104 -3.9047 -9.2063
# 4 5.1542 0.1059 -14.3104 32.2803 -3.4345 -9.6668
# 5 0.2408 -4.2563 -3.9047 -3.4345 57.8704 6.4529
# 6 -9.7797 -10.4089 -9.2063 -9.6668 6.4529 36.3633
#
#
#
# Elastic Compliance Matrix: (Units=1/GPa)
#
#
# Indices 1 2 3 4 5 6 
#
# 1 0.006102 -0.001163 -0.000607 -0.000990 -0.000316 0.000947
# 2 -0.001163 0.014479 -0.003660 -0.000639 0.000490 0.002648
# 3 -0.000607 -0.003660 0.014763 0.008092 0.000702 0.004553
# 4 -0.000990 -0.000639 0.008092 0.038337 0.001493 0.011526
# 5 -0.000316 0.000490 0.000702 0.001493 0.017734 -0.002517
# 6 0.000947 0.002648 0.004553 0.011526 -0.002517 0.033177
#
#
# Mechanical properties :
#
#
# Convention : Reuss Voigt Hill
#
# Bulk Modulus (GPa) = 40.84444 49.21802 45.03123
# Shear Modulus (GPa) = 34.81531 43.99027 39.40279
#
# Velocity S-wave (km/s) = 3.54360 3.98325 3.76984
# Velocity P-wave (km/s) = 5.61021 6.23754 5.93218
#
# Compressibility (1/GPa) = 0.02448313
#
# Stress axis : x y z
#
# Youngs Moduli (GPa) = 163.87111 69.06494 67.73486
#
# Poissons Ratio (x) = 0.08033 0.04115
# Poissons Ratio (y) = 0.19061 0.24793
# Poissons Ratio (z) = 0.09955 0.25280
#
# Static dielectric constant tensor:
#      x y z
#    x 2.153250 -0.023330 0.103220 
#    y -0.023330 2.286580 0.070470 
#    z 0.103220 0.070470 2.305240 
# 
# From -- ./inp_files/183973.got.cif
#   From: 2010.05.17/outbox.cif.g08.bks.cpg/sg2_92_cif.got.tgz:183973.got - 2010.06.03 11:33:40.
