data_PCOD9057570
_publ_section_title
;
Structure prediction by ZEFSAII (Michael W. Deem and Ramdas Pophale) SiO2 
 PCOD9057570
Probable space group: P -1
;
_chemical_formula_sum "Si O2"
_cell_formula_units_Z 12
_cell_length_a 12.586799
_cell_length_b 9.183590
_cell_length_c 16.723769
_cell_angle_alpha 125.516136
_cell_angle_beta 156.720742
_cell_angle_gamma 43.489215
_cell_volume 499.139501
_symmetry_space_group_name_H-M "P -1"
_symmetry_group_IT_number 2
_symmetry_cell_setting 'triclinic'
loop_
_space_group_symop_operation_xyz
x,y,z
-x,-y,-z
loop_
_atom_site_type_symbol
_atom_site_label
_atom_site_fract_x
_atom_site_fract_y
_atom_site_fract_z
Si Si1 0.133204 0.597234 0.008511
Si Si2 0.375983 0.883317 0.631098
Si Si3 0.653706 0.512197 0.472098
Si Si4 0.607821 0.905414 0.955836
Si Si5 0.851962 0.015169 0.657913
Si Si6 0.848447 0.396627 0.163565
O O1 0.190302 0.361333 0.982870
O O2 0.177866 0.629677 0.957361
O O3 0.240515 0.219797 0.159664
O O4 0.412247 0.581380 0.251000
O O5 0.333897 0.685208 0.540554
O O6 0.146175 0.046602 0.453039
O O7 0.333616 0.972007 0.719759
O O8 0.473330 0.732710 0.473011
O O9 0.010491 0.458745 0.683356
O O10 0.840650 0.974445 0.111244
O O11 0.500000 0.000000 0.000000
O O12 0.886093 0.838605 0.685097
O O13 0.500000 0.500000 0.000000
#
# Coordination Sequence:
#
# PCOD9057570 Si02
#       6
#     2   2   2   2   2   2
#     4  11  22  44  73  97 136 179 227 279 331 404
#     4  11  22  42  75 105 128 174 233 279 332 402
#     4  11  22  43  73 101 129 181 232 276 329 406
#     4  11  23  42  68 104 140 171 222 286 341 392
#     4  12  23  41  70 101 134 180 230 270 335 406
#     4  12  28  44  62 100 145 181 221 280 340 395
#
# _framework density 24.041374999999999
#
# number of rings (size 3 to 8) (size 9 to 14) (size 15 to 20)
#    0.000    0.667    5.000    4.000    0.000    3.333 
#    0.000    3.333    0.000    0.000    0.000    0.000 
#    0.000    0.000    0.000    0.000    0.000    0.000 
#
# Total GULP energy -67264.530097 kJ/mol
# GULP energy per Si atom -5605.377508 kJ/mol
# Density = 2.398666 g / cm^3
# Si number density = 24.041375 Si / 1000 Ang^3
#
#
#
# Elastic Constant Matrix: (Units=GPa)
#
#
# Indices 1 2 3 4 5 6 
#
# 1 142.0390 33.9498 63.4360 7.9058 -12.7817 19.4813
# 2 33.9498 54.0262 5.3607 -0.6696 -17.8646 -3.5901
# 3 63.4360 5.3607 134.4724 15.3346 -13.3448 4.0018
# 4 7.9058 -0.6696 15.3346 27.2665 3.2588 -6.2385
# 5 -12.7817 -17.8646 -13.3448 3.2588 71.1477 -9.4208
# 6 19.4813 -3.5901 4.0018 -6.2385 -9.4208 33.7323
#
#
#
# Elastic Compliance Matrix: (Units=1/GPa)
#
#
# Indices 1 2 3 4 5 6 
#
# 1 0.012592 -0.008626 -0.005225 -0.002663 -0.001900 -0.008593
# 2 -0.008626 0.026595 0.003070 0.002870 0.006884 0.009902
# 3 -0.005225 0.003070 0.010407 -0.004076 0.002233 0.001980
# 4 -0.002663 0.002870 -0.004076 0.042192 -0.001156 0.009807
# 5 -0.001900 0.006884 0.002233 -0.001156 0.016711 0.006018
# 6 -0.008593 0.009902 0.001980 0.009807 0.006018 0.038922
#
#
# Mechanical properties :
#
#
# Convention : Reuss Voigt Hill
#
# Bulk Modulus (GPa) = 35.67468 59.55898 47.61683
# Shear Modulus (GPa) = 28.03876 41.61537 34.82707
#
# Velocity S-wave (km/s) = 3.41878 4.16503 3.81022
# Velocity P-wave (km/s) = 5.51862 6.92512 6.26149
#
# Compressibility (1/GPa) = 0.02803108
#
# Stress axis : x y z
#
# Youngs Moduli (GPa) = 79.41744 37.60048 96.09371
#
# Poissons Ratio (x) = 0.32436 0.50211
# Poissons Ratio (y) = 0.68508 -0.29504
# Poissons Ratio (z) = 0.41497 -0.11545
#
# Static dielectric constant tensor:
#      x y z
#    x 1.929380 -0.068990 0.022530 
#    y -0.068990 1.922200 -0.049280 
#    z 0.022530 -0.049280 1.931190 
# 
# From -- ./inp_files/512300.got.cif
#   From: 2010.05.17/outbox.cif.g08.bks.cpg/sg2_257_cif.got.tgz:512300.got - 2010.06.03 11:33:40.
