data_PCOD9057483
_publ_section_title
;
Structure prediction by ZEFSAII (Michael W. Deem and Ramdas Pophale) SiO2 
 PCOD9057483
Probable space group: P -1
;
_chemical_formula_sum "Si O2"
_cell_formula_units_Z 16
_cell_length_a 12.375880
_cell_length_b 11.834074
_cell_length_c 5.194764
_cell_angle_alpha 88.024865
_cell_angle_beta 100.680613
_cell_angle_gamma 115.537461
_cell_volume 673.702558
_symmetry_space_group_name_H-M "P -1"
_symmetry_group_IT_number 2
_symmetry_cell_setting 'triclinic'
loop_
_space_group_symop_operation_xyz
x,y,z
-x,-y,-z
loop_
_atom_site_type_symbol
_atom_site_label
_atom_site_fract_x
_atom_site_fract_y
_atom_site_fract_z
Si Si1 0.203877 0.963461 0.986836
Si Si2 0.494189 0.742679 0.647785
Si Si3 0.217149 0.594602 0.596158
Si Si4 0.907984 0.664741 0.151980
Si Si5 0.448384 0.090859 0.839114
Si Si6 0.251146 0.230839 0.233276
Si Si7 0.024387 0.139153 0.441999
Si Si8 0.146832 0.700394 0.058674
O O1 0.067580 0.886638 0.830171
O O2 0.301328 0.015378 0.793196
O O3 0.222708 0.850328 0.137186
O O4 0.218044 0.088166 0.132354
O O5 0.359075 0.634385 0.599127
O O6 0.508136 0.847142 0.426249
O O7 0.605966 0.706544 0.654419
O O8 0.516869 0.800790 0.939604
O O9 0.148319 0.453925 0.678510
O O10 0.167612 0.625342 0.309760
O O11 0.198642 0.675317 0.815817
O O12 0.998435 0.784257 0.348404
O O13 0.999529 0.649074 0.988054
O O14 0.802946 0.697385 0.984151
O O15 0.500000 0.000000 0.000000
O O16 0.166953 0.213020 0.443103
O O17 0.000000 0.000000 0.500000
#
# Coordination Sequence:
#
# PCOD9057483 Si02
#       8
#     2   2   2   2   2   2   2   2
#     4  11  22  42  71 107 143 180 229 300 361 422
#     4  11  25  45  68 101 142 186 237 289 343 422
#     4  12  28  49  72 101 143 194 243 286 346 419
#     4  12  27  45  72 104 142 188 235 297 351 424
#     4  11  23  42  69 102 140 187 236 288 347 415
#     4  11  25  43  69 107 142 181 236 291 363 417
#     4  12  22  41  69 104 143 177 230 289 365 419
#     4  12  26  47  73 106 141 186 239 294 354 419
#
# _framework density 23.749354
#
# number of rings (size 3 to 8) (size 9 to 14) (size 15 to 20)
#    0.000    0.500    2.500    6.000    3.500    4.500 
#    0.000    0.625    0.000    0.000    0.000    0.000 
#    0.000    0.000    0.000    0.000    0.000    0.000 
#
# Total GULP energy -89479.343397 kJ/mol
# GULP energy per Si atom -5592.458962 kJ/mol
# Density = 2.369530 g / cm^3
# Si number density = 23.749354 Si / 1000 Ang^3
#
#
#
# Elastic Constant Matrix: (Units=GPa)
#
#
# Indices 1 2 3 4 5 6 
#
# 1 121.2765 12.8066 23.4482 3.1972 6.8831 27.1454
# 2 12.8066 63.7393 19.5360 -21.7360 4.7548 14.9682
# 3 23.4482 19.5360 90.5732 -13.6023 1.8156 5.6922
# 4 3.1972 -21.7360 -13.6023 27.4630 -7.1688 -7.4728
# 5 6.8831 4.7548 1.8156 -7.1688 41.0380 -7.3215
# 6 27.1454 14.9682 5.6922 -7.4728 -7.3215 31.3065
#
#
#
# Elastic Compliance Matrix: (Units=1/GPa)
#
#
# Indices 1 2 3 4 5 6 
#
# 1 0.012572 -0.001016 -0.003451 -0.009118 -0.005808 -0.013323
# 2 -0.001016 0.023433 -0.002014 0.015700 -0.000857 -0.006410
# 3 -0.003451 -0.002014 0.013125 0.006859 0.002089 0.003695
# 4 -0.009118 0.015700 0.006859 0.061310 0.013124 0.016857
# 5 -0.005808 -0.000857 0.002089 0.013124 0.030371 0.015301
# 6 -0.013323 -0.006410 0.003695 0.016857 0.015301 0.053489
#
#
# Mechanical properties :
#
#
# Convention : Reuss Voigt Hill
#
# Bulk Modulus (GPa) = 27.64829 43.01897 35.33363
# Shear Modulus (GPa) = 22.79790 34.61470 28.70630
#
# Velocity S-wave (km/s) = 3.10165 3.82186 3.48044
# Velocity P-wave (km/s) = 4.94913 6.13422 5.57326
#
# Compressibility (1/GPa) = 0.03616860
#
# Stress axis : x y z
#
# Youngs Moduli (GPa) = 79.54007 42.67462 76.19224
#
# Poissons Ratio (x) = 0.04335 0.26297
# Poissons Ratio (y) = 0.08079 0.15342
# Poissons Ratio (z) = 0.27452 0.08593
#
# Static dielectric constant tensor:
#      x y z
#    x 1.968860 -0.043810 0.037780 
#    y -0.043810 1.917620 -0.060600 
#    z 0.037780 -0.060600 1.941490 
# 
# From -- ./inp_files/69994.got.cif
#   From: 2010.05.17/outbox.cif.g08.bks.cpg/sg2_35_cif.got.tgz:69994.got - 2010.06.03 11:33:40.
