data_PCOD9057390
_publ_section_title
;
Structure prediction by ZEFSAII (Michael W. Deem and Ramdas Pophale) SiO2 
 PCOD9057390
Probable space group: P -1
;
_chemical_formula_sum "Si O2"
_cell_formula_units_Z 16
_cell_length_a 14.265558
_cell_length_b 8.651491
_cell_length_c 21.998311
_cell_angle_alpha 32.142173
_cell_angle_beta 149.360928
_cell_angle_gamma 128.950381
_cell_volume 684.363287
_symmetry_space_group_name_H-M "P -1"
_symmetry_group_IT_number 2
_symmetry_cell_setting 'triclinic'
loop_
_space_group_symop_operation_xyz
x,y,z
-x,-y,-z
loop_
_atom_site_type_symbol
_atom_site_label
_atom_site_fract_x
_atom_site_fract_y
_atom_site_fract_z
Si Si1 0.657329 0.209287 0.213929
Si Si2 0.027909 0.310948 0.935954
Si Si3 0.271521 0.453922 0.520523
Si Si4 0.365140 0.360778 0.321243
Si Si5 0.921846 0.751023 0.315388
Si Si6 0.016395 0.305606 0.325813
Si Si7 0.719546 0.452073 0.922643
Si Si8 0.311425 0.665937 0.680033
O O1 0.604943 0.227893 0.248840
O O2 0.867001 0.239529 0.310284
O O3 0.668613 0.883993 0.301853
O O4 0.500000 0.500000 0.000000
O O5 0.815253 0.556768 0.759229
O O6 0.094555 0.441552 0.869440
O O7 0.185482 0.308383 0.076436
O O8 0.000000 0.000000 0.000000
O O9 0.468725 0.519202 0.600329
O O10 0.161245 0.424213 0.406745
O O11 0.109226 0.683539 0.398163
O O12 0.260075 0.548274 0.138864
O O13 0.500000 0.000000 0.500000
O O14 0.758466 0.613434 0.247114
O O15 0.000000 0.500000 0.500000
O O16 0.813553 0.128227 0.121872
O O17 0.126434 0.982851 0.458298
O O18 0.483141 0.567724 0.760139
#
# Coordination Sequence:
#
# PCOD9057390 Si02
#       8
#     2   2   2   2   2   2   2   2
#     4  11  23  39  73 106 148 180 237 300 378 447
#     4  12  30  47  76 104 142 199 260 314 358 437
#     4  11  25  43  75 106 145 193 236 310 376 447
#     4  12  29  52  74 104 149 203 259 310 369 433
#     4  12  24  42  71 107 153 189 231 293 387 461
#     4  11  23  47  71 106 149 187 245 310 376 435
#     4  12  28  47  74 107 149 194 250 308 373 447
#     4  11  22  42  69 107 142 189 229 292 375 457
#
# _framework density 23.379394999999999
#
# number of rings (size 3 to 8) (size 9 to 14) (size 15 to 20)
#    0.000    0.500    2.500    5.250   12.250    0.500 
#    0.000    0.000    0.000    0.000    0.000    0.000 
#    0.000    0.000    0.000    0.000    0.000    0.000 
#
# Total GULP energy -89311.208291 kJ/mol
# GULP energy per Si atom -5581.950518 kJ/mol
# Density = 2.332618 g / cm^3
# Si number density = 23.379395 Si / 1000 Ang^3
#
#
#
# Elastic Constant Matrix: (Units=GPa)
#
#
# Indices 1 2 3 4 5 6 
#
# 1 65.3869 -6.0589 0.5495 1.5544 6.1432 2.2711
# 2 -6.0589 109.1836 18.6526 0.3591 7.9026 11.7496
# 3 0.5495 18.6526 67.7964 -0.4963 -9.0456 -10.0321
# 4 1.5544 0.3591 -0.4963 34.0054 6.5423 9.5957
# 5 6.1432 7.9026 -9.0456 6.5423 27.3113 2.6589
# 6 2.2711 11.7496 -10.0321 9.5957 2.6589 23.6068
#
#
#
# Elastic Compliance Matrix: (Units=1/GPa)
#
#
# Indices 1 2 3 4 5 6 
#
# 1 0.015996 0.001838 -0.001697 0.000976 -0.004629 -0.003050
# 2 0.001838 0.011465 -0.005161 0.003230 -0.005358 -0.008786
# 3 -0.001697 -0.005161 0.018958 -0.004443 0.008081 0.011684
# 4 0.000976 0.003230 -0.004443 0.035935 -0.009567 -0.017119
# 5 -0.004629 -0.005358 0.008081 -0.009567 0.043637 0.005520
# 6 -0.003050 -0.008786 0.011684 -0.017119 0.005520 0.058329
#
#
# Mechanical properties :
#
#
# Convention : Reuss Voigt Hill
#
# Bulk Modulus (GPa) = 27.48828 29.85038 28.66933
# Shear Modulus (GPa) = 24.21475 32.26629 28.24052
#
# Velocity S-wave (km/s) = 3.22177 3.71902 3.47929
# Velocity P-wave (km/s) = 5.06189 5.58901 5.33197
#
# Compressibility (1/GPa) = 0.03637914
#
# Stress axis : x y z
#
# Youngs Moduli (GPa) = 62.51674 87.22110 52.74765
#
# Poissons Ratio (x) = -0.16027 0.08951
# Poissons Ratio (y) = -0.11488 0.27221
# Poissons Ratio (z) = 0.10609 0.45011
#
# Static dielectric constant tensor:
#      x y z
#    x 1.807120 -0.042930 -0.025230 
#    y -0.042930 1.929910 -0.001970 
#    z -0.025230 -0.001970 1.960200 
# 
# From -- ./inp_files/608194.got.cif
#   From: 2010.05.17/outbox.cif.g08.bks.cpg/sg2_305_cif.got.tgz:608194.got - 2010.06.03 11:33:40.
