data_PCOD9057674
_publ_section_title
;
Structure prediction by ZEFSAII (Michael W. Deem and Ramdas Pophale) SiO2 
 PCOD9057674
Probable space group: P -1
;
_chemical_formula_sum "Si O2"
_cell_formula_units_Z 14
_cell_length_a 8.945088
_cell_length_b 23.307369
_cell_length_c 10.316040
_cell_angle_alpha 148.458420
_cell_angle_beta 108.141525
_cell_angle_gamma 48.331600
_cell_volume 636.412524
_symmetry_space_group_name_H-M "P -1"
_symmetry_group_IT_number 2
_symmetry_cell_setting 'triclinic'
loop_
_space_group_symop_operation_xyz
x,y,z
-x,-y,-z
loop_
_atom_site_type_symbol
_atom_site_label
_atom_site_fract_x
_atom_site_fract_y
_atom_site_fract_z
Si Si1 0.112973 0.911380 0.214825
Si Si2 0.548616 0.868534 0.595838
Si Si3 0.443154 0.698608 0.276465
Si Si4 0.687690 0.987167 0.473529
Si Si5 0.720462 0.367918 0.118007
Si Si6 0.620871 0.279237 0.408905
Si Si7 0.801597 0.941308 0.878121
O O1 0.321892 0.892372 0.219856
O O2 0.230693 0.724797 0.912587
O O3 0.000000 0.000000 0.500000
O O4 0.861088 0.080983 0.384219
O O5 0.638253 0.692798 0.302967
O O6 0.755299 0.852525 0.620372
O O7 0.397809 0.948371 0.573414
O O8 0.337339 0.005346 0.918415
O O9 0.475259 0.634877 0.306535
O O10 0.445781 0.617330 0.997482
O O11 0.500000 0.000000 0.500000
O O12 0.992391 0.779769 0.154502
O O13 0.576848 0.564239 0.450669
O O14 0.898735 0.184805 0.277594
O O15 0.655921 0.128187 0.133918
#
# Coordination Sequence:
#
# PCOD9057674 Si02
#       7
#     2   2   2   2   2   2   2
#     4   8  15  31  51  79 102 139 165 201 291 319
#     4  10  17  37  56  74 107 142 183 216 259 330
#     4   9  16  32  57  78 108 139 167 222 280 314
#     4  10  19  32  57  84 109 137 173 221 279 326
#     4  10  18  34  55  85 109 135 171 230 278 309
#     4  10  20  36  54  79 107 139 196 214 248 329
#     4   9  22  35  55  73 105 160 179 209 263 310
#
# _framework density 21.998311000000001
#
# number of rings (size 3 to 8) (size 9 to 14) (size 15 to 20)
#    0.000    2.857    4.286    0.429    4.000    0.000 
#    0.000    6.429    0.000    0.000    0.000    0.000 
#    0.000    0.000    0.000    0.000    0.000    0.000 
#
# Total GULP energy -78000.939072 kJ/mol
# GULP energy per Si atom -5571.495648 kJ/mol
# Density = 2.194824 g / cm^3
# Si number density = 21.998311 Si / 1000 Ang^3
#
#
#
# Elastic Constant Matrix: (Units=GPa)
#
#
# Indices 1 2 3 4 5 6 
#
# 1 140.5081 8.0499 26.2800 8.1426 25.3140 -4.2054
# 2 8.0499 49.5599 12.4388 9.3468 7.0033 18.4748
# 3 26.2800 12.4388 53.0264 21.7315 16.0836 10.4070
# 4 8.1426 9.3468 21.7315 38.4665 7.6565 10.0681
# 5 25.3140 7.0033 16.0836 7.6565 21.5262 -4.0555
# 6 -4.2054 18.4748 10.4070 10.0681 -4.0555 31.0853
#
#
#
# Elastic Compliance Matrix: (Units=1/GPa)
#
#
# Indices 1 2 3 4 5 6 
#
# 1 0.009183 0.000069 -0.002197 0.001080 -0.009498 0.000348
# 2 0.000069 0.029165 0.001231 0.000186 -0.014258 -0.019657
# 3 -0.002197 0.001231 0.032568 -0.011375 -0.020154 -0.010877
# 4 0.001080 0.000186 -0.011375 0.035870 -0.007233 -0.008718
# 5 -0.009498 -0.014258 -0.020154 -0.007233 0.085051 0.027375
# 6 0.000348 -0.019657 -0.010877 -0.008718 0.027375 0.053936
#
#
# Mechanical properties :
#
#
# Convention : Reuss Voigt Hill
#
# Bulk Modulus (GPa) = 14.46759 37.40354 25.93556
# Shear Modulus (GPa) = 18.47679 31.30397 24.89038
#
# Velocity S-wave (km/s) = 2.90128 3.77638 3.36738
# Velocity P-wave (km/s) = 4.22069 6.00455 5.18983
#
# Compressibility (1/GPa) = 0.06912000
#
# Stress axis : x y z
#
# Youngs Moduli (GPa) = 108.89594 34.28785 30.70475
#
# Poissons Ratio (x) = -0.00235 0.06747
# Poissons Ratio (y) = -0.00746 -0.03779
# Poissons Ratio (z) = 0.23929 -0.04220
#
# Static dielectric constant tensor:
#      x y z
#    x 1.858510 0.015330 0.042940 
#    y 0.015330 1.845270 -0.033020 
#    z 0.042940 -0.033020 1.916540 
# 
# From -- ./inp_files/271206.got.cif
#   From: 2010.05.17/outbox.cif.g08.bks.cpg/sg2_136_cif.got.tgz:271206.got - 2010.06.03 11:33:40.
