data_PCOD9057925
_publ_section_title
;
Structure prediction by ZEFSAII (Michael W. Deem and Ramdas Pophale) SiO2 
 PCOD9057925
Probable space group: P -1
;
_chemical_formula_sum "Si O2"
_cell_formula_units_Z 14
_cell_length_a 11.503800
_cell_length_b 17.581103
_cell_length_c 20.707291
_cell_angle_alpha 159.764284
_cell_angle_beta 26.671523
_cell_angle_gamma 143.235914
_cell_volume 631.149737
_symmetry_space_group_name_H-M "P -1"
_symmetry_group_IT_number 2
_symmetry_cell_setting 'triclinic'
loop_
_space_group_symop_operation_xyz
x,y,z
-x,-y,-z
loop_
_atom_site_type_symbol
_atom_site_label
_atom_site_fract_x
_atom_site_fract_y
_atom_site_fract_z
Si Si1 0.519238 0.282912 0.153091
Si Si2 0.866860 0.305248 0.882630
Si Si3 0.777120 0.448091 0.783155
Si Si4 0.012961 0.201465 0.589305
Si Si5 0.588582 0.203461 0.351592
Si Si6 0.952463 0.942910 0.751553
Si Si7 0.884452 0.917034 0.085066
O O1 0.452335 0.527379 0.414130
O O2 0.269518 0.173573 0.199373
O O3 0.603753 0.314704 0.062936
O O4 0.778472 0.126572 0.935223
O O5 0.838774 0.323221 0.833258
O O6 0.040026 0.043661 0.596218
O O7 0.000000 0.500000 0.000000
O O8 0.988835 0.355688 0.661409
O O9 0.831642 0.246595 0.544271
O O10 0.500000 0.500000 0.000000
O O11 0.816886 0.677246 0.915210
O O12 0.315531 0.150575 0.423010
O O13 0.673281 0.110366 0.306745
O O14 0.829065 0.092376 0.096518
O O15 0.091981 0.048187 0.823036
#
# Coordination Sequence:
#
# PCOD9057925 Si02
#       7
#     2   2   2   2   2   2   2
#     4  11  22  43  75 102 139 178 247 280 345 422
#     4  11  23  39  67 106 133 176 232 283 335 412
#     4  12  28  47  70 105 144 185 230 287 357 420
#     4  11  25  44  71  98 141 187 231 281 342 416
#     4  11  24  46  71 106 138 189 234 287 353 413
#     4  11  25  47  71 105 136 188 233 296 345 411
#     4  11  27  45  69 104 148 179 233 295 351 411
#
# _framework density 22.181740999999999
#
# number of rings (size 3 to 8) (size 9 to 14) (size 15 to 20)
#    0.000    0.857    4.286    1.714    6.000    3.429 
#    0.000    0.000    0.000    0.000    0.000    0.000 
#    0.000    0.000    0.000    0.000    0.000    0.000 
#
# Total GULP energy -78317.912943 kJ/mol
# GULP energy per Si atom -5594.136639 kJ/mol
# Density = 2.213125 g / cm^3
# Si number density = 22.181741 Si / 1000 Ang^3
#
#
#
# Elastic Constant Matrix: (Units=GPa)
#
#
# Indices 1 2 3 4 5 6 
#
# 1 42.3168 -0.1606 32.7621 -3.8521 14.5881 5.1144
# 2 -0.1606 53.6227 10.5684 1.7368 -11.9919 -0.4500
# 3 32.7621 10.5684 104.4199 8.2669 9.0917 13.6327
# 4 -3.8521 1.7368 8.2669 51.2175 0.1009 4.5331
# 5 14.5881 -11.9919 9.0917 0.1009 33.8036 -4.6454
# 6 5.1144 -0.4500 13.6327 4.5331 -4.6454 26.1079
#
#
#
# Elastic Compliance Matrix: (Units=1/GPa)
#
#
# Indices 1 2 3 4 5 6 
#
# 1 0.037662 -0.001444 -0.010033 0.005033 -0.014863 -0.005682
# 2 -0.001444 0.021448 -0.003028 -0.000726 0.009608 0.004069
# 3 -0.010033 -0.003028 0.014009 -0.002451 -0.001219 -0.005193
# 4 0.005033 -0.000726 -0.002451 0.020657 -0.002344 -0.003722
# 5 -0.014863 0.009608 -0.001219 -0.002344 0.041317 0.011472
# 6 -0.005682 0.004069 -0.005193 -0.003722 0.011472 0.044885
#
#
# Mechanical properties :
#
#
# Convention : Reuss Voigt Hill
#
# Bulk Modulus (GPa) = 22.67134 31.85545 27.26339
# Shear Modulus (GPa) = 22.35222 32.70509 27.52865
#
# Velocity S-wave (km/s) = 3.17785 3.84398 3.52668
# Velocity P-wave (km/s) = 4.86907 5.83899 5.37595
#
# Compressibility (1/GPa) = 0.04410856
#
# Stress axis : x y z
#
# Youngs Moduli (GPa) = 26.55176 46.62542 71.38173
#
# Poissons Ratio (x) = 0.06735 0.71617
# Poissons Ratio (y) = 0.03835 0.21613
# Poissons Ratio (z) = 0.26639 0.14117
#
# Static dielectric constant tensor:
#      x y z
#    x 1.805780 -0.016940 0.001770 
#    y -0.016940 1.835440 -0.006550 
#    z 0.001770 -0.006550 1.826670 
# 
# From -- ./inp_files/467192.got.cif
#   From: 2010.05.17/outbox.cif.g08.bks.cpg/sg2_234_cif.got.tgz:467192.got - 2010.06.03 11:33:40.
