data_PCOD9057245
_publ_section_title
;
Structure prediction by ZEFSAII (Michael W. Deem and Ramdas Pophale) SiO2 
 PCOD9057245
Probable space group: P -1
;
_chemical_formula_sum "Si O2"
_cell_formula_units_Z 14
_cell_length_a 11.053861
_cell_length_b 7.695877
_cell_length_c 8.834062
_cell_angle_alpha 95.737684
_cell_angle_beta 68.036873
_cell_angle_gamma 120.940002
_cell_volume 593.751926
_symmetry_space_group_name_H-M "P -1"
_symmetry_group_IT_number 2
_symmetry_cell_setting 'triclinic'
loop_
_space_group_symop_operation_xyz
x,y,z
-x,-y,-z
loop_
_atom_site_type_symbol
_atom_site_label
_atom_site_fract_x
_atom_site_fract_y
_atom_site_fract_z
Si Si1 0.167621 0.026877 0.275449
Si Si2 0.349583 0.596640 0.500806
Si Si3 0.672903 0.838314 0.475171
Si Si4 0.358324 0.499529 0.149341
Si Si5 0.102742 0.125696 0.822258
Si Si6 0.846093 0.444822 0.162041
Si Si7 0.669254 0.171408 0.980397
O O1 0.233505 0.031090 0.411817
O O2 0.241246 0.262350 0.214844
O O3 0.225872 0.908538 0.137032
O O4 0.993486 0.922367 0.294277
O O5 0.499240 0.774240 0.530389
O O6 0.337208 0.379952 0.520575
O O7 0.385517 0.615314 0.307308
O O8 0.195844 0.579916 0.639387
O O9 0.768635 0.924528 0.284236
O O10 0.299151 0.617417 0.087371
O O11 0.500000 0.500000 0.000000
O O12 0.169865 0.360669 0.850545
O O13 0.000000 0.000000 0.000000
O O14 0.713520 0.235195 0.136636
O O15 0.000000 0.500000 0.000000
O O16 0.500000 0.000000 0.000000
#
# Coordination Sequence:
#
# PCOD9057245 Si02
#       7
#     2   2   2   2   2   2   2
#     4  11  22  42  63  97 132 177 227 273 338 398
#     4   9  21  40  66  96 125 179 227 268 337 398
#     4   9  20  39  67  91 131 174 224 278 330 401
#     4  11  24  41  69  97 136 174 223 285 330 399
#     4  11  23  39  67  97 130 178 225 275 344 398
#     4  11  23  45  67  92 139 176 217 282 339 396
#     4  12  24  41  68  99 133 179 225 274 340 399
#
# _framework density 23.578872
#
# number of rings (size 3 to 8) (size 9 to 14) (size 15 to 20)
#    0.000    1.429    2.857    2.143    8.000    0.000 
#    2.571    2.143    0.000    0.000    0.000    0.000 
#    0.000    0.000    0.000    0.000    0.000    0.000 
#
# Total GULP energy -78046.181583 kJ/mol
# GULP energy per Si atom -5574.727256 kJ/mol
# Density = 2.352521 g / cm^3
# Si number density = 23.578872 Si / 1000 Ang^3
#
#
#
# Elastic Constant Matrix: (Units=GPa)
#
#
# Indices 1 2 3 4 5 6 
#
# 1 61.1925 28.0374 33.1753 8.2573 -7.8679 11.7408
# 2 28.0374 81.0773 27.1276 24.8312 8.3800 12.7984
# 3 33.1753 27.1276 159.5505 17.8872 -9.2709 19.8500
# 4 8.2573 24.8312 17.8872 35.3162 5.1777 2.7411
# 5 -7.8679 8.3800 -9.2709 5.1777 37.6775 0.5388
# 6 11.7408 12.7984 19.8500 2.7411 0.5388 46.5351
#
#
#
# Elastic Compliance Matrix: (Units=1/GPa)
#
#
# Indices 1 2 3 4 5 6 
#
# 1 0.022247 -0.007094 -0.002856 0.000628 0.005471 -0.002544
# 2 -0.007094 0.019075 -0.000507 -0.010661 -0.004347 -0.002562
# 3 -0.002856 -0.000507 0.007667 -0.002954 0.001841 -0.002258
# 4 0.000628 -0.010661 -0.002954 0.037515 -0.003407 0.001863
# 5 0.005471 -0.004347 0.001841 -0.003407 0.029587 -0.001112
# 6 -0.002544 -0.002562 -0.002258 0.001863 -0.001112 0.023702
#
#
# Mechanical properties :
#
#
# Convention : Reuss Voigt Hill
#
# Bulk Modulus (GPa) = 35.61778 53.16676 44.39227
# Shear Modulus (GPa) = 29.40042 38.13776 33.76909
#
# Velocity S-wave (km/s) = 3.53497 4.02612 3.78852
# Velocity P-wave (km/s) = 5.63915 6.64908 6.16483
#
# Compressibility (1/GPa) = 0.02807587
#
# Stress axis : x y z
#
# Youngs Moduli (GPa) = 44.94936 52.42352 130.43644
#
# Poissons Ratio (x) = 0.37190 0.37249
# Poissons Ratio (y) = 0.31887 0.06612
# Poissons Ratio (z) = 0.12836 0.02658
#
# Static dielectric constant tensor:
#      x y z
#    x 2.269840 0.093040 -0.053710 
#    y 0.093040 1.884850 -0.045950 
#    z -0.053710 -0.045950 2.025610 
# 
# From -- ./inp_files/181619.got.cif
#   From: 2010.05.17/outbox.cif.g08.bks.cpg/sg2_91_cif.got.tgz:181619.got - 2010.06.03 11:33:40.
