data_PCOD9057392
_publ_section_title
;
Structure prediction by ZEFSAII (Michael W. Deem and Ramdas Pophale) SiO2 
 PCOD9057392
Probable space group: P -1
;
_chemical_formula_sum "Si O2"
_cell_formula_units_Z 16
_cell_length_a 5.764739
_cell_length_b 13.973029
_cell_length_c 11.750241
_cell_angle_alpha 84.572887
_cell_angle_beta 102.568402
_cell_angle_gamma 50.810984
_cell_volume 681.487526
_symmetry_space_group_name_H-M "P -1"
_symmetry_group_IT_number 2
_symmetry_cell_setting 'triclinic'
loop_
_space_group_symop_operation_xyz
x,y,z
-x,-y,-z
loop_
_atom_site_type_symbol
_atom_site_label
_atom_site_fract_x
_atom_site_fract_y
_atom_site_fract_z
Si Si1 0.360513 0.785100 0.389243
Si Si2 0.345809 0.251458 0.924521
Si Si3 0.668371 0.575419 0.273807
Si Si4 0.771721 0.905521 0.635135
Si Si5 0.754567 0.704516 0.648644
Si Si6 0.653326 0.889495 0.265872
Si Si7 0.407873 0.781940 0.817301
Si Si8 0.636169 0.500704 0.895081
O O1 0.564471 0.641527 0.376512
O O2 0.440983 0.779874 0.529529
O O3 0.516035 0.835786 0.333766
O O4 0.998143 0.846439 0.327582
O O5 0.423391 0.318014 0.839662
O O6 0.330045 0.161296 0.853129
O O7 0.015959 0.377306 0.935734
O O8 0.593868 0.172134 0.063269
O O9 0.500065 0.524703 0.220417
O O10 0.038480 0.446748 0.326122
O O11 0.905229 0.765812 0.625123
O O12 0.082722 0.884519 0.699250
O O13 0.500000 0.000000 0.500000
O O14 0.589946 0.963278 0.731388
O O15 0.689527 0.737266 0.769863
O O16 0.498915 0.645081 0.857817
O O17 0.500000 0.500000 0.000000
#
# Coordination Sequence:
#
# PCOD9057392 Si02
#       8
#     2   2   2   2   2   2   2   2
#     4  11  25  46  73 105 146 191 240 299 369 431
#     4  11  24  45  68 107 146 181 230 298 377 436
#     4  11  22  42  69 107 144 181 229 301 371 441
#     4  12  27  48  69 100 139 196 253 298 348 423
#     4  12  25  43  71 105 141 189 241 301 362 434
#     4  11  26  48  74 100 146 199 242 300 357 426
#     4  12  26  41  72 107 141 186 242 297 367 429
#     4  12  21  40  71 105 148 178 229 293 369 445
#
# _framework density 23.478052000000002
#
# number of rings (size 3 to 8) (size 9 to 14) (size 15 to 20)
#    0.000    0.500    6.250    2.250    1.750    1.500 
#    0.000    3.125    0.000    0.000    0.000    0.000 
#    0.000    0.000    0.000    0.000    0.000    0.000 
#
# Total GULP energy -89214.476435 kJ/mol
# GULP energy per Si atom -5575.904777 kJ/mol
# Density = 2.342462 g / cm^3
# Si number density = 23.478052 Si / 1000 Ang^3
#
#
#
# Elastic Constant Matrix: (Units=GPa)
#
#
# Indices 1 2 3 4 5 6 
#
# 1 72.4845 10.8955 30.9421 0.9821 14.3110 2.8926
# 2 10.8955 90.3856 15.5105 24.8382 -2.2663 0.3284
# 3 30.9421 15.5105 128.3054 21.6571 17.4017 0.7984
# 4 0.9821 24.8382 21.6571 29.0002 5.5785 6.0884
# 5 14.3110 -2.2663 17.4017 5.5785 31.1433 3.6747
# 6 2.8926 0.3284 0.7984 6.0884 3.6747 37.8189
#
#
#
# Elastic Compliance Matrix: (Units=1/GPa)
#
#
# Indices 1 2 3 4 5 6 
#
# 1 0.017413 -0.003552 -0.004004 0.007163 -0.007107 -0.001679
# 2 -0.003552 0.015661 0.000889 -0.015320 0.004769 0.002120
# 3 -0.004004 0.000889 0.010386 -0.008226 -0.002620 0.001658
# 4 0.007163 -0.015320 -0.008226 0.057033 -0.009017 -0.008547
# 5 -0.007107 0.004769 -0.002620 -0.009017 0.039012 -0.001781
# 6 -0.001679 0.002120 0.001658 -0.008547 -0.001781 0.028066
#
#
# Mechanical properties :
#
#
# Convention : Reuss Voigt Hill
#
# Bulk Modulus (GPa) = 33.19559 45.09684 39.14622
# Shear Modulus (GPa) = 26.18524 35.18098 30.68311
#
# Velocity S-wave (km/s) = 3.34324 3.87520 3.61901
# Velocity P-wave (km/s) = 5.39191 6.26679 5.84574
#
# Compressibility (1/GPa) = 0.03012448
#
# Stress axis : x y z
#
# Youngs Moduli (GPa) = 57.42955 63.85249 96.28609
#
# Poissons Ratio (x) = 0.22683 0.38557
# Poissons Ratio (y) = 0.20401 -0.08563
# Poissons Ratio (z) = 0.22997 -0.05678
#
# Static dielectric constant tensor:
#      x y z
#    x 1.981930 -0.000770 0.029100 
#    y -0.000770 1.921790 -0.058660 
#    z 0.029100 -0.058660 1.904670 
# 
# From -- ./inp_files/66427.got.cif
#   From: 2010.05.17/outbox.cif.g08.bks.cpg/sg2_34_cif.got.tgz:66427.got - 2010.06.03 11:33:40.
