data_PCOD9057773
_publ_section_title
;
Structure prediction by ZEFSAII (Michael W. Deem and Ramdas Pophale) SiO2 
 PCOD9057773
Probable space group: P -1
;
_chemical_formula_sum "Si O2"
_cell_formula_units_Z 16
_cell_length_a 12.622466
_cell_length_b 9.264799
_cell_length_c 21.274218
_cell_angle_alpha 133.122735
_cell_angle_beta 28.999842
_cell_angle_gamma 142.233408
_cell_volume 738.447433
_symmetry_space_group_name_H-M "P -1"
_symmetry_group_IT_number 2
_symmetry_cell_setting 'triclinic'
loop_
_space_group_symop_operation_xyz
x,y,z
-x,-y,-z
loop_
_atom_site_type_symbol
_atom_site_label
_atom_site_fract_x
_atom_site_fract_y
_atom_site_fract_z
Si Si1 0.529567 0.987524 0.704690
Si Si2 0.740338 0.969448 0.369295
Si Si3 0.328500 0.746541 0.044660
Si Si4 0.433118 0.527164 0.812457
Si Si5 0.132955 0.980990 0.817909
Si Si6 0.008480 0.738156 0.551135
Si Si7 0.457722 0.247594 0.930509
Si Si8 0.263696 0.498490 0.764166
O O1 0.275352 0.899023 0.765517
O O2 0.788022 0.114985 0.565910
O O3 0.559577 0.182740 0.797005
O O4 0.462230 0.748961 0.703479
O O5 0.901764 0.094700 0.259411
O O6 0.667109 0.701528 0.332942
O O7 0.500000 0.000000 0.500000
O O8 0.895327 0.102248 0.389718
O O9 0.412940 0.784228 0.084361
O O10 0.021418 0.622915 0.155328
O O11 0.412772 0.602178 0.915198
O O12 0.500000 0.000000 0.000000
O O13 0.340563 0.258280 0.788084
O O14 0.254938 0.542164 0.856376
O O15 0.714827 0.667596 0.675884
O O16 0.854746 0.923487 0.966335
O O17 0.000000 0.500000 0.500000
O O18 0.500000 0.500000 0.000000
#
# Coordination Sequence:
#
# PCOD9057773 Si02
#       8
#     2   2   2   2   2   2   2   2
#     4  12  25  44  67 103 148 181 230 296 356 402
#     4  11  23  46  72 102 132 183 240 278 346 425
#     4  12  23  43  69 102 137 181 236 289 343 419
#     4  11  22  43  70  97 135 187 235 279 344 420
#     4  11  22  44  70  97 134 187 231 284 338 420
#     4  12  24  44  71 101 137 186 240 283 343 427
#     4  12  26  42  68 106 142 184 231 288 354 411
#     4  11  25  44  68 105 141 181 230 299 356 406
#
# _framework density 21.667081
#
# number of rings (size 3 to 8) (size 9 to 14) (size 15 to 20)
#    0.000    0.500    2.500    7.500    1.750    1.000 
#    0.000    0.000    0.000    0.000    0.000    0.000 
#    0.000    0.000    0.000    0.000    0.000    0.000 
#
# Total GULP energy -89385.600695 kJ/mol
# GULP energy per Si atom -5586.600043 kJ/mol
# Density = 2.161777 g / cm^3
# Si number density = 21.667081 Si / 1000 Ang^3
#
#
#
# Elastic Constant Matrix: (Units=GPa)
#
#
# Indices 1 2 3 4 5 6 
#
# 1 115.1681 40.8170 43.7178 4.0039 7.8069 2.6658
# 2 40.8170 93.6027 24.9815 6.6346 4.7017 -0.1236
# 3 43.7178 24.9815 114.2299 0.5767 -0.2980 12.1212
# 4 4.0039 6.6346 0.5767 25.4049 14.1688 -0.6581
# 5 7.8069 4.7017 -0.2980 14.1688 42.2796 3.7117
# 6 2.6658 -0.1236 12.1212 -0.6581 3.7117 38.3488
#
#
#
# Elastic Compliance Matrix: (Units=1/GPa)
#
#
# Indices 1 2 3 4 5 6 
#
# 1 0.011582 -0.004016 -0.003616 0.000371 -0.001887 0.000514
# 2 -0.004016 0.012990 -0.001362 -0.002804 0.000167 0.000687
# 3 -0.003616 -0.001362 0.010788 -0.000079 0.001210 -0.003281
# 4 0.000371 -0.002804 -0.000079 0.049299 -0.016492 0.002432
# 5 -0.001887 0.000167 0.001210 -0.016492 0.029817 -0.003420
# 6 0.000514 0.000687 -0.003281 0.002432 -0.003420 0.027453
#
#
# Mechanical properties :
#
#
# Convention : Reuss Voigt Hill
#
# Bulk Modulus (GPa) = 57.56612 60.22592 58.89602
# Shear Modulus (GPa) = 30.17380 35.43895 32.80638
#
# Velocity S-wave (km/s) = 3.73582 4.04866 3.89538
# Velocity P-wave (km/s) = 6.72567 7.05067 6.89008
#
# Compressibility (1/GPa) = 0.01737133
#
# Stress axis : x y z
#
# Youngs Moduli (GPa) = 86.34068 76.98452 92.69897
#
# Poissons Ratio (x) = 0.30920 0.33516
# Poissons Ratio (y) = 0.34678 0.12625
# Poissons Ratio (z) = 0.31217 0.10485
#
# Static dielectric constant tensor:
#      x y z
#    x 1.964000 0.159300 0.155200 
#    y 0.159300 1.905800 0.098190 
#    z 0.155200 0.098190 1.827190 
# 
# From -- ./inp_files/402920.got.cif
#   From: 2010.05.17/outbox.cif.g08.bks.cpg/sg2_202_cif.got.tgz:402920.got - 2010.06.03 11:33:40.
