data_PCOD9057731
_publ_section_title
;
Structure prediction by ZEFSAII (Michael W. Deem and Ramdas Pophale) SiO2 
 PCOD9057731
Probable space group: P -1
;
_chemical_formula_sum "Si O2"
_cell_formula_units_Z 14
_cell_length_a 8.298742
_cell_length_b 14.527918
_cell_length_c 11.251975
_cell_angle_alpha 149.999370
_cell_angle_beta 97.291338
_cell_angle_gamma 76.748918
_cell_volume 653.059111
_symmetry_space_group_name_H-M "P -1"
_symmetry_group_IT_number 2
_symmetry_cell_setting 'triclinic'
loop_
_space_group_symop_operation_xyz
x,y,z
-x,-y,-z
loop_
_atom_site_type_symbol
_atom_site_label
_atom_site_fract_x
_atom_site_fract_y
_atom_site_fract_z
Si Si1 0.045961 0.770619 0.745359
Si Si2 0.886364 0.236762 0.930271
Si Si3 0.966545 0.722822 0.251955
Si Si4 0.773399 0.549244 0.440372
Si Si5 0.128853 0.883708 0.644640
Si Si6 0.496976 0.903395 0.760830
Si Si7 0.368048 0.005298 0.384768
O O1 0.200254 0.636843 0.681528
O O2 0.092086 0.738759 0.576005
O O3 0.885233 0.684841 0.655776
O O4 0.000000 0.000000 0.000000
O O5 0.714342 0.176253 0.819592
O O6 0.013764 0.208982 0.802425
O O7 0.849245 0.447482 0.212219
O O8 0.987049 0.080766 0.857034
O O9 0.109956 0.788834 0.412049
O O10 0.790833 0.821284 0.405756
O O11 0.000000 0.500000 0.000000
O O12 0.595178 0.685425 0.549392
O O13 0.305830 0.922173 0.730788
O O14 0.574516 0.973511 0.724198
O O15 0.500000 0.000000 0.000000
O O16 0.500000 0.000000 0.500000
#
# Coordination Sequence:
#
# PCOD9057731 Si02
#       7
#     2   2   2   2   2   2   2
#     4  11  22  43  69  97 133 184 230 288 343 424
#     4  11  22  43  72  99 131 184 239 285 352 424
#     4  11  23  42  70 100 131 178 239 288 350 425
#     4  11  25  42  71 101 137 182 237 282 359 411
#     4  11  23  41  66  94 143 177 231 287 349 408
#     4  12  27  44  66 105 148 185 233 293 351 421
#     4  11  24  46  71 100 143 187 232 297 353 409
#
# _framework density 21.437567999999999
#
# number of rings (size 3 to 8) (size 9 to 14) (size 15 to 20)
#    0.000    0.857    1.429    7.714    4.000    1.714 
#    2.571    2.857    0.000    0.000    0.000    0.000 
#    0.000    0.000    0.000    0.000    0.000    0.000 
#
# Total GULP energy -78071.454845 kJ/mol
# GULP energy per Si atom -5576.532489 kJ/mol
# Density = 2.138878 g / cm^3
# Si number density = 21.437568 Si / 1000 Ang^3
#
#
#
# Elastic Constant Matrix: (Units=GPa)
#
#
# Indices 1 2 3 4 5 6 
#
# 1 91.6007 42.7517 39.5401 -4.0523 6.9919 -20.8470
# 2 42.7517 129.7673 38.6534 -7.9557 -7.5129 10.6799
# 3 39.5401 38.6534 147.6265 -2.0849 5.7758 -8.0882
# 4 -4.0523 -7.9557 -2.0849 29.0096 7.0044 4.3757
# 5 6.9919 -7.5129 5.7758 7.0044 29.7882 -6.7361
# 6 -20.8470 10.6799 -8.0882 4.3757 -6.7361 38.7102
#
#
#
# Elastic Compliance Matrix: (Units=1/GPa)
#
#
# Indices 1 2 3 4 5 6 
#
# 1 0.017188 -0.005940 -0.002399 -0.000232 -0.002765 0.009939
# 2 -0.005940 0.010992 -0.001702 0.002437 0.002469 -0.006433
# 3 -0.002399 -0.001702 0.007945 -0.000020 -0.001262 0.000620
# 4 -0.000232 0.002437 -0.000020 0.038547 -0.009949 -0.006890
# 5 -0.002765 0.002469 -0.001262 -0.009949 0.038651 0.005417
# 6 0.009939 -0.006433 0.000620 -0.006890 0.005417 0.034811
#
#
# Mechanical properties :
#
#
# Convention : Reuss Voigt Hill
#
# Bulk Modulus (GPa) = 62.33194 67.87609 65.10402
# Shear Modulus (GPa) = 28.80809 36.03822 32.42315
#
# Velocity S-wave (km/s) = 3.66978 4.10454 3.89324
# Velocity P-wave (km/s) = 6.86262 7.36166 7.11651
#
# Compressibility (1/GPa) = 0.01604314
#
# Stress axis : x y z
#
# Youngs Moduli (GPa) = 58.18170 90.97789 125.86652
#
# Poissons Ratio (x) = 0.54043 0.30192
# Poissons Ratio (y) = 0.34561 0.21417
# Poissons Ratio (z) = 0.13956 0.15481
#
# Static dielectric constant tensor:
#      x y z
#    x 1.778110 0.045880 0.011910 
#    y 0.045880 1.946880 0.151590 
#    z 0.011910 0.151590 2.438490 
# 
# From -- ./inp_files/400067.got.cif
#   From: 2010.05.17/outbox.cif.g08.bks.cpg/sg2_201_cif.got.tgz:400067.got - 2010.06.03 11:33:40.
