data_PCOD9057833
_publ_section_title
;
Structure prediction by ZEFSAII (Michael W. Deem and Ramdas Pophale) SiO2 
 PCOD9057833
Probable space group: P -1
;
_chemical_formula_sum "Si O2"
_cell_formula_units_Z 16
_cell_length_a 8.252701
_cell_length_b 13.931799
_cell_length_c 9.551092
_cell_angle_alpha 97.562010
_cell_angle_beta 110.880961
_cell_angle_gamma 125.754408
_cell_volume 744.310968
_symmetry_space_group_name_H-M "P -1"
_symmetry_group_IT_number 2
_symmetry_cell_setting 'triclinic'
loop_
_space_group_symop_operation_xyz
x,y,z
-x,-y,-z
loop_
_atom_site_type_symbol
_atom_site_label
_atom_site_fract_x
_atom_site_fract_y
_atom_site_fract_z
Si Si1 0.439306 0.746743 0.141811
Si Si2 0.102397 0.975301 0.647158
Si Si3 0.696665 0.495802 0.112821
Si Si4 0.287774 0.894450 0.025472
Si Si5 0.172068 0.275298 0.332252
Si Si6 0.284799 0.513765 0.549158
Si Si7 0.432683 0.931336 0.615758
Si Si8 0.779297 0.331206 0.639816
O O1 0.394105 0.717480 0.289401
O O2 0.703594 0.878783 0.200084
O O3 0.358608 0.620431 0.015629
O O4 0.299309 0.788307 0.058619
O O5 0.249849 0.938075 0.630436
O O6 0.881411 0.846173 0.633167
O O7 0.000000 0.000000 0.500000
O O8 0.695834 0.472801 0.274400
O O9 0.979788 0.621780 0.208843
O O10 0.500000 0.500000 0.000000
O O11 0.031920 0.805643 0.862058
O O12 0.500000 0.000000 0.000000
O O13 0.346220 0.983395 0.193998
O O14 0.150568 0.362811 0.439455
O O15 0.439016 0.383405 0.385989
O O16 0.180658 0.558165 0.423410
O O17 0.326750 0.787154 0.522749
O O18 0.500000 0.000000 0.500000
#
# Coordination Sequence:
#
# PCOD9057833 Si02
#       8
#     2   2   2   2   2   2   2   2
#     4  11  25  45  70 104 141 185 236 285 370 418
#     4  11  23  42  71  99 140 185 228 295 350 422
#     4  12  30  45  70 109 143 186 242 301 351 424
#     4  11  22  43  72 103 142 186 232 293 356 422
#     4  11  24  46  72 104 142 191 241 295 354 427
#     4  11  28  46  74 102 144 194 244 290 358 426
#     4  11  23  42  70 107 137 182 236 286 355 422
#     4  12  25  49  75 100 147 193 236 293 360 436
#
# _framework density 21.496393999999999
#
# number of rings (size 3 to 8) (size 9 to 14) (size 15 to 20)
#    0.000    0.750    5.000    3.000   10.500    0.000 
#    0.000    1.250    0.000    0.000    0.000    0.000 
#    0.000    0.000    0.000    0.000    0.000    0.000 
#
# Total GULP energy -89252.339956 kJ/mol
# GULP energy per Si atom -5578.271247 kJ/mol
# Density = 2.144747 g / cm^3
# Si number density = 21.496394 Si / 1000 Ang^3
#
#
#
# Elastic Constant Matrix: (Units=GPa)
#
#
# Indices 1 2 3 4 5 6 
#
# 1 44.4814 19.2991 56.1224 9.0450 5.2908 -3.0222
# 2 19.2991 93.9227 60.6510 -3.5582 8.3700 -3.4653
# 3 56.1224 60.6510 174.8109 20.5065 3.8126 -15.4516
# 4 9.0450 -3.5582 20.5065 48.0025 -1.1623 -1.2618
# 5 5.2908 8.3700 3.8126 -1.1623 42.5107 -0.4657
# 6 -3.0222 -3.4653 -15.4516 -1.2618 -0.4657 37.6268
#
#
#
# Elastic Compliance Matrix: (Units=1/GPa)
#
#
# Indices 1 2 3 4 5 6 
#
# 1 0.038730 0.000201 -0.012350 -0.002154 -0.003834 -0.002062
# 2 0.000201 0.014448 -0.005487 0.003300 -0.002296 -0.000824
# 3 -0.012350 -0.005487 0.012234 -0.003180 0.001471 0.003438
# 4 -0.002154 0.003300 -0.003180 0.022843 0.000524 -0.000402
# 5 -0.003834 -0.002296 0.001471 0.000524 0.024340 0.000403
# 6 -0.002062 -0.000824 0.003438 -0.000402 0.000403 0.027739
#
#
# Mechanical properties :
#
#
# Convention : Reuss Voigt Hill
#
# Bulk Modulus (GPa) = 33.17876 65.04000 49.10938
# Shear Modulus (GPa) = 26.93201 37.43750 32.18476
#
# Velocity S-wave (km/s) = 3.54342 4.17774 3.87359
# Velocity P-wave (km/s) = 5.67531 7.32074 6.54990
#
# Compressibility (1/GPa) = 0.03013976
#
# Stress axis : x y z
#
# Youngs Moduli (GPa) = 25.81997 69.21136 81.73992
#
# Poissons Ratio (x) = -0.01389 1.00945
# Poissons Ratio (y) = -0.00518 0.44853
# Poissons Ratio (z) = 0.31887 0.37978
#
# Static dielectric constant tensor:
#      x y z
#    x 1.848500 0.044340 0.017640 
#    y 0.044340 1.749660 -0.011470 
#    z 0.017640 -0.011470 1.776560 
# 
# From -- ./inp_files/207944.got.cif
#   From: 2010.05.17/outbox.cif.g08.bks.cpg/sg2_104_cif.got.tgz:207944.got - 2010.06.03 11:33:40.
