data_PCOD9057336
_publ_section_title
;
Structure prediction by ZEFSAII (Michael W. Deem and Ramdas Pophale) SiO2 
 PCOD9057336
Probable space group: P -1
;
_chemical_formula_sum "Si O2"
_cell_formula_units_Z 16
_cell_length_a 22.011975
_cell_length_b 9.391496
_cell_length_c 11.012317
_cell_angle_alpha 126.304371
_cell_angle_beta 39.983331
_cell_angle_gamma 150.713268
_cell_volume 694.224860
_symmetry_space_group_name_H-M "P -1"
_symmetry_group_IT_number 2
_symmetry_cell_setting 'triclinic'
loop_
_space_group_symop_operation_xyz
x,y,z
-x,-y,-z
loop_
_atom_site_type_symbol
_atom_site_label
_atom_site_fract_x
_atom_site_fract_y
_atom_site_fract_z
Si Si1 0.323436 0.790783 0.704731
Si Si2 0.964022 0.323568 0.351305
Si Si3 0.303849 0.847030 0.111622
Si Si4 0.335121 0.165416 0.039065
Si Si5 0.232370 0.866893 0.662982
Si Si6 0.483442 0.143093 0.230442
Si Si7 0.217121 0.195541 0.012842
Si Si8 0.910822 0.871343 0.201585
O O1 0.227569 0.704708 0.686767
O O2 0.228206 0.484876 0.756310
O O3 0.500000 0.000000 0.500000
O O4 0.339467 0.992809 0.863213
O O5 0.905922 0.341081 0.331432
O O6 0.000000 0.500000 0.500000
O O7 0.139815 0.503127 0.156836
O O8 0.850145 0.980990 0.367726
O O9 0.345701 0.922592 0.227316
O O10 0.451932 0.955497 0.888318
O O11 0.273827 0.992178 0.171806
O O12 0.248447 0.177331 0.092730
O O13 0.500000 0.500000 0.000000
O O14 0.401663 0.109625 0.454247
O O15 0.214491 0.019790 0.841839
O O16 0.632577 0.464862 0.098479
O O17 0.046473 0.030510 0.173880
O O18 0.000000 0.000000 0.000000
#
# Coordination Sequence:
#
# PCOD9057336 Si02
#       8
#     2   2   2   2   2   2   2   2
#     4  11  28  48  72 103 145 191 236 294 360 426
#     4  12  25  45  70 104 140 185 239 299 356 419
#     4  11  23  40  70  97 143 186 236 294 358 415
#     4  11  24  43  69 102 140 182 235 294 349 417
#     4  11  25  42  70 102 143 180 241 289 357 420
#     4  11  22  42  68 101 138 188 239 291 350 421
#     4  11  24  42  70 103 137 188 240 286 360 427
#     4  12  26  48  74 102 142 192 239 294 361 429
#
# _framework density 23.047288000000002
#
# number of rings (size 3 to 8) (size 9 to 14) (size 15 to 20)
#    0.000    0.750    5.000    1.875    3.500    4.000 
#    2.250    0.625    0.000    0.000    0.000    0.000 
#    0.000    0.000    0.000    0.000    0.000    0.000 
#
# Total GULP energy -89390.665491 kJ/mol
# GULP energy per Si atom -5586.916593 kJ/mol
# Density = 2.299483 g / cm^3
# Si number density = 23.047288 Si / 1000 Ang^3
#
#
#
# Elastic Constant Matrix: (Units=GPa)
#
#
# Indices 1 2 3 4 5 6 
#
# 1 177.0208 42.9983 21.1099 3.2484 2.7694 11.0940
# 2 42.9983 126.4985 8.6926 1.2930 8.3069 -5.4544
# 3 21.1099 8.6926 52.7555 4.7803 5.6750 -2.0178
# 4 3.2484 1.2930 4.7803 31.4108 3.4111 1.0876
# 5 2.7694 8.3069 5.6750 3.4111 18.2762 -0.1268
# 6 11.0940 -5.4544 -2.0178 1.0876 -0.1268 44.7193
#
#
#
# Elastic Compliance Matrix: (Units=1/GPa)
#
#
# Indices 1 2 3 4 5 6 
#
# 1 0.006591 -0.002210 -0.002413 -0.000239 0.000786 -0.002006
# 2 -0.002210 0.008980 -0.000153 0.000231 -0.003731 0.001620
# 3 -0.002413 -0.000153 0.020820 -0.002361 -0.005578 0.001561
# 4 -0.000239 0.000231 -0.002361 0.032834 -0.005470 -0.000833
# 5 0.000786 -0.003731 -0.005578 -0.005470 0.059042 -0.000601
# 6 -0.002006 0.001620 0.001561 -0.000833 -0.000601 0.023146
#
#
# Mechanical properties :
#
#
# Convention : Reuss Voigt Hill
#
# Bulk Modulus (GPa) = 37.25947 55.76406 46.51177
# Shear Modulus (GPa) = 29.42731 37.77952 33.60342
#
# Velocity S-wave (km/s) = 3.57714 4.05312 3.82255
# Velocity P-wave (km/s) = 5.76740 6.79350 6.30137
#
# Compressibility (1/GPa) = 0.02683881
#
# Stress axis : x y z
#
# Youngs Moduli (GPa) = 151.71096 111.36391 48.03125
#
# Poissons Ratio (x) = 0.24615 0.11590
# Poissons Ratio (y) = 0.33533 0.00734
# Poissons Ratio (z) = 0.36607 0.01701
#
# Static dielectric constant tensor:
#      x y z
#    x 1.916120 -0.046080 0.026760 
#    y -0.046080 2.012420 -0.057620 
#    z 0.026760 -0.057620 1.915590 
# 
# From -- ./inp_files/470133.got.cif
#   From: 2010.05.17/outbox.cif.g08.bks.cpg/sg2_236_cif.got.tgz:470133.got - 2010.06.03 11:33:40.
