data_PCOD9057408
_publ_section_title
;
Structure prediction by ZEFSAII (Michael W. Deem and Ramdas Pophale) SiO2 
 PCOD9057408
Probable space group: P -1
;
_chemical_formula_sum "Si O2"
_cell_formula_units_Z 16
_cell_length_a 14.717888
_cell_length_b 14.549346
_cell_length_c 8.797356
_cell_angle_alpha 129.851704
_cell_angle_beta 78.441601
_cell_angle_gamma 140.795829
_cell_volume 724.096684
_symmetry_space_group_name_H-M "P -1"
_symmetry_group_IT_number 2
_symmetry_cell_setting 'triclinic'
loop_
_space_group_symop_operation_xyz
x,y,z
-x,-y,-z
loop_
_atom_site_type_symbol
_atom_site_label
_atom_site_fract_x
_atom_site_fract_y
_atom_site_fract_z
Si Si1 0.591770 0.206777 0.092219
Si Si2 0.358016 0.301255 0.544222
Si Si3 0.898088 0.510883 0.063269
Si Si4 0.992713 0.049109 0.886649
Si Si5 0.148480 0.005956 0.610565
Si Si6 0.555663 0.764115 0.029821
Si Si7 0.339922 0.564748 0.417667
Si Si8 0.401472 0.768660 0.334879
O O1 0.733572 0.321075 0.038654
O O2 0.441751 0.125908 0.976565
O O3 0.700690 0.415823 0.390524
O O4 0.500000 0.000000 0.000000
O O5 0.277335 0.185177 0.616349
O O6 0.433359 0.519914 0.751415
O O7 0.524791 0.396030 0.563128
O O8 0.199944 0.111010 0.269986
O O9 0.806604 0.439672 0.857867
O O10 0.027030 0.761217 0.336681
O O11 0.000000 0.500000 0.000000
O O12 0.033837 0.992983 0.688153
O O13 0.162682 0.326618 0.133769
O O14 0.000000 0.000000 0.000000
O O15 0.261816 0.089432 0.808718
O O16 0.465431 0.728721 0.168206
O O17 0.435924 0.769290 0.495329
O O18 0.500000 0.000000 0.500000
#
# Coordination Sequence:
#
# PCOD9057408 Si02
#       8
#     2   2   2   2   2   2   2   2
#     4  11  27  48  72  99 144 190 237 292 356 425
#     4  12  25  43  74 106 141 188 234 291 360 430
#     4  11  25  45  71 102 137 183 244 297 352 418
#     4  12  26  42  66 104 147 180 229 292 361 422
#     4  12  23  43  69 105 143 178 236 296 353 419
#     4  11  22  43  69 101 139 191 234 284 358 428
#     4  12  24  45  71 104 142 183 237 288 363 424
#     4  11  22  42  69  97 136 185 236 288 347 421
#
# _framework density 22.096498
#
# number of rings (size 3 to 8) (size 9 to 14) (size 15 to 20)
#    0.000    0.500    2.500    7.500    3.500    1.000 
#    0.000    1.250    0.000    0.000    0.000    0.000 
#    0.000    0.000    0.000    0.000    0.000    0.000 
#
# Total GULP energy -89553.802840 kJ/mol
# GULP energy per Si atom -5597.112677 kJ/mol
# Density = 2.204621 g / cm^3
# Si number density = 22.096498 Si / 1000 Ang^3
#
#
#
# Elastic Constant Matrix: (Units=GPa)
#
#
# Indices 1 2 3 4 5 6 
#
# 1 118.2407 41.5389 49.9452 3.7259 9.1397 -11.0772
# 2 41.5389 79.3193 16.0026 -0.9198 -11.6966 -22.9300
# 3 49.9452 16.0026 134.4907 7.5516 6.1062 -0.5428
# 4 3.7259 -0.9198 7.5516 37.2935 2.6157 -3.9370
# 5 9.1397 -11.6966 6.1062 2.6157 42.3454 -6.7647
# 6 -11.0772 -22.9300 -0.5428 -3.9370 -6.7647 39.7988
#
#
#
# Elastic Compliance Matrix: (Units=1/GPa)
#
#
# Indices 1 2 3 4 5 6 
#
# 1 0.012653 -0.006895 -0.003660 -0.000528 -0.004280 -0.001281
# 2 -0.006895 0.021159 -0.000434 0.001922 0.009197 0.012019
# 3 -0.003660 -0.000434 0.008962 -0.001558 -0.000754 -0.001429
# 4 -0.000528 0.001922 -0.001558 0.027631 -0.000257 0.003629
# 5 -0.004280 0.009197 -0.000754 -0.000257 0.028632 0.008938
# 6 -0.001281 0.012019 -0.001429 0.003629 0.008938 0.033553
#
#
# Mechanical properties :
#
#
# Convention : Reuss Voigt Hill
#
# Bulk Modulus (GPa) = 48.08613 60.78046 54.43330
# Shear Modulus (GPa) = 30.95972 38.85846 34.90909
#
# Velocity S-wave (km/s) = 3.74721 4.19809 3.97904
# Velocity P-wave (km/s) = 6.36641 7.14599 6.76744
#
# Compressibility (1/GPa) = 0.02079602
#
# Stress axis : x y z
#
# Youngs Moduli (GPa) = 79.03207 47.26176 111.58102
#
# Poissons Ratio (x) = 0.32589 0.40835
# Poissons Ratio (y) = 0.54496 0.04841
# Poissons Ratio (z) = 0.28923 0.02050
#
# Static dielectric constant tensor:
#      x y z
#    x 1.866360 -0.054770 -0.004950 
#    y -0.054770 1.885970 0.014600 
#    z -0.004950 0.014600 1.835660 
# 
# From -- ./inp_files/315502.got.cif
#   From: 2010.05.17/outbox.cif.g08.bks.cpg/sg2_158_cif.got.tgz:315502.got - 2010.06.03 11:33:40.
