data_PCOD9057243
_publ_section_title
;
Structure prediction by ZEFSAII (Michael W. Deem and Ramdas Pophale) SiO2 
 PCOD9057243
Probable space group: P -1
;
_chemical_formula_sum "Si O2"
_cell_formula_units_Z 16
_cell_length_a 6.885499
_cell_length_b 8.077412
_cell_length_c 14.676980
_cell_angle_alpha 84.082160
_cell_angle_beta 62.941663
_cell_angle_gamma 96.260722
_cell_volume 711.773007
_symmetry_space_group_name_H-M "P -1"
_symmetry_group_IT_number 2
_symmetry_cell_setting 'triclinic'
loop_
_space_group_symop_operation_xyz
x,y,z
-x,-y,-z
loop_
_atom_site_type_symbol
_atom_site_label
_atom_site_fract_x
_atom_site_fract_y
_atom_site_fract_z
Si Si1 0.106829 0.614806 0.209829
Si Si2 0.101119 0.736408 0.407871
Si Si3 0.648097 0.555401 0.555980
Si Si4 0.510453 0.450374 0.105068
Si Si5 0.970320 0.908154 0.112435
Si Si6 0.716011 0.362175 0.232867
Si Si7 0.522732 0.968930 0.263892
Si Si8 0.368749 0.066665 0.107553
O O1 0.053365 0.691545 0.313472
O O2 0.344256 0.562242 0.175512
O O3 0.083737 0.745247 0.123757
O O4 0.941418 0.441344 0.230485
O O5 0.220305 0.593240 0.436145
O O6 0.848788 0.717922 0.498227
O O7 0.298549 0.898025 0.371224
O O8 0.500000 0.500000 0.500000
O O9 0.479721 0.583567 0.669169
O O10 0.716686 0.454919 0.128589
O O11 0.435881 0.251398 0.122181
O O12 0.500000 0.500000 0.000000
O O13 0.726002 0.868241 0.210400
O O14 0.116842 0.049854 0.134086
O O15 0.000000 0.000000 0.000000
O O16 0.645684 0.159106 0.250491
O O17 0.420221 0.956032 0.185936
O O18 0.500000 0.000000 0.000000
#
# Coordination Sequence:
#
# PCOD9057243 Si02
#       8
#     2   2   2   2   2   2   2   2
#     4  12  24  43  70  98 137 181 231 281 340 406
#     4  11  24  43  72 102 130 178 229 279 346 417
#     4  11  23  45  76 102 130 175 229 284 350 410
#     4  11  26  40  66  99 137 181 228 279 338 402
#     4  12  25  38  67  96 137 189 233 277 330 406
#     4  11  25  45  68 100 139 174 227 292 340 405
#     4  11  25  43  64  98 137 178 227 279 341 405
#     4  11  22  42  63  91 135 182 229 277 333 397
#
# _framework density 22.479077
#
# number of rings (size 3 to 8) (size 9 to 14) (size 15 to 20)
#    0.000    0.750    5.000    2.250    3.500    1.000 
#    0.000    0.625    0.000    0.000    0.000    0.000 
#    0.000    0.000    0.000    0.000    0.000    0.000 
#
# Total GULP energy -89072.053364 kJ/mol
# GULP energy per Si atom -5567.003335 kJ/mol
# Density = 2.242791 g / cm^3
# Si number density = 22.479077 Si / 1000 Ang^3
#
#
#
# Elastic Constant Matrix: (Units=GPa)
#
#
# Indices 1 2 3 4 5 6 
#
# 1 95.9649 24.6930 5.3314 -11.1592 10.4585 11.2482
# 2 24.6930 68.8232 3.1296 -10.5107 8.4109 6.5834
# 3 5.3314 3.1296 42.8347 -6.7192 3.1804 -1.3796
# 4 -11.1592 -10.5107 -6.7192 24.6770 4.6141 -5.1246
# 5 10.4585 8.4109 3.1804 4.6141 27.8099 0.7300
# 6 11.2482 6.5834 -1.3796 -5.1246 0.7300 35.5086
#
#
#
# Elastic Compliance Matrix: (Units=1/GPa)
#
#
# Indices 1 2 3 4 5 6 
#
# 1 0.012541 -0.002982 -0.000381 0.004574 -0.004459 -0.002683
# 2 -0.002982 0.017401 0.000553 0.006973 -0.005331 -0.001144
# 3 -0.000381 0.000553 0.025022 0.008148 -0.004297 0.002255
# 4 0.004574 0.006973 0.008148 0.051384 -0.013425 0.005267
# 5 -0.004459 -0.005331 -0.004297 -0.013425 0.041981 -0.000566
# 6 -0.002683 -0.001144 0.002255 0.005267 -0.000566 0.030084
#
#
# Mechanical properties :
#
#
# Convention : Reuss Voigt Hill
#
# Bulk Modulus (GPa) = 20.26617 30.43677 25.35147
# Shear Modulus (GPa) = 24.93985 29.23035 27.08510
#
# Velocity S-wave (km/s) = 3.33448 3.60993 3.47494
# Velocity P-wave (km/s) = 4.88469 5.56281 5.23474
#
# Compressibility (1/GPa) = 0.04934332
#
# Stress axis : x y z
#
# Youngs Moduli (GPa) = 79.73630 57.46905 39.96433
#
# Poissons Ratio (x) = 0.17138 0.01522
# Poissons Ratio (y) = 0.23779 -0.02208
# Poissons Ratio (z) = 0.03037 -0.03176
#
# Static dielectric constant tensor:
#      x y z
#    x 2.726350 0.072220 0.496830 
#    y 0.072220 1.845520 -0.012490 
#    z 0.496830 -0.012490 2.465760 
# 
# From -- ./inp_files/288672.got.cif
#   From: 2010.05.17/outbox.cif.g08.bks.cpg/sg2_145_cif.got.tgz:288672.got - 2010.06.03 11:33:40.
