data_PCOD9057218
_publ_section_title
;
Structure prediction by ZEFSAII (Michael W. Deem and Ramdas Pophale) SiO2 
 PCOD9057218
Probable space group: P -1
;
_chemical_formula_sum "Si O2"
_cell_formula_units_Z 16
_cell_length_a 12.629197
_cell_length_b 9.186634
_cell_length_c 18.446779
_cell_angle_alpha 150.184937
_cell_angle_beta 45.171452
_cell_angle_gamma 130.256071
_cell_volume 751.058441
_symmetry_space_group_name_H-M "P -1"
_symmetry_group_IT_number 2
_symmetry_cell_setting 'triclinic'
loop_
_space_group_symop_operation_xyz
x,y,z
-x,-y,-z
loop_
_atom_site_type_symbol
_atom_site_label
_atom_site_fract_x
_atom_site_fract_y
_atom_site_fract_z
Si Si1 0.406693 0.811439 0.601575
Si Si2 0.143666 0.773865 0.612351
Si Si3 0.167278 0.794475 0.253001
Si Si4 0.333444 0.726560 0.365472
Si Si5 0.371198 0.067971 0.034998
Si Si6 0.952412 0.302873 0.589366
Si Si7 0.072502 0.773694 0.128017
Si Si8 0.486588 0.139240 0.265766
O O1 0.244982 0.872025 0.675233
O O2 0.432332 0.467988 0.429236
O O3 0.435020 0.879223 0.702005
O O4 0.528518 0.027001 0.592774
O O5 0.260360 0.654638 0.448169
O O6 0.013017 0.546182 0.607937
O O7 0.060104 0.013888 0.714037
O O8 0.091936 0.583935 0.261216
O O9 0.127987 0.699729 0.149432
O O10 0.342241 0.897920 0.223691
O O11 0.081933 0.086546 0.435017
O O12 0.373789 0.420317 0.180131
O O13 0.204797 0.847096 0.429829
O O14 0.213527 0.935224 0.087014
O O15 0.500000 0.000000 0.000000
O O16 0.405479 0.920484 0.878527
O O17 0.000000 0.500000 0.000000
#
# Coordination Sequence:
#
# PCOD9057218 Si02
#       8
#     2   2   2   2   2   2   2   2
#     4  11  26  43  71 104 137 185 229 282 339 404
#     4  12  24  45  68 100 140 174 237 285 333 406
#     4  11  22  45  72  99 137 180 226 282 350 405
#     4  12  24  43  70 103 134 185 236 279 336 412
#     4  12  26  43  70  98 140 184 228 282 350 407
#     4  11  22  41  74 100 127 180 231 284 335 409
#     4  12  28  45  68 104 138 181 228 290 349 403
#     4  11  24  45  69 103 145 177 230 282 345 410
#
# _framework density 21.303270999999999
#
# number of rings (size 3 to 8) (size 9 to 14) (size 15 to 20)
#    0.000    0.500    6.250    2.250    3.500    1.500 
#    2.250    1.250    0.000    0.000    0.000    0.000 
#    0.000    0.000    0.000    0.000    0.000    0.000 
#
# Total GULP energy -89446.849057 kJ/mol
# GULP energy per Si atom -5590.428066 kJ/mol
# Density = 2.125478 g / cm^3
# Si number density = 21.303271 Si / 1000 Ang^3
#
#
#
# Elastic Constant Matrix: (Units=GPa)
#
#
# Indices 1 2 3 4 5 6 
#
# 1 108.8759 6.1331 20.4856 -13.0909 18.8925 6.5113
# 2 6.1331 79.5675 22.6890 -8.0203 22.0596 -1.5535
# 3 20.4856 22.6890 70.9140 -19.7775 20.5018 -5.0598
# 4 -13.0909 -8.0203 -19.7775 30.9618 -5.0331 10.5530
# 5 18.8925 22.0596 20.5018 -5.0331 35.8197 -8.0381
# 6 6.5113 -1.5535 -5.0598 10.5530 -8.0381 40.0725
#
#
#
# Elastic Compliance Matrix: (Units=1/GPa)
#
#
# Indices 1 2 3 4 5 6 
#
# 1 0.011326 0.001677 -0.000675 0.005245 -0.006922 -0.004630
# 2 0.001677 0.015973 -0.002228 0.002739 -0.009642 -0.002590
# 3 -0.000675 -0.002228 0.020699 0.011661 -0.008982 -0.002236
# 4 0.005245 0.002739 0.011661 0.045826 -0.007574 -0.012861
# 5 -0.006922 -0.009642 -0.008982 -0.007574 0.043922 0.010422
# 6 -0.004630 -0.002590 -0.002236 -0.012861 0.010422 0.030802
#
#
# Mechanical properties :
#
#
# Convention : Reuss Voigt Hill
#
# Bulk Modulus (GPa) = 21.95597 39.77475 30.86536
# Shear Modulus (GPa) = 26.85537 35.37412 31.11475
#
# Velocity S-wave (km/s) = 3.55438 4.07935 3.82588
# Velocity P-wave (km/s) = 5.21282 6.39526 5.83408
#
# Compressibility (1/GPa) = 0.04554570
#
# Stress axis : x y z
#
# Youngs Moduli (GPa) = 88.29241 62.60628 48.31141
#
# Poissons Ratio (x) = -0.10498 0.03259
# Poissons Ratio (y) = -0.14805 0.10765
# Poissons Ratio (z) = 0.05956 0.13951
#
# Static dielectric constant tensor:
#      x y z
#    x 1.807450 -0.049090 0.001520 
#    y -0.049090 1.779900 -0.008030 
#    z 0.001520 -0.008030 1.785500 
# 
# From -- ./inp_files/333006.got.cif
#   From: 2010.05.17/outbox.cif.g08.bks.cpg/sg2_167_cif.got.tgz:333006.got - 2010.06.03 11:33:40.
