data_PCOD9057184
_publ_section_title
;
Structure prediction by ZEFSAII (Michael W. Deem and Ramdas Pophale) SiO2 
 PCOD9057184
Probable space group: P -1
;
_chemical_formula_sum "Si O2"
_cell_formula_units_Z 14
_cell_length_a 7.782052
_cell_length_b 4.540607
_cell_length_c 16.225192
_cell_angle_alpha 106.673725
_cell_angle_beta 72.582103
_cell_angle_gamma 105.080529
_cell_volume 514.416946
_symmetry_space_group_name_H-M "P -1"
_symmetry_group_IT_number 2
_symmetry_cell_setting 'triclinic'
loop_
_space_group_symop_operation_xyz
x,y,z
-x,-y,-z
loop_
_atom_site_type_symbol
_atom_site_label
_atom_site_fract_x
_atom_site_fract_y
_atom_site_fract_z
Si Si1 0.946278 0.735029 0.742379
Si Si2 0.930247 0.092857 0.929133
Si Si3 0.295775 0.257199 0.366372
Si Si4 0.818453 0.217892 0.513562
Si Si5 0.284291 0.631033 0.903691
Si Si6 0.580979 0.881003 0.217804
Si Si7 0.816778 0.745538 0.326969
O O1 0.899407 0.804405 0.847372
O O2 0.794192 0.597168 0.687625
O O3 0.990885 0.086354 0.727203
O O4 0.129487 0.589218 0.690224
O O5 0.095010 0.371873 0.898573
O O6 0.306775 0.879393 0.846061
O O7 0.747314 0.217869 0.991566
O O8 0.212992 0.036161 0.575198
O O9 0.439681 0.076331 0.290740
O O10 0.341537 0.573872 0.440351
O O11 0.820178 0.000759 0.576334
O O12 0.000000 0.500000 0.500000
O O13 0.449674 0.440302 0.856567
O O14 0.000000 0.000000 0.000000
O O15 0.673311 0.763189 0.276939
#
# Coordination Sequence:
#
# PCOD9057184 Si02
#       7
#     2   2   2   2   2   2   2
#     4  12  26  42  72 106 133 186 238 281 344 421
#     4  11  22  41  72 107 135 177 244 289 334 402
#     4  12  28  46  70 103 146 186 223 291 362 415
#     4  12  26  46  73 103 139 181 242 294 339 406
#     4  11  23  40  71 101 143 180 225 292 342 408
#     4  12  25  46  68 105 149 183 223 286 365 414
#     4  12  25  42  74 101 137 185 238 287 341 412
#
# _framework density 27.21528
#
# number of rings (size 3 to 8) (size 9 to 14) (size 15 to 20)
#    0.000    0.286    4.286    4.714    2.000    1.143 
#    0.000    1.429    0.000    0.000    0.000    0.000 
#    0.000    0.000    0.000    0.000    0.000    0.000 
#
# Total GULP energy -78171.542105 kJ/mol
# GULP energy per Si atom -5583.681579 kJ/mol
# Density = 2.715334 g / cm^3
# Si number density = 27.215280 Si / 1000 Ang^3
#
#
#
# Elastic Constant Matrix: (Units=GPa)
#
#
# Indices 1 2 3 4 5 6 
#
# 1 34.4044 31.7903 31.5991 -3.8052 -7.0616 -13.1970
# 2 31.7903 167.0635 81.7465 9.4302 -4.4729 -20.0965
# 3 31.5991 81.7465 242.8984 29.2502 -12.1665 -13.7831
# 4 -3.8052 9.4302 29.2502 71.0642 -4.6287 -11.3337
# 5 -7.0616 -4.4729 -12.1665 -4.6287 37.6722 2.9506
# 6 -13.1970 -20.0965 -13.7831 -11.3337 2.9506 42.4873
#
#
#
# Elastic Compliance Matrix: (Units=1/GPa)
#
#
# Indices 1 2 3 4 5 6 
#
# 1 0.043842 -0.005364 -0.003764 0.006813 0.006322 0.011238
# 2 -0.005364 0.008143 -0.001953 -0.000377 -0.000834 0.001509
# 3 -0.003764 -0.001953 0.005521 -0.002328 0.000635 -0.000967
# 4 0.006813 -0.000377 -0.002328 0.016445 0.002076 0.005425
# 5 0.006322 -0.000834 0.000635 0.002076 0.028061 0.000380
# 6 0.011238 0.001509 -0.000967 0.005425 0.000380 0.028848
#
#
# Mechanical properties :
#
#
# Convention : Reuss Voigt Hill
#
# Bulk Modulus (GPa) = 28.29466 81.62646 54.96056
# Shear Modulus (GPa) = 30.33907 50.19345 40.26626
#
# Velocity S-wave (km/s) = 3.34246 4.29920 3.85066
# Velocity P-wave (km/s) = 5.03142 7.39609 6.32524
#
# Compressibility (1/GPa) = 0.03534236
#
# Stress axis : x y z
#
# Youngs Moduli (GPa) = 22.80935 122.80873 181.11781
#
# Poissons Ratio (x) = 0.65877 0.68176
# Poissons Ratio (y) = 0.12235 0.35377
# Poissons Ratio (z) = 0.08586 0.23988
#
# Static dielectric constant tensor:
#      x y z
#    x 2.300880 0.010810 -0.096210 
#    y 0.010810 2.089310 0.060410 
#    z -0.096210 0.060410 2.230650 
# 
# From -- ./inp_files/339408.got.cif
#   From: 2010.05.17/outbox.cif.g08.bks.cpg/sg2_170_cif.got.tgz:339408.got - 2010.06.03 11:33:40.
