data_PCOD9057618
_publ_section_title
;
Structure prediction by ZEFSAII (Michael W. Deem and Ramdas Pophale) SiO2 
 PCOD9057618
Probable space group: P -1
;
_chemical_formula_sum "Si O2"
_cell_formula_units_Z 14
_cell_length_a 21.467351
_cell_length_b 9.655626
_cell_length_c 9.626379
_cell_angle_alpha 136.931625
_cell_angle_beta 128.174920
_cell_angle_gamma 29.690911
_cell_volume 674.102026
_symmetry_space_group_name_H-M "P -1"
_symmetry_group_IT_number 2
_symmetry_cell_setting 'triclinic'
loop_
_space_group_symop_operation_xyz
x,y,z
-x,-y,-z
loop_
_atom_site_type_symbol
_atom_site_label
_atom_site_fract_x
_atom_site_fract_y
_atom_site_fract_z
Si Si1 0.256594 0.880657 0.611284
Si Si2 0.859884 0.780639 0.574953
Si Si3 0.141217 0.717036 0.424995
Si Si4 0.482609 0.592768 0.210395
Si Si5 0.718322 0.689609 0.431635
Si Si6 0.729340 0.279849 0.980173
Si Si7 0.854279 0.746777 0.996905
O O1 0.186948 0.800574 0.446300
O O2 0.391450 0.622449 0.684108
O O3 0.242323 0.007251 0.534428
O O4 0.172794 0.163228 0.814543
O O5 0.824801 0.646244 0.512674
O O6 0.000000 0.500000 0.500000
O O7 0.832493 0.024713 0.817676
O O8 0.230938 0.563250 0.567558
O O9 0.170020 0.437771 0.204524
O O10 0.000000 0.000000 0.500000
O O11 0.400919 0.565583 0.132316
O O12 0.397398 0.958699 0.400783
O O13 0.500000 0.500000 0.000000
O O14 0.703746 0.563992 0.191334
O O15 0.777040 0.046130 0.005457
O O16 0.000000 0.500000 0.000000
#
# Coordination Sequence:
#
# PCOD9057618 Si02
#       7
#     2   2   2   2   2   2   2
#     4  12  25  39  67 100 127 172 220 275 326 389
#     4  11  25  44  65  96 138 168 216 278 337 392
#     4  12  21  38  65  96 123 167 223 270 324 389
#     4  11  22  43  65  98 136 168 225 274 324 391
#     4  11  23  42  68  92 131 183 213 267 337 389
#     4  11  23  43  65  93 131 179 214 268 332 387
#     4  12  21  39  64  94 126 166 219 272 322 384
#
# _framework density 20.768370000000001
#
# number of rings (size 3 to 8) (size 9 to 14) (size 15 to 20)
#    0.000    0.571    7.143    1.714    0.000    7.429 
#    0.000    1.429    0.000    0.000    0.000    0.000 
#    0.000    0.000    0.000    0.000    0.000    0.000 
#
# Total GULP energy -78059.599969 kJ/mol
# GULP energy per Si atom -5575.685712 kJ/mol
# Density = 2.072110 g / cm^3
# Si number density = 20.768370 Si / 1000 Ang^3
#
#
#
# Elastic Constant Matrix: (Units=GPa)
#
#
# Indices 1 2 3 4 5 6 
#
# 1 44.2527 6.6564 23.2182 11.2326 2.4489 -9.5537
# 2 6.6564 61.8292 25.4057 5.1137 1.5578 -15.7289
# 3 23.2182 25.4057 170.3385 23.0278 5.7521 -4.7632
# 4 11.2326 5.1137 23.0278 30.6893 -1.4520 -7.6560
# 5 2.4489 1.5578 5.7521 -1.4520 40.7040 -4.3464
# 6 -9.5537 -15.7289 -4.7632 -7.6560 -4.3464 33.0288
#
#
#
# Elastic Compliance Matrix: (Units=1/GPa)
#
#
# Indices 1 2 3 4 5 6 
#
# 1 0.026910 0.000245 -0.002634 -0.006481 -0.000857 0.005906
# 2 0.000245 0.019593 -0.002875 0.001167 0.000681 0.009347
# 3 -0.002634 -0.002875 0.007260 -0.004637 -0.001170 -0.002313
# 4 -0.006481 0.001167 -0.004637 0.040341 0.003272 0.007794
# 5 -0.000857 0.000681 -0.001170 0.003272 0.025302 0.003996
# 6 0.005906 0.009347 -0.002313 0.007794 0.003996 0.038435
#
#
# Mechanical properties :
#
#
# Convention : Reuss Voigt Hill
#
# Bulk Modulus (GPa) = 23.12945 42.99790 33.06367
# Shear Modulus (GPa) = 27.35526 35.62710 31.49118
#
# Velocity S-wave (km/s) = 3.63321 4.14629 3.89820
# Velocity P-wave (km/s) = 5.36296 6.60839 6.01798
#
# Compressibility (1/GPa) = 0.04323493
#
# Stress axis : x y z
#
# Youngs Moduli (GPa) = 37.16065 51.03954 137.73667
#
# Poissons Ratio (x) = -0.01253 0.36286
# Poissons Ratio (y) = -0.00912 0.39600
# Poissons Ratio (z) = 0.09790 0.14674
#
# Static dielectric constant tensor:
#      x y z
#    x 1.718770 -0.030150 -0.005570 
#    y -0.030150 1.788710 -0.011120 
#    z -0.005570 -0.011120 1.816670 
# 
# From -- ./inp_files/343869.got.cif
#   From: 2010.05.17/outbox.cif.g08.bks.cpg/sg2_172_cif.got.tgz:343869.got - 2010.06.03 11:33:40.
