data_PCOD9057825
_publ_section_title
;
Structure prediction by ZEFSAII (Michael W. Deem and Ramdas Pophale) SiO2 
 PCOD9057825
Probable space group: P -1
;
_chemical_formula_sum "Si O2"
_cell_formula_units_Z 16
_cell_length_a 28.486906
_cell_length_b 4.922353
_cell_length_c 21.085734
_cell_angle_alpha 98.734797
_cell_angle_beta 13.688136
_cell_angle_gamma 102.970630
_cell_volume 653.098751
_symmetry_space_group_name_H-M "P -1"
_symmetry_group_IT_number 2
_symmetry_cell_setting 'triclinic'
loop_
_space_group_symop_operation_xyz
x,y,z
-x,-y,-z
loop_
_atom_site_type_symbol
_atom_site_label
_atom_site_fract_x
_atom_site_fract_y
_atom_site_fract_z
Si Si1 0.407657 0.234913 0.159194
Si Si2 0.852063 0.104099 0.067651
Si Si3 0.866440 0.235752 0.278287
Si Si4 0.497675 0.673521 0.308562
Si Si5 0.076822 0.678880 0.341846
Si Si6 0.530077 0.798551 0.780085
Si Si7 0.534204 0.687210 0.397228
Si Si8 0.032549 0.081388 0.318806
O O1 0.477970 0.307041 0.141567
O O2 0.155757 0.093028 0.484988
O O3 0.500000 0.500000 0.000000
O O4 0.500000 0.000000 0.000000
O O5 0.964780 0.931202 0.957841
O O6 0.637454 0.147044 0.374872
O O7 0.768455 0.911663 0.107643
O O8 0.009547 0.426396 0.861348
O O9 0.697236 0.210358 0.443790
O O10 0.729895 0.076666 0.512125
O O11 0.471632 0.448412 0.277258
O O12 0.498267 0.528448 0.371372
O O13 0.731195 0.907784 0.006952
O O14 0.000000 0.500000 0.500000
O O15 0.973676 0.902118 0.456065
O O16 0.317953 0.862608 0.045374
O O17 0.048917 0.416983 0.318485
O O18 0.500000 0.500000 0.500000
#
# Coordination Sequence:
#
# PCOD9057825 Si02
#       8
#     2   2   2   2   2   2   2   2
#     4  12  28  47  73 107 150 196 250 308 373 445
#     4  11  26  48  77 108 150 200 244 311 371 451
#     4  12  24  49  71 113 150 198 247 311 377 443
#     4  11  27  47  76 112 150 196 252 312 372 452
#     4  11  22  43  71  99 143 187 239 295 361 435
#     4  11  26  46  74 111 150 193 250 307 374 444
#     4  11  26  52  78 113 150 197 254 306 378 448
#     4  11  24  44  65 108 135 193 237 297 365 430
#
# _framework density 24.498594000000001
#
# number of rings (size 3 to 8) (size 9 to 14) (size 15 to 20)
#    0.000    0.750    3.750    2.625    3.500    4.000 
#    2.250    0.000    0.000    0.000    0.000    0.000 
#    0.000    0.000    0.000    0.000    0.000    0.000 
#
# Total GULP energy -89482.856634 kJ/mol
# GULP energy per Si atom -5592.678540 kJ/mol
# Density = 2.444283 g / cm^3
# Si number density = 24.498594 Si / 1000 Ang^3
#
#
#
# Elastic Constant Matrix: (Units=GPa)
#
#
# Indices 1 2 3 4 5 6 
#
# 1 186.2812 56.9010 39.4893 -2.8159 1.9635 -2.6253
# 2 56.9010 124.2406 34.7421 -15.1250 -8.3780 -15.9485
# 3 39.4893 34.7421 120.5310 -16.3332 -33.3336 -4.4958
# 4 -2.8159 -15.1250 -16.3332 41.6601 -5.6712 -2.2235
# 5 1.9635 -8.3780 -33.3336 -5.6712 35.6076 -3.4620
# 6 -2.6253 -15.9485 -4.4958 -2.2235 -3.4620 31.1255
#
#
#
# Elastic Compliance Matrix: (Units=1/GPa)
#
#
# Indices 1 2 3 4 5 6 
#
# 1 0.007003 -0.003274 -0.003101 -0.002692 -0.004707 -0.002251
# 2 -0.003274 0.011240 -0.000203 0.004655 0.003982 0.006229
# 3 -0.003101 -0.000203 0.014977 0.007961 0.015813 0.004125
# 4 -0.002692 0.004655 0.007961 0.030962 0.014319 0.007112
# 5 -0.004707 0.003982 0.015813 0.014319 0.047358 0.010218
# 6 -0.002251 0.006229 0.004125 0.007112 0.010218 0.037371
#
#
# Mechanical properties :
#
#
# Convention : Reuss Voigt Hill
#
# Bulk Modulus (GPa) = 49.84103 77.03530 63.43816
# Shear Modulus (GPa) = 29.62888 41.67332 35.65110
#
# Velocity S-wave (km/s) = 3.48143 4.12885 3.81889
# Velocity P-wave (km/s) = 6.04559 7.36498 6.73766
#
# Compressibility (1/GPa) = 0.02006379
#
# Stress axis : x y z
#
# Youngs Moduli (GPa) = 142.79646 88.96838 66.76907
#
# Poissons Ratio (x) = 0.29130 0.20707
# Poissons Ratio (y) = 0.46754 0.01353
# Poissons Ratio (z) = 0.44284 0.01803
#
# Static dielectric constant tensor:
#      x y z
#    x 1.855450 0.044130 0.109680 
#    y 0.044130 1.953880 0.029280 
#    z 0.109680 0.029280 1.980730 
# 
# From -- ./inp_files/52112.got.cif
#   From: 2010.05.17/outbox.cif.g08.bks.cpg/sg2_27_cif.got.tgz:52112.got - 2010.06.03 11:33:40.
