data_PCOD9057247
_publ_section_title
;
Structure prediction by ZEFSAII (Michael W. Deem and Ramdas Pophale) SiO2 
 PCOD9057247
Probable space group: P -1
;
_chemical_formula_sum "Si O2"
_cell_formula_units_Z 14
_cell_length_a 8.341757
_cell_length_b 14.496372
_cell_length_c 9.692536
_cell_angle_alpha 107.138918
_cell_angle_beta 63.480411
_cell_angle_gamma 140.395141
_cell_volume 666.061939
_symmetry_space_group_name_H-M "P -1"
_symmetry_group_IT_number 2
_symmetry_cell_setting 'triclinic'
loop_
_space_group_symop_operation_xyz
x,y,z
-x,-y,-z
loop_
_atom_site_type_symbol
_atom_site_label
_atom_site_fract_x
_atom_site_fract_y
_atom_site_fract_z
Si Si1 0.522668 0.799711 0.225290
Si Si2 0.778444 0.658796 0.302331
Si Si3 0.735077 0.869352 0.457841
Si Si4 0.372564 0.852476 0.046866
Si Si5 0.220070 0.692523 0.760397
Si Si6 0.919010 0.565885 0.419187
Si Si7 0.329237 0.514350 0.226351
O O1 0.735265 0.901286 0.311100
O O2 0.545646 0.870425 0.108629
O O3 0.474776 0.664598 0.163694
O O4 0.234720 0.714807 0.362786
O O5 0.722252 0.747725 0.399449
O O6 0.771890 0.594480 0.415087
O O7 0.566143 0.544505 0.212820
O O8 0.080551 0.764851 0.178624
O O9 0.471428 0.806289 0.608807
O O10 0.000000 0.000000 0.500000
O O11 0.324501 0.758940 0.900046
O O12 0.500000 0.000000 0.000000
O O13 0.134375 0.547219 0.707257
O O14 0.932868 0.631323 0.816621
O O15 0.814896 0.506569 0.586346
#
# Coordination Sequence:
#
# PCOD9057247 Si02
#       7
#     2   2   2   2   2   2   2
#     4   9  19  38  63  83 119 163 191 247 307 344
#     4  10  22  36  62  92 126 149 194 260 301 337
#     4  11  21  40  63  89 116 164 214 236 284 370
#     4  11  25  44  56  84 130 167 199 241 295 362
#     4  11  21  38  65  86 118 161 199 239 311 360
#     4  10  17  36  65  94 120 144 196 263 303 345
#     4  10  18  36  65  92 120 144 200 259 301 347
#
# _framework density 21.019065000000001
#
# number of rings (size 3 to 8) (size 9 to 14) (size 15 to 20)
#    0.000    1.714    4.286    2.143    0.000    5.714 
#    2.571   10.000    0.000    0.000    0.000    0.000 
#    0.000    0.000    0.000    0.000    0.000    0.000 
#
# Total GULP energy -78034.788057 kJ/mol
# GULP energy per Si atom -5573.913433 kJ/mol
# Density = 2.097123 g / cm^3
# Si number density = 21.019065 Si / 1000 Ang^3
#
#
#
# Elastic Constant Matrix: (Units=GPa)
#
#
# Indices 1 2 3 4 5 6 
#
# 1 99.2031 22.4719 20.3093 8.6530 48.5104 6.8799
# 2 22.4719 58.2611 28.3455 10.9358 31.0457 11.6755
# 3 20.3093 28.3455 75.7488 12.1112 28.8523 -1.5343
# 4 8.6530 10.9358 12.1112 22.3012 7.0606 12.1745
# 5 48.5104 31.0457 28.8523 7.0606 46.1666 -1.4855
# 6 6.8799 11.6755 -1.5343 12.1745 -1.4855 36.7543
#
#
#
# Elastic Compliance Matrix: (Units=1/GPa)
#
#
# Indices 1 2 3 4 5 6 
#
# 1 0.024746 0.009017 0.002796 0.000045 -0.034102 -0.008773
# 2 0.009017 0.035002 -0.003834 -0.001280 -0.030864 -0.013790
# 3 0.002796 -0.003834 0.019563 -0.008384 -0.011180 0.003836
# 4 0.000045 -0.001280 -0.008384 0.062753 -0.004216 -0.020909
# 5 -0.034102 -0.030864 -0.011180 -0.004216 0.086545 0.020616
# 6 -0.008773 -0.013790 0.003836 -0.020909 0.020616 0.041150
#
#
# Mechanical properties :
#
#
# Convention : Reuss Voigt Hill
#
# Bulk Modulus (GPa) = 10.49668 41.71851 26.10760
# Shear Modulus (GPa) = 17.50956 31.85016 24.67986
#
# Velocity S-wave (km/s) = 2.88936 3.89691 3.43033
# Velocity P-wave (km/s) = 4.01696 6.33552 5.30447
#
# Compressibility (1/GPa) = 0.09526819
#
# Stress axis : x y z
#
# Youngs Moduli (GPa) = 40.41068 28.56962 51.11643
#
# Poissons Ratio (x) = -0.25761 -0.14290
# Poissons Ratio (y) = -0.36438 0.19598
# Poissons Ratio (z) = -0.11297 0.10954
#
# Static dielectric constant tensor:
#      x y z
#    x 1.840410 0.044590 0.001070 
#    y 0.044590 1.778850 -0.007230 
#    z 0.001070 -0.007230 1.770540 
# 
# From -- ./inp_files/162156.got.cif
#   From: 2010.05.17/outbox.cif.g08.bks.cpg/sg2_82_cif.got.tgz:162156.got - 2010.06.03 11:33:40.
