data_PCOD9057349
_publ_section_title
;
Structure prediction by ZEFSAII (Michael W. Deem and Ramdas Pophale) SiO2 
 PCOD9057349
Probable space group: P -1
;
_chemical_formula_sum "Si O2"
_cell_formula_units_Z 16
_cell_length_a 5.960555
_cell_length_b 12.793694
_cell_length_c 11.049259
_cell_angle_alpha 72.311184
_cell_angle_beta 88.714834
_cell_angle_gamma 63.627947
_cell_volume 712.929985
_symmetry_space_group_name_H-M "P -1"
_symmetry_group_IT_number 2
_symmetry_cell_setting 'triclinic'
loop_
_space_group_symop_operation_xyz
x,y,z
-x,-y,-z
loop_
_atom_site_type_symbol
_atom_site_label
_atom_site_fract_x
_atom_site_fract_y
_atom_site_fract_z
Si Si1 0.846821 0.935511 0.692962
Si Si2 0.947928 0.673848 0.179361
Si Si3 0.788465 0.392404 0.540095
Si Si4 0.191313 0.058173 0.018117
Si Si5 0.596578 0.539084 0.870024
Si Si6 0.205631 0.513195 0.729023
Si Si7 0.300919 0.268835 0.273448
Si Si8 0.280173 0.814736 0.527460
O O1 0.852003 0.936573 0.837879
O O2 0.682721 0.863398 0.696545
O O3 0.101073 0.864114 0.632399
O O4 0.734654 0.072040 0.591419
O O5 0.080734 0.644929 0.319091
O O6 0.126882 0.568485 0.121499
O O7 0.728690 0.630033 0.205317
O O8 0.901477 0.805523 0.085871
O O9 0.500000 0.500000 0.500000
O O10 0.900745 0.447941 0.418182
O O11 0.802860 0.269041 0.522213
O O12 0.500000 0.000000 0.000000
O O13 0.000000 0.000000 0.000000
O O14 0.442037 0.532751 0.757523
O O15 0.570150 0.675048 0.839672
O O16 0.500000 0.500000 0.000000
O O17 0.984562 0.624344 0.766716
O O18 0.437544 0.263157 0.399939
#
# Coordination Sequence:
#
# PCOD9057349 Si02
#       8
#     2   2   2   2   2   2   2   2
#     4  11  26  46  76 102 148 195 256 320 377 460
#     4  11  27  42  73 101 143 199 240 309 379 447
#     4  12  21  44  70 104 148 187 242 310 380 456
#     4  12  32  55  77 111 152 208 265 316 387 464
#     4  11  25  41  68 102 147 182 241 302 378 462
#     4  11  23  43  66 105 139 186 238 303 378 451
#     4  11  22  42  68 109 136 185 241 307 378 451
#     4  11  24  45  71 108 144 192 252 316 390 447
#
# _framework density 22.442599000000001
#
# number of rings (size 3 to 8) (size 9 to 14) (size 15 to 20)
#    0.000    0.750    3.750    2.250    8.750    3.000 
#    0.000    0.000    0.000    0.000    0.000    0.000 
#    0.000    0.000    0.000    0.000    0.000    0.000 
#
# Total GULP energy -89120.928136 kJ/mol
# GULP energy per Si atom -5570.058009 kJ/mol
# Density = 2.239152 g / cm^3
# Si number density = 22.442599 Si / 1000 Ang^3
#
#
#
# Elastic Constant Matrix: (Units=GPa)
#
#
# Indices 1 2 3 4 5 6 
#
# 1 69.5154 40.0527 29.1043 -13.2959 -8.2837 18.5841
# 2 40.0527 106.3414 55.8116 -34.6966 -17.1394 29.6710
# 3 29.1043 55.8116 157.9589 -18.9970 -18.9634 23.0004
# 4 -13.2959 -34.6966 -18.9970 56.4984 9.3490 -9.3469
# 5 -8.2837 -17.1394 -18.9634 9.3490 19.6434 -11.4185
# 6 18.5841 29.6710 23.0004 -9.3469 -11.4185 42.1482
#
#
#
# Elastic Compliance Matrix: (Units=1/GPa)
#
#
# Indices 1 2 3 4 5 6 
#
# 1 0.019055 -0.005534 -0.000975 0.000117 -0.000101 -0.003975
# 2 -0.005534 0.017512 -0.003099 0.006907 0.003314 -0.005766
# 3 -0.000975 -0.003099 0.008223 -0.000233 0.004526 -0.000701
# 4 0.000117 0.006907 -0.000233 0.022613 -0.005672 -0.001309
# 5 -0.000101 0.003314 0.004526 -0.005672 0.068044 0.012418
# 6 -0.003975 -0.005766 -0.000701 -0.001309 0.012418 0.032994
#
#
# Mechanical properties :
#
#
# Convention : Reuss Voigt Hill
#
# Bulk Modulus (GPa) = 39.10418 64.86143 51.98281
# Shear Modulus (GPa) = 25.48656 37.58113 31.53385
#
# Velocity S-wave (km/s) = 3.37357 4.09656 3.75252
# Velocity P-wave (km/s) = 5.71284 7.16516 6.47982
#
# Compressibility (1/GPa) = 0.02557271
#
# Stress axis : x y z
#
# Youngs Moduli (GPa) = 52.47903 57.10511 121.61115
#
# Poissons Ratio (x) = 0.31604 0.11853
# Poissons Ratio (y) = 0.29044 0.37693
# Poissons Ratio (z) = 0.05115 0.17699
#
# Static dielectric constant tensor:
#      x y z
#    x 2.032000 0.042780 -0.098760 
#    y 0.042780 1.913830 0.027700 
#    z -0.098760 0.027700 1.926900 
# 
# From -- ./inp_files/364053.got.cif
#   From: 2010.05.17/outbox.cif.g08.bks.cpg/sg2_183_cif.got.tgz:364053.got - 2010.06.03 11:33:40.
