data_PCOD9057999
_publ_section_title
;
Structure prediction by ZEFSAII (Michael W. Deem and Ramdas Pophale) SiO2 
 PCOD9057999
Probable space group: P -1
;
_chemical_formula_sum "Si O2"
_cell_formula_units_Z 16
_cell_length_a 22.810556
_cell_length_b 8.496669
_cell_length_c 18.992715
_cell_angle_alpha 148.048129
_cell_angle_beta 155.664292
_cell_angle_gamma 44.698926
_cell_volume 769.308936
_symmetry_space_group_name_H-M "P -1"
_symmetry_group_IT_number 2
_symmetry_cell_setting 'triclinic'
loop_
_space_group_symop_operation_xyz
x,y,z
-x,-y,-z
loop_
_atom_site_type_symbol
_atom_site_label
_atom_site_fract_x
_atom_site_fract_y
_atom_site_fract_z
Si Si1 0.931255 0.570962 0.522817
Si Si2 0.063633 0.840139 0.167892
Si Si3 0.428876 0.161459 0.326933
Si Si4 0.582847 0.739636 0.008137
Si Si5 0.370731 0.583824 0.933491
Si Si6 0.813871 0.008323 0.881167
Si Si7 0.879288 0.668215 0.245035
Si Si8 0.339132 0.101830 0.471994
O O1 0.756616 0.404856 0.257582
O O2 0.000000 0.500000 0.500000
O O3 0.039050 0.479806 0.661885
O O4 0.938824 0.922010 0.681920
O O5 0.224921 0.940927 0.347098
O O6 0.000000 0.500000 0.000000
O O7 0.959216 0.905214 0.016686
O O8 0.500000 0.500000 0.500000
O O9 0.284561 0.094409 0.193975
O O10 0.550601 0.108153 0.494171
O O11 0.402351 0.897250 0.135537
O O12 0.445283 0.431198 0.736991
O O13 0.664226 0.703124 0.157495
O O14 0.718227 0.726410 0.100107
O O15 0.500000 0.000000 0.000000
O O16 0.500000 0.500000 0.000000
O O17 0.733823 0.856251 0.665428
O O18 0.851342 0.380697 0.051006
O O19 0.000000 0.000000 0.500000
#
# Coordination Sequence:
#
# PCOD9057999 Si02
#       8
#     2   2   2   2   2   2   2   2
#     4  11  22  44  68  91 135 174 218 274 326 394
#     4  11  25  43  67 100 135 173 220 272 330 396
#     4  11  23  42  68  97 129 170 223 272 325 392
#     4  11  25  43  65  97 134 170 223 273 331 397
#     4  11  23  42  65  98 133 171 217 271 334 391
#     4  11  23  45  67  95 134 172 222 273 329 396
#     4  11  25  42  67  98 129 174 222 274 330 394
#     4  11  24  44  67  95 135 173 214 276 331 389
#
# _framework density 20.797885000000001
#
# number of rings (size 3 to 8) (size 9 to 14) (size 15 to 20)
#    0.000    1.000    3.750    3.750    5.250    4.000 
#    0.000    0.000    0.000    0.000    0.000    0.000 
#    0.000    0.000    0.000    0.000    0.000    0.000 
#
# Total GULP energy -89067.725972 kJ/mol
# GULP energy per Si atom -5566.732873 kJ/mol
# Density = 2.075055 g / cm^3
# Si number density = 20.797885 Si / 1000 Ang^3
#
#
#
# Elastic Constant Matrix: (Units=GPa)
#
#
# Indices 1 2 3 4 5 6 
#
# 1 43.2044 -5.7714 19.2203 10.9338 0.7148 -11.5143
# 2 -5.7714 92.0695 33.1457 8.0910 6.6396 -2.8105
# 3 19.2203 33.1457 107.8749 1.7662 11.9185 -2.3001
# 4 10.9338 8.0910 1.7662 49.0351 4.2573 8.7965
# 5 0.7148 6.6396 11.9185 4.2573 41.0636 -6.4866
# 6 -11.5143 -2.8105 -2.3001 8.7965 -6.4866 21.7238
#
#
#
# Elastic Compliance Matrix: (Units=1/GPa)
#
#
# Indices 1 2 3 4 5 6 
#
# 1 0.040246 0.007712 -0.009434 -0.015893 0.007162 0.029905
# 2 0.007712 0.013964 -0.005521 -0.005301 0.000984 0.007750
# 3 -0.009434 -0.005521 0.012895 0.004240 -0.004286 -0.007346
# 4 -0.015893 -0.005301 0.004240 0.029279 -0.006689 -0.022514
# 5 0.007162 0.000984 -0.004286 -0.006689 0.028318 0.014634
# 6 0.029905 0.007750 -0.007346 -0.022514 0.014634 0.075594
#
#
# Mechanical properties :
#
#
# Convention : Reuss Voigt Hill
#
# Bulk Modulus (GPa) = 19.00454 37.37089 28.18771
# Shear Modulus (GPa) = 21.52192 35.46812 28.49502
#
# Velocity S-wave (km/s) = 3.22034 4.13409 3.70549
# Velocity P-wave (km/s) = 4.79427 6.38712 5.64714
#
# Compressibility (1/GPa) = 0.05261902
#
# Stress axis : x y z
#
# Youngs Moduli (GPa) = 24.84691 71.61296 77.55049
#
# Poissons Ratio (x) = -0.55230 0.73161
# Poissons Ratio (y) = -0.19162 0.42819
# Poissons Ratio (z) = 0.23440 0.39540
#
# Static dielectric constant tensor:
#      x y z
#    x 1.813560 -0.063060 -0.031370 
#    y -0.063060 1.925590 0.166140 
#    z -0.031370 0.166140 1.551370 
# 
# From -- ./inp_files/298186.got.cif
#   From: 2010.05.17/outbox.cif.g08.bks.cpg/sg2_150_cif.got.tgz:298186.got - 2010.06.03 11:33:40.
