data_PCOD9057697
_publ_section_title
;
Structure prediction by ZEFSAII (Michael W. Deem and Ramdas Pophale) SiO2 
 PCOD9057697
Probable space group: P -1
;
_chemical_formula_sum "Si O2"
_cell_formula_units_Z 14
_cell_length_a 14.463772
_cell_length_b 9.563011
_cell_length_c 8.503651
_cell_angle_alpha 52.495095
_cell_angle_beta 73.558842
_cell_angle_gamma 44.945194
_cell_volume 635.791402
_symmetry_space_group_name_H-M "P -1"
_symmetry_group_IT_number 2
_symmetry_cell_setting 'triclinic'
loop_
_space_group_symop_operation_xyz
x,y,z
-x,-y,-z
loop_
_atom_site_type_symbol
_atom_site_label
_atom_site_fract_x
_atom_site_fract_y
_atom_site_fract_z
Si Si1 0.297567 0.829216 0.814680
Si Si2 0.060572 0.105910 0.954675
Si Si3 0.889316 0.655763 0.635551
Si Si4 0.930563 0.912386 0.670062
Si Si5 0.399257 0.090985 0.340229
Si Si6 0.491256 0.288344 0.981185
Si Si7 0.621112 0.212879 0.650772
O O1 0.190292 0.089670 0.598031
O O2 0.238622 0.312591 0.297359
O O3 0.215410 0.881366 0.975758
O O4 0.423421 0.774145 0.860901
O O5 0.028510 0.157983 0.119619
O O6 0.955896 0.696862 0.709804
O O7 0.000000 0.000000 0.000000
O O8 0.593950 0.113192 0.591108
O O9 0.998121 0.634167 0.265973
O O10 0.765918 0.120192 0.622647
O O11 0.000000 0.000000 0.500000
O O12 0.500000 0.000000 0.500000
O O13 0.435892 0.167591 0.124409
O O14 0.591381 0.165759 0.868128
O O15 0.363322 0.588184 0.844989
O O16 0.500000 0.500000 0.500000
#
# Coordination Sequence:
#
# PCOD9057697 Si02
#       7
#     2   2   2   2   2   2   2
#     4  11  23  41  69  99 137 181 228 287 342 405
#     4  12  25  44  70 103 138 185 234 286 352 420
#     4  11  24  45  69 101 142 182 235 285 348 426
#     4  11  25  47  69 101 141 189 234 287 355 414
#     4  11  23  41  69 104 138 180 233 286 355 412
#     4  11  22  43  68  98 141 180 227 286 348 411
#     4  11  25  44  71 104 141 181 236 291 348 422
#
# _framework density 22.019801000000001
#
# number of rings (size 3 to 8) (size 9 to 14) (size 15 to 20)
#    0.000    0.857    2.857    4.714    2.000    2.286 
#    2.571    0.000    0.000    0.000    0.000    0.000 
#    0.000    0.000    0.000    0.000    0.000    0.000 
#
# Total GULP energy -77947.892034 kJ/mol
# GULP energy per Si atom -5567.706574 kJ/mol
# Density = 2.196968 g / cm^3
# Si number density = 22.019801 Si / 1000 Ang^3
#
#
#
# Elastic Constant Matrix: (Units=GPa)
#
#
# Indices 1 2 3 4 5 6 
#
# 1 130.9087 52.3274 43.8128 -1.9962 -8.8494 6.5552
# 2 52.3274 140.3327 29.2573 -2.3013 -7.9972 -2.8281
# 3 43.8128 29.2573 94.7172 10.5197 -5.1129 6.4310
# 4 -1.9962 -2.3013 10.5197 36.8350 -5.4404 -10.2974
# 5 -8.8494 -7.9972 -5.1129 -5.4404 40.2385 15.6393
# 6 6.5552 -2.8281 6.4310 -10.2974 15.6393 27.4257
#
#
#
# Elastic Compliance Matrix: (Units=1/GPa)
#
#
# Indices 1 2 3 4 5 6 
#
# 1 0.010402 -0.003021 -0.003640 0.000940 0.002531 -0.003035
# 2 -0.003021 0.008672 -0.001623 0.001563 0.000077 0.002540
# 3 -0.003640 -0.001623 0.013881 -0.005588 0.002174 -0.005890
# 4 0.000940 0.001563 -0.005588 0.032688 -0.001321 0.014273
# 5 0.002531 0.000077 0.002174 -0.001321 0.033589 -0.020757
# 6 -0.003035 0.002540 -0.005890 0.014273 -0.020757 0.056026
#
#
# Mechanical properties :
#
#
# Convention : Reuss Voigt Hill
#
# Bulk Modulus (GPa) = 61.02723 68.52820 64.77771
# Shear Modulus (GPa) = 28.20243 36.93723 32.56983
#
# Velocity S-wave (km/s) = 3.58268 4.10012 3.85010
# Velocity P-wave (km/s) = 6.69992 7.32143 7.01756
#
# Compressibility (1/GPa) = 0.01638613
#
# Stress axis : x y z
#
# Youngs Moduli (GPa) = 96.13190 115.31186 72.04145
#
# Poissons Ratio (x) = 0.34841 0.26224
# Poissons Ratio (y) = 0.29045 0.11693
# Poissons Ratio (z) = 0.34994 0.18716
#
# Static dielectric constant tensor:
#      x y z
#    x 1.831130 0.034120 0.026600 
#    y 0.034120 1.626970 0.019440 
#    z 0.026600 0.019440 1.955390 
# 
# From -- ./inp_files/302057.got.cif
#   From: 2010.05.17/outbox.cif.g08.bks.cpg/sg2_152_cif.got.tgz:302057.got - 2010.06.03 11:33:40.
