data_PCOD9057004
_publ_section_title
;
Structure prediction by ZEFSAII (Michael W. Deem and Ramdas Pophale) SiO2 
 PCOD9057004
Probable space group: P -1
;
_chemical_formula_sum "Si O2"
_cell_formula_units_Z 16
_cell_length_a 16.501662
_cell_length_b 14.421854
_cell_length_c 11.500088
_cell_angle_alpha 32.356890
_cell_angle_beta 52.958581
_cell_angle_gamma 30.762943
_cell_volume 668.646599
_symmetry_space_group_name_H-M "P -1"
_symmetry_group_IT_number 2
_symmetry_cell_setting 'triclinic'
loop_
_space_group_symop_operation_xyz
x,y,z
-x,-y,-z
loop_
_atom_site_type_symbol
_atom_site_label
_atom_site_fract_x
_atom_site_fract_y
_atom_site_fract_z
Si Si1 0.008312 0.278749 0.376486
Si Si2 0.669012 0.316103 0.717472
Si Si3 0.768824 0.341789 0.201232
Si Si4 0.703124 0.772794 0.533022
Si Si5 0.100520 0.734701 0.283372
Si Si6 0.992134 0.344193 0.945045
Si Si7 0.369618 0.336235 0.789762
Si Si8 0.489365 0.629325 0.986160
O O1 0.009978 0.221698 0.573083
O O2 0.822435 0.471548 0.282665
O O3 0.028592 0.456512 0.169272
O O4 0.155055 0.956024 0.528403
O O5 0.789913 0.286455 0.710854
O O6 0.591808 0.538870 0.443952
O O7 0.535325 0.442649 0.798066
O O8 0.802358 0.974818 0.927597
O O9 0.636851 0.603337 0.133824
O O10 0.672046 0.473767 0.020121
O O11 0.931173 0.248976 0.155913
O O12 0.773961 0.564039 0.584444
O O13 0.853705 0.557664 0.730945
O O14 0.500000 0.000000 0.500000
O O15 0.673272 0.012865 0.266396
O O16 0.000000 0.000000 0.000000
O O17 0.500000 0.000000 0.000000
O O18 0.500000 0.500000 0.000000
#
# Coordination Sequence:
#
# PCOD9057004 Si02
#       8
#     2   2   2   2   2   2   2   2
#     4  11  26  46  74 108 145 195 255 305 378 447
#     4  11  26  46  72 107 149 197 252 306 380 445
#     4  12  26  51  75 109 153 197 252 315 373 443
#     4  12  24  40  69 107 151 196 244 300 373 447
#     4  11  22  41  68 100 150 194 241 305 366 447
#     4  12  25  45  77 111 148 201 247 304 378 448
#     4  11  28  51  79 106 151 196 254 322 376 438
#     4  12  28  44  74 114 154 193 247 309 378 449
#
# _framework density 23.928933000000001
#
# number of rings (size 3 to 8) (size 9 to 14) (size 15 to 20)
#    0.000    0.500    5.000    2.625    8.750    4.000 
#    0.000    0.000    0.000    0.000    0.000    0.000 
#    0.000    0.000    0.000    0.000    0.000    0.000 
#
# Total GULP energy -89547.764146 kJ/mol
# GULP energy per Si atom -5596.735259 kJ/mol
# Density = 2.387447 g / cm^3
# Si number density = 23.928933 Si / 1000 Ang^3
#
#
#
# Elastic Constant Matrix: (Units=GPa)
#
#
# Indices 1 2 3 4 5 6 
#
# 1 106.9538 25.9021 42.0643 -9.5277 -18.7752 22.9959
# 2 25.9021 103.5864 35.3007 -23.9502 -7.7403 22.0300
# 3 42.0643 35.3007 104.4674 -42.6034 -14.3850 11.4430
# 4 -9.5277 -23.9502 -42.6034 45.4806 7.5084 -13.9078
# 5 -18.7752 -7.7403 -14.3850 7.5084 46.2036 -7.6780
# 6 22.9959 22.0300 11.4430 -13.9078 -7.6780 40.6905
#
#
#
# Elastic Compliance Matrix: (Units=1/GPa)
#
#
# Indices 1 2 3 4 5 6 
#
# 1 0.013672 -0.000940 -0.006634 -0.006509 0.003233 -0.006967
# 2 -0.000940 0.012228 -0.002091 0.002932 -0.000215 -0.004540
# 3 -0.006634 -0.002091 0.019578 0.017347 0.001148 0.005521
# 4 -0.006509 0.002932 0.017347 0.042157 -0.001727 0.011296
# 5 0.003233 -0.000215 0.001148 -0.001727 0.023872 0.001881
# 6 -0.006967 -0.004540 0.005521 0.011296 0.001881 0.033634
#
#
# Mechanical properties :
#
#
# Convention : Reuss Voigt Hill
#
# Bulk Modulus (GPa) = 38.24043 57.94909 48.09476
# Shear Modulus (GPa) = 28.87073 40.59098 34.73086
#
# Velocity S-wave (km/s) = 3.47727 4.12310 3.81388
# Velocity P-wave (km/s) = 5.66898 6.85101 6.28783
#
# Compressibility (1/GPa) = 0.02615033
#
# Stress axis : x y z
#
# Youngs Moduli (GPa) = 73.14174 81.77627 51.07855
#
# Poissons Ratio (x) = 0.07685 0.33884
# Poissons Ratio (y) = 0.06873 0.10678
# Poissons Ratio (z) = 0.48520 0.17095
#
# Static dielectric constant tensor:
#      x y z
#    x 2.009370 -0.108940 0.049070 
#    y -0.108940 2.012580 0.060140 
#    z 0.049070 0.060140 1.996360 
# 
# From -- ./inp_files/399930.got.cif
#   From: 2010.05.17/outbox.cif.g08.bks.cpg/sg2_200_cif.got.tgz:399930.got - 2010.06.03 11:33:40.
