data_PCOD9057617
_publ_section_title
;
Structure prediction by ZEFSAII (Michael W. Deem and Ramdas Pophale) SiO2 
 PCOD9057617
Probable space group: P -1
;
_chemical_formula_sum "Si O2"
_cell_formula_units_Z 14
_cell_length_a 15.707412
_cell_length_b 22.724582
_cell_length_c 5.389818
_cell_angle_alpha 119.248420
_cell_angle_beta 71.164519
_cell_angle_gamma 159.065617
_cell_volume 541.988653
_symmetry_space_group_name_H-M "P -1"
_symmetry_group_IT_number 2
_symmetry_cell_setting 'triclinic'
loop_
_space_group_symop_operation_xyz
x,y,z
-x,-y,-z
loop_
_atom_site_type_symbol
_atom_site_label
_atom_site_fract_x
_atom_site_fract_y
_atom_site_fract_z
Si Si1 0.914387 0.211453 0.166030
Si Si2 0.861191 0.514525 0.131045
Si Si3 0.325554 0.878180 0.165559
Si Si4 0.582053 0.758106 0.352774
Si Si5 0.465503 0.537407 0.293530
Si Si6 0.547860 0.845384 0.949857
Si Si7 0.997159 0.922087 0.748221
O O1 0.004736 0.344634 0.490388
O O2 0.162186 0.336884 0.223869
O O3 0.846689 0.176623 0.867172
O O4 0.659684 0.996303 0.082660
O O5 0.707033 0.341045 0.021126
O O6 0.084028 0.658725 0.012046
O O7 0.620684 0.390027 0.990779
O O8 0.500000 0.000000 0.500000
O O9 0.500000 0.000000 0.000000
O O10 0.554055 0.671000 0.357864
O O11 0.484168 0.754816 0.585244
O O12 0.877232 0.983173 0.450555
O O13 0.697548 0.688369 0.582875
O O14 0.500000 0.500000 0.000000
O O15 0.792889 0.978178 0.114265
O O16 0.000000 0.000000 0.000000
#
# Coordination Sequence:
#
# PCOD9057617 Si02
#       7
#     2   2   2   2   2   2   2
#     4  12  26  48  76 113 150 203 259 318 385 459
#     4  11  23  48  78 106 153 195 251 315 395 448
#     4  12  26  51  89 116 150 197 253 325 403 471
#     4  11  22  43  65  97 154 205 253 314 375 440
#     4  12  24  38  65 105 151 204 258 309 370 449
#     4  11  25  44  71 108 151 204 257 311 379 454
#     4  11  23  39  60  95 142 206 258 305 366 441
#
# _framework density 25.830801000000001
#
# number of rings (size 3 to 8) (size 9 to 14) (size 15 to 20)
#    0.000    0.571    5.714    2.143    4.000    2.857 
#    0.000    1.429    0.000    0.000    0.000    0.000 
#    0.000    0.000    0.000    0.000    0.000    0.000 
#
# Total GULP energy -78240.931325 kJ/mol
# GULP energy per Si atom -5588.637952 kJ/mol
# Density = 2.577201 g / cm^3
# Si number density = 25.830801 Si / 1000 Ang^3
#
#
#
# Elastic Constant Matrix: (Units=GPa)
#
#
# Indices 1 2 3 4 5 6 
#
# 1 89.8937 43.2705 39.7449 8.7577 14.1787 -18.0854
# 2 43.2705 237.8570 38.1689 25.3920 8.2203 -8.1224
# 3 39.7449 38.1689 107.2725 19.4610 21.0333 -6.7298
# 4 8.7577 25.3920 19.4610 40.3280 3.1740 -2.8613
# 5 14.1787 8.2203 21.0333 3.1740 44.2402 3.2565
# 6 -18.0854 -8.1224 -6.7298 -2.8613 3.2565 47.6086
#
#
#
# Elastic Compliance Matrix: (Units=1/GPa)
#
#
# Indices 1 2 3 4 5 6 
#
# 1 0.015348 -0.001892 -0.004192 0.000481 -0.002988 0.005149
# 2 -0.001892 0.004897 -0.000655 -0.002380 0.000188 -0.000132
# 3 -0.004192 -0.000655 0.012773 -0.004495 -0.004295 0.000125
# 4 0.000481 -0.002380 -0.004495 0.028393 0.000327 0.000825
# 5 -0.002988 0.000188 -0.004295 0.000327 0.025799 -0.003455
# 6 0.005149 -0.000132 0.000125 0.000825 -0.003455 0.023242
#
#
# Mechanical properties :
#
#
# Convention : Reuss Voigt Hill
#
# Bulk Modulus (GPa) = 51.17299 75.26574 63.21936
# Shear Modulus (GPa) = 38.33102 47.35795 42.84448
#
# Velocity S-wave (km/s) = 3.85636 4.28646 4.07708
# Velocity P-wave (km/s) = 6.29940 7.32800 6.83308
#
# Compressibility (1/GPa) = 0.01954156
#
# Stress axis : x y z
#
# Youngs Moduli (GPa) = 65.15298 204.22636 78.28754
#
# Poissons Ratio (x) = 0.38635 0.32818
# Poissons Ratio (y) = 0.12326 0.05125
# Poissons Ratio (z) = 0.27312 0.13369
#
# Static dielectric constant tensor:
#      x y z
#    x 2.052890 0.102430 0.068010 
#    y 0.102430 2.096580 -0.125660 
#    z 0.068010 -0.125660 2.029650 
# 
# From -- ./inp_files/112940.got.cif
#   From: 2010.05.17/outbox.cif.g08.bks.cpg/sg2_57_cif.got.tgz:112940.got - 2010.06.03 11:33:40.
