data_PCOD9057616
_publ_section_title
;
Structure prediction by ZEFSAII (Michael W. Deem and Ramdas Pophale) SiO2 
 PCOD9057616
Probable space group: P -1
;
_chemical_formula_sum "Si O2"
_cell_formula_units_Z 14
_cell_length_a 13.385548
_cell_length_b 10.483938
_cell_length_c 9.809953
_cell_angle_alpha 46.641508
_cell_angle_beta 62.960483
_cell_angle_gamma 33.500111
_cell_volume 528.069607
_symmetry_space_group_name_H-M "P -1"
_symmetry_group_IT_number 2
_symmetry_cell_setting 'triclinic'
loop_
_space_group_symop_operation_xyz
x,y,z
-x,-y,-z
loop_
_atom_site_type_symbol
_atom_site_label
_atom_site_fract_x
_atom_site_fract_y
_atom_site_fract_z
Si Si1 0.414704 0.416968 0.586307
Si Si2 0.922963 0.361492 0.308591
Si Si3 0.876387 0.662369 0.593667
Si Si4 0.036176 0.181882 0.060294
Si Si5 0.710021 0.385335 0.053786
Si Si6 0.612461 0.053339 0.981974
Si Si7 0.496678 0.720521 0.677418
O O1 0.500000 0.500000 0.500000
O O2 0.196104 0.668094 0.581213
O O3 0.548936 0.127565 0.810044
O O4 0.427861 0.363525 0.459632
O O5 0.077121 0.223424 0.425802
O O6 0.999254 0.282523 0.166029
O O7 0.754412 0.717821 0.174042
O O8 0.930133 0.442011 0.827835
O O9 0.000000 0.500000 0.500000
O O10 0.662743 0.928838 0.477016
O O11 0.929861 0.133606 0.136545
O O12 0.257557 0.937312 0.078705
O O13 0.660851 0.503079 0.845062
O O14 0.579674 0.678402 0.012318
O O15 0.628642 0.295967 0.199791
#
# Coordination Sequence:
#
# PCOD9057616 Si02
#       7
#     2   2   2   2   2   2   2
#     4  12  23  40  67 100 132 168 225 269 321 390
#     4  11  23  41  68  97 132 176 217 270 334 382
#     4  11  25  44  67 102 130 166 229 272 322 394
#     4  11  23  43  69  95 131 178 216 271 329 386
#     4  11  25  44  64  95 133 178 219 260 339 395
#     4  11  22  43  65  97 131 169 221 271 322 397
#     4  11  24  44  63  94 138 172 215 279 324 384
#
# _framework density 26.511657
#
# number of rings (size 3 to 8) (size 9 to 14) (size 15 to 20)
#    0.000    0.857    2.857    5.571    4.000    1.714 
#    0.000    5.000    0.000    0.000    0.000    0.000 
#    0.000    0.000    0.000    0.000    0.000    0.000 
#
# Total GULP energy -78487.837962 kJ/mol
# GULP energy per Si atom -5606.274140 kJ/mol
# Density = 2.645132 g / cm^3
# Si number density = 26.511657 Si / 1000 Ang^3
#
#
#
# Elastic Constant Matrix: (Units=GPa)
#
#
# Indices 1 2 3 4 5 6 
#
# 1 125.2953 6.8352 21.2924 11.6350 18.8672 -38.5070
# 2 6.8352 82.6145 37.3266 18.6682 14.8158 -13.8553
# 3 21.2924 37.3266 139.2117 17.6436 36.8952 7.4937
# 4 11.6350 18.6682 17.6436 52.4586 1.6897 8.2948
# 5 18.8672 14.8158 36.8952 1.6897 51.3947 1.4495
# 6 -38.5070 -13.8553 7.4937 8.2948 1.4495 44.7354
#
#
#
# Elastic Compliance Matrix: (Units=1/GPa)
#
#
# Indices 1 2 3 4 5 6 
#
# 1 0.014199 0.004735 -0.002044 -0.006409 -0.005333 0.015392
# 2 0.004735 0.018096 -0.004150 -0.007855 -0.004055 0.011963
# 3 -0.002044 -0.004150 0.010348 -0.000670 -0.005334 -0.004481
# 4 -0.006409 -0.007855 -0.000670 0.025362 0.004622 -0.012690
# 5 -0.005333 -0.004055 -0.005334 0.004622 0.026449 -0.006667
# 6 0.015392 0.011963 -0.004481 -0.012690 -0.006667 0.042628
#
#
# Mechanical properties :
#
#
# Convention : Reuss Voigt Hill
#
# Bulk Modulus (GPa) = 25.17311 53.11442 39.14377
# Shear Modulus (GPa) = 32.62788 48.49554 40.56171
#
# Velocity S-wave (km/s) = 3.51194 4.28157 3.91571
# Velocity P-wave (km/s) = 5.09516 6.67236 5.93637
#
# Compressibility (1/GPa) = 0.03972493
#
# Stress axis : x y z
#
# Youngs Moduli (GPa) = 70.42819 55.25973 96.63295
#
# Poissons Ratio (x) = -0.26164 0.19752
# Poissons Ratio (y) = -0.33346 0.40104
# Poissons Ratio (z) = 0.14396 0.22933
#
# Static dielectric constant tensor:
#      x y z
#    x 2.211950 0.006560 -0.120960 
#    y 0.006560 2.065460 -0.037690 
#    z -0.120960 -0.037690 2.063280 
# 
# From -- ./inp_files/174426.got.cif
#   From: 2010.05.17/outbox.cif.g08.bks.cpg/sg2_88_cif.got.tgz:174426.got - 2010.06.03 11:33:40.
