data_PCOD9057928
_publ_section_title
;
Structure prediction by ZEFSAII (Michael W. Deem and Ramdas Pophale) SiO2 
 PCOD9057928
Probable space group: P -1
;
_chemical_formula_sum "Si O2"
_cell_formula_units_Z 14
_cell_length_a 9.493512
_cell_length_b 8.875785
_cell_length_c 12.512045
_cell_angle_alpha 130.293874
_cell_angle_beta 50.704991
_cell_angle_gamma 114.803783
_cell_volume 622.239669
_symmetry_space_group_name_H-M "P -1"
_symmetry_group_IT_number 2
_symmetry_cell_setting 'triclinic'
loop_
_space_group_symop_operation_xyz
x,y,z
-x,-y,-z
loop_
_atom_site_type_symbol
_atom_site_label
_atom_site_fract_x
_atom_site_fract_y
_atom_site_fract_z
Si Si1 0.234593 0.052843 0.517597
Si Si2 0.093612 0.683885 0.278602
Si Si3 0.522652 0.544987 0.694013
Si Si4 0.183190 0.438452 0.941803
Si Si5 0.606430 0.231076 0.334782
Si Si6 0.111285 0.997694 0.790660
Si Si7 0.124580 0.370783 0.301561
O O1 0.432996 0.111035 0.408213
O O2 0.218617 0.998804 0.625185
O O3 0.096868 0.231516 0.636344
O O4 0.170915 0.861077 0.394143
O O5 0.091177 0.488486 0.262260
O O6 0.217823 0.616124 0.089765
O O7 0.360869 0.425867 0.776617
O O8 0.617467 0.417967 0.496266
O O9 0.427858 0.712217 0.744933
O O10 0.673616 0.611758 0.737403
O O11 0.121673 0.226844 0.920488
O O12 0.000000 0.500000 0.000000
O O13 0.784959 0.111177 0.215043
O O14 0.937482 0.858096 0.783592
O O15 0.000000 0.500000 0.500000
#
# Coordination Sequence:
#
# PCOD9057928 Si02
#       7
#     2   2   2   2   2   2   2
#     4  11  22  43  75 104 130 187 239 287 339 421
#     4  11  25  43  72  98 145 181 232 284 359 404
#     4  11  25  44  72 102 145 182 231 292 347 408
#     4  12  27  48  68 100 146 187 228 290 356 413
#     4  11  23  41  73 106 135 178 242 289 341 408
#     4  12  25  42  74 103 140 178 235 287 346 413
#     4  12  24  44  71 107 138 179 236 289 339 412
#
# _framework density 22.499369000000002
#
# number of rings (size 3 to 8) (size 9 to 14) (size 15 to 20)
#    0.000    0.571    5.714    1.286    8.000    1.143 
#    0.000    1.429    0.000    0.000    0.000    0.000 
#    0.000    0.000    0.000    0.000    0.000    0.000 
#
# Total GULP energy -78227.577432 kJ/mol
# GULP energy per Si atom -5587.684102 kJ/mol
# Density = 2.244816 g / cm^3
# Si number density = 22.499369 Si / 1000 Ang^3
#
#
#
# Elastic Constant Matrix: (Units=GPa)
#
#
# Indices 1 2 3 4 5 6 
#
# 1 99.8964 61.2270 13.9092 14.0552 -16.6272 4.1990
# 2 61.2270 116.5647 11.4889 9.1840 -1.3514 3.1984
# 3 13.9092 11.4889 71.3050 15.3402 14.0891 -0.9439
# 4 14.0552 9.1840 15.3402 28.8984 -2.4660 -0.6061
# 5 -16.6272 -1.3514 14.0891 -2.4660 15.7929 1.1225
# 6 4.1990 3.1984 -0.9439 -0.6061 1.1225 42.5468
#
#
#
# Elastic Compliance Matrix: (Units=1/GPa)
#
#
# Indices 1 2 3 4 5 6 
#
# 1 0.023495 -0.010971 -0.009078 -0.000444 0.032009 -0.002546
# 2 -0.010971 0.014033 0.002878 -0.001772 -0.013223 0.000415
# 3 -0.009078 0.002878 0.024601 -0.012362 -0.033326 0.001929
# 4 -0.000444 -0.001772 -0.012362 0.043413 0.017183 0.000068
# 5 0.032009 -0.013223 -0.033326 0.017183 0.128733 -0.006056
# 6 -0.002546 0.000415 0.001929 0.000068 -0.006056 0.023927
#
#
# Mechanical properties :
#
#
# Convention : Reuss Voigt Hill
#
# Bulk Modulus (GPa) = 35.98629 51.22404 43.60516
# Shear Modulus (GPa) = 16.56697 30.85702 23.71199
#
# Velocity S-wave (km/s) = 2.71648 3.70734 3.24990
# Velocity P-wave (km/s) = 5.08607 6.41421 5.78836
#
# Compressibility (1/GPa) = 0.02778836
#
# Stress axis : x y z
#
# Youngs Moduli (GPa) = 42.56139 71.26303 40.64819
#
# Poissons Ratio (x) = 0.78180 0.36902
# Poissons Ratio (y) = 0.46692 -0.11700
# Poissons Ratio (z) = 0.38639 -0.20513
#
# Static dielectric constant tensor:
#      x y z
#    x 1.818020 -0.026330 0.024390 
#    y -0.026330 1.933580 -0.019040 
#    z 0.024390 -0.019040 1.879900 
# 
# From -- ./inp_files/383457.got.cif
#   From: 2010.05.17/outbox.cif.g08.bks.cpg/sg2_192_cif.got.tgz:383457.got - 2010.06.03 11:33:40.
