data_PCOD9057266
_publ_section_title
;
Structure prediction by ZEFSAII (Michael W. Deem and Ramdas Pophale) SiO2 
 PCOD9057266
Probable space group: P -1
;
_chemical_formula_sum "Si O2"
_cell_formula_units_Z 12
_cell_length_a 8.893940
_cell_length_b 8.365617
_cell_length_c 6.878552
_cell_angle_alpha 102.424969
_cell_angle_beta 102.852122
_cell_angle_gamma 63.811670
_cell_volume 443.724026
_symmetry_space_group_name_H-M "P -1"
_symmetry_group_IT_number 2
_symmetry_cell_setting 'triclinic'
loop_
_space_group_symop_operation_xyz
x,y,z
-x,-y,-z
loop_
_atom_site_type_symbol
_atom_site_label
_atom_site_fract_x
_atom_site_fract_y
_atom_site_fract_z
Si Si1 0.025637 0.711894 0.729899
Si Si2 0.421016 0.155614 0.793114
Si Si3 0.962029 0.649659 0.239721
Si Si4 0.588250 0.340914 0.131095
Si Si5 0.493181 0.769331 0.549771
Si Si6 0.883474 0.090643 0.679529
O O1 0.995164 0.562315 0.810854
O O2 0.219722 0.689679 0.789589
O O3 0.984347 0.678366 0.485777
O O4 0.915193 0.923957 0.787071
O O5 0.233078 0.233879 0.844905
O O6 0.391544 0.275263 0.617621
O O7 0.489150 0.951090 0.691069
O O8 0.558263 0.180399 0.975487
O O9 0.071044 0.746566 0.198027
O O10 0.485590 0.369939 0.310574
O O11 0.500000 0.500000 0.000000
O O12 0.306761 0.827882 0.425746
O O13 0.000000 0.000000 0.500000
#
# Coordination Sequence:
#
# PCOD9057266 Si02
#       6
#     2   2   2   2   2   2
#     4  10  19  35  64  90 121 167 216 251 317 383
#     4  11  23  40  68  95 126 166 217 266 321 374
#     4  10  18  36  64  90 121 170 210 256 314 386
#     4  12  23  40  62  97 133 164 207 270 322 379
#     4  11  23  42  65  96 127 168 214 263 323 385
#     4  10  17  36  66  87 119 172 212 250 317 381
#
# _framework density 27.043835000000001
#
# number of rings (size 3 to 8) (size 9 to 14) (size 15 to 20)
#    0.000    1.333    8.333    0.500    0.000    0.667 
#    0.000    0.833    3.667    2.000    0.000    0.000 
#    0.000    0.000    0.000    0.000    0.000    0.000 
#
# Total GULP energy -67268.807051 kJ/mol
# GULP energy per Si atom -5605.733921 kJ/mol
# Density = 2.698228 g / cm^3
# Si number density = 27.043835 Si / 1000 Ang^3
#
#
#
# Elastic Constant Matrix: (Units=GPa)
#
#
# Indices 1 2 3 4 5 6 
#
# 1 102.7329 24.7263 34.2687 12.8651 27.1269 19.4562
# 2 24.7263 160.4508 54.2680 3.7297 15.7222 44.8387
# 3 34.2687 54.2680 97.4539 4.6670 4.0789 12.6921
# 4 12.8651 3.7297 4.6670 66.2219 16.6035 0.8608
# 5 27.1269 15.7222 4.0789 16.6035 51.6168 -3.7867
# 6 19.4562 44.8387 12.6921 0.8608 -3.7867 45.1001
#
#
#
# Elastic Compliance Matrix: (Units=1/GPa)
#
#
# Indices 1 2 3 4 5 6 
#
# 1 0.014707 0.002640 -0.005193 -0.000375 -0.008606 -0.008223
# 2 0.002640 0.011434 -0.005616 0.000769 -0.005510 -0.011403
# 3 -0.005193 -0.005616 0.014560 -0.000710 0.003815 0.004060
# 4 -0.000375 0.000769 -0.000710 0.016547 -0.005389 -0.001171
# 5 -0.008606 -0.005510 0.003815 -0.005389 0.027781 0.010552
# 6 -0.008223 -0.011403 0.004060 -0.001171 0.010552 0.036823
#
#
# Mechanical properties :
#
#
# Convention : Reuss Voigt Hill
#
# Bulk Modulus (GPa) = 41.04541 65.24041 53.14291
# Shear Modulus (GPa) = 34.17357 49.07941 41.62649
#
# Velocity S-wave (km/s) = 3.55862 4.26468 3.92755
# Velocity P-wave (km/s) = 5.66528 6.95890 6.34514
#
# Compressibility (1/GPa) = 0.02436326
#
# Stress axis : x y z
#
# Youngs Moduli (GPa) = 67.99271 87.45885 68.68024
#
# Poissons Ratio (x) = -0.23087 0.35663
# Poissons Ratio (y) = -0.17948 0.38574
# Poissons Ratio (z) = 0.35306 0.49120
#
# Static dielectric constant tensor:
#      x y z
#    x 2.061860 0.094250 -0.081720 
#    y 0.094250 2.162130 0.018490 
#    z -0.081720 0.018490 2.170980 
# 
# From -- ./inp_files/150987.got.cif
#   From: 2010.05.17/outbox.cif.g08.bks.cpg/sg2_76_cif.got.tgz:150987.got - 2010.06.03 11:33:40.
