data_PCOD9057003
_publ_section_title
;
Structure prediction by ZEFSAII (Michael W. Deem and Ramdas Pophale) SiO2 
 PCOD9057003
Probable space group: P -1
;
_chemical_formula_sum "Si O2"
_cell_formula_units_Z 13
_cell_length_a 15.951477
_cell_length_b 6.416370
_cell_length_c 7.871271
_cell_angle_alpha 117.684348
_cell_angle_beta 63.722460
_cell_angle_gamma 72.215587
_cell_volume 489.518770
_symmetry_space_group_name_H-M "P -1"
_symmetry_group_IT_number 2
_symmetry_cell_setting 'triclinic'
loop_
_space_group_symop_operation_xyz
x,y,z
-x,-y,-z
loop_
_atom_site_type_symbol
_atom_site_label
_atom_site_fract_x
_atom_site_fract_y
_atom_site_fract_z
Si Si1 0.524664 0.429136 0.150480
Si Si2 0.000000 0.000000 0.500000
Si Si3 0.864520 0.256525 0.076168
Si Si4 0.295926 0.237310 0.158030
Si Si5 0.741192 0.184382 0.432727
Si Si6 0.106386 0.326532 0.605689
Si Si7 0.359083 0.295479 0.761199
O O1 0.392808 0.690787 0.450878
O O2 0.627178 0.449716 0.116818
O O3 0.500000 0.500000 0.000000
O O4 0.579182 0.090668 0.022761
O O5 0.013791 0.267721 0.623728
O O6 0.937043 0.074866 0.773559
O O7 0.824934 0.098744 0.164526
O O8 0.928343 0.363615 0.164698
O O9 0.731696 0.580840 0.266030
O O10 0.284150 0.516650 0.351411
O O11 0.186118 0.267835 0.347990
O O12 0.298018 0.270787 0.968016
O O13 0.806411 0.934440 0.427601
O O14 0.500000 0.000000 0.500000
#
# Coordination Sequence:
#
# PCOD9057003 Si02
#       7
#     2   1   2   2   2   2   2
#     4  12  22  37  67 103 141 189 228 273 343 416
#     4  12  26  50  74 102 136 182 240 296 360 414
#     4  11  27  47  71 105 142 184 236 291 350 417
#     4  11  22  41  68 100 142 189 228 285 346 416
#     4  11  23  43  70 102 141 184 233 287 346 414
#     4  11  25  47  73 100 135 180 236 296 355 413
#     4  12  26  42  67 107 146 186 231 280 347 423
#
# _framework density 26.556695000000001
#
# number of rings (size 3 to 8) (size 9 to 14) (size 15 to 20)
#    0.000    0.615    3.077    4.615    2.154    6.769 
#    0.000    9.231    0.000    0.000    0.000    0.000 
#    0.000    0.000    0.000    0.000    0.000    0.000 
#
# Total GULP energy -72675.045258 kJ/mol
# GULP energy per Si atom -5590.388097 kJ/mol
# Density = 2.649625 g / cm^3
# Si number density = 26.556695 Si / 1000 Ang^3
#
#
#
# Elastic Constant Matrix: (Units=GPa)
#
#
# Indices 1 2 3 4 5 6 
#
# 1 100.2639 45.6741 37.0123 -12.5468 -10.2761 18.8622
# 2 45.6741 126.4313 35.8424 -42.2345 -14.3775 14.6303
# 3 37.0123 35.8424 137.3918 -44.2522 -3.6418 7.3229
# 4 -12.5468 -42.2345 -44.2522 49.1311 10.0255 -3.1934
# 5 -10.2761 -14.3775 -3.6418 10.0255 33.2766 14.6175
# 6 18.8622 14.6303 7.3229 -3.1934 14.6175 54.0279
#
#
#
# Elastic Compliance Matrix: (Units=1/GPa)
#
#
# Indices 1 2 3 4 5 6 
#
# 1 0.014468 -0.004635 -0.004011 -0.005452 0.005946 -0.005183
# 2 -0.004635 0.013338 0.001503 0.011073 0.002085 -0.002107
# 3 -0.004011 0.001503 0.011475 0.011312 -0.003164 0.000962
# 4 -0.005452 0.011073 0.011312 0.040615 -0.008850 0.002167
# 5 0.005946 0.002085 -0.003164 -0.008850 0.041207 -0.013883
# 6 -0.005183 -0.002107 0.000962 0.002167 -0.013883 0.024643
#
#
# Mechanical properties :
#
#
# Convention : Reuss Voigt Hill
#
# Bulk Modulus (GPa) = 40.00657 66.79385 53.40021
# Shear Modulus (GPa) = 29.69795 43.65766 36.67781
#
# Velocity S-wave (km/s) = 3.34770 4.05895 3.72037
# Velocity P-wave (km/s) = 5.48089 6.86825 6.21341
#
# Compressibility (1/GPa) = 0.02499590
#
# Stress axis : x y z
#
# Youngs Moduli (GPa) = 69.11900 74.97545 87.14694
#
# Poissons Ratio (x) = 0.34751 0.34951
# Poissons Ratio (y) = 0.32037 -0.13101
# Poissons Ratio (z) = 0.27721 -0.11271
#
# Static dielectric constant tensor:
#      x y z
#    x 2.070860 0.003220 -0.025740 
#    y 0.003220 2.071690 0.068010 
#    z -0.025740 0.068010 2.068160 
# 
# From -- ./inp_files/31822.got.cif
#   From: 2010.05.17/outbox.cif.g08.bks.cpg/sg2_16_cif.got.tgz:31822.got - 2010.06.03 11:33:40.
