data_PCOD9057631
_publ_section_title
;
Structure prediction by ZEFSAII (Michael W. Deem and Ramdas Pophale) SiO2 
 PCOD9057631
Probable space group: P -1
;
_chemical_formula_sum "Si O2"
_cell_formula_units_Z 16
_cell_length_a 15.024153
_cell_length_b 19.226402
_cell_length_c 28.863525
_cell_angle_alpha 16.596479
_cell_angle_beta 160.342392
_cell_angle_gamma 160.785334
_cell_volume 721.318639
_symmetry_space_group_name_H-M "P -1"
_symmetry_group_IT_number 2
_symmetry_cell_setting 'triclinic'
loop_
_space_group_symop_operation_xyz
x,y,z
-x,-y,-z
loop_
_atom_site_type_symbol
_atom_site_label
_atom_site_fract_x
_atom_site_fract_y
_atom_site_fract_z
Si Si1 0.467389 0.667440 0.832395
Si Si2 0.916613 0.190396 0.305903
Si Si3 0.064569 0.976560 0.766357
Si Si4 0.128080 0.106022 0.873667
Si Si5 0.690906 0.844624 0.972692
Si Si6 0.768847 0.896258 0.572581
Si Si7 0.917282 0.517782 0.501057
Si Si8 0.749105 0.210135 0.936936
O O1 0.790840 0.899348 0.835743
O O2 0.258827 0.823269 0.631216
O O3 0.500000 0.500000 0.000000
O O4 0.390231 0.464953 0.880906
O O5 0.582627 0.110234 0.207618
O O6 0.009141 0.141781 0.330483
O O7 0.087467 0.516264 0.186858
O O8 0.000000 0.000000 0.500000
O O9 0.974336 0.184341 0.616438
O O10 0.412282 0.149129 0.816825
O O11 0.882222 0.887681 0.686055
O O12 0.074320 0.762248 0.945896
O O13 0.267813 0.057865 0.926426
O O14 0.106375 0.376385 0.705886
O O15 0.279477 0.050926 0.027170
O O16 0.000000 0.000000 0.000000
O O17 0.435279 0.659745 0.553336
O O18 0.000000 0.500000 0.500000
#
# Coordination Sequence:
#
# PCOD9057631 Si02
#       8
#     2   2   2   2   2   2   2   2
#     4  11  22  43  66  96 140 178 223 286 345 414
#     4  12  27  46  71 103 146 188 237 292 356 421
#     4  11  24  47  71  99 139 179 243 286 354 419
#     4  11  23  41  67  97 136 172 230 278 353 412
#     4  12  25  41  70 101 130 189 234 283 348 423
#     4  11  26  44  71 103 137 189 233 292 353 421
#     4  11  23  43  69 103 138 176 224 295 352 407
#     4  11  24  46  70  97 138 188 227 301 349 412
#
# _framework density 22.181598000000001
#
# number of rings (size 3 to 8) (size 9 to 14) (size 15 to 20)
#    0.000    0.750    5.000    2.250    1.750    3.000 
#    0.000    1.875    0.000    0.000    0.000    0.000 
#    0.000    0.000    0.000    0.000    0.000    0.000 
#
# Total GULP energy -89259.658408 kJ/mol
# GULP energy per Si atom -5578.728650 kJ/mol
# Density = 2.213111 g / cm^3
# Si number density = 22.181598 Si / 1000 Ang^3
#
#
#
# Elastic Constant Matrix: (Units=GPa)
#
#
# Indices 1 2 3 4 5 6 
#
# 1 82.1843 8.9241 15.9358 4.7780 7.2172 -15.2325
# 2 8.9241 33.0324 34.2471 -4.0933 -1.6967 -12.5702
# 3 15.9358 34.2471 96.9271 -2.7171 9.4833 2.3641
# 4 4.7780 -4.0933 -2.7171 18.5392 -2.6831 0.6445
# 5 7.2172 -1.6967 9.4833 -2.6831 48.0243 4.4213
# 6 -15.2325 -12.5702 2.3641 0.6445 4.4213 42.8071
#
#
#
# Elastic Compliance Matrix: (Units=1/GPa)
#
#
# Indices 1 2 3 4 5 6 
#
# 1 0.014110 0.000030 -0.002355 -0.004514 -0.002411 0.005477
# 2 0.000030 0.062886 -0.022936 0.010664 0.005592 0.019006
# 3 -0.002355 -0.022936 0.019311 -0.001864 -0.003615 -0.008238
# 4 -0.004514 0.010664 -0.001864 0.057845 0.004629 0.000279
# 5 -0.002411 0.005592 -0.003615 0.004629 0.022485 -0.001408
# 6 0.005477 0.019006 -0.008238 0.000279 -0.001408 0.031487
#
#
# Mechanical properties :
#
#
# Convention : Reuss Voigt Hill
#
# Bulk Modulus (GPa) = 21.84099 36.70644 29.27372
# Shear Modulus (GPa) = 18.25440 32.07658 25.16549
#
# Velocity S-wave (km/s) = 2.87183 3.80687 3.37192
# Velocity P-wave (km/s) = 4.56775 5.99226 5.32783
#
# Compressibility (1/GPa) = 0.04578546
#
# Stress axis : x y z
#
# Youngs Moduli (GPa) = 70.86972 15.90183 51.78504
#
# Poissons Ratio (x) = -0.00048 0.12195
# Poissons Ratio (y) = -0.00215 1.18775
# Poissons Ratio (z) = 0.16689 0.36473
#
# Static dielectric constant tensor:
#      x y z
#    x 1.921940 0.008740 -0.189300 
#    y 0.008740 1.813810 -0.113030 
#    z -0.189300 -0.113030 2.250590 
# 
# From -- ./inp_files/619744.got.cif
#   From: 2010.05.17/outbox.cif.g08.bks.cpg/sg2_310_cif.got.tgz:619744.got - 2010.06.03 11:33:40.
