data_PCOD9057623
_publ_section_title
;
Structure prediction by ZEFSAII (Michael W. Deem and Ramdas Pophale) SiO2 
 PCOD9057623
Probable space group: P -1
;
_chemical_formula_sum "Si O2"
_cell_formula_units_Z 16
_cell_length_a 20.131328
_cell_length_b 5.601507
_cell_length_c 12.116687
_cell_angle_alpha 126.152198
_cell_angle_beta 142.476216
_cell_angle_gamma 66.984920
_cell_volume 663.720242
_symmetry_space_group_name_H-M "P -1"
_symmetry_group_IT_number 2
_symmetry_cell_setting 'triclinic'
loop_
_space_group_symop_operation_xyz
x,y,z
-x,-y,-z
loop_
_atom_site_type_symbol
_atom_site_label
_atom_site_fract_x
_atom_site_fract_y
_atom_site_fract_z
Si Si1 0.998359 0.858588 0.080903
Si Si2 0.153490 0.826704 0.884755
Si Si3 0.628079 0.513205 0.192421
Si Si4 0.202419 0.001059 0.539047
Si Si5 0.405088 0.156549 0.094885
Si Si6 0.637855 0.470607 0.427906
Si Si7 0.598794 0.908883 0.679908
Si Si8 0.160132 0.169386 0.762743
O O1 0.106465 0.016865 0.330478
O O2 0.894780 0.961080 0.033716
O O3 0.000000 0.500000 0.000000
O O4 0.000000 0.000000 0.000000
O O5 0.111326 0.476632 0.760514
O O6 0.124432 0.956333 0.762212
O O7 0.286524 0.877113 0.085198
O O8 0.708273 0.697737 0.261779
O O9 0.656329 0.655694 0.388875
O O10 0.500000 0.500000 0.000000
O O11 0.637612 0.167017 0.101417
O O12 0.149530 0.976698 0.583868
O O13 0.272201 0.747939 0.522670
O O14 0.510710 0.305603 0.206292
O O15 0.448366 0.154350 0.276870
O O16 0.291255 0.283555 0.987949
O O17 0.639782 0.647572 0.591614
O O18 0.500000 0.000000 0.500000
#
# Coordination Sequence:
#
# PCOD9057623 Si02
#       8
#     2   2   2   2   2   2   2   2
#     4  12  30  52  79 110 149 197 253 312 376 443
#     4  11  26  49  73 105 152 192 243 317 367 442
#     4  12  23  42  68 106 147 191 240 308 372 437
#     4  12  27  44  76 104 146 194 252 308 374 449
#     4  11  22  43  66 103 149 193 241 307 374 446
#     4  12  24  40  66 104 145 189 250 300 372 446
#     4  11  24  40  67 101 143 193 249 298 376 450
#     4  11  24  46  74 108 142 193 246 302 382 442
#
# _framework density 24.106544
#
# number of rings (size 3 to 8) (size 9 to 14) (size 15 to 20)
#    0.000    0.500    2.500    6.000    3.500    3.000 
#    0.000    0.000    0.000    0.000    0.000    0.000 
#    0.000    0.000    0.000    0.000    0.000    0.000 
#
# Total GULP energy -89457.746498 kJ/mol
# GULP energy per Si atom -5591.109156 kJ/mol
# Density = 2.405168 g / cm^3
# Si number density = 24.106544 Si / 1000 Ang^3
#
#
#
# Elastic Constant Matrix: (Units=GPa)
#
#
# Indices 1 2 3 4 5 6 
#
# 1 116.8517 43.4422 24.1722 -18.3419 -23.1130 13.1876
# 2 43.4422 130.2112 16.3237 -6.0016 -12.0128 1.2709
# 3 24.1722 16.3237 87.8990 -20.2226 -10.3075 18.0605
# 4 -18.3419 -6.0016 -20.2226 35.5778 2.1054 -14.0020
# 5 -23.1130 -12.0128 -10.3075 2.1054 48.1013 -5.1859
# 6 13.1876 1.2709 18.0605 -14.0020 -5.1859 33.5301
#
#
#
# Elastic Compliance Matrix: (Units=1/GPa)
#
#
# Indices 1 2 3 4 5 6 
#
# 1 0.011564 -0.003160 -0.000826 0.004067 0.004237 -0.001630
# 2 -0.003160 0.008904 -0.001057 -0.000176 0.000648 0.001502
# 3 -0.000826 -0.001057 0.014238 0.005525 0.001637 -0.004744
# 4 0.004067 -0.000176 0.005525 0.037721 0.002694 0.011600
# 5 0.004237 0.000648 0.001637 0.002694 0.023455 0.002180
# 6 -0.001630 0.001502 -0.004744 0.011600 0.002180 0.038144
#
#
# Mechanical properties :
#
#
# Convention : Reuss Voigt Hill
#
# Bulk Modulus (GPa) = 40.61980 55.87092 48.24536
# Shear Modulus (GPa) = 32.82584 40.17676 36.50130
#
# Velocity S-wave (km/s) = 3.69412 4.08687 3.89545
# Velocity P-wave (km/s) = 5.92301 6.74515 6.34740
#
# Compressibility (1/GPa) = 0.02461854
#
# Stress axis : x y z
#
# Youngs Moduli (GPa) = 86.47579 112.31151 70.23500
#
# Poissons Ratio (x) = 0.35494 0.05800
# Poissons Ratio (y) = 0.27329 0.07427
# Poissons Ratio (z) = 0.07141 0.11876
#
# Static dielectric constant tensor:
#      x y z
#    x 1.876610 -0.006650 0.008280 
#    y -0.006650 2.004300 -0.014490 
#    z 0.008280 -0.014490 1.907230 
# 
# From -- ./inp_files/468478.got.cif
#   From: 2010.05.17/outbox.cif.g08.bks.cpg/sg2_235_cif.got.tgz:468478.got - 2010.06.03 11:33:40.
