data_PCOD9057306
_publ_section_title
;
Structure prediction by ZEFSAII (Michael W. Deem and Ramdas Pophale) SiO2 
 PCOD9057306
Probable space group: P -1
;
_chemical_formula_sum "Si O2"
_cell_formula_units_Z 14
_cell_length_a 12.894497
_cell_length_b 9.598800
_cell_length_c 9.476375
_cell_angle_alpha 73.950015
_cell_angle_beta 34.914863
_cell_angle_gamma 77.430830
_cell_volume 645.067661
_symmetry_space_group_name_H-M "P -1"
_symmetry_group_IT_number 2
_symmetry_cell_setting 'triclinic'
loop_
_space_group_symop_operation_xyz
x,y,z
-x,-y,-z
loop_
_atom_site_type_symbol
_atom_site_label
_atom_site_fract_x
_atom_site_fract_y
_atom_site_fract_z
Si Si1 0.575826 0.159420 0.337412
Si Si2 0.097194 0.868431 0.245021
Si Si3 0.472335 0.440061 0.246319
Si Si4 0.289315 0.646806 0.609181
Si Si5 0.831909 0.529482 0.950122
Si Si6 0.123357 0.406233 0.495826
Si Si7 0.027912 0.809363 0.648370
O O1 0.440877 0.276089 0.386086
O O2 0.629261 0.237608 0.402733
O O3 0.500000 0.000000 0.500000
O O4 0.743239 0.145001 0.043686
O O5 0.931073 0.760382 0.420095
O O6 0.140022 0.821628 0.372742
O O7 0.034414 0.033035 0.281211
O O8 0.414959 0.572008 0.374696
O O9 0.689245 0.458880 0.018389
O O10 0.335519 0.442144 0.265726
O O11 0.230070 0.513756 0.813451
O O12 0.138630 0.732685 0.668646
O O13 0.858626 0.699047 0.843898
O O14 0.026828 0.455488 0.734256
O O15 0.000000 0.500000 0.500000
#
# Coordination Sequence:
#
# PCOD9057306 Si02
#       7
#     2   2   2   2   2   2   2
#     4  11  26  44  68 104 146 179 236 294 348 416
#     4  11  25  46  65 103 145 184 232 285 357 416
#     4  11  25  42  71 103 136 181 237 287 350 410
#     4  11  23  44  68 102 136 187 240 281 352 414
#     4  11  22  42  67 102 131 182 234 287 333 413
#     4  12  23  45  69  99 143 180 234 286 343 420
#     4  11  25  44  70  97 146 188 231 286 353 421
#
# _framework density 21.703150999999998
#
# number of rings (size 3 to 8) (size 9 to 14) (size 15 to 20)
#    0.000    0.857    5.714    2.143    6.000    1.143 
#    2.571    0.714    0.000    0.000    0.000    0.000 
#    0.000    0.000    0.000    0.000    0.000    0.000 
#
# Total GULP energy -78076.425167 kJ/mol
# GULP energy per Si atom -5576.887512 kJ/mol
# Density = 2.165375 g / cm^3
# Si number density = 21.703151 Si / 1000 Ang^3
#
#
#
# Elastic Constant Matrix: (Units=GPa)
#
#
# Indices 1 2 3 4 5 6 
#
# 1 123.0902 41.2813 31.2153 -13.6481 -1.2447 -12.6126
# 2 41.2813 180.3381 39.5247 -18.5863 -2.3107 16.2849
# 3 31.2153 39.5247 68.0004 -16.2068 -11.0867 7.7789
# 4 -13.6481 -18.5863 -16.2068 29.3596 3.4201 5.8535
# 5 -1.2447 -2.3107 -11.0867 3.4201 29.8441 0.4778
# 6 -12.6126 16.2849 7.7789 5.8535 0.4778 31.5441
#
#
#
# Elastic Compliance Matrix: (Units=1/GPa)
#
#
# Indices 1 2 3 4 5 6 
#
# 1 0.010641 -0.002011 -0.004724 -0.000046 -0.001566 0.006490
# 2 -0.002011 0.007223 -0.001991 0.003543 -0.000595 -0.004691
# 3 -0.004724 -0.001991 0.022457 0.009783 0.007003 -0.008321
# 4 -0.000046 0.003543 0.009783 0.044280 -0.000968 -0.012462
# 5 -0.001566 -0.000595 0.007003 -0.000968 0.036147 -0.002414
# 6 0.006490 -0.004691 -0.008321 -0.012462 -0.002414 0.041119
#
#
# Mechanical properties :
#
#
# Convention : Reuss Voigt Hill
#
# Bulk Modulus (GPa) = 43.73018 66.16347 54.94683
# Shear Modulus (GPa) = 26.74612 35.44337 31.09474
#
# Velocity S-wave (km/s) = 3.51431 4.04554 3.78925
# Velocity P-wave (km/s) = 6.05476 7.23697 6.67210
#
# Compressibility (1/GPa) = 0.02286750
#
# Stress axis : x y z
#
# Youngs Moduli (GPa) = 93.97784 138.44597 44.52945
#
# Poissons Ratio (x) = 0.27845 0.21037
# Poissons Ratio (y) = 0.18902 0.08866
# Poissons Ratio (z) = 0.44398 0.27566
#
# Static dielectric constant tensor:
#      x y z
#    x 1.858790 0.028170 0.011390 
#    y 0.028170 1.773280 -0.012210 
#    z 0.011390 -0.012210 1.869310 
# 
# From -- ./inp_files/191149.got.cif
#   From: 2010.05.17/outbox.cif.g08.bks.cpg/sg2_96_cif.got.tgz:191149.got - 2010.06.03 11:33:40.
