data_PCOD9057093
_publ_section_title
;
Structure prediction by ZEFSAII (Michael W. Deem and Ramdas Pophale) SiO2 
 PCOD9057093
Probable space group: P -1
;
_chemical_formula_sum "Si O2"
_cell_formula_units_Z 16
_cell_length_a 20.808698
_cell_length_b 8.912086
_cell_length_c 24.593889
_cell_angle_alpha 147.706138
_cell_angle_beta 160.345745
_cell_angle_gamma 32.205202
_cell_volume 787.110563
_symmetry_space_group_name_H-M "P -1"
_symmetry_group_IT_number 2
_symmetry_cell_setting 'triclinic'
loop_
_space_group_symop_operation_xyz
x,y,z
-x,-y,-z
loop_
_atom_site_type_symbol
_atom_site_label
_atom_site_fract_x
_atom_site_fract_y
_atom_site_fract_z
Si Si1 0.088865 0.063367 0.254285
Si Si2 0.841239 0.822248 0.072951
Si Si3 0.869658 0.096606 0.293844
Si Si4 0.088352 0.248855 0.671195
Si Si5 0.258376 0.260280 0.609706
Si Si6 0.078425 0.144740 0.056276
Si Si7 0.530347 0.171924 0.445720
Si Si8 0.443760 0.199508 0.854576
O O1 0.046376 0.415316 0.332359
O O2 0.324022 0.899967 0.406152
O O3 0.957147 0.974393 0.169734
O O4 0.993512 0.979072 0.095703
O O5 0.965829 0.488960 0.072358
O O6 0.809540 0.981751 0.154601
O O7 0.612648 0.891870 0.895749
O O8 0.750911 0.414479 0.318321
O O9 0.067003 0.181167 0.457875
O O10 0.873546 0.855545 0.268208
O O11 0.276381 0.221388 0.773415
O O12 0.000000 0.000000 0.500000
O O13 0.387840 0.219049 0.753431
O O14 0.334915 0.041886 0.555772
O O15 0.312193 0.113907 0.247129
O O16 0.000000 0.000000 0.000000
O O17 0.500000 0.500000 0.500000
O O18 0.500000 0.500000 0.000000
#
# Coordination Sequence:
#
# PCOD9057093 Si02
#       8
#     2   2   2   2   2   2   2   2
#     4  12  25  47  78 103 145 194 244 298 362 441
#     4  12  24  46  70 101 140 188 238 289 365 426
#     4  11  22  41  69  99 142 178 223 301 350 423
#     4  12  25  43  69 109 145 183 236 300 365 427
#     4  11  22  42  69  99 138 183 236 283 357 433
#     4  12  29  50  71 108 149 187 245 313 356 422
#     4  12  26  45  78 106 137 198 251 288 361 440
#     4  12  24  42  70 105 141 189 234 291 366 438
#
# _framework density 20.327513
#
# number of rings (size 3 to 8) (size 9 to 14) (size 15 to 20)
#    0.000    0.250    6.250    2.625    1.750    3.000 
#    0.000    0.000    0.000    0.000    0.000    0.000 
#    0.000    0.000    0.000    0.000    0.000    0.000 
#
# Total GULP energy -89120.067070 kJ/mol
# GULP energy per Si atom -5570.004192 kJ/mol
# Density = 2.028125 g / cm^3
# Si number density = 20.327513 Si / 1000 Ang^3
#
#
#
# Elastic Constant Matrix: (Units=GPa)
#
#
# Indices 1 2 3 4 5 6 
#
# 1 94.1126 40.0697 33.1281 10.3054 8.4429 19.9004
# 2 40.0697 145.4578 28.3510 4.3352 6.4624 15.7880
# 3 33.1281 28.3510 104.3286 -3.5877 2.8708 5.9355
# 4 10.3054 4.3352 -3.5877 37.0038 -2.6128 0.5258
# 5 8.4429 6.4624 2.8708 -2.6128 31.0170 7.2154
# 6 19.9004 15.7880 5.9355 0.5258 7.2154 35.1092
#
#
#
# Elastic Compliance Matrix: (Units=1/GPa)
#
#
# Indices 1 2 3 4 5 6 
#
# 1 0.015017 -0.002490 -0.003827 -0.004323 -0.002126 -0.006244
# 2 -0.002490 0.008049 -0.001289 -0.000381 -0.000473 -0.001887
# 3 -0.003827 -0.001289 0.011179 0.002310 0.000292 0.000764
# 4 -0.004323 -0.000381 0.002310 0.028706 0.003194 0.001145
# 5 -0.002126 -0.000473 0.000292 0.003194 0.034502 -0.005770
# 6 -0.006244 -0.001887 0.000764 0.001145 -0.005770 0.033910
#
#
# Mechanical properties :
#
#
# Convention : Reuss Voigt Hill
#
# Bulk Modulus (GPa) = 52.54132 60.77740 56.65936
# Shear Modulus (GPa) = 32.69701 36.78268 34.73985
#
# Velocity S-wave (km/s) = 4.01497 4.25844 4.13850
# Velocity P-wave (km/s) = 6.88454 7.35820 7.12530
#
# Compressibility (1/GPa) = 0.01903264
#
# Stress axis : x y z
#
# Youngs Moduli (GPa) = 66.59083 124.23420 89.45702
#
# Poissons Ratio (x) = 0.30934 0.34233
# Poissons Ratio (y) = 0.16581 0.11535
# Poissons Ratio (z) = 0.25483 0.16019
#
# Static dielectric constant tensor:
#      x y z
#    x 1.342540 -0.095110 0.110540 
#    y -0.095110 1.736490 -0.023320 
#    z 0.110540 -0.023320 1.787430 
# 
# From -- ./inp_files/608174.got.cif
#   From: 2010.05.17/outbox.cif.g08.bks.cpg/sg2_305_cif.got.tgz:608174.got - 2010.06.03 11:33:40.
