data_PCOD9057683
_publ_section_title
;
Structure prediction by ZEFSAII (Michael W. Deem and Ramdas Pophale) SiO2 
 PCOD9057683
Probable space group: P -1
;
_chemical_formula_sum "Si O2"
_cell_formula_units_Z 15
_cell_length_a 20.291763
_cell_length_b 18.475580
_cell_length_c 8.544209
_cell_angle_alpha 41.740069
_cell_angle_beta 39.715022
_cell_angle_gamma 19.869471
_cell_volume 691.832442
_symmetry_space_group_name_H-M "P -1"
_symmetry_group_IT_number 2
_symmetry_cell_setting 'triclinic'
loop_
_space_group_symop_operation_xyz
x,y,z
-x,-y,-z
loop_
_atom_site_type_symbol
_atom_site_label
_atom_site_fract_x
_atom_site_fract_y
_atom_site_fract_z
Si Si1 0.813001 0.632623 0.963039
Si Si2 0.485079 0.486895 0.367501
Si Si3 0.787660 0.413673 0.482160
Si Si4 0.346479 0.035721 0.074966
Si Si5 0.416639 0.760596 0.842897
Si Si6 0.000000 0.500000 0.500000
Si Si7 0.814511 0.030803 0.365080
Si Si8 0.656479 0.959707 0.284675
O O1 0.782216 0.745670 0.978323
O O2 0.962819 0.528647 0.717000
O O3 0.848102 0.479328 0.210995
O O4 0.586822 0.840176 0.963056
O O5 0.500000 0.500000 0.500000
O O6 0.302654 0.569474 0.527353
O O7 0.691605 0.242182 0.324422
O O8 0.440278 0.635881 0.111601
O O9 0.602042 0.590791 0.656484
O O10 0.965307 0.187320 0.611161
O O11 0.300821 0.975168 0.365459
O O12 0.302307 0.046536 0.959571
O O13 0.213851 0.935729 0.823929
O O14 0.428048 0.860569 0.758830
O O15 0.145612 0.262160 0.631230
O O16 0.500000 0.000000 0.500000
#
# Coordination Sequence:
#
# PCOD9057683 Si02
#       8
#     2   2   2   2   2   1   2   2
#     4  11  23  42  68  99 137 183 231 281 346 413
#     4  11  25  45  69 100 138 177 231 296 348 406
#     4  11  24  45  72  99 134 189 231 283 353 414
#     4  11  22  43  68  94 140 185 223 286 347 408
#     4  11  25  43  69 101 137 180 232 289 345 411
#     4  12  26  40  64 104 134 174 236 280 334 420
#     4  11  23  44  69  96 136 181 234 286 344 415
#     4  12  25  41  65 100 139 179 224 286 348 409
#
# _framework density 21.681549
#
# number of rings (size 3 to 8) (size 9 to 14) (size 15 to 20)
#    0.000    0.800    4.000    4.800    0.000    8.000 
#    0.000    1.333    0.000    0.000    0.000    0.000 
#    0.000    0.000    0.000    0.000    0.000    0.000 
#
# Total GULP energy -83669.868328 kJ/mol
# GULP energy per Si atom -5577.991222 kJ/mol
# Density = 2.163220 g / cm^3
# Si number density = 21.681549 Si / 1000 Ang^3
#
#
#
# Elastic Constant Matrix: (Units=GPa)
#
#
# Indices 1 2 3 4 5 6 
#
# 1 160.0812 58.4024 56.1535 -20.4560 18.2682 17.4824
# 2 58.4024 99.9419 23.6399 -33.5561 3.5592 2.4575
# 3 56.1535 23.6399 106.3518 -32.9552 23.0018 9.1605
# 4 -20.4560 -33.5561 -32.9552 40.6298 0.9015 1.4371
# 5 18.2682 3.5592 23.0018 0.9015 39.7918 -7.9633
# 6 17.4824 2.4575 9.1605 1.4371 -7.9633 36.3150
#
#
#
# Elastic Compliance Matrix: (Units=1/GPa)
#
#
# Indices 1 2 3 4 5 6 
#
# 1 0.010093 -0.005650 -0.004004 -0.002637 -0.002538 -0.003919
# 2 -0.005650 0.017436 0.004207 0.015028 -0.001842 -0.000520
# 3 -0.004004 0.004207 0.018842 0.017207 -0.011064 -0.006217
# 4 -0.002637 0.015028 0.017207 0.050258 -0.013006 -0.008929
# 5 -0.002538 -0.001842 -0.011064 -0.013006 0.035646 0.012469
# 6 -0.003919 -0.000520 -0.006217 -0.008929 0.012469 0.034115
#
#
# Mechanical properties :
#
#
# Convention : Reuss Voigt Hill
#
# Bulk Modulus (GPa) = 28.18585 71.41849 49.80217
# Shear Modulus (GPa) = 26.43974 38.55925 32.49950
#
# Velocity S-wave (km/s) = 3.49586 4.22173 3.87582
# Velocity P-wave (km/s) = 5.41506 7.53493 6.56118
#
# Compressibility (1/GPa) = 0.03547879
#
# Stress axis : x y z
#
# Youngs Moduli (GPa) = 99.07656 57.35175 53.07269
#
# Poissons Ratio (x) = 0.32402 0.21250
# Poissons Ratio (y) = 0.55975 -0.22329
# Poissons Ratio (z) = 0.39670 -0.24130
#
# Static dielectric constant tensor:
#      x y z
#    x 1.818820 -0.052350 -0.015410 
#    y -0.052350 1.819430 0.026360 
#    z -0.015410 0.026360 1.768940 
# 
# From -- ./inp_files/348814.got.cif
#   From: 2010.05.17/outbox.cif.g08.bks.cpg/sg2_175_cif.got.tgz:348814.got - 2010.06.03 11:33:40.
