data_PCOD9057355
_publ_section_title
;
Structure prediction by ZEFSAII (Michael W. Deem and Ramdas Pophale) SiO2 
 PCOD9057355
Probable space group: P -1
;
_chemical_formula_sum "Si O2"
_cell_formula_units_Z 16
_cell_length_a 6.517203
_cell_length_b 10.071051
_cell_length_c 14.392861
_cell_angle_alpha 74.533719
_cell_angle_beta 72.427686
_cell_angle_gamma 102.272316
_cell_volume 822.644617
_symmetry_space_group_name_H-M "P -1"
_symmetry_group_IT_number 2
_symmetry_cell_setting 'triclinic'
loop_
_space_group_symop_operation_xyz
x,y,z
-x,-y,-z
loop_
_atom_site_type_symbol
_atom_site_label
_atom_site_fract_x
_atom_site_fract_y
_atom_site_fract_z
Si Si1 0.733793 0.902422 0.058270
Si Si2 0.206908 0.596418 0.893824
Si Si3 0.533033 0.885278 0.883952
Si Si4 0.329171 0.091043 0.500095
Si Si5 0.019705 0.407285 0.274356
Si Si6 0.514423 0.578958 0.202598
Si Si7 0.115352 0.101291 0.328739
Si Si8 0.418958 0.568816 0.586495
O O1 0.671278 0.745844 0.145280
O O2 0.585711 0.990991 0.111425
O O3 0.638958 0.869766 0.972238
O O4 0.000000 0.000000 0.000000
O O5 0.337332 0.742706 0.902277
O O6 0.382951 0.509949 0.866775
O O7 0.108679 0.618673 0.802376
O O8 0.000000 0.500000 0.000000
O O9 0.731892 0.911497 0.776201
O O10 0.233372 0.075428 0.411765
O O11 0.446364 0.260650 0.466173
O O12 0.500000 0.000000 0.500000
O O13 0.129565 0.020121 0.613551
O O14 0.250879 0.543109 0.218106
O O15 0.083823 0.260542 0.310675
O O16 0.843897 0.437821 0.365890
O O17 0.524911 0.509174 0.314920
O O18 0.500000 0.500000 0.500000
#
# Coordination Sequence:
#
# PCOD9057355 Si02
#       8
#     2   2   2   2   2   2   2   2
#     4  11  27  45  65  94 139 175 215 269 332 397
#     4  11  23  38  69 100 127 171 224 267 328 385
#     4  11  25  43  65 100 131 168 226 266 326 402
#     4  11  23  42  67  96 132 169 223 276 322 390
#     4  11  22  42  68  95 135 167 220 280 320 388
#     4  11  24  44  65  96 132 171 223 271 324 396
#     4  11  23  40  69  96 126 170 223 274 326 379
#     4  11  25  43  63  98 133 174 218 269 335 392
#
# _framework density 19.449466999999999
#
# number of rings (size 3 to 8) (size 9 to 14) (size 15 to 20)
#    0.000    1.000    3.750    2.250    3.500    7.500 
#    0.000    0.000    0.000    0.000    0.000    0.000 
#    0.000    0.000    0.000    0.000    0.000    0.000 
#
# Total GULP energy -89412.162665 kJ/mol
# GULP energy per Si atom -5588.260167 kJ/mol
# Density = 1.940520 g / cm^3
# Si number density = 19.449467 Si / 1000 Ang^3
#
#
#
# Elastic Constant Matrix: (Units=GPa)
#
#
# Indices 1 2 3 4 5 6 
#
# 1 109.9214 52.3071 47.6469 -1.6045 -20.3548 2.5289
# 2 52.3071 132.7850 71.6833 -9.7231 -6.8244 3.1243
# 3 47.6469 71.6833 118.4960 8.3071 -30.9032 -3.0588
# 4 -1.6045 -9.7231 8.3071 42.7548 -2.5125 -9.5586
# 5 -20.3548 -6.8244 -30.9032 -2.5125 30.9686 -6.6067
# 6 2.5289 3.1243 -3.0588 -9.5586 -6.6067 32.1689
#
#
#
# Elastic Compliance Matrix: (Units=1/GPa)
#
#
# Indices 1 2 3 4 5 6 
#
# 1 0.012697 -0.004252 -0.000737 0.000241 0.006869 0.000827
# 2 -0.004252 0.014391 -0.009894 0.003815 -0.009803 -0.002884
# 3 -0.000737 -0.009894 0.019815 -0.003855 0.017957 0.005445
# 4 0.000241 0.003815 -0.003855 0.026714 0.000891 0.007365
# 5 0.006869 -0.009803 0.017957 0.000891 0.055581 0.013799
# 6 0.000827 -0.002884 0.005445 0.007365 0.013799 0.036841
#
#
# Mechanical properties :
#
#
# Convention : Reuss Voigt Hill
#
# Bulk Modulus (GPa) = 58.35956 78.27524 68.31740
# Shear Modulus (GPa) = 24.81184 33.81612 29.31398
#
# Velocity S-wave (km/s) = 3.57558 4.17425 3.88646
# Velocity P-wave (km/s) = 6.86420 7.97279 7.43917
#
# Compressibility (1/GPa) = 0.01713515
#
# Stress axis : x y z
#
# Youngs Moduli (GPa) = 78.75936 69.48912 50.46728
#
# Poissons Ratio (x) = 0.29550 0.03720
# Poissons Ratio (y) = 0.33492 0.49933
# Poissons Ratio (z) = 0.05806 0.68753
#
# Static dielectric constant tensor:
#      x y z
#    x 1.703210 0.008490 -0.011590 
#    y 0.008490 1.698000 -0.024660 
#    z -0.011590 -0.024660 1.678040 
# 
# From -- ./inp_files/97579.got.cif
#   From: 2010.05.17/outbox.cif.g08.bks.cpg/sg2_49_cif.got.tgz:97579.got - 2010.06.03 11:33:40.
