data_PCOD9057614
_publ_section_title
;
Structure prediction by ZEFSAII (Michael W. Deem and Ramdas Pophale) SiO2 
 PCOD9057614
Probable space group: P -1
;
_chemical_formula_sum "Si O2"
_cell_formula_units_Z 16
_cell_length_a 15.716431
_cell_length_b 9.930594
_cell_length_c 10.603055
_cell_angle_alpha 50.152913
_cell_angle_beta 48.922564
_cell_angle_gamma 37.419955
_cell_volume 732.049908
_symmetry_space_group_name_H-M "P -1"
_symmetry_group_IT_number 2
_symmetry_cell_setting 'triclinic'
loop_
_space_group_symop_operation_xyz
x,y,z
-x,-y,-z
loop_
_atom_site_type_symbol
_atom_site_label
_atom_site_fract_x
_atom_site_fract_y
_atom_site_fract_z
Si Si1 0.883599 0.029643 0.449993
Si Si2 0.603583 0.746126 0.988955
Si Si3 0.796045 0.765675 0.142549
Si Si4 0.888936 0.660685 0.820936
Si Si5 0.412158 0.749980 0.991164
Si Si6 0.794748 0.275705 0.643562
Si Si7 0.604685 0.371032 0.354750
Si Si8 0.580028 0.759246 0.499887
O O1 0.884078 0.844975 0.635675
O O2 0.052602 0.895018 0.328366
O O3 0.837816 0.216447 0.489948
O O4 0.766159 0.158371 0.376378
O O5 0.527842 0.776167 0.912243
O O6 0.606120 0.556531 0.171940
O O7 0.768861 0.653076 0.880942
O O8 0.500000 0.000000 0.000000
O O9 0.674951 0.736309 0.303206
O O10 0.944521 0.578259 0.187484
O O11 0.838166 0.733817 0.972850
O O12 0.710498 0.029493 0.104939
O O13 0.317304 0.766726 0.188972
O O14 0.500000 0.500000 0.000000
O O15 0.705804 0.542341 0.593570
O O16 0.500000 0.500000 0.500000
O O17 0.532256 0.283100 0.401386
O O18 0.500000 0.000000 0.500000
#
# Coordination Sequence:
#
# PCOD9057614 Si02
#       8
#     2   2   2   2   2   2   2   2
#     4  11  23  40  70  96 134 166 221 280 323 382
#     4  12  24  42  65 100 133 168 221 275 323 389
#     4  11  24  40  69  97 129 177 218 271 334 383
#     4  11  23  41  65 101 132 164 222 279 326 383
#     4  12  25  44  67  95 135 177 217 267 332 399
#     4  11  22  43  65  95 130 172 222 267 324 388
#     4  12  24  41  67  99 130 172 222 270 328 384
#     4  12  25  45  67  95 135 176 220 266 326 401
#
# _framework density 21.856434
#
# number of rings (size 3 to 8) (size 9 to 14) (size 15 to 20)
#    0.000    0.500    6.250    2.250    3.500    0.000 
#    0.000    2.500    0.000    0.000    0.000    0.000 
#    0.000    0.000    0.000    0.000    0.000    0.000 
#
# Total GULP energy -89459.310510 kJ/mol
# GULP energy per Si atom -5591.206907 kJ/mol
# Density = 2.180669 g / cm^3
# Si number density = 21.856434 Si / 1000 Ang^3
#
#
#
# Elastic Constant Matrix: (Units=GPa)
#
#
# Indices 1 2 3 4 5 6 
#
# 1 123.8583 85.5831 33.1053 -4.8199 -29.0993 -30.3089
# 2 85.5831 181.9495 36.3776 -32.3143 -10.1819 -22.3897
# 3 33.1053 36.3776 74.3686 -19.3239 -13.1614 -15.0769
# 4 -4.8199 -32.3143 -19.3239 36.9765 -2.6919 0.5251
# 5 -29.0993 -10.1819 -13.1614 -2.6919 32.2525 -4.5898
# 6 -30.3089 -22.3897 -15.0769 0.5251 -4.5898 46.2247
#
#
#
# Elastic Compliance Matrix: (Units=1/GPa)
#
#
# Indices 1 2 3 4 5 6 
#
# 1 0.019891 -0.007535 -0.000990 -0.003468 0.016402 0.010738
# 2 -0.007535 0.010208 -0.000342 0.007537 -0.003158 -0.000507
# 3 -0.000990 -0.000342 0.019573 0.010348 0.008749 0.006320
# 4 -0.003468 0.007537 0.010348 0.039057 0.007452 0.005048
# 5 0.016402 -0.003158 0.008749 0.007452 0.051433 0.017101
# 6 0.010738 -0.000507 0.006320 0.005048 0.017101 0.032130
#
#
# Mechanical properties :
#
#
# Convention : Reuss Voigt Hill
#
# Bulk Modulus (GPa) = 31.31137 76.70092 54.00614
# Shear Modulus (GPa) = 24.91609 38.09811 31.50710
#
# Velocity S-wave (km/s) = 3.38004 4.17958 3.80089
# Velocity P-wave (km/s) = 5.43966 7.64599 6.63517
#
# Compressibility (1/GPa) = 0.03193728
#
# Stress axis : x y z
#
# Youngs Moduli (GPa) = 50.27427 97.96157 51.09013
#
# Poissons Ratio (x) = 0.73812 0.05059
# Poissons Ratio (y) = 0.37880 0.01750
# Poissons Ratio (z) = 0.04978 0.03355
#
# Static dielectric constant tensor:
#      x y z
#    x 1.808510 -0.014200 0.015060 
#    y -0.014200 1.815250 -0.014190 
#    z 0.015060 -0.014190 1.850240 
# 
# From -- ./inp_files/391938.got.cif
#   From: 2010.05.17/outbox.cif.g08.bks.cpg/sg2_196_cif.got.tgz:391938.got - 2010.06.03 11:33:40.
