data_PCOD9057965
_publ_section_title
;
Structure prediction by ZEFSAII (Michael W. Deem and Ramdas Pophale) SiO2 
 PCOD9057965
Probable space group: P -1
;
_chemical_formula_sum "Si O2"
_cell_formula_units_Z 16
_cell_length_a 8.353033
_cell_length_b 8.426185
_cell_length_c 11.855278
_cell_angle_alpha 80.001096
_cell_angle_beta 88.794237
_cell_angle_gamma 123.977978
_cell_volume 674.277682
_symmetry_space_group_name_H-M "P -1"
_symmetry_group_IT_number 2
_symmetry_cell_setting 'triclinic'
loop_
_space_group_symop_operation_xyz
x,y,z
-x,-y,-z
loop_
_atom_site_type_symbol
_atom_site_label
_atom_site_fract_x
_atom_site_fract_y
_atom_site_fract_z
Si Si1 0.342830 0.268358 0.517024
Si Si2 0.374565 0.846132 0.797680
Si Si3 0.334433 0.466413 0.920471
Si Si4 0.740696 0.137277 0.439141
Si Si5 0.008034 0.180448 0.119116
Si Si6 0.178201 0.356789 0.321379
Si Si7 0.237213 0.756924 0.312836
Si Si8 0.878121 0.763587 0.251810
O O1 0.500000 0.500000 0.500000
O O2 0.274055 0.260720 0.391842
O O3 0.188702 0.219590 0.624429
O O4 0.378591 0.098565 0.543868
O O5 0.365533 0.673714 0.882998
O O6 0.333915 0.794448 0.670559
O O7 0.201270 0.858600 0.847985
O O8 0.583903 0.051260 0.774509
O O9 0.312914 0.385681 0.802926
O O10 0.500000 0.500000 0.000000
O O11 0.118226 0.297768 0.991065
O O12 0.756528 0.201406 0.559219
O O13 0.961029 0.228619 0.389751
O O14 0.157839 0.327818 0.193519
O O15 0.982742 0.976624 0.165940
O O16 0.261361 0.579466 0.321477
O O17 0.031750 0.705506 0.272617
#
# Coordination Sequence:
#
# PCOD9057965 Si02
#       8
#     2   2   2   2   2   2   2   2
#     4  12  25  39  70 107 145 185 226 283 355 425
#     4  11  25  45  71 102 138 187 231 287 347 410
#     4  12  29  49  74 101 135 186 240 297 345 408
#     4  11  22  44  66 105 151 184 223 281 349 425
#     4  11  25  49  72  99 145 183 236 287 344 414
#     4  11  23  41  68 104 143 187 226 278 351 414
#     4  12  25  41  72 110 146 183 227 286 351 422
#     4  12  25  47  72 104 142 181 237 285 354 413
#
# _framework density 23.729095000000001
#
# number of rings (size 3 to 8) (size 9 to 14) (size 15 to 20)
#    0.000    0.500    3.750    5.625    5.250    0.000 
#    0.000    1.875    0.000    0.000    0.000    0.000 
#    0.000    0.000    0.000    0.000    0.000    0.000 
#
# Total GULP energy -89527.882399 kJ/mol
# GULP energy per Si atom -5595.492650 kJ/mol
# Density = 2.367509 g / cm^3
# Si number density = 23.729095 Si / 1000 Ang^3
#
#
#
# Elastic Constant Matrix: (Units=GPa)
#
#
# Indices 1 2 3 4 5 6 
#
# 1 76.8845 12.3815 46.3916 -4.1080 28.2431 -1.2771
# 2 12.3815 109.8052 33.0633 -11.6034 7.9314 -5.9184
# 3 46.3916 33.0633 90.1817 -13.4296 1.4695 -11.4293
# 4 -4.1080 -11.6034 -13.4296 46.9727 -4.4792 1.3530
# 5 28.2431 7.9314 1.4695 -4.4792 37.3218 -11.6475
# 6 -1.2771 -5.9184 -11.4293 1.3530 -11.6475 34.6323
#
#
#
# Elastic Compliance Matrix: (Units=1/GPa)
#
#
# Indices 1 2 3 4 5 6 
#
# 1 0.039863 0.003943 -0.024447 -0.005473 -0.036290 -0.017915
# 2 0.003943 0.010867 -0.006038 0.000828 -0.005545 -0.001888
# 3 -0.024447 -0.006038 0.028372 0.006349 0.024210 0.015324
# 4 -0.005473 0.000828 0.006349 0.023456 0.007687 0.003704
# 5 -0.036290 -0.005545 0.024210 0.007687 0.063785 0.026856
# 6 -0.017915 -0.001888 0.015324 0.003704 0.026856 0.041836
#
#
# Mechanical properties :
#
#
# Convention : Reuss Voigt Hill
#
# Bulk Modulus (GPa) = 38.43364 51.17159 44.80261
# Shear Modulus (GPa) = 18.52293 36.12101 27.32197
#
# Velocity S-wave (km/s) = 2.79695 3.90580 3.39693
# Velocity P-wave (km/s) = 5.16358 6.47705 5.85725
#
# Compressibility (1/GPa) = 0.02601887
#
# Stress axis : x y z
#
# Youngs Moduli (GPa) = 25.08576 92.02247 35.24654
#
# Poissons Ratio (x) = -0.36288 0.86166
# Poissons Ratio (y) = -0.09892 0.21283
# Poissons Ratio (z) = 0.61326 0.55565
#
# Static dielectric constant tensor:
#      x y z
#    x 1.899660 0.048890 -0.013970 
#    y 0.048890 1.900180 0.042060 
#    z -0.013970 0.042060 1.896720 
# 
# From -- ./inp_files/382008.got.cif
#   From: 2010.05.17/outbox.cif.g08.bks.cpg/sg2_192_cif.got.tgz:382008.got - 2010.06.03 11:33:40.
