data_PCOD9057948
_publ_section_title
;
Structure prediction by ZEFSAII (Michael W. Deem and Ramdas Pophale) SiO2 
 PCOD9057948
Probable space group: P -1
;
_chemical_formula_sum "Si O2"
_cell_formula_units_Z 12
_cell_length_a 10.171862
_cell_length_b 9.708109
_cell_length_c 5.468214
_cell_angle_alpha 79.207835
_cell_angle_beta 85.887863
_cell_angle_gamma 124.907639
_cell_volume 424.137396
_symmetry_space_group_name_H-M "P -1"
_symmetry_group_IT_number 2
_symmetry_cell_setting 'triclinic'
loop_
_space_group_symop_operation_xyz
x,y,z
-x,-y,-z
loop_
_atom_site_type_symbol
_atom_site_label
_atom_site_fract_x
_atom_site_fract_y
_atom_site_fract_z
Si Si1 0.643529 0.222145 0.772376
Si Si2 0.660908 0.537301 0.101139
Si Si3 0.063062 0.381337 0.311722
Si Si4 0.711085 0.239444 0.260998
Si Si5 0.312566 0.171805 0.772863
Si Si6 0.133645 0.982637 0.368440
O O1 0.813136 0.420972 0.677604
O O2 0.646253 0.137002 0.555003
O O3 0.649219 0.139683 0.048070
O O4 0.494985 0.235421 0.786192
O O5 0.654707 0.367810 0.222051
O O6 0.500000 0.500000 0.000000
O O7 0.820263 0.639582 0.869055
O O8 0.687629 0.658306 0.285642
O O9 0.093361 0.655116 0.797446
O O10 0.970273 0.227099 0.573091
O O11 0.205266 0.066265 0.065226
O O12 0.259789 0.072133 0.553783
O O13 0.000000 0.000000 0.500000
#
# Coordination Sequence:
#
# PCOD9057948 Si02
#       6
#     2   2   2   2   2   2
#     4  11  24  46  75 102 139 180 247 288 344 414
#     4  11  22  43  78 107 140 177 243 301 340 410
#     4  11  25  46  73 105 143 188 234 293 349 423
#     4  11  25  43  72 111 137 181 238 299 349 402
#     4  12  26  46  72 108 138 187 236 293 351 415
#     4  12  28  46  68 104 153 185 229 285 365 426
#
# _framework density 28.292718000000001
#
# number of rings (size 3 to 8) (size 9 to 14) (size 15 to 20)
#    0.000    0.667    5.000    4.000    2.333    3.333 
#    0.000    5.000    0.000    0.000    0.000    0.000 
#    0.000    0.000    0.000    0.000    0.000    0.000 
#
# Total GULP energy -67282.987987 kJ/mol
# GULP energy per Si atom -5606.915666 kJ/mol
# Density = 2.822832 g / cm^3
# Si number density = 28.292718 Si / 1000 Ang^3
#
#
#
# Elastic Constant Matrix: (Units=GPa)
#
#
# Indices 1 2 3 4 5 6 
#
# 1 216.3334 50.8312 33.2190 22.2260 3.5708 12.8342
# 2 50.8312 131.0808 35.0550 15.8803 -4.6791 -6.6998
# 3 33.2190 35.0550 142.5649 -0.5656 -7.3547 11.3525
# 4 22.2260 15.8803 -0.5656 54.3198 11.9754 -5.5936
# 5 3.5708 -4.6791 -7.3547 11.9754 46.9295 14.0590
# 6 12.8342 -6.6998 11.3525 -5.5936 14.0590 62.9932
#
#
#
# Elastic Compliance Matrix: (Units=1/GPa)
#
#
# Indices 1 2 3 4 5 6 
#
# 1 0.005415 -0.001740 -0.000722 -0.001899 0.000197 -0.001371
# 2 -0.001740 0.009161 -0.001913 -0.002047 0.000880 0.001295
# 3 -0.000722 -0.001913 0.007875 0.000417 0.001525 -0.001779
# 4 -0.001899 -0.002047 0.000417 0.021589 -0.006543 0.003471
# 5 0.000197 0.000880 0.001525 -0.006543 0.025216 -0.006430
# 6 -0.001371 0.001295 -0.001779 0.003471 -0.006430 0.018356
#
#
# Mechanical properties :
#
#
# Convention : Reuss Voigt Hill
#
# Bulk Modulus (GPa) = 72.98758 80.90996 76.94877
# Shear Modulus (GPa) = 49.53950 57.57343 53.55646
#
# Velocity S-wave (km/s) = 4.18899 4.51590 4.35551
# Velocity P-wave (km/s) = 7.01785 7.47333 7.24917
#
# Compressibility (1/GPa) = 0.01370096
#
# Stress axis : x y z
#
# Youngs Moduli (GPa) = 184.65855 109.16134 126.98436
#
# Poissons Ratio (x) = 0.18992 0.09172
# Poissons Ratio (y) = 0.32127 0.24292
# Poissons Ratio (z) = 0.13338 0.20882
#
# Static dielectric constant tensor:
#      x y z
#    x 2.193710 -0.010690 0.059650 
#    y -0.010690 2.224840 0.012220 
#    z 0.059650 0.012220 2.267960 
# 
# From -- ./inp_files/62032.got.cif
#   From: 2010.05.17/outbox.cif.g08.bks.cpg/sg2_32_cif.got.tgz:62032.got - 2010.06.03 11:33:40.
