data_PCOD9057425
_publ_section_title
;
Structure prediction by ZEFSAII (Michael W. Deem and Ramdas Pophale) SiO2 
 PCOD9057425
Probable space group: P -1
;
_chemical_formula_sum "Si O2"
_cell_formula_units_Z 16
_cell_length_a 17.276012
_cell_length_b 11.133849
_cell_length_c 13.283944
_cell_angle_alpha 41.273657
_cell_angle_beta 39.046843
_cell_angle_gamma 30.105771
_cell_volume 781.279856
_symmetry_space_group_name_H-M "P -1"
_symmetry_group_IT_number 2
_symmetry_cell_setting 'triclinic'
loop_
_space_group_symop_operation_xyz
x,y,z
-x,-y,-z
loop_
_atom_site_type_symbol
_atom_site_label
_atom_site_fract_x
_atom_site_fract_y
_atom_site_fract_z
Si Si1 0.173623 0.494853 0.932757
Si Si2 0.351577 0.429631 0.469118
Si Si3 0.983457 0.449645 0.278415
Si Si4 0.515073 0.810267 0.316439
Si Si5 0.284087 0.885596 0.340571
Si Si6 0.422632 0.635227 0.887494
Si Si7 0.949433 0.886049 0.050665
Si Si8 0.560030 0.752267 0.000909
O O1 0.289107 0.400369 0.779791
O O2 0.310512 0.339210 0.982758
O O3 0.049614 0.448187 0.101697
O O4 0.058842 0.778882 0.904717
O O5 0.201681 0.439874 0.600869
O O6 0.487717 0.219886 0.543664
O O7 0.274179 0.691114 0.432221
O O8 0.445780 0.384763 0.299595
O O9 0.988921 0.642218 0.206543
O O10 0.113554 0.163750 0.359800
O O11 0.403788 0.781410 0.382766
O O12 0.456055 0.066164 0.174568
O O13 0.385491 0.887293 0.148060
O O14 0.387818 0.484391 0.956760
O O15 0.245987 0.911313 0.903649
O O16 0.500000 0.500000 0.000000
O O17 0.000000 0.000000 0.000000
#
# Coordination Sequence:
#
# PCOD9057425 Si02
#       8
#     2   2   2   2   2   2   2   2
#     4   9  18  36  66  93 120 156 200 251 300 357
#     4  11  26  38  61  92 129 158 201 260 311 357
#     4  10  20  39  59  94 129 160 197 252 306 363
#     4  11  19  38  65  97 119 157 207 255 306 357
#     4  10  19  40  62  91 127 163 196 247 308 369
#     4  11  25  44  61  84 122 168 208 250 308 371
#     4  10  20  41  68  88 116 162 218 251 284 362
#     4  10  17  36  68  89 118 162 209 245 299 364
#
# _framework density 20.479216999999998
#
# number of rings (size 3 to 8) (size 9 to 14) (size 15 to 20)
#    0.750    1.000    3.750    1.500    1.750    1.000 
#    6.750    0.000    0.000    3.000    0.000    0.000 
#    0.000    0.000    0.000    0.000    0.000    0.000 
#
# Total GULP energy -89201.704631 kJ/mol
# GULP energy per Si atom -5575.106539 kJ/mol
# Density = 2.043261 g / cm^3
# Si number density = 20.479217 Si / 1000 Ang^3
#
#
#
# Elastic Constant Matrix: (Units=GPa)
#
#
# Indices 1 2 3 4 5 6 
#
# 1 27.2456 -0.0299 46.1059 0.0837 -1.3725 -11.5389
# 2 -0.0299 95.1111 11.8653 -4.0619 1.5735 -2.6683
# 3 46.1059 11.8653 74.9564 -0.4994 8.4916 0.2430
# 4 0.0837 -4.0619 -0.4994 25.3950 2.0876 -2.0741
# 5 -1.3725 1.5735 8.4916 2.0876 40.1273 -6.8088
# 6 -11.5389 -2.6683 0.2430 -2.0741 -6.8088 12.3709
#
#
#
# Elastic Compliance Matrix: (Units=1/GPa)
#
#
# Indices 1 2 3 4 5 6 
#
# 1 -0.054801 -0.006305 0.037196 -0.003735 -0.020338 -0.065026
# 2 -0.006305 0.010165 0.002521 0.001486 -0.002004 -0.004592
# 3 0.037196 0.002521 -0.011243 0.002600 0.010488 0.041668
# 4 -0.003735 0.001486 0.002600 0.040056 -0.002455 0.002150
# 5 -0.020338 -0.002004 0.010488 -0.002455 0.020753 -0.008598
# 6 -0.065026 -0.004592 0.041668 0.002150 -0.008598 0.014002
#
#
# Mechanical properties :
#
#
# Convention : Reuss Voigt Hill
#
# Bulk Modulus (GPa) = 91.36213 34.79952 63.08082
# Shear Modulus (GPa) = -113.01034 24.87007 -44.07013
#
# Velocity S-wave (km/s) = -7.43658 3.48861 -4.64394
# Velocity P-wave (km/s) = 5.38776 5.76686 1.45408
#
# Compressibility (1/GPa) = 0.01094545
#
# Stress axis : x y z
#
# Youngs Moduli (GPa) = -18.24781 98.37326 -88.94160
#
# Poissons Ratio (x) = 0.62023 3.30830
# Poissons Ratio (y) = -0.11505 0.22421
# Poissons Ratio (z) = 0.67875 -0.24798
#
# Static dielectric constant tensor:
#      x y z
#    x 1.742750 0.029170 -0.012120 
#    y 0.029170 1.779700 -0.006200 
#    z -0.012120 -0.006200 1.753460 
# 
# From -- ./inp_files/538191.got.cif
#   From: 2010.05.17/outbox.cif.g08.bks.cpg/sg2_270_cif.got.tgz:538191.got - 2010.06.03 11:33:40.
