data_PCOD9057568
_publ_section_title
;
Structure prediction by ZEFSAII (Michael W. Deem and Ramdas Pophale) SiO2 
 PCOD9057568
Probable space group: P -1
;
_chemical_formula_sum "Si O2"
_cell_formula_units_Z 16
_cell_length_a 9.814635
_cell_length_b 17.126379
_cell_length_c 6.608364
_cell_angle_alpha 45.434358
_cell_angle_beta 79.997740
_cell_angle_gamma 58.250691
_cell_volume 636.933138
_symmetry_space_group_name_H-M "P -1"
_symmetry_group_IT_number 2
_symmetry_cell_setting 'triclinic'
loop_
_space_group_symop_operation_xyz
x,y,z
-x,-y,-z
loop_
_atom_site_type_symbol
_atom_site_label
_atom_site_fract_x
_atom_site_fract_y
_atom_site_fract_z
Si Si1 0.111184 0.252383 0.718933
Si Si2 0.513591 0.609429 0.404640
Si Si3 0.832760 0.520741 0.765941
Si Si4 0.577999 0.869044 0.846578
Si Si5 0.206684 0.025189 0.799717
Si Si6 0.586408 0.706199 0.826391
Si Si7 0.710721 0.195572 0.547216
Si Si8 0.963994 0.227899 0.183320
O O1 0.082239 0.397133 0.432986
O O2 0.151088 0.161649 0.679235
O O3 0.284372 0.170199 0.951418
O O4 0.979984 0.246223 0.906879
O O5 0.500000 0.500000 0.500000
O O6 0.692931 0.561805 0.549449
O O7 0.377840 0.687115 0.475281
O O8 0.492284 0.692450 0.061558
O O9 0.723706 0.578153 0.895956
O O10 0.946004 0.360723 0.030321
O O11 0.670217 0.761659 0.836738
O O12 0.500000 0.000000 0.500000
O O13 0.406359 0.910581 0.927519
O O14 0.117664 0.084655 0.496872
O O15 0.168323 0.943707 0.113926
O O16 0.438088 0.802802 0.532777
O O17 0.804615 0.231403 0.298738
#
# Coordination Sequence:
#
# PCOD9057568 Si02
#       8
#     2   2   2   2   2   2   2   2
#     4  12  26  46  70 104 140 187 233 292 350 414
#     4  11  22  42  75 104 135 182 231 296 347 397
#     4  11  25  46  69 109 140 177 248 281 346 429
#     4  12  21  44  73 100 133 172 236 287 350 404
#     4  12  26  46  70 104 140 187 233 292 350 414
#     4  11  22  43  77  99 132 180 222 307 341 386
#     4  11  25  46  69 109 140 177 248 281 346 429
#     4  12  28  46  66 100 150 194 224 284 350 426
#
# _framework density 25.120376
#
# number of rings (size 3 to 8) (size 9 to 14) (size 15 to 20)
#    0.000    0.500    3.750    4.875    0.000    6.000 
#    0.000    0.000    0.000    0.000    0.000    0.000 
#    0.000    0.000    0.000    0.000    0.000    0.000 
#
# Total GULP energy -89342.382145 kJ/mol
# GULP energy per Si atom -5583.898884 kJ/mol
# Density = 2.506320 g / cm^3
# Si number density = 25.120376 Si / 1000 Ang^3
#
#
#
# Elastic Constant Matrix: (Units=GPa)
#
#
# Indices 1 2 3 4 5 6 
#
# 1 58.2836 18.7138 36.8132 9.8182 -4.1613 -10.0121
# 2 18.7138 80.5613 29.9188 19.3348 -4.1663 8.4772
# 3 36.8132 29.9188 109.1478 6.3910 -10.6127 -7.2491
# 4 9.8182 19.3348 6.3910 45.1178 -2.5684 -4.8621
# 5 -4.1613 -4.1663 -10.6127 -2.5684 44.9183 0.4350
# 6 -10.0121 8.4772 -7.2491 -4.8621 0.4350 33.9515
#
#
#
# Elastic Compliance Matrix: (Units=1/GPa)
#
#
# Indices 1 2 3 4 5 6 
#
# 1 0.023772 -0.003170 -0.006600 -0.002216 0.000163 0.006073
# 2 -0.003170 0.016833 -0.003597 -0.006750 0.000099 -0.006874
# 3 -0.006600 -0.003597 0.012612 0.001508 0.002103 0.001834
# 4 -0.002216 -0.006750 0.001508 0.025924 0.000958 0.005054
# 5 0.000163 0.000099 0.002103 0.000958 0.022836 0.000317
# 6 0.006073 -0.006874 0.001834 0.005054 0.000317 0.034072
#
#
# Mechanical properties :
#
#
# Convention : Reuss Voigt Hill
#
# Bulk Modulus (GPa) = 37.75847 46.54272 42.15059
# Shear Modulus (GPa) = 29.13571 35.63399 32.38485
#
# Velocity S-wave (km/s) = 3.40934 3.77042 3.59442
# Velocity P-wave (km/s) = 5.52827 6.12559 5.83458
#
# Compressibility (1/GPa) = 0.02648413
#
# Stress axis : x y z
#
# Youngs Moduli (GPa) = 42.06605 59.40593 79.29067
#
# Poissons Ratio (x) = 0.18830 0.52332
# Poissons Ratio (y) = 0.13334 0.28520
# Poissons Ratio (z) = 0.27763 0.21368
#
# Static dielectric constant tensor:
#      x y z
#    x 3.468860 1.224630 -1.000440 
#    y 1.224630 3.144480 -0.754630 
#    z -1.000440 -0.754630 2.629500 
# 
# From -- ./inp_files/81113.got.cif
#   From: 2010.05.17/outbox.cif.g08.bks.cpg/sg2_41_cif.got.tgz:81113.got - 2010.06.03 11:33:40.
