data_PCOD9057666
_publ_section_title
;
Structure prediction by ZEFSAII (Michael W. Deem and Ramdas Pophale) SiO2 
 PCOD9057666
Probable space group: P -1
;
_chemical_formula_sum "Si O2"
_cell_formula_units_Z 16
_cell_length_a 14.385048
_cell_length_b 14.005827
_cell_length_c 11.887760
_cell_angle_alpha 43.798753
_cell_angle_beta 115.318504
_cell_angle_gamma 149.617354
_cell_volume 696.287469
_symmetry_space_group_name_H-M "P -1"
_symmetry_group_IT_number 2
_symmetry_cell_setting 'triclinic'
loop_
_space_group_symop_operation_xyz
x,y,z
-x,-y,-z
loop_
_atom_site_type_symbol
_atom_site_label
_atom_site_fract_x
_atom_site_fract_y
_atom_site_fract_z
Si Si1 0.903649 0.903985 0.215126
Si Si2 0.515303 0.583078 0.159861
Si Si3 0.781982 0.486449 0.220096
Si Si4 0.662397 0.895310 0.606922
Si Si5 0.108604 0.867366 0.261124
Si Si6 0.811233 0.696289 0.592506
Si Si7 0.187776 0.692210 0.795406
Si Si8 0.255863 0.697241 0.079637
O O1 0.691918 0.688696 0.214470
O O2 0.819282 0.766092 0.412332
O O3 0.030532 0.928722 0.201349
O O4 0.058686 0.222490 0.016590
O O5 0.347813 0.281818 0.264743
O O6 0.404283 0.531503 0.248825
O O7 0.655804 0.844334 0.926128
O O8 0.572285 0.326102 0.284739
O O9 0.720575 0.289216 0.274531
O O10 0.922039 0.598874 0.304810
O O11 0.843418 0.146154 0.583235
O O12 0.715395 0.039425 0.397718
O O13 0.836433 0.562108 0.713721
O O14 0.000000 0.000000 0.500000
O O15 0.922133 0.396394 0.899177
O O16 0.255477 0.707949 0.935125
O O17 0.500000 0.000000 0.000000
#
# Coordination Sequence:
#
# PCOD9057666 Si02
#       8
#     2   2   2   2   2   2   2   2
#     4  11  22  43  68 100 139 177 228 289 346 412
#     4  11  23  41  68 100 137 176 225 289 350 402
#     4  11  24  43  67 100 139 179 227 284 345 413
#     4  12  24  41  70 101 139 178 226 285 350 411
#     4  11  23  41  69  99 136 180 227 286 344 408
#     4  12  26  43  71 106 135 182 240 292 346 416
#     4  11  27  46  68  99 139 184 232 287 339 417
#     4  11  28  49  71  97 142 191 232 284 350 419
#
# _framework density 22.979013999999999
#
# number of rings (size 3 to 8) (size 9 to 14) (size 15 to 20)
#    0.000    0.750    2.500    4.875    8.750    2.500 
#    0.000    0.000    0.000    0.000    0.000    0.000 
#    0.000    0.000    0.000    0.000    0.000    0.000 
#
# Total GULP energy -89537.792372 kJ/mol
# GULP energy per Si atom -5596.112023 kJ/mol
# Density = 2.292671 g / cm^3
# Si number density = 22.979014 Si / 1000 Ang^3
#
#
#
# Elastic Constant Matrix: (Units=GPa)
#
#
# Indices 1 2 3 4 5 6 
#
# 1 74.8743 3.3110 -1.1905 -10.6286 -19.2890 2.1782
# 2 3.3110 92.0830 28.1786 17.0914 2.3981 6.8140
# 3 -1.1905 28.1786 58.1669 21.9901 -9.7947 3.1730
# 4 -10.6286 17.0914 21.9901 31.6388 -3.1659 -2.5838
# 5 -19.2890 2.3981 -9.7947 -3.1659 37.7585 -0.9427
# 6 2.1782 6.8140 3.1730 -2.5838 -0.9427 26.1865
#
#
#
# Elastic Compliance Matrix: (Units=1/GPa)
#
#
# Indices 1 2 3 4 5 6 
#
# 1 0.017040 -0.002387 0.000100 0.007926 0.009555 0.000318
# 2 -0.002387 0.013904 -0.005248 -0.005348 -0.003998 -0.003455
# 3 0.000100 -0.005248 0.026722 -0.015369 0.005948 -0.003183
# 4 0.007926 -0.005348 -0.015369 0.048930 0.004694 0.007591
# 5 0.009555 -0.003998 0.005948 0.004694 0.033586 0.001197
# 6 0.000318 -0.003455 -0.003183 0.007591 0.001197 0.040238
#
#
# Mechanical properties :
#
#
# Convention : Reuss Voigt Hill
#
# Bulk Modulus (GPa) = 23.47571 31.74694 27.61132
# Shear Modulus (GPa) = 23.84504 32.10508 27.97506
#
# Velocity S-wave (km/s) = 3.22481 3.74190 3.49294
# Velocity P-wave (km/s) = 4.90960 5.70217 5.32066
#
# Compressibility (1/GPa) = 0.04259722
#
# Stress axis : x y z
#
# Youngs Moduli (GPa) = 58.68405 71.92283 37.42303
#
# Poissons Ratio (x) = 0.17167 -0.00375
# Poissons Ratio (y) = 0.14007 0.19638
# Poissons Ratio (z) = -0.00588 0.37742
#
# Static dielectric constant tensor:
#      x y z
#    x 1.879960 -0.013380 -0.038340 
#    y -0.013380 1.869320 -0.029490 
#    z -0.038340 -0.029490 1.896000 
# 
# From -- ./inp_files/446708.got.cif
#   From: 2010.05.17/outbox.cif.g08.bks.cpg/sg2_224_cif.got.tgz:446708.got - 2010.06.03 11:33:40.
