data_PCOD9057060
_publ_section_title
;
Structure prediction by ZEFSAII (Michael W. Deem and Ramdas Pophale) SiO2 
 PCOD9057060
Probable space group: P -1
;
_chemical_formula_sum "Si O2"
_cell_formula_units_Z 14
_cell_length_a 7.959568
_cell_length_b 14.068319
_cell_length_c 10.509515
_cell_angle_alpha 42.712869
_cell_angle_beta 101.608366
_cell_angle_gamma 126.297371
_cell_volume 581.604465
_symmetry_space_group_name_H-M "P -1"
_symmetry_group_IT_number 2
_symmetry_cell_setting 'triclinic'
loop_
_space_group_symop_operation_xyz
x,y,z
-x,-y,-z
loop_
_atom_site_type_symbol
_atom_site_label
_atom_site_fract_x
_atom_site_fract_y
_atom_site_fract_z
Si Si1 0.461888 0.576993 0.616919
Si Si2 0.769450 0.541508 0.547953
Si Si3 0.109109 0.189567 0.400533
Si Si4 0.158216 0.427954 0.960702
Si Si5 0.265365 0.760728 0.065637
Si Si6 0.712622 0.184230 0.427893
Si Si7 0.749820 0.116637 0.775168
O O1 0.565287 0.496571 0.642059
O O2 0.329219 0.575855 0.482316
O O3 0.696032 0.767385 0.520692
O O4 0.289813 0.458125 0.822331
O O5 0.855871 0.455090 0.722350
O O6 0.978249 0.759644 0.331003
O O7 0.918383 0.183537 0.442945
O O8 0.223884 0.360382 0.150562
O O9 0.000000 0.000000 0.500000
O O10 0.226397 0.627382 0.800624
O O11 0.886254 0.258293 0.052653
O O12 0.248378 0.830657 0.129750
O O13 0.538628 0.891882 0.955300
O O14 0.675207 0.173024 0.586697
O O15 0.500000 0.000000 0.500000
#
# Coordination Sequence:
#
# PCOD9057060 Si02
#       7
#     2   2   2   2   2   2   2
#     4  11  24  43  68  98 140 187 222 284 357 412
#     4  11  22  45  69  98 142 180 229 288 349 412
#     4  12  27  45  66 102 146 186 232 286 352 422
#     4  12  24  45  73 102 140 185 237 289 349 413
#     4  11  23  41  75 104 132 181 235 291 345 407
#     4  12  25  45  73 101 137 185 240 293 342 415
#     4  11  22  41  69 103 135 171 237 288 340 409
#
# _framework density 24.071341
#
# number of rings (size 3 to 8) (size 9 to 14) (size 15 to 20)
#    0.000    0.571    4.286    3.857    0.000    4.571 
#    0.000    1.429    0.000    0.000    0.000    0.000 
#    0.000    0.000    0.000    0.000    0.000    0.000 
#
# Total GULP energy -78158.391364 kJ/mol
# GULP energy per Si atom -5582.742240 kJ/mol
# Density = 2.401655 g / cm^3
# Si number density = 24.071341 Si / 1000 Ang^3
#
#
#
# Elastic Constant Matrix: (Units=GPa)
#
#
# Indices 1 2 3 4 5 6 
#
# 1 68.3705 28.4828 19.8967 -9.9171 -20.9778 5.9900
# 2 28.4828 151.7959 34.4534 -10.4428 -0.1081 6.3912
# 3 19.8967 34.4534 56.5759 -13.2121 -4.5608 -5.1183
# 4 -9.9171 -10.4428 -13.2121 38.6859 4.7317 -3.1274
# 5 -20.9778 -0.1081 -4.5608 4.7317 34.1396 0.3726
# 6 5.9900 6.3912 -5.1183 -3.1274 0.3726 41.7805
#
#
#
# Elastic Compliance Matrix: (Units=1/GPa)
#
#
# Indices 1 2 3 4 5 6 
#
# 1 0.021438 -0.002672 -0.004903 0.001323 0.012362 -0.003277
# 2 -0.002672 0.008125 -0.004257 0.000215 -0.002200 -0.001346
# 3 -0.004903 -0.004257 0.023808 0.006201 -0.000757 0.004742
# 4 0.001323 0.000215 0.006201 0.028876 -0.002390 0.002720
# 5 0.012362 -0.002200 -0.000757 -0.002390 0.037133 -0.002039
# 6 -0.003277 -0.001346 0.004742 0.002720 -0.002039 0.025413
#
#
# Mechanical properties :
#
#
# Convention : Reuss Voigt Hill
#
# Bulk Modulus (GPa) = 33.66233 49.15646 41.40940
# Shear Modulus (GPa) = 28.03295 35.84848 31.94072
#
# Velocity S-wave (km/s) = 3.41629 3.86328 3.64664
# Velocity P-wave (km/s) = 5.43840 6.35338 5.91361
#
# Compressibility (1/GPa) = 0.02970679
#
# Stress axis : x y z
#
# Youngs Moduli (GPa) = 46.64575 123.07185 42.00192
#
# Poissons Ratio (x) = 0.32884 0.20594
# Poissons Ratio (y) = 0.12464 0.17882
# Poissons Ratio (z) = 0.22871 0.52397
#
# Static dielectric constant tensor:
#      x y z
#    x 1.928230 0.029760 -0.038970 
#    y 0.029760 1.942710 0.046420 
#    z -0.038970 0.046420 1.905050 
# 
# From -- ./inp_files/195313.got.cif
#   From: 2010.05.17/outbox.cif.g08.bks.cpg/sg2_98_cif.got.tgz:195313.got - 2010.06.03 11:33:40.
