data_PCOD9057192
_publ_section_title
;
Structure prediction by ZEFSAII (Michael W. Deem and Ramdas Pophale) SiO2 
 PCOD9057192
Probable space group: P -1
;
_chemical_formula_sum "Si O2"
_cell_formula_units_Z 12
_cell_length_a 9.768224
_cell_length_b 9.690869
_cell_length_c 8.089245
_cell_angle_alpha 127.393376
_cell_angle_beta 107.574759
_cell_angle_gamma 110.424023
_cell_volume 412.565119
_symmetry_space_group_name_H-M "P -1"
_symmetry_group_IT_number 2
_symmetry_cell_setting 'triclinic'
loop_
_space_group_symop_operation_xyz
x,y,z
-x,-y,-z
loop_
_atom_site_type_symbol
_atom_site_label
_atom_site_fract_x
_atom_site_fract_y
_atom_site_fract_z
Si Si1 0.253886 0.107111 0.685298
Si Si2 0.504444 0.410886 0.676851
Si Si3 0.430194 0.867462 0.055255
Si Si4 0.110473 0.481827 0.170201
Si Si5 0.031154 0.326052 0.539772
Si Si6 0.824742 0.024830 0.914332
O O1 0.355169 0.312436 0.013047
O O2 0.379955 0.035759 0.704000
O O3 0.342006 0.248065 0.648129
O O4 0.025940 0.852528 0.460186
O O5 0.665929 0.391518 0.700097
O O6 0.338046 0.268325 0.364715
O O7 0.263827 0.571443 0.775771
O O8 0.313470 0.925657 0.136926
O O9 0.500000 0.000000 0.000000
O O10 0.074422 0.577405 0.386354
O O11 0.000000 0.500000 0.000000
O O12 0.997747 0.205085 0.974224
O O13 0.930281 0.147713 0.216976
#
# Coordination Sequence:
#
# PCOD9057192 Si02
#       6
#     2   2   2   2   2   2
#     4  11  25  45  66  96 137 181 222 276 332 397
#     4  11  26  44  66  98 138 179 223 270 340 399
#     4  11  22  41  72  96 130 174 221 275 332 393
#     4  11  23  42  69  99 128 174 230 278 329 395
#     4  11  24  42  69 101 133 173 226 279 334 390
#     4  11  24  40  68 101 132 172 225 280 329 401
#
# _framework density 29.086317000000001
#
# number of rings (size 3 to 8) (size 9 to 14) (size 15 to 20)
#    0.000    1.000    1.667    6.000    2.333    4.000 
#    0.000    5.833    0.000    0.000    0.000    0.000 
#    0.000    0.000    0.000    0.000    0.000    0.000 
#
# Total GULP energy -67217.655886 kJ/mol
# GULP energy per Si atom -5601.471324 kJ/mol
# Density = 2.902012 g / cm^3
# Si number density = 29.086317 Si / 1000 Ang^3
#
#
#
# Elastic Constant Matrix: (Units=GPa)
#
#
# Indices 1 2 3 4 5 6 
#
# 1 136.4557 20.2837 24.9893 9.9893 7.1701 17.7039
# 2 20.2837 136.8980 45.7394 39.6635 10.3884 36.1313
# 3 24.9893 45.7394 173.9754 42.0020 17.7610 35.8309
# 4 9.9893 39.6635 42.0020 69.0965 5.2051 8.4989
# 5 7.1701 10.3884 17.7610 5.2051 37.1978 12.4487
# 6 17.7039 36.1313 35.8309 8.4989 12.4487 47.7258
#
#
#
# Elastic Compliance Matrix: (Units=1/GPa)
#
#
# Indices 1 2 3 4 5 6 
#
# 1 0.007785 -0.000291 -0.000466 -0.000380 -0.000428 -0.002139
# 2 -0.000291 0.010742 -0.000084 -0.005217 0.000197 -0.007084
# 3 -0.000466 -0.000084 0.007908 -0.004010 -0.001570 -0.004577
# 4 -0.000380 -0.005217 -0.004010 0.019538 -0.000549 0.003765
# 5 -0.000428 0.000197 -0.001570 -0.000549 0.029918 -0.006518
# 6 -0.002139 -0.007084 -0.004577 0.003765 -0.006518 0.031575
#
#
# Mechanical properties :
#
#
# Convention : Reuss Voigt Hill
#
# Bulk Modulus (GPa) = 40.39885 69.92822 55.16354
# Shear Modulus (GPa) = 42.58991 54.55844 48.57418
#
# Velocity S-wave (km/s) = 3.83072 4.33568 4.09100
# Velocity P-wave (km/s) = 5.78665 7.01128 6.42819
#
# Compressibility (1/GPa) = 0.02475318
#
# Stress axis : x y z
#
# Youngs Moduli (GPa) = 128.45737 93.09302 126.45341
#
# Poissons Ratio (x) = 0.02707 0.05891
# Poissons Ratio (y) = 0.03735 0.01064
# Poissons Ratio (z) = 0.05984 0.00783
#
# Static dielectric constant tensor:
#      x y z
#    x 2.276710 0.032390 -0.047470 
#    y 0.032390 2.322290 0.040970 
#    z -0.047470 0.040970 2.405560 
# 
# From -- ./inp_files/260698.got.cif
#   From: 2010.05.17/outbox.cif.g08.bks.cpg/sg2_131_cif.got.tgz:260698.got - 2010.06.03 11:33:40.
