data_PCOD9057278
_publ_section_title
;
Structure prediction by ZEFSAII (Michael W. Deem and Ramdas Pophale) SiO2 
 PCOD9057278
Probable space group: P -1
;
_chemical_formula_sum "Si O2"
_cell_formula_units_Z 16
_cell_length_a 5.409337
_cell_length_b 12.479399
_cell_length_c 17.059948
_cell_angle_alpha 47.069381
_cell_angle_beta 69.563494
_cell_angle_gamma 50.711283
_cell_volume 645.719806
_symmetry_space_group_name_H-M "P -1"
_symmetry_group_IT_number 2
_symmetry_cell_setting 'triclinic'
loop_
_space_group_symop_operation_xyz
x,y,z
-x,-y,-z
loop_
_atom_site_type_symbol
_atom_site_label
_atom_site_fract_x
_atom_site_fract_y
_atom_site_fract_z
Si Si1 0.876784 0.483363 0.627258
Si Si2 0.149968 0.668717 0.149389
Si Si3 0.705775 0.184205 0.535356
Si Si4 0.224355 0.131574 0.402052
Si Si5 0.402290 0.305828 0.013721
Si Si6 0.471176 0.976876 0.106859
Si Si7 0.196152 0.404242 0.150557
Si Si8 0.360556 0.726679 0.325771
O O1 0.700400 0.488154 0.725060
O O2 0.667603 0.678244 0.514858
O O3 0.809368 0.366197 0.636957
O O4 0.247151 0.410607 0.638688
O O5 0.116556 0.574740 0.124275
O O6 0.846938 0.821601 0.156879
O O7 0.315722 0.754359 0.049678
O O8 0.760464 0.188604 0.618078
O O9 0.904727 0.239923 0.436172
O O10 0.817469 0.990351 0.591667
O O11 0.270355 0.256775 0.279375
O O12 0.500000 0.000000 0.500000
O O13 0.453567 0.324970 0.090191
O O14 0.337202 0.154187 0.083968
O O15 0.131115 0.504740 0.910651
O O16 0.300847 0.879039 0.196056
O O17 0.500000 0.000000 0.000000
#
# Coordination Sequence:
#
# PCOD9057278 Si02
#       8
#     2   2   2   2   2   2   2   2
#     4  11  25  43  76 103 144 184 236 289 360 427
#     4  11  23  41  70  99 137 184 229 286 357 427
#     4  11  25  45  68 100 137 187 239 295 355 422
#     4  11  26  44  69  98 140 190 241 299 356 423
#     4  11  23  42  68 100 139 183 235 291 353 424
#     4  11  22  42  66 102 140 178 229 286 354 419
#     4  11  24  44  68  97 138 182 238 296 350 428
#     4  11  26  44  71 110 140 187 230 298 354 427
#
# _framework density 24.778549999999999
#
# number of rings (size 3 to 8) (size 9 to 14) (size 15 to 20)
#    0.000    1.000    1.250    4.500    8.750    2.000 
#    2.250    0.000    0.000    0.000    0.000    0.000 
#    0.000    0.000    0.000    0.000    0.000    0.000 
#
# Total GULP energy -89387.199413 kJ/mol
# GULP energy per Si atom -5586.699963 kJ/mol
# Density = 2.472215 g / cm^3
# Si number density = 24.778550 Si / 1000 Ang^3
#
#
#
# Elastic Constant Matrix: (Units=GPa)
#
#
# Indices 1 2 3 4 5 6 
#
# 1 68.0436 27.5411 15.0876 3.8006 7.0245 8.0776
# 2 27.5411 112.5310 35.9458 15.1041 -0.2359 24.2901
# 3 15.0876 35.9458 114.8247 17.3514 7.8430 -0.2052
# 4 3.8006 15.1041 17.3514 38.6561 4.6765 -2.3205
# 5 7.0245 -0.2359 7.8430 4.6765 32.4549 4.6730
# 6 8.0776 24.2901 -0.2052 -2.3205 4.6730 31.3906
#
#
#
# Elastic Compliance Matrix: (Units=1/GPa)
#
#
# Indices 1 2 3 4 5 6 
#
# 1 0.016829 -0.003715 -0.000902 0.000558 -0.003400 -0.000914
# 2 -0.003715 0.013828 -0.003431 -0.004616 0.003939 -0.010694
# 3 -0.000902 -0.003431 0.010495 -0.002804 -0.002409 0.003107
# 4 0.000558 -0.004616 -0.002804 0.029822 -0.004683 0.006311
# 5 -0.003400 0.003939 -0.002409 -0.004683 0.033926 -0.007585
# 6 -0.000914 -0.010694 0.003107 0.006311 -0.007585 0.041983
#
#
# Mechanical properties :
#
#
# Convention : Reuss Voigt Hill
#
# Bulk Modulus (GPa) = 39.91248 50.28315 45.09782
# Shear Modulus (GPa) = 29.18330 34.95534 32.06932
#
# Velocity S-wave (km/s) = 3.43558 3.76002 3.60145
# Velocity P-wave (km/s) = 5.64626 6.25998 5.96102
#
# Compressibility (1/GPa) = 0.02505482
#
# Stress axis : x y z
#
# Youngs Moduli (GPa) = 59.42267 72.31724 95.28009
#
# Poissons Ratio (x) = 0.26869 0.08593
# Poissons Ratio (y) = 0.22078 0.32693
# Poissons Ratio (z) = 0.05359 0.24814
#
# Static dielectric constant tensor:
#      x y z
#    x 2.070060 -0.103450 0.035600 
#    y -0.103450 2.065160 -0.063790 
#    z 0.035600 -0.063790 2.076610 
# 
# From -- ./inp_files/549425.got.cif
#   From: 2010.05.17/outbox.cif.g08.bks.cpg/sg2_275_cif.got.tgz:549425.got - 2010.06.03 11:33:40.
