data_PCOD9057872
_publ_section_title
;
Structure prediction by ZEFSAII (Michael W. Deem and Ramdas Pophale) SiO2 
 PCOD9057872
Probable space group: P -1
;
_chemical_formula_sum "Si O2"
_cell_formula_units_Z 14
_cell_length_a 10.557270
_cell_length_b 16.768280
_cell_length_c 16.407081
_cell_angle_alpha 24.017839
_cell_angle_beta 29.101247
_cell_angle_gamma 33.315821
_cell_volume 564.528433
_symmetry_space_group_name_H-M "P -1"
_symmetry_group_IT_number 2
_symmetry_cell_setting 'triclinic'
loop_
_space_group_symop_operation_xyz
x,y,z
-x,-y,-z
loop_
_atom_site_type_symbol
_atom_site_label
_atom_site_fract_x
_atom_site_fract_y
_atom_site_fract_z
Si Si1 0.729764 0.971836 0.277245
Si Si2 0.392901 0.386955 0.741893
Si Si3 0.740306 0.850518 0.204617
Si Si4 0.925892 0.394499 0.496558
Si Si5 0.777887 0.954515 0.775829
Si Si6 0.348951 0.353868 0.172241
Si Si7 0.931067 0.720976 0.741661
O O1 0.642894 0.945446 0.257903
O O2 0.836517 0.750483 0.456904
O O3 0.508118 0.128255 0.302215
O O4 0.993106 0.068615 0.040429
O O5 0.500000 0.500000 0.500000
O O6 0.659476 0.308039 0.717714
O O7 0.192458 0.551363 0.751310
O O8 0.256297 0.192501 0.993296
O O9 0.835291 0.613000 0.379709
O O10 0.500965 0.907675 0.222377
O O11 0.053582 0.407872 0.323600
O O12 0.863898 0.811256 0.783522
O O13 0.991553 0.098315 0.525590
O O14 0.300958 0.370067 0.086879
O O15 0.500000 0.500000 0.000000
#
# Coordination Sequence:
#
# PCOD9057872 Si02
#       7
#     2   2   2   2   2   2   2
#     4  11  24  44  69 101 144 190 237 302 363 437
#     4  12  25  45  72 107 145 187 246 307 369 437
#     4  11  22  43  73 102 139 188 245 301 359 437
#     4  12  24  44  70 105 142 189 243 299 373 433
#     4  11  24  47  76 104 147 195 245 311 362 437
#     4  12  25  47  69 102 152 190 240 302 366 447
#     4  11  25  48  72 107 147 193 249 298 375 435
#
# _framework density 24.79946
#
# number of rings (size 3 to 8) (size 9 to 14) (size 15 to 20)
#    0.000    0.571    7.143    1.286    0.000    0.571 
#   10.286    0.000    0.000    0.000    0.000    0.000 
#    0.000    0.000    0.000    0.000    0.000    0.000 
#
# Total GULP energy -78289.381883 kJ/mol
# GULP energy per Si atom -5592.098706 kJ/mol
# Density = 2.474302 g / cm^3
# Si number density = 24.799460 Si / 1000 Ang^3
#
#
#
# Elastic Constant Matrix: (Units=GPa)
#
#
# Indices 1 2 3 4 5 6 
#
# 1 76.6378 34.1721 18.6507 -1.3080 -14.3278 3.0758
# 2 34.1721 162.5325 21.2371 -18.4245 -13.6082 -4.4678
# 3 18.6507 21.2371 118.3820 -13.5057 -5.0198 -0.3971
# 4 -1.3080 -18.4245 -13.5057 27.7536 0.2869 0.5507
# 5 -14.3278 -13.6082 -5.0198 0.2869 27.1016 -12.7413
# 6 3.0758 -4.4678 -0.3971 0.5507 -12.7413 33.2479
#
#
#
# Elastic Compliance Matrix: (Units=1/GPa)
#
#
# Indices 1 2 3 4 5 6 
#
# 1 0.016011 -0.002720 -0.001966 -0.002101 0.007189 0.000920
# 2 -0.002720 0.007659 -0.000246 0.004750 0.003507 0.002543
# 3 -0.001966 -0.000246 0.009320 0.004262 0.000741 0.000473
# 4 -0.002101 0.004750 0.004262 0.041118 0.002102 0.001008
# 5 0.007189 0.003507 0.000741 0.002102 0.051805 0.019633
# 6 0.000920 0.002543 0.000473 0.001008 0.019633 0.037846
#
#
# Mechanical properties :
#
#
# Convention : Reuss Voigt Hill
#
# Bulk Modulus (GPa) = 43.24393 56.18578 49.71485
# Shear Modulus (GPa) = 27.57356 36.52012 32.04684
#
# Velocity S-wave (km/s) = 3.33808 3.84163 3.59867
# Velocity P-wave (km/s) = 5.68615 6.51020 6.11208
#
# Compressibility (1/GPa) = 0.02312463
#
# Stress axis : x y z
#
# Youngs Moduli (GPa) = 62.45655 130.57060 107.29089
#
# Poissons Ratio (x) = 0.35520 0.21096
# Poissons Ratio (y) = 0.16990 0.02642
# Poissons Ratio (z) = 0.12280 0.03215
#
# Static dielectric constant tensor:
#      x y z
#    x 2.009730 0.010760 0.074800 
#    y 0.010760 1.901240 -0.005170 
#    z 0.074800 -0.005170 2.021480 
# 
# From -- ./inp_files/70217.got.cif
#   From: 2010.05.17/outbox.cif.g08.bks.cpg/sg2_36_cif.got.tgz:70217.got - 2010.06.03 11:33:40.
