data_PCOD9057714
_publ_section_title
;
Structure prediction by ZEFSAII (Michael W. Deem and Ramdas Pophale) SiO2 
 PCOD9057714
Probable space group: P -1
;
_chemical_formula_sum "Si O2"
_cell_formula_units_Z 14
_cell_length_a 24.237221
_cell_length_b 5.336729
_cell_length_c 15.806947
_cell_angle_alpha 83.994727
_cell_angle_beta 161.888376
_cell_angle_gamma 103.993426
_cell_volume 561.095381
_symmetry_space_group_name_H-M "P -1"
_symmetry_group_IT_number 2
_symmetry_cell_setting 'triclinic'
loop_
_space_group_symop_operation_xyz
x,y,z
-x,-y,-z
loop_
_atom_site_type_symbol
_atom_site_label
_atom_site_fract_x
_atom_site_fract_y
_atom_site_fract_z
Si Si1 0.830698 0.894513 0.330800
Si Si2 0.241986 0.681864 0.452070
Si Si3 0.289825 0.572258 0.091467
Si Si4 0.613593 0.274533 0.967956
Si Si5 0.850105 0.688586 0.824984
Si Si6 0.042902 0.329589 0.319616
Si Si7 0.329753 0.145998 0.287475
O O1 0.669324 0.567902 0.086809
O O2 0.915247 0.862887 0.545443
O O3 0.738854 0.113369 0.188396
O O4 0.000000 0.000000 0.500000
O O5 0.276430 0.524700 0.426610
O O6 0.234092 0.541898 0.536673
O O7 0.012764 0.611315 0.105655
O O8 0.388573 0.017260 0.652361
O O9 0.333460 0.330272 0.204835
O O10 0.462986 0.848221 0.381703
O O11 0.321296 0.627504 0.036803
O O12 0.071364 0.525049 0.800995
O O13 0.715006 0.711670 0.700290
O O14 0.000000 0.000000 0.000000
O O15 0.874007 0.132963 0.014455
#
# Coordination Sequence:
#
# PCOD9057714 Si02
#       7
#     2   2   2   2   2   2   2
#     4  12  28  51  81 106 146 202 254 310 371 436
#     4  11  27  43  70 110 148 196 239 311 373 445
#     4  11  25  43  72 108 148 187 248 309 372 435
#     4  12  29  49  78 111 149 197 255 308 369 447
#     4  11  22  43  69 103 154 193 241 290 383 450
#     4  12  25  46  73 104 151 190 251 307 374 440
#     4  11  24  41  75 110 143 196 244 311 368 450
#
# _framework density 24.951194999999998
#
# number of rings (size 3 to 8) (size 9 to 14) (size 15 to 20)
#    0.000    0.571    4.286    2.571    8.000    2.286 
#    0.000    0.000    0.000    0.000    0.000    0.000 
#    0.000    0.000    0.000    0.000    0.000    0.000 
#
# Total GULP energy -78352.731603 kJ/mol
# GULP energy per Si atom -5596.623686 kJ/mol
# Density = 2.489440 g / cm^3
# Si number density = 24.951195 Si / 1000 Ang^3
#
#
#
# Elastic Constant Matrix: (Units=GPa)
#
#
# Indices 1 2 3 4 5 6 
#
# 1 88.8511 46.9159 36.0405 20.5174 -1.2611 37.7678
# 2 46.9159 133.6490 41.6658 1.6233 -7.6763 31.5867
# 3 36.0405 41.6658 108.8926 10.9231 -9.6989 1.3763
# 4 20.5174 1.6233 10.9231 55.2330 5.4945 -7.4015
# 5 -1.2611 -7.6763 -9.6989 5.4945 33.1307 7.4479
# 6 37.7678 31.5867 1.3763 -7.4015 7.4479 40.6927
#
#
#
# Elastic Compliance Matrix: (Units=1/GPa)
#
#
# Indices 1 2 3 4 5 6 
#
# 1 0.033927 -0.000091 -0.008189 -0.016770 0.009741 -0.035974
# 2 -0.000091 0.011078 -0.003633 -0.001197 0.003789 -0.009302
# 3 -0.008189 -0.003633 0.012954 0.001975 -0.000014 0.010345
# 4 -0.016770 -0.001197 0.001975 0.028140 -0.010270 0.023425
# 5 0.009741 0.003789 -0.000014 -0.010270 0.037800 -0.020768
# 6 -0.035974 -0.009302 0.010345 0.023425 -0.020768 0.072895
#
#
# Mechanical properties :
#
#
# Convention : Reuss Voigt Hill
#
# Bulk Modulus (GPa) = 29.29926 64.51523 46.90724
# Shear Modulus (GPa) = 21.55174 39.59598 30.57386
#
# Velocity S-wave (km/s) = 2.94216 3.98796 3.50429
# Velocity P-wave (km/s) = 4.82803 6.86424 5.93412
#
# Compressibility (1/GPa) = 0.03413056
#
# Stress axis : x y z
#
# Youngs Moduli (GPa) = 29.47492 90.27090 77.19643
#
# Poissons Ratio (x) = 0.00824 0.63220
# Poissons Ratio (y) = 0.00269 0.28048
# Poissons Ratio (z) = 0.24138 0.32799
#
# Static dielectric constant tensor:
#      x y z
#    x 1.989940 -0.081710 -0.001890 
#    y -0.081710 2.066950 0.017370 
#    z -0.001890 0.017370 2.031560 
# 
# From -- ./inp_files/68219.got.cif
#   From: 2010.05.17/outbox.cif.g08.bks.cpg/sg2_35_cif.got.tgz:68219.got - 2010.06.03 11:33:40.
