data_PCOD9057272
_publ_section_title
;
Structure prediction by ZEFSAII (Michael W. Deem and Ramdas Pophale) SiO2 
 PCOD9057272
Probable space group: P -1
;
_chemical_formula_sum "Si O2"
_cell_formula_units_Z 16
_cell_length_a 8.385566
_cell_length_b 14.509185
_cell_length_c 11.467955
_cell_angle_alpha 29.994871
_cell_angle_beta 88.009794
_cell_angle_gamma 79.215429
_cell_volume 661.780160
_symmetry_space_group_name_H-M "P -1"
_symmetry_group_IT_number 2
_symmetry_cell_setting 'triclinic'
loop_
_space_group_symop_operation_xyz
x,y,z
-x,-y,-z
loop_
_atom_site_type_symbol
_atom_site_label
_atom_site_fract_x
_atom_site_fract_y
_atom_site_fract_z
Si Si1 0.709227 0.848010 0.030767
Si Si2 0.985911 0.114684 0.498247
Si Si3 0.494540 0.125960 0.210458
Si Si4 0.732036 0.736048 0.735521
Si Si5 0.314405 0.731472 0.487427
Si Si6 0.083381 0.751129 0.045409
Si Si7 0.353562 0.541631 0.105643
Si Si8 0.695765 0.474480 0.510605
O O1 0.716409 0.685158 0.304974
O O2 0.892203 0.769412 0.053177
O O3 0.556181 0.843290 0.955568
O O4 0.684355 0.076115 0.795452
O O5 0.806292 0.203688 0.467906
O O6 0.084308 0.267489 0.303102
O O7 0.000000 0.000000 0.500000
O O8 0.082564 0.955928 0.766370
O O9 0.317893 0.188389 0.215988
O O10 0.601432 0.907412 0.475858
O O11 0.593608 0.264574 0.107203
O O12 0.682739 0.544771 0.919864
O O13 0.497636 0.611461 0.660264
O O14 0.255876 0.596428 0.545874
O O15 0.179570 0.590765 0.125771
O O16 0.190818 0.687141 0.229451
O O17 0.500000 0.500000 0.500000
#
# Coordination Sequence:
#
# PCOD9057272 Si02
#       8
#     2   2   2   2   2   2   2   2
#     4  11  24  45  69 100 143 179 231 292 353 408
#     4  11  26  48  72 104 149 182 228 292 350 416
#     4  11  22  42  65  98 142 182 227 294 337 412
#     4  11  24  39  69 100 136 187 232 277 352 412
#     4  11  25  45  73 105 139 186 233 283 355 416
#     4  11  25  46  70 104 143 182 233 294 344 412
#     4  12  23  42  68 104 136 182 238 282 343 419
#     4  12  25  47  73 102 142 183 237 295 343 410
#
# _framework density 24.177213999999999
#
# number of rings (size 3 to 8) (size 9 to 14) (size 15 to 20)
#    0.000    0.750    5.000    2.250    3.500    3.500 
#    2.250    1.875    0.000    0.000    0.000    0.000 
#    0.000    0.000    0.000    0.000    0.000    0.000 
#
# Total GULP energy -89483.668366 kJ/mol
# GULP energy per Si atom -5592.729273 kJ/mol
# Density = 2.412219 g / cm^3
# Si number density = 24.177214 Si / 1000 Ang^3
#
#
#
# Elastic Constant Matrix: (Units=GPa)
#
#
# Indices 1 2 3 4 5 6 
#
# 1 69.5069 -1.6762 23.8825 -11.9083 -7.0647 -5.7658
# 2 -1.6762 51.5984 4.6348 -8.9137 3.9437 4.5232
# 3 23.8825 4.6348 133.2806 -2.4408 3.7337 11.3751
# 4 -11.9083 -8.9137 -2.4408 33.5307 5.3278 3.0950
# 5 -7.0647 3.9437 3.7337 5.3278 45.7215 -5.8348
# 6 -5.7658 4.5232 11.3751 3.0950 -5.8348 43.0246
#
#
#
# Elastic Compliance Matrix: (Units=1/GPa)
#
#
# Indices 1 2 3 4 5 6 
#
# 1 0.016999 0.001344 -0.003316 0.005479 0.002521 0.002961
# 2 0.001344 0.021081 -0.000541 0.006724 -0.002700 -0.002743
# 3 -0.003316 -0.000541 0.008392 -0.000218 -0.001482 -0.002791
# 4 0.005479 0.006724 -0.000218 0.034466 -0.004109 -0.002952
# 5 0.002521 -0.002700 -0.001482 -0.004109 0.023670 0.004519
# 6 0.002961 -0.002743 -0.002791 -0.002952 0.004519 0.025491
#
#
# Mechanical properties :
#
#
# Convention : Reuss Voigt Hill
#
# Bulk Modulus (GPa) = 24.12710 34.22982 29.17846
# Shear Modulus (GPa) = 33.57033 39.62501 36.59767
#
# Velocity S-wave (km/s) = 3.73032 4.05277 3.89488
# Velocity P-wave (km/s) = 5.34365 6.00738 5.68521
#
# Compressibility (1/GPa) = 0.04144717
#
# Stress axis : x y z
#
# Youngs Moduli (GPa) = 58.82543 47.43566 119.16499
#
# Poissons Ratio (x) = -0.06377 0.39514
# Poissons Ratio (y) = -0.07909 0.06448
# Poissons Ratio (z) = 0.19506 0.02567
#
# Static dielectric constant tensor:
#      x y z
#    x 1.916620 -0.030170 -0.032070 
#    y -0.030170 1.946170 -0.010920 
#    z -0.032070 -0.010920 1.938180 
# 
# From -- ./inp_files/319303.got.cif
#   From: 2010.05.17/outbox.cif.g08.bks.cpg/sg2_160_cif.got.tgz:319303.got - 2010.06.03 11:33:40.
