data_PCOD9057070
_publ_section_title
;
Structure prediction by ZEFSAII (Michael W. Deem and Ramdas Pophale) SiO2 
 PCOD9057070
Probable space group: P -1
;
_chemical_formula_sum "Si O2"
_cell_formula_units_Z 14
_cell_length_a 12.012306
_cell_length_b 9.654795
_cell_length_c 8.969239
_cell_angle_alpha 69.854890
_cell_angle_beta 106.978980
_cell_angle_gamma 57.050555
_cell_volume 650.354113
_symmetry_space_group_name_H-M "P -1"
_symmetry_group_IT_number 2
_symmetry_cell_setting 'triclinic'
loop_
_space_group_symop_operation_xyz
x,y,z
-x,-y,-z
loop_
_atom_site_type_symbol
_atom_site_label
_atom_site_fract_x
_atom_site_fract_y
_atom_site_fract_z
Si Si1 0.082745 0.062008 0.093525
Si Si2 0.970472 0.644052 0.565450
Si Si3 0.126712 0.464304 0.174850
Si Si4 0.191934 0.944525 0.519007
Si Si5 0.569585 0.344600 0.724258
Si Si6 0.427866 0.368796 0.202769
Si Si7 0.699911 0.486863 0.222160
O O1 0.089386 0.047799 0.283614
O O2 0.274225 0.893542 0.176658
O O3 0.974873 0.297419 0.910319
O O4 0.000000 0.000000 0.000000
O O5 0.860887 0.656889 0.638550
O O6 0.000000 0.500000 0.500000
O O7 0.157024 0.521496 0.731739
O O8 0.880940 0.886194 0.440394
O O9 0.301100 0.360399 0.214566
O O10 0.000000 0.500000 0.000000
O O11 0.380855 0.826519 0.603521
O O12 0.215262 0.752805 0.646417
O O13 0.500000 0.500000 0.500000
O O14 0.625903 0.422357 0.831266
O O15 0.417544 0.396135 0.722145
O O16 0.414532 0.394822 0.010976
#
# Coordination Sequence:
#
# PCOD9057070 Si02
#       7
#     2   2   2   2   2   2   2
#     4  12  24  41  75 104 135 182 229 278 337 409
#     4  12  29  45  67 100 141 183 223 285 342 409
#     4  12  25  47  66  99 143 180 227 273 348 408
#     4  11  24  46  71 102 132 185 233 279 342 396
#     4  11  22  41  69 107 131 170 233 285 330 395
#     4  11  23  44  73  98 139 179 225 288 334 402
#     4  11  24  46  71  98 140 175 231 284 336 403
#
# _framework density 21.526734000000001
#
# number of rings (size 3 to 8) (size 9 to 14) (size 15 to 20)
#    0.000    0.571    7.143    2.143    4.000    2.857 
#    2.571    1.429    0.000    0.000    0.000    0.000 
#    0.000    0.000    0.000    0.000    0.000    0.000 
#
# Total GULP energy -78199.355015 kJ/mol
# GULP energy per Si atom -5585.668215 kJ/mol
# Density = 2.147774 g / cm^3
# Si number density = 21.526734 Si / 1000 Ang^3
#
#
#
# Elastic Constant Matrix: (Units=GPa)
#
#
# Indices 1 2 3 4 5 6 
#
# 1 123.2933 10.5856 18.2925 0.2940 2.5115 -3.3657
# 2 10.5856 103.7901 5.4124 -0.1995 8.8360 3.7570
# 3 18.2925 5.4124 57.7112 3.0365 1.4876 -0.4380
# 4 0.2940 -0.1995 3.0365 28.1180 -0.7294 0.6458
# 5 2.5115 8.8360 1.4876 -0.7294 30.5220 7.0967
# 6 -3.3657 3.7570 -0.4380 0.6458 7.0967 36.4561
#
#
#
# Elastic Compliance Matrix: (Units=1/GPa)
#
#
# Indices 1 2 3 4 5 6 
#
# 1 0.008603 -0.000724 -0.002645 0.000154 -0.000586 0.000948
# 2 -0.000724 0.009991 -0.000648 0.000093 -0.002662 -0.000588
# 3 -0.002645 -0.000648 0.018347 -0.001978 -0.000581 0.000191
# 4 0.000154 0.000093 -0.001978 0.035826 0.001116 -0.000871
# 5 -0.000586 -0.002662 -0.000581 0.001116 0.035185 -0.006656
# 6 0.000948 -0.000588 0.000191 -0.000871 -0.006656 0.028892
#
#
# Mechanical properties :
#
#
# Convention : Reuss Voigt Hill
#
# Bulk Modulus (GPa) = 34.59338 39.26396 36.92867
# Shear Modulus (GPa) = 32.35999 35.71950 34.03974
#
# Velocity S-wave (km/s) = 3.88138 4.07788 3.98084
# Velocity P-wave (km/s) = 6.01595 6.36014 6.19044
#
# Compressibility (1/GPa) = 0.02890726
#
# Stress axis : x y z
#
# Youngs Moduli (GPa) = 116.24236 100.09480 54.50418
#
# Poissons Ratio (x) = 0.07243 0.14415
# Poissons Ratio (y) = 0.08411 0.03534
# Poissons Ratio (z) = 0.30742 0.06489
#
# Static dielectric constant tensor:
#      x y z
#    x 1.821780 0.072410 -0.016750 
#    y 0.072410 1.985440 -0.028660 
#    z -0.016750 -0.028660 1.784480 
# 
# From -- ./inp_files/243082.got.cif
#   From: 2010.05.17/outbox.cif.g08.bks.cpg/sg2_122_cif.got.tgz:243082.got - 2010.06.03 11:33:40.
