data_PCOD9057352
_publ_section_title
;
Structure prediction by ZEFSAII (Michael W. Deem and Ramdas Pophale) SiO2 
 PCOD9057352
Probable space group: P -1
;
_chemical_formula_sum "Si O2"
_cell_formula_units_Z 15
_cell_length_a 13.399091
_cell_length_b 9.702540
_cell_length_c 11.074306
_cell_angle_alpha 91.093491
_cell_angle_beta 32.138780
_cell_angle_gamma 79.915740
_cell_volume 714.529648
_symmetry_space_group_name_H-M "P -1"
_symmetry_group_IT_number 2
_symmetry_cell_setting 'triclinic'
loop_
_space_group_symop_operation_xyz
x,y,z
-x,-y,-z
loop_
_atom_site_type_symbol
_atom_site_label
_atom_site_fract_x
_atom_site_fract_y
_atom_site_fract_z
Si Si1 0.102635 0.218337 0.956445
Si Si2 0.010533 0.952808 0.721996
Si Si3 0.589182 0.039174 0.730134
Si Si4 0.398685 0.222426 0.461449
Si Si5 0.804880 0.836428 0.730001
Si Si6 0.000000 0.500000 0.500000
Si Si7 0.813230 0.265037 0.025942
Si Si8 0.994019 0.513070 0.227832
O O1 0.315445 0.184101 0.671965
O O2 0.090604 0.101977 0.065016
O O3 0.944368 0.226208 0.012878
O O4 0.040903 0.376522 0.086765
O O5 0.954741 0.889471 0.655876
O O6 0.250234 0.900636 0.492950
O O7 0.919608 0.130397 0.822760
O O8 0.554503 0.917338 0.677626
O O9 0.703871 0.953731 0.730437
O O10 0.379187 0.156449 0.991607
O O11 0.590079 0.270013 0.276642
O O12 0.212569 0.358243 0.598699
O O13 0.904882 0.676490 0.567856
O O14 0.013834 0.541411 0.629895
O O15 0.834874 0.414127 0.957038
#
# Coordination Sequence:
#
# PCOD9057352 Si02
#       8
#     2   2   2   2   2   1   2   2
#     4  11  25  41  65  97 135 169 218 273 331 382
#     4  12  22  42  68  99 126 172 217 275 327 385
#     4  11  23  42  68  99 132 170 224 268 328 392
#     4  11  22  42  68  93 132 174 217 272 321 397
#     4  11  24  43  69  96 132 175 218 272 329 392
#     4  12  22  48  68  94 140 168 212 282 328 382
#     4  11  23  41  69  94 129 177 220 259 334 391
#     4  11  24  45  65  94 134 177 211 271 333 391
#
# _framework density 20.992830999999999
#
# number of rings (size 3 to 8) (size 9 to 14) (size 15 to 20)
#    0.000    0.800    6.667    2.400    0.000    3.733 
#    2.400    1.333    0.000    0.000    0.000    0.000 
#    0.000    0.000    0.000    0.000    0.000    0.000 
#
# Total GULP energy -83663.638339 kJ/mol
# GULP energy per Si atom -5577.575889 kJ/mol
# Density = 2.094505 g / cm^3
# Si number density = 20.992831 Si / 1000 Ang^3
#
#
#
# Elastic Constant Matrix: (Units=GPa)
#
#
# Indices 1 2 3 4 5 6 
#
# 1 51.4502 18.1189 27.0918 7.5169 -8.0870 24.9485
# 2 18.1189 73.8004 20.5361 5.2193 -9.9186 21.4787
# 3 27.0918 20.5361 90.3393 -18.6254 -10.4210 22.8263
# 4 7.5169 5.2193 -18.6254 32.9674 19.0646 5.8859
# 5 -8.0870 -9.9186 -10.4210 19.0646 30.6897 -4.3926
# 6 24.9485 21.4787 22.8263 5.8859 -4.3926 39.0733
#
#
#
# Elastic Compliance Matrix: (Units=1/GPa)
#
#
# Indices 1 2 3 4 5 6 
#
# 1 0.037568 0.002059 -0.011370 -0.024880 0.020379 -0.012438
# 2 0.002059 0.018224 -0.004277 -0.011085 0.011018 -0.005925
# 3 -0.011370 -0.004277 0.020839 0.024189 -0.013433 -0.007716
# 4 -0.024880 -0.011085 0.024189 0.086760 -0.057493 -0.011684
# 5 0.020379 0.011018 -0.013433 -0.057493 0.073485 0.005701
# 6 -0.012438 -0.005925 -0.007716 -0.011684 0.005701 0.043700
#
#
# Mechanical properties :
#
#
# Convention : Reuss Voigt Hill
#
# Bulk Modulus (GPa) = 20.22127 38.56480 29.39304
# Shear Modulus (GPa) = 15.42077 30.53561 22.97819
#
# Velocity S-wave (km/s) = 2.71324 3.81802 3.31202
# Velocity P-wave (km/s) = 4.41236 6.15197 5.35330
#
# Compressibility (1/GPa) = 0.04945287
#
# Stress axis : x y z
#
# Youngs Moduli (GPa) = 26.61866 54.87280 47.98750
#
# Poissons Ratio (x) = -0.11298 0.54563
# Poissons Ratio (y) = -0.05481 0.20526
# Poissons Ratio (z) = 0.30266 0.23472
#
# Static dielectric constant tensor:
#      x y z
#    x 1.751450 -0.030780 -0.004440 
#    y -0.030780 1.736460 -0.033030 
#    z -0.004440 -0.033030 1.793150 
# 
# From -- ./inp_files/186370.got.cif
#   From: 2010.05.17/outbox.cif.g08.bks.cpg/sg2_94_cif.got.tgz:186370.got - 2010.06.03 11:33:40.
