data_PCOD9057590
_publ_section_title
;
Structure prediction by ZEFSAII (Michael W. Deem and Ramdas Pophale) SiO2 
 PCOD9057590
Probable space group: P -1
;
_chemical_formula_sum "Si O2"
_cell_formula_units_Z 14
_cell_length_a 13.355709
_cell_length_b 5.647397
_cell_length_c 11.554944
_cell_angle_alpha 82.058245
_cell_angle_beta 46.965099
_cell_angle_gamma 91.967777
_cell_volume 620.886653
_symmetry_space_group_name_H-M "P -1"
_symmetry_group_IT_number 2
_symmetry_cell_setting 'triclinic'
loop_
_space_group_symop_operation_xyz
x,y,z
-x,-y,-z
loop_
_atom_site_type_symbol
_atom_site_label
_atom_site_fract_x
_atom_site_fract_y
_atom_site_fract_z
Si Si1 0.660213 0.192370 0.625862
Si Si2 0.565360 0.610725 0.057463
Si Si3 0.809310 0.956318 0.903516
Si Si4 0.401302 0.830612 0.780645
Si Si5 0.922843 0.220436 0.583249
Si Si6 0.924542 0.735913 0.029880
Si Si7 0.657065 0.445688 0.376762
O O1 0.550275 0.271003 0.795874
O O2 0.793263 0.182523 0.599088
O O3 0.696415 0.377452 0.478673
O O4 0.561973 0.960286 0.659435
O O5 0.607409 0.421097 0.127710
O O6 0.500000 0.500000 0.000000
O O7 0.704157 0.798113 0.908430
O O8 0.885637 0.173304 0.751520
O O9 0.707507 0.035027 0.075939
O O10 0.902286 0.793358 0.908434
O O11 0.355079 0.776900 0.689515
O O12 0.000000 0.500000 0.500000
O O13 0.000000 0.000000 0.500000
O O14 0.775820 0.653213 0.216680
O O15 0.000000 0.500000 0.000000
O O16 0.000000 0.000000 0.000000
O O17 0.500000 0.500000 0.500000
#
# Coordination Sequence:
#
# PCOD9057590 Si02
#       7
#     2   2   2   2   2   2   2
#     4  11  26  45  73 115 148 197 255 322 391 456
#     4  11  22  42  78 106 146 192 253 319 386 455
#     4  11  26  50  75 108 153 198 263 314 387 470
#     4  11  22  45  78 111 145 195 250 329 396 461
#     4  12  32  50  75 109 156 214 261 316 381 462
#     4  12  29  49  78 114 154 212 257 316 396 475
#     4  12  24  48  80 117 154 197 264 331 400 461
#
# _framework density 22.548397999999999
#
# number of rings (size 3 to 8) (size 9 to 14) (size 15 to 20)
#    0.000    0.571    2.857    3.857   10.000    3.429 
#    0.000    0.000    0.000    0.000    0.000    0.000 
#    0.000    0.000    0.000    0.000    0.000    0.000 
#
# Total GULP energy -78257.667222 kJ/mol
# GULP energy per Si atom -5589.833373 kJ/mol
# Density = 2.249708 g / cm^3
# Si number density = 22.548398 Si / 1000 Ang^3
#
#
#
# Elastic Constant Matrix: (Units=GPa)
#
#
# Indices 1 2 3 4 5 6 
#
# 1 156.6846 62.5711 59.9218 -6.8292 8.6187 -12.6650
# 2 62.5711 115.3293 48.9072 -20.9905 -22.0106 2.4339
# 3 59.9218 48.9072 117.0570 -37.8821 5.8815 -3.4231
# 4 -6.8292 -20.9905 -37.8821 43.7179 -1.4191 1.7859
# 5 8.6187 -22.0106 5.8815 -1.4191 28.4515 3.7805
# 6 -12.6650 2.4339 -3.4231 1.7859 3.7805 51.6269
#
#
#
# Elastic Compliance Matrix: (Units=1/GPa)
#
#
# Indices 1 2 3 4 5 6 
#
# 1 0.011406 -0.007306 -0.004066 -0.005695 -0.009047 0.003732
# 2 -0.007306 0.018599 -0.003198 0.005786 0.018137 -0.004409
# 3 -0.004066 -0.003198 0.015866 0.011445 -0.003965 0.000100
# 4 -0.005695 0.005786 0.011445 0.034976 0.005919 -0.002554
# 5 -0.009047 0.018137 -0.003965 0.005919 0.054030 -0.007499
# 6 0.003732 -0.004409 0.000100 -0.002554 -0.007499 0.021137
#
#
# Mechanical properties :
#
#
# Convention : Reuss Voigt Hill
#
# Bulk Modulus (GPa) = 59.77032 81.31901 70.54466
# Shear Modulus (GPa) = 26.21497 39.27064 32.74281
#
# Velocity S-wave (km/s) = 3.41340 4.17779 3.81479
# Velocity P-wave (km/s) = 6.48847 7.70808 7.12442
#
# Compressibility (1/GPa) = 0.01673071
#
# Stress axis : x y z
#
# Youngs Moduli (GPa) = 87.67544 53.76769 63.02683
#
# Poissons Ratio (x) = 0.39282 0.25624
# Poissons Ratio (y) = 0.64055 0.20159
# Poissons Ratio (z) = 0.35645 0.17197
#
# Static dielectric constant tensor:
#      x y z
#    x 1.843900 0.026520 -0.042130 
#    y 0.026520 1.920040 -0.002460 
#    z -0.042130 -0.002460 1.802530 
# 
# From -- ./inp_files/106814.got.cif
#   From: 2010.05.17/outbox.cif.g08.bks.cpg/sg2_54_cif.got.tgz:106814.got - 2010.06.03 11:33:40.
