data_PCOD9057472
_publ_section_title
;
Structure prediction by ZEFSAII (Michael W. Deem and Ramdas Pophale) SiO2 
 PCOD9057472
Probable space group: P -1
;
_chemical_formula_sum "Si O2"
_cell_formula_units_Z 16
_cell_length_a 15.045951
_cell_length_b 7.261289
_cell_length_c 9.277414
_cell_angle_alpha 96.273973
_cell_angle_beta 116.563034
_cell_angle_gamma 123.189119
_cell_volume 668.452724
_symmetry_space_group_name_H-M "P -1"
_symmetry_group_IT_number 2
_symmetry_cell_setting 'triclinic'
loop_
_space_group_symop_operation_xyz
x,y,z
-x,-y,-z
loop_
_atom_site_type_symbol
_atom_site_label
_atom_site_fract_x
_atom_site_fract_y
_atom_site_fract_z
Si Si1 0.891739 0.533699 0.599031
Si Si2 0.694294 0.955650 0.412871
Si Si3 0.893259 0.728175 0.321261
Si Si4 0.481136 0.759571 0.445967
Si Si5 0.924854 0.471444 0.090616
Si Si6 0.286780 0.051296 0.155211
Si Si7 0.787983 0.761428 0.682404
Si Si8 0.343807 0.287207 0.909993
O O1 0.880282 0.713971 0.688723
O O2 0.876383 0.555085 0.420852
O O3 0.026895 0.609388 0.756978
O O4 0.778821 0.242919 0.540412
O O5 0.540610 0.788148 0.334800
O O6 0.710936 0.938333 0.256970
O O7 0.746059 0.837473 0.523294
O O8 0.939290 0.687596 0.200439
O O9 0.000000 0.000000 0.500000
O O10 0.586450 0.797687 0.635259
O O11 0.337111 0.504759 0.360508
O O12 0.500000 0.000000 0.500000
O O13 0.000000 0.500000 0.000000
O O14 0.771214 0.226934 0.928520
O O15 0.176638 0.044441 0.153500
O O16 0.327957 0.195186 0.050497
O O17 0.753518 0.659187 0.183822
O O18 0.500000 0.500000 0.000000
#
# Coordination Sequence:
#
# PCOD9057472 Si02
#       8
#     2   2   2   2   2   2   2   2
#     4  12  25  46  77 101 142 198 254 292 368 455
#     4  11  22  44  70 103 142 193 245 295 358 456
#     4  12  28  51  78 105 151 208 253 297 379 469
#     4  11  22  42  71 103 143 198 246 289 363 461
#     4  12  28  47  73 110 147 188 255 323 369 429
#     4  11  26  43  68 106 154 181 245 318 374 428
#     4  11  23  43  71 104 141 197 241 290 369 448
#     4  12  25  45  73 109 153 190 241 314 380 434
#
# _framework density 23.935873000000001
#
# number of rings (size 3 to 8) (size 9 to 14) (size 15 to 20)
#    0.000    0.500    2.500    7.125    3.500    1.500 
#    0.000    1.875    0.000    0.000    0.000    0.000 
#    0.000    0.000    0.000    0.000    0.000    0.000 
#
# Total GULP energy -89483.199901 kJ/mol
# GULP energy per Si atom -5592.699994 kJ/mol
# Density = 2.388139 g / cm^3
# Si number density = 23.935873 Si / 1000 Ang^3
#
#
#
# Elastic Constant Matrix: (Units=GPa)
#
#
# Indices 1 2 3 4 5 6 
#
# 1 131.3535 20.0788 46.9561 -6.7860 -27.1415 -8.7793
# 2 20.0788 101.3943 26.8955 7.1539 -10.1497 -6.6875
# 3 46.9561 26.8955 95.5434 -9.2624 -32.3404 2.4550
# 4 -6.7860 7.1539 -9.2624 51.4027 0.2540 -6.3641
# 5 -27.1415 -10.1497 -32.3404 0.2540 44.8581 3.3917
# 6 -8.7793 -6.6875 2.4550 -6.3641 3.3917 38.9135
#
#
#
# Elastic Compliance Matrix: (Units=1/GPa)
#
#
# Indices 1 2 3 4 5 6 
#
# 1 0.009817 -0.000612 -0.003583 0.000997 0.003044 0.002233
# 2 -0.000612 0.011036 -0.003119 -0.001973 -0.000236 0.001653
# 3 -0.003583 -0.003119 0.016559 0.002555 0.009260 -0.002778
# 4 0.000997 -0.001973 0.002555 0.020679 0.001658 0.002962
# 5 0.003044 -0.000236 0.009260 0.001658 0.030926 -0.002362
# 6 0.002233 0.001653 -0.002778 0.002962 -0.002362 0.027352
#
#
# Mechanical properties :
#
#
# Convention : Reuss Voigt Hill
#
# Bulk Modulus (GPa) = 43.89212 57.35022 50.62117
# Shear Modulus (GPa) = 36.07704 42.65891 39.36798
#
# Velocity S-wave (km/s) = 3.88653 4.22621 4.05992
# Velocity P-wave (km/s) = 6.20623 6.91567 6.57053
#
# Compressibility (1/GPa) = 0.02278313
#
# Stress axis : x y z
#
# Youngs Moduli (GPa) = 101.86259 90.61465 60.39000
#
# Poissons Ratio (x) = 0.05546 0.21637
# Poissons Ratio (y) = 0.06234 0.18838
# Poissons Ratio (z) = 0.36497 0.28267
#
# Static dielectric constant tensor:
#      x y z
#    x 1.963910 0.022180 -0.019660 
#    y 0.022180 1.910140 0.028990 
#    z -0.019660 0.028990 1.941070 
# 
# From -- ./inp_files/296130.got.cif
#   From: 2010.05.17/outbox.cif.g08.bks.cpg/sg2_149_cif.got.tgz:296130.got - 2010.06.03 11:33:40.
