data_PCOD9057142
_publ_section_title
;
Structure prediction by ZEFSAII (Michael W. Deem and Ramdas Pophale) SiO2 
 PCOD9057142
Probable space group: P -1
;
_chemical_formula_sum "Si O2"
_cell_formula_units_Z 16
_cell_length_a 10.454096
_cell_length_b 13.134892
_cell_length_c 12.050731
_cell_angle_alpha 99.232777
_cell_angle_beta 83.088425
_cell_angle_gamma 158.079469
_cell_volume 607.912421
_symmetry_space_group_name_H-M "P -1"
_symmetry_group_IT_number 2
_symmetry_cell_setting 'triclinic'
loop_
_space_group_symop_operation_xyz
x,y,z
-x,-y,-z
loop_
_atom_site_type_symbol
_atom_site_label
_atom_site_fract_x
_atom_site_fract_y
_atom_site_fract_z
Si Si1 0.607801 0.496277 0.607302
Si Si2 0.101084 0.417744 0.001926
Si Si3 0.764355 0.966556 0.492048
Si Si4 0.211477 0.692676 0.173543
Si Si5 0.976792 0.171277 0.159259
Si Si6 0.946794 0.780414 0.281497
Si Si7 0.307004 0.190356 0.145411
Si Si8 0.736304 0.261993 0.577015
O O1 0.488686 0.316322 0.507783
O O2 0.241688 0.263183 0.647344
O O3 0.803346 0.618938 0.723826
O O4 0.863717 0.760211 0.558891
O O5 0.014441 0.448538 0.098604
O O6 0.088195 0.304468 0.054484
O O7 0.489276 0.704358 0.962761
O O8 0.858301 0.262864 0.893985
O O9 0.542506 0.855155 0.399786
O O10 0.797975 0.058033 0.617177
O O11 0.110598 0.643500 0.301204
O O12 0.597467 0.936122 0.172723
O O13 0.069834 0.116965 0.140903
O O14 0.628021 0.471090 0.233550
O O15 0.119415 0.959022 0.187982
O O16 0.000000 0.500000 0.500000
O O17 0.500000 0.000000 0.500000
#
# Coordination Sequence:
#
# PCOD9057142 Si02
#       8
#     2   2   2   2   2   2   2   2
#     4  11  22  41  71 105 141 192 249 299 369 445
#     4  11  27  48  78 110 149 203 250 316 367 453
#     4  12  23  43  71 101 143 197 249 305 369 442
#     4  11  27  50  79 108 150 199 260 303 380 447
#     4  11  24  46  75 108 150 194 250 309 379 443
#     4  11  25  42  69 108 151 195 242 307 373 447
#     4  11  27  46  74 113 153 194 244 316 377 442
#     4  12  29  48  75 108 146 197 248 312 371 445
#
# _framework density 26.319579999999998
#
# number of rings (size 3 to 8) (size 9 to 14) (size 15 to 20)
#    0.000    0.750    1.250    5.250   10.500    0.500 
#    0.000    0.000    0.000    0.000    0.000    0.000 
#    0.000    0.000    0.000    0.000    0.000    0.000 
#
# Total GULP energy -89391.719011 kJ/mol
# GULP energy per Si atom -5586.982438 kJ/mol
# Density = 2.625968 g / cm^3
# Si number density = 26.319580 Si / 1000 Ang^3
#
#
#
# Elastic Constant Matrix: (Units=GPa)
#
#
# Indices 1 2 3 4 5 6 
#
# 1 106.2763 30.2474 36.8387 3.1222 25.3871 8.9503
# 2 30.2474 115.7937 64.1179 -7.9990 13.2405 -0.4862
# 3 36.8387 64.1179 206.5853 -9.3908 30.3929 -11.1890
# 4 3.1222 -7.9990 -9.3908 46.7357 0.5707 -9.7149
# 5 25.3871 13.2405 30.3929 0.5707 48.3313 4.3962
# 6 8.9503 -0.4862 -11.1890 -9.7149 4.3962 34.1552
#
#
#
# Elastic Compliance Matrix: (Units=1/GPa)
#
#
# Indices 1 2 3 4 5 6 
#
# 1 0.011838 -0.002138 -0.001044 -0.002028 -0.004638 -0.003455
# 2 -0.002138 0.010922 -0.002923 0.001464 -0.000065 0.000183
# 3 -0.001044 -0.002923 0.006649 0.001625 -0.003149 0.003278
# 4 -0.002028 0.001464 0.001625 0.023795 -0.001369 0.008029
# 5 -0.004638 -0.000065 -0.003149 -0.001369 0.025458 -0.003483
# 6 -0.003455 0.000183 0.003278 0.008029 -0.003483 0.033992
#
#
# Mechanical properties :
#
#
# Convention : Reuss Voigt Hill
#
# Bulk Modulus (GPa) = 58.14443 76.78482 67.46462
# Shear Modulus (GPa) = 38.28545 45.67452 41.97998
#
# Velocity S-wave (km/s) = 3.81811 4.17031 3.99809
# Velocity P-wave (km/s) = 6.44802 7.24058 6.85576
#
# Compressibility (1/GPa) = 0.01719855
#
# Stress axis : x y z
#
# Youngs Moduli (GPa) = 84.47053 91.55591 150.40676
#
# Poissons Ratio (x) = 0.19579 0.15708
# Poissons Ratio (y) = 0.18064 0.43958
# Poissons Ratio (z) = 0.08822 0.26758
#
# Static dielectric constant tensor:
#      x y z
#    x 2.172570 0.006400 -0.028570 
#    y 0.006400 2.064300 0.092830 
#    z -0.028570 0.092830 2.161220 
# 
# From -- ./inp_files/434054.got.cif
#   From: 2010.05.17/outbox.cif.g08.bks.cpg/sg2_218_cif.got.tgz:434054.got - 2010.06.03 11:33:40.
