data_PCOD9057014
_publ_section_title
;
Structure prediction by ZEFSAII (Michael W. Deem and Ramdas Pophale) SiO2 
 PCOD9057014
Probable space group: P -1
;
_chemical_formula_sum "Si O2"
_cell_formula_units_Z 16
_cell_length_a 20.824008
_cell_length_b 8.877958
_cell_length_c 12.495759
_cell_angle_alpha 52.934595
_cell_angle_beta 139.605311
_cell_angle_gamma 149.921003
_cell_volume 738.969199
_symmetry_space_group_name_H-M "P -1"
_symmetry_group_IT_number 2
_symmetry_cell_setting 'triclinic'
loop_
_space_group_symop_operation_xyz
x,y,z
-x,-y,-z
loop_
_atom_site_type_symbol
_atom_site_label
_atom_site_fract_x
_atom_site_fract_y
_atom_site_fract_z
Si Si1 0.783029 0.750074 0.238833
Si Si2 0.458100 0.906357 0.863625
Si Si3 0.110631 0.095656 0.232885
Si Si4 0.309837 0.973233 0.048178
Si Si5 0.844723 0.734310 0.559093
Si Si6 0.532652 0.326739 0.614322
Si Si7 0.969548 0.261107 0.909571
Si Si8 0.675669 0.088722 0.671625
O O1 0.704468 0.454668 0.205810
O O2 0.767310 0.697257 0.368957
O O3 0.698793 0.816519 0.068904
O O4 0.971745 0.043441 0.329558
O O5 0.455646 0.098871 0.712615
O O6 0.500000 0.000000 0.000000
O O7 0.592236 0.982273 0.940020
O O8 0.149043 0.116108 0.396164
O O9 0.276373 0.412270 0.253577
O O10 0.991621 0.096016 0.071070
O O11 0.049265 0.830100 0.198803
O O12 0.128333 0.622083 0.971436
O O13 0.383370 0.032793 0.231241
O O14 0.755124 0.411810 0.620947
O O15 0.500000 0.500000 0.500000
O O16 0.458028 0.138069 0.490710
O O17 0.815220 0.144163 0.801906
#
# Coordination Sequence:
#
# PCOD9057014 Si02
#       8
#     2   2   2   2   2   2   2   2
#     4  11  26  44  66  98 142 177 228 270 348 410
#     4  12  29  47  65  98 144 186 221 272 346 418
#     4  11  24  41  71  99 136 174 229 286 340 391
#     4  12  25  45  72 101 131 186 229 280 337 404
#     4  11  23  43  69  99 130 181 222 289 332 399
#     4  12  26  45  70 105 135 178 226 290 341 392
#     4  11  22  41  68 105 131 168 227 283 339 396
#     4  12  23  44  76 100 135 169 239 288 329 393
#
# _framework density 21.651782000000001
#
# number of rings (size 3 to 8) (size 9 to 14) (size 15 to 20)
#    0.000    0.500    6.250    1.500    5.250    2.000 
#    0.000    0.625    0.000    0.000    0.000    0.000 
#    0.000    0.000    0.000    0.000    0.000    0.000 
#
# Total GULP energy -89618.399326 kJ/mol
# GULP energy per Si atom -5601.149958 kJ/mol
# Density = 2.160250 g / cm^3
# Si number density = 21.651782 Si / 1000 Ang^3
#
#
#
# Elastic Constant Matrix: (Units=GPa)
#
#
# Indices 1 2 3 4 5 6 
#
# 1 90.3852 27.3971 53.7917 -14.6445 -26.9527 -12.6441
# 2 27.3971 80.2851 56.6130 -11.7635 -10.8715 -13.2046
# 3 53.7917 56.6130 124.7736 -14.3379 -32.3007 -13.0802
# 4 -14.6445 -11.7635 -14.3379 38.5059 -2.4317 -1.5925
# 5 -26.9527 -10.8715 -32.3007 -2.4317 62.1852 13.0348
# 6 -12.6441 -13.2046 -13.0802 -1.5925 13.0348 30.9167
#
#
#
# Elastic Compliance Matrix: (Units=1/GPa)
#
#
# Indices 1 2 3 4 5 6 
#
# 1 0.016584 -0.000334 -0.005099 0.004686 0.004030 0.003025
# 2 -0.000334 0.019518 -0.008345 0.002829 -0.002156 0.005724
# 3 -0.005099 -0.008345 0.015221 0.001421 0.004511 -0.001038
# 4 0.004686 0.002829 0.001421 0.029529 0.003640 0.003712
# 5 0.004030 -0.002156 0.004511 0.003640 0.021220 -0.006123
# 6 0.003025 0.005724 -0.001038 0.003712 -0.006123 0.038360
#
#
# Mechanical properties :
#
#
# Convention : Reuss Voigt Hill
#
# Bulk Modulus (GPa) = 42.07480 63.44972 52.76226
# Shear Modulus (GPa) = 28.42361 36.83102 32.62731
#
# Velocity S-wave (km/s) = 3.62713 4.12887 3.88611
# Velocity P-wave (km/s) = 6.08409 7.21792 6.67512
#
# Compressibility (1/GPa) = 0.02376720
#
# Stress axis : x y z
#
# Youngs Moduli (GPa) = 60.29977 51.23500 65.69724
#
# Poissons Ratio (x) = 0.01709 0.33501
# Poissons Ratio (y) = 0.02012 0.54824
# Poissons Ratio (z) = 0.30749 0.42756
#
# Static dielectric constant tensor:
#      x y z
#    x 1.788750 0.003160 0.004660 
#    y 0.003160 1.773360 0.010910 
#    z 0.004660 0.010910 1.791060 
# 
# From -- ./inp_files/208285.got.cif
#   From: 2010.05.17/outbox.cif.g08.bks.cpg/sg2_105_cif.got.tgz:208285.got - 2010.06.03 11:33:40.
