data_PCOD9057627
_publ_section_title
;
Structure prediction by ZEFSAII (Michael W. Deem and Ramdas Pophale) SiO2 
 PCOD9057627
Probable space group: P -1
;
_chemical_formula_sum "Si O2"
_cell_formula_units_Z 16
_cell_length_a 8.686242
_cell_length_b 13.680703
_cell_length_c 9.493976
_cell_angle_alpha 108.624800
_cell_angle_beta 132.894388
_cell_angle_gamma 93.300565
_cell_volume 719.203330
_symmetry_space_group_name_H-M "P -1"
_symmetry_group_IT_number 2
_symmetry_cell_setting 'triclinic'
loop_
_space_group_symop_operation_xyz
x,y,z
-x,-y,-z
loop_
_atom_site_type_symbol
_atom_site_label
_atom_site_fract_x
_atom_site_fract_y
_atom_site_fract_z
Si Si1 0.781901 0.993372 0.775344
Si Si2 0.916621 0.337270 0.847676
Si Si3 0.319430 0.469210 0.747040
Si Si4 0.197553 0.675026 0.664532
Si Si5 0.376969 0.524865 0.301432
Si Si6 0.302548 0.789435 0.072162
Si Si7 0.764067 0.963405 0.416445
Si Si8 0.639814 0.159286 0.400755
O O1 0.733563 0.101953 0.840630
O O2 0.802688 0.990252 0.619235
O O3 0.575614 0.879901 0.647082
O O4 0.000000 0.000000 0.000000
O O5 0.772997 0.403950 0.722048
O O6 0.806388 0.302948 0.917973
O O7 0.858793 0.229433 0.665017
O O8 0.182713 0.412374 0.063505
O O9 0.290964 0.580345 0.720614
O O10 0.428393 0.421186 0.669082
O O11 0.060560 0.386070 0.584175
O O12 0.500000 0.500000 0.000000
O O13 0.357388 0.764428 0.693803
O O14 0.185012 0.739738 0.828997
O O15 0.500000 0.500000 0.500000
O O16 0.575634 0.836046 0.235911
O O17 0.653773 0.043326 0.312592
O O18 0.000000 0.000000 0.500000
#
# Coordination Sequence:
#
# PCOD9057627 Si02
#       8
#     2   2   2   2   2   2   2   2
#     4  11  25  44  67  99 137 175 223 279 328 405
#     4  11  22  43  66  92 132 177 218 275 334 398
#     4  11  24  47  64  98 142 172 222 285 337 391
#     4  11  26  41  70 102 132 181 226 277 334 402
#     4  11  24  39  66  98 128 170 225 278 330 398
#     4  11  23  45  66  93 137 177 220 272 337 395
#     4  11  25  44  69  99 136 174 222 276 338 396
#     4  11  23  45  66  93 137 177 220 272 337 395
#
# _framework density 22.246838
#
# number of rings (size 3 to 8) (size 9 to 14) (size 15 to 20)
#    0.000    1.000    2.500    3.750    3.500   11.000 
#    0.000    0.000    0.000    0.000    0.000    0.000 
#    0.000    0.000    0.000    0.000    0.000    0.000 
#
# Total GULP energy -89449.224440 kJ/mol
# GULP energy per Si atom -5590.576528 kJ/mol
# Density = 2.219620 g / cm^3
# Si number density = 22.246838 Si / 1000 Ang^3
#
#
#
# Elastic Constant Matrix: (Units=GPa)
#
#
# Indices 1 2 3 4 5 6 
#
# 1 87.4194 20.0750 10.9810 -9.5550 10.8239 18.7252
# 2 20.0750 74.4954 22.4209 -11.5246 8.1928 26.8201
# 3 10.9810 22.4209 91.8096 -18.2324 10.7915 -5.2444
# 4 -9.5550 -11.5246 -18.2324 32.5871 1.7031 -2.6859
# 5 10.8239 8.1928 10.7915 1.7031 42.5122 -1.4298
# 6 18.7252 26.8201 -5.2444 -2.6859 -1.4298 22.6264
#
#
#
# Elastic Compliance Matrix: (Units=1/GPa)
#
#
# Indices 1 2 3 4 5 6 
#
# 1 0.015801 0.004472 -0.002822 0.003332 -0.004939 -0.018948
# 2 0.004472 0.032239 -0.009300 0.004231 -0.006640 -0.043988
# 3 -0.002822 -0.009300 0.015904 0.006304 -0.001183 0.017719
# 4 0.003332 0.004231 0.006304 0.036753 -0.004812 -0.002252
# 5 -0.004939 -0.006640 -0.001183 -0.004812 0.026984 0.012818
# 6 -0.018948 -0.043988 0.017719 -0.002252 0.012818 0.116667
#
#
# Mechanical properties :
#
#
# Convention : Reuss Voigt Hill
#
# Bulk Modulus (GPa) = 20.55788 40.07535 30.31662
# Shear Modulus (GPa) = 18.12486 32.89498 25.50992
#
# Velocity S-wave (km/s) = 2.85742 3.84948 3.38993
# Velocity P-wave (km/s) = 4.48858 6.14907 5.38323
#
# Compressibility (1/GPa) = 0.04864314
#
# Stress axis : x y z
#
# Youngs Moduli (GPa) = 63.28682 31.01817 62.87745
#
# Poissons Ratio (x) = -0.13870 0.17744
# Poissons Ratio (y) = -0.28299 0.58477
# Poissons Ratio (z) = 0.17860 0.28847
#
# Static dielectric constant tensor:
#      x y z
#    x 1.834750 -0.018670 -0.000160 
#    y -0.018670 1.866430 0.027760 
#    z -0.000160 0.027760 1.820260 
# 
# From -- ./inp_files/202735.got.cif
#   From: 2010.05.17/outbox.cif.g08.bks.cpg/sg2_102_cif.got.tgz:202735.got - 2010.06.03 11:33:40.
