data_PCOD9057102
_publ_section_title
;
Structure prediction by ZEFSAII (Michael W. Deem and Ramdas Pophale) SiO2 
 PCOD9057102
Probable space group: P -1
;
_chemical_formula_sum "Si O2"
_cell_formula_units_Z 14
_cell_length_a 15.643884
_cell_length_b 7.468022
_cell_length_c 9.842250
_cell_angle_alpha 45.307072
_cell_angle_beta 122.527152
_cell_angle_gamma 94.475320
_cell_volume 596.561644
_symmetry_space_group_name_H-M "P -1"
_symmetry_group_IT_number 2
_symmetry_cell_setting 'triclinic'
loop_
_space_group_symop_operation_xyz
x,y,z
-x,-y,-z
loop_
_atom_site_type_symbol
_atom_site_label
_atom_site_fract_x
_atom_site_fract_y
_atom_site_fract_z
Si Si1 0.060913 0.470982 0.711356
Si Si2 0.537194 0.311330 0.466161
Si Si3 0.161726 0.308272 0.412452
Si Si4 0.405308 0.901717 0.944850
Si Si5 0.789715 0.258496 0.399414
Si Si6 0.790608 0.213799 0.743392
Si Si7 0.526387 0.780304 0.837664
O O1 0.128392 0.651395 0.662129
O O2 0.000000 0.500000 0.500000
O O3 0.961754 0.592846 0.676622
O O4 0.145933 0.127474 0.989603
O O5 0.652734 0.331554 0.574750
O O6 0.533373 0.214619 0.359330
O O7 0.530772 0.078176 0.679318
O O8 0.427353 0.635051 0.200773
O O9 0.168959 0.598223 0.231294
O O10 0.270926 0.144313 0.698448
O O11 0.186779 0.060000 0.455629
O O12 0.444322 0.790375 0.883419
O O13 0.500000 0.000000 0.000000
O O14 0.814217 0.248477 0.586465
O O15 0.658493 0.522390 0.114769
#
# Coordination Sequence:
#
# PCOD9057102 Si02
#       7
#     2   2   2   2   2   2   2
#     4  12  28  52  73  98 144 190 235 294 351 412
#     4  11  22  41  70 102 138 182 227 277 356 411
#     4  12  26  46  71 108 140 185 239 288 347 419
#     4  12  23  41  67 100 143 178 224 286 346 414
#     4  12  24  47  76 101 145 185 235 292 344 419
#     4  12  25  48  74 103 141 187 233 292 354 410
#     4  11  23  42  69 105 140 184 225 283 351 415
#
# _framework density 23.467818000000001
#
# number of rings (size 3 to 8) (size 9 to 14) (size 15 to 20)
#    0.000    0.286    7.143    2.143    0.000    1.143 
#    5.143    0.000    0.000    0.000    0.000    0.000 
#    0.000    0.000    0.000    0.000    0.000    0.000 
#
# Total GULP energy -78361.669797 kJ/mol
# GULP energy per Si atom -5597.262128 kJ/mol
# Density = 2.341440 g / cm^3
# Si number density = 23.467818 Si / 1000 Ang^3
#
#
#
# Elastic Constant Matrix: (Units=GPa)
#
#
# Indices 1 2 3 4 5 6 
#
# 1 65.9372 15.1841 7.9007 -1.4737 -8.9504 23.1279
# 2 15.1841 128.3327 10.3600 -13.8812 -13.2002 10.5440
# 3 7.9007 10.3600 63.9764 -10.8646 -7.7584 -3.5090
# 4 -1.4737 -13.8812 -10.8646 31.0117 8.0784 -4.1439
# 5 -8.9504 -13.2002 -7.7584 8.0784 34.8935 -6.4138
# 6 23.1279 10.5440 -3.5090 -4.1439 -6.4138 41.8271
#
#
#
# Elastic Compliance Matrix: (Units=1/GPa)
#
#
# Indices 1 2 3 4 5 6 
#
# 1 0.019902 -0.001257 -0.003005 -0.002797 0.002621 -0.010815
# 2 -0.001257 0.008581 -0.000546 0.002959 0.001948 -0.000922
# 3 -0.003005 -0.000546 0.017580 0.005713 0.002382 0.004205
# 4 -0.002797 0.002959 0.005713 0.037619 -0.006294 0.004042
# 5 0.002621 0.001948 0.002382 -0.006294 0.032537 0.002625
# 6 -0.010815 -0.000922 0.004205 0.004042 0.002625 0.031276
#
#
# Mechanical properties :
#
#
# Convention : Reuss Voigt Hill
#
# Bulk Modulus (GPa) = 27.43609 36.12621 31.78115
# Shear Modulus (GPa) = 29.54033 36.53322 33.03677
#
# Velocity S-wave (km/s) = 3.55175 3.94983 3.75607
# Velocity P-wave (km/s) = 5.34193 6.01905 5.69057
#
# Compressibility (1/GPa) = 0.03644834
#
# Stress axis : x y z
#
# Youngs Moduli (GPa) = 50.24589 116.53310 56.88294
#
# Poissons Ratio (x) = 0.14643 0.17092
# Poissons Ratio (y) = 0.06314 0.03107
# Poissons Ratio (z) = 0.15097 0.06366
#
# Static dielectric constant tensor:
#      x y z
#    x 1.836420 0.016840 -0.015450 
#    y 0.016840 2.016820 -0.033630 
#    z -0.015450 -0.033630 1.903050 
# 
# From -- ./inp_files/273628.got.cif
#   From: 2010.05.17/outbox.cif.g08.bks.cpg/sg2_137_cif.got.tgz:273628.got - 2010.06.03 11:33:40.
