data_PCOD9057434
_publ_section_title
;
Structure prediction by ZEFSAII (Michael W. Deem and Ramdas Pophale) SiO2 
 PCOD9057434
Probable space group: P -1
;
_chemical_formula_sum "Si O2"
_cell_formula_units_Z 14
_cell_length_a 15.585705
_cell_length_b 9.795304
_cell_length_c 7.895599
_cell_angle_alpha 110.092778
_cell_angle_beta 66.284234
_cell_angle_gamma 146.059373
_cell_volume 616.063073
_symmetry_space_group_name_H-M "P -1"
_symmetry_group_IT_number 2
_symmetry_cell_setting 'triclinic'
loop_
_space_group_symop_operation_xyz
x,y,z
-x,-y,-z
loop_
_atom_site_type_symbol
_atom_site_label
_atom_site_fract_x
_atom_site_fract_y
_atom_site_fract_z
Si Si1 0.111965 0.563593 0.614071
Si Si2 0.152675 0.710735 0.086498
Si Si3 0.670644 0.631935 0.894202
Si Si4 0.411193 0.831089 0.669561
Si Si5 0.444249 0.554776 0.441177
Si Si6 0.702958 0.331929 0.811656
Si Si7 0.751519 0.993137 0.162135
O O1 0.233443 0.656895 0.699612
O O2 0.182667 0.582397 0.395962
O O3 0.929969 0.308877 0.696993
O O4 0.135878 0.768640 0.706517
O O5 0.224580 0.651612 0.072754
O O6 0.000000 0.500000 0.000000
O O7 0.266252 0.949409 0.982391
O O8 0.685348 0.649499 0.684945
O O9 0.682882 0.480143 0.878868
O O10 0.500000 0.500000 0.000000
O O11 0.787818 0.875665 0.019938
O O12 0.402730 0.647900 0.614290
O O13 0.500000 0.000000 0.500000
O O14 0.531425 0.046287 0.800239
O O15 0.500000 0.500000 0.500000
O O16 0.592623 0.789905 0.309330
#
# Coordination Sequence:
#
# PCOD9057434 Si02
#       7
#     2   2   2   2   2   2   2
#     4  10  19  41  69  90 128 166 222 257 304 389
#     4  10  24  42  64  95 132 173 213 263 322 381
#     4  10  21  39  59  98 136 159 202 274 331 375
#     4  10  17  36  68  93 119 154 223 267 306 361
#     4  11  21  37  61  94 128 166 209 267 320 378
#     4  11  20  40  71  95 122 174 221 259 316 385
#     4  10  21  41  58  87 136 164 201 268 320 372
#
# _framework density 22.724948000000001
#
# number of rings (size 3 to 8) (size 9 to 14) (size 15 to 20)
#    0.000    1.714    5.714    1.286    2.000    0.000 
#   10.286    9.286    0.000    0.000    0.000    0.000 
#    0.000    0.000    0.000    0.000    0.000    0.000 
#
# Total GULP energy -77976.704836 kJ/mol
# GULP energy per Si atom -5569.764631 kJ/mol
# Density = 2.267323 g / cm^3
# Si number density = 22.724948 Si / 1000 Ang^3
#
#
#
# Elastic Constant Matrix: (Units=GPa)
#
#
# Indices 1 2 3 4 5 6 
#
# 1 185.4139 49.3758 56.7449 10.3050 4.4582 -24.1520
# 2 49.3758 50.7817 38.8114 -2.5496 -13.2144 -20.4846
# 3 56.7449 38.8114 91.3759 1.8579 -5.1118 -22.3312
# 4 10.3050 -2.5496 1.8579 47.1672 -5.4562 -16.3256
# 5 4.4582 -13.2144 -5.1118 -5.4562 38.8341 7.9478
# 6 -24.1520 -20.4846 -22.3312 -16.3256 7.9478 29.9634
#
#
#
# Elastic Compliance Matrix: (Units=1/GPa)
#
#
# Indices 1 2 3 4 5 6 
#
# 1 0.008357 -0.008101 -0.002146 -0.002981 -0.004233 -0.000903
# 2 -0.008101 0.048669 -0.009246 0.014734 0.013364 0.024335
# 3 -0.002146 -0.009246 0.017592 0.001217 -0.001675 0.006169
# 4 -0.002981 0.014734 0.001217 0.031658 0.004947 0.024513
# 5 -0.004233 0.013364 -0.001675 0.004947 0.031501 -0.001184
# 6 -0.000903 0.024335 0.006169 0.024513 -0.001184 0.067551
#
#
# Mechanical properties :
#
#
# Convention : Reuss Voigt Hill
#
# Bulk Modulus (GPa) = 28.06375 68.60395 48.33385
# Shear Modulus (GPa) = 19.51665 35.36889 27.44277
#
# Velocity S-wave (km/s) = 2.93374 3.94939 3.47883
# Velocity P-wave (km/s) = 4.88384 7.14502 6.11977
#
# Compressibility (1/GPa) = 0.03563315
#
# Stress axis : x y z
#
# Youngs Moduli (GPa) = 119.65621 20.54692 56.84252
#
# Poissons Ratio (x) = 0.16646 0.12197
# Poissons Ratio (y) = 0.96937 0.52555
# Poissons Ratio (z) = 0.25676 0.18997
#
# Static dielectric constant tensor:
#      x y z
#    x 1.866800 0.020740 -0.041900 
#    y 0.020740 1.946840 0.002460 
#    z -0.041900 0.002460 2.078800 
# 
# From -- ./inp_files/299138.got.cif
#   From: 2010.05.17/outbox.cif.g08.bks.cpg/sg2_150_cif.got.tgz:299138.got - 2010.06.03 11:33:40.
