data_PCOD9057087
_publ_section_title
;
Structure prediction by ZEFSAII (Michael W. Deem and Ramdas Pophale) SiO2 
 PCOD9057087
Probable space group: P -1
;
_chemical_formula_sum "Si O2"
_cell_formula_units_Z 14
_cell_length_a 12.239216
_cell_length_b 11.679500
_cell_length_c 8.372849
_cell_angle_alpha 104.161612
_cell_angle_beta 148.822341
_cell_angle_gamma 74.945013
_cell_volume 597.748057
_symmetry_space_group_name_H-M "P -1"
_symmetry_group_IT_number 2
_symmetry_cell_setting 'triclinic'
loop_
_space_group_symop_operation_xyz
x,y,z
-x,-y,-z
loop_
_atom_site_type_symbol
_atom_site_label
_atom_site_fract_x
_atom_site_fract_y
_atom_site_fract_z
Si Si1 0.692772 0.728974 0.672061
Si Si2 0.322593 0.418571 0.697947
Si Si3 0.577005 0.251629 0.174785
Si Si4 0.146890 0.918376 0.775376
Si Si5 0.888526 0.896370 0.741230
Si Si6 0.505243 0.920425 0.701790
Si Si7 0.955585 0.411484 0.768312
O O1 0.619678 0.633083 0.424879
O O2 0.857768 0.791616 0.788517
O O3 0.502447 0.824027 0.523478
O O4 0.829514 0.677805 0.978692
O O5 0.102251 0.500811 0.423967
O O6 0.500000 0.500000 0.000000
O O7 0.366318 0.316093 0.849044
O O8 0.712703 0.180682 0.181865
O O9 0.510050 0.157565 0.186417
O O10 0.745892 0.337932 0.491118
O O11 0.014783 0.861923 0.727674
O O12 0.000000 0.000000 0.500000
O O13 0.285763 0.017097 0.054262
O O14 0.663215 0.967079 0.446976
O O15 0.000000 0.000000 0.000000
O O16 0.000000 0.500000 0.000000
#
# Coordination Sequence:
#
# PCOD9057087 Si02
#       7
#     2   2   2   2   2   2   2
#     4  11  22  41  70  94 133 178 215 272 332 394
#     4   9  21  41  69  91 125 169 225 285 324 380
#     4  11  22  41  69  98 134 175 216 278 337 384
#     4  12  25  42  65  99 142 177 217 267 328 403
#     4  12  25  42  65 100 138 178 221 260 325 411
#     4  12  25  42  65 103 141 175 218 266 332 413
#     4   9  20  45  69  89 129 172 228 282 324 393
#
# _framework density 23.421239
#
# number of rings (size 3 to 8) (size 9 to 14) (size 15 to 20)
#    0.000    1.143    2.857    3.429    4.000    0.000 
#    0.000    7.143   12.571    0.000    0.000    0.000 
#    0.000    0.000    0.000    0.000    0.000    0.000 
#
# Total GULP energy -78151.928646 kJ/mol
# GULP energy per Si atom -5582.280618 kJ/mol
# Density = 2.336793 g / cm^3
# Si number density = 23.421239 Si / 1000 Ang^3
#
#
#
# Elastic Constant Matrix: (Units=GPa)
#
#
# Indices 1 2 3 4 5 6 
#
# 1 117.5073 30.9852 15.2306 -1.9781 0.1894 -5.6445
# 2 30.9852 96.8976 41.0605 -7.3453 -8.4460 -4.1965
# 3 15.2306 41.0605 105.0449 -6.5124 -19.8069 2.4564
# 4 -1.9781 -7.3453 -6.5124 41.4896 2.1420 -20.1093
# 5 0.1894 -8.4460 -19.8069 2.1420 24.5875 -2.2531
# 6 -5.6445 -4.1965 2.4564 -20.1093 -2.2531 20.7049
#
#
#
# Elastic Compliance Matrix: (Units=1/GPa)
#
#
# Indices 1 2 3 4 5 6 
#
# 1 0.009480 -0.002606 -0.000567 0.001756 -0.001240 0.003694
# 2 -0.002606 0.014040 -0.004710 0.005534 0.001319 0.008213
# 3 -0.000567 -0.004710 0.013139 -0.000155 0.008814 -0.001859
# 4 0.001756 0.005534 -0.000155 0.048990 0.002024 0.049420
# 5 -0.001240 0.001319 0.008814 0.002024 0.048620 0.006140
# 6 0.003694 0.008213 -0.001859 0.049420 0.006140 0.099856
#
#
# Mechanical properties :
#
#
# Convention : Reuss Voigt Hill
#
# Bulk Modulus (GPa) = 47.86614 54.88913 51.37763
# Shear Modulus (GPa) = 19.46624 32.83464 26.15044
#
# Velocity S-wave (km/s) = 2.88607 3.74828 3.34507
# Velocity P-wave (km/s) = 5.62026 6.49764 6.07481
#
# Compressibility (1/GPa) = 0.02089159
#
# Stress axis : x y z
#
# Youngs Moduli (GPa) = 105.48757 71.22673 76.10967
#
# Poissons Ratio (x) = 0.18562 0.04316
# Poissons Ratio (y) = 0.27490 0.35850
# Poissons Ratio (z) = 0.05982 0.33550
#
# Static dielectric constant tensor:
#      x y z
#    x 1.827220 -0.029520 -0.049960 
#    y -0.029520 1.972740 -0.050090 
#    z -0.049960 -0.050090 1.854950 
# 
# From -- ./inp_files/47047.got.cif
#   From: 2010.05.17/outbox.cif.g08.bks.cpg/sg2_24_cif.got.tgz:47047.got - 2010.06.03 11:33:40.
