data_PCOD9057339
_publ_section_title
;
Structure prediction by ZEFSAII (Michael W. Deem and Ramdas Pophale) SiO2 
 PCOD9057339
Probable space group: P -1
;
_chemical_formula_sum "Si O2"
_cell_formula_units_Z 16
_cell_length_a 15.877629
_cell_length_b 12.437928
_cell_length_c 16.175826
_cell_angle_alpha 141.703537
_cell_angle_beta 152.039024
_cell_angle_gamma 57.132301
_cell_volume 794.022699
_symmetry_space_group_name_H-M "P -1"
_symmetry_group_IT_number 2
_symmetry_cell_setting 'triclinic'
loop_
_space_group_symop_operation_xyz
x,y,z
-x,-y,-z
loop_
_atom_site_type_symbol
_atom_site_label
_atom_site_fract_x
_atom_site_fract_y
_atom_site_fract_z
Si Si1 0.821118 0.637726 0.363682
Si Si2 0.971824 0.420144 0.246431
Si Si3 0.431340 0.768403 0.816956
Si Si4 0.467614 0.289098 0.949965
Si Si5 0.896357 0.216520 0.894400
Si Si6 0.933279 0.079649 0.114729
Si Si7 0.463749 0.921593 0.636477
Si Si8 0.641516 0.424118 0.535748
O O1 0.855260 0.477008 0.247298
O O2 0.740379 0.736004 0.286602
O O3 0.019444 0.811571 0.689007
O O4 0.647646 0.510706 0.207195
O O5 0.019921 0.258116 0.230589
O O6 0.182953 0.629896 0.536203
O O7 0.851187 0.313710 0.993719
O O8 0.456159 0.672941 0.696642
O O9 0.537411 0.741101 0.974452
O O10 0.500000 0.000000 0.000000
O O11 0.509781 0.125550 0.845267
O O12 0.705463 0.130621 0.613476
O O13 0.949756 0.045145 0.862288
O O14 0.118068 0.395605 0.158124
O O15 0.681575 0.948667 0.808396
O O16 0.368364 0.746244 0.516254
O O17 0.500000 0.500000 0.500000
#
# Coordination Sequence:
#
# PCOD9057339 Si02
#       8
#     2   2   2   2   2   2   2   2
#     4  11  23  41  70 100 133 170 219 277 331 392
#     4  11  24  42  64  99 135 169 216 280 330 382
#     4  11  23  41  68  93 131 172 220 271 325 393
#     4  11  22  42  68 102 132 171 223 272 330 391
#     4  11  26  44  63 100 135 173 222 268 331 401
#     4  12  22  42  70  95 130 176 218 272 334 394
#     4  12  23  42  70  93 131 180 219 273 331 390
#     4  11  24  43  68  95 132 177 220 270 331 392
#
# _framework density 20.150556999999999
#
# number of rings (size 3 to 8) (size 9 to 14) (size 15 to 20)
#    0.000    0.750    6.250    1.875    0.000    1.500 
#    0.000    0.625    0.000    0.000    0.000    0.000 
#    0.000    0.000    0.000    0.000    0.000    0.000 
#
# Total GULP energy -89407.935231 kJ/mol
# GULP energy per Si atom -5587.995952 kJ/mol
# Density = 2.010469 g / cm^3
# Si number density = 20.150557 Si / 1000 Ang^3
#
#
#
# Elastic Constant Matrix: (Units=GPa)
#
#
# Indices 1 2 3 4 5 6 
#
# 1 90.3719 28.3002 38.5686 -9.4912 -19.6697 5.5069
# 2 28.3002 105.1460 29.7882 -9.6169 -3.4932 15.3576
# 3 38.5686 29.7882 80.2105 -24.8377 -11.8810 0.3126
# 4 -9.4912 -9.6169 -24.8377 30.7656 13.7028 -5.1468
# 5 -19.6697 -3.4932 -11.8810 13.7028 25.0390 3.8871
# 6 5.5069 15.3576 0.3126 -5.1468 3.8871 24.7110
#
#
#
# Elastic Compliance Matrix: (Units=1/GPa)
#
#
# Indices 1 2 3 4 5 6 
#
# 1 0.018651 -0.001672 -0.009251 -0.011408 0.017535 -0.008135
# 2 -0.001672 0.012072 -0.004030 -0.001411 0.000384 -0.007433
# 3 -0.009251 -0.004030 0.023365 0.020746 -0.009666 0.010112
# 4 -0.011408 -0.001411 0.020746 0.066761 -0.039462 0.023269
# 5 0.017535 0.000384 -0.009666 -0.039462 0.074495 -0.023962
# 6 -0.008135 -0.007433 0.010112 0.023269 -0.023962 0.055388
#
#
# Mechanical properties :
#
#
# Convention : Reuss Voigt Hill
#
# Bulk Modulus (GPa) = 41.35262 52.11583 46.73422
# Shear Modulus (GPa) = 17.31908 28.04121 22.68015
#
# Velocity S-wave (km/s) = 2.93488 3.73444 3.35854
# Velocity P-wave (km/s) = 5.66136 6.67189 6.18729
#
# Compressibility (1/GPa) = 0.02418227
#
# Stress axis : x y z
#
# Youngs Moduli (GPa) = 53.61640 82.83789 42.79865
#
# Poissons Ratio (x) = 0.13849 0.39592
# Poissons Ratio (y) = 0.08964 0.17249
# Poissons Ratio (z) = 0.49600 0.33385
#
# Static dielectric constant tensor:
#      x y z
#    x 1.727440 0.007070 -0.005240 
#    y 0.007070 1.702780 0.017420 
#    z -0.005240 0.017420 1.740660 
# 
# From -- ./inp_files/392035.got.cif
#   From: 2010.05.17/outbox.cif.g08.bks.cpg/sg2_197_cif.got.tgz:392035.got - 2010.06.03 11:33:40.
