data_PCOD9057176
_publ_section_title
;
Structure prediction by ZEFSAII (Michael W. Deem and Ramdas Pophale) SiO2 
 PCOD9057176
Probable space group: P -1
;
_chemical_formula_sum "Si O2"
_cell_formula_units_Z 14
_cell_length_a 14.303546
_cell_length_b 14.342049
_cell_length_c 7.558128
_cell_angle_alpha 56.759004
_cell_angle_beta 108.203088
_cell_angle_gamma 152.195267
_cell_volume 542.567661
_symmetry_space_group_name_H-M "P -1"
_symmetry_group_IT_number 2
_symmetry_cell_setting 'triclinic'
loop_
_space_group_symop_operation_xyz
x,y,z
-x,-y,-z
loop_
_atom_site_type_symbol
_atom_site_label
_atom_site_fract_x
_atom_site_fract_y
_atom_site_fract_z
Si Si1 0.658337 0.346727 0.556571
Si Si2 0.521248 0.056316 0.248024
Si Si3 0.852789 0.146205 0.801778
Si Si4 0.167421 0.116829 0.831124
Si Si5 0.292983 0.101334 0.399723
Si Si6 0.319723 0.357044 0.298711
Si Si7 0.169513 0.437605 0.176412
O O1 0.500083 0.077958 0.736692
O O2 0.527282 0.304151 0.409940
O O3 0.718664 0.454118 0.673465
O O4 0.895845 0.556895 0.391276
O O5 0.320663 0.931349 0.188522
O O6 0.500000 0.000000 0.500000
O O7 0.745055 0.357409 0.055538
O O8 0.755078 0.994994 0.720094
O O9 0.867461 0.052181 0.030708
O O10 0.179040 0.183375 0.573656
O O11 0.420974 0.386682 0.766811
O O12 0.000000 0.000000 0.000000
O O13 0.277444 0.218108 0.276903
O O14 0.093126 0.843670 0.663590
O O15 0.262678 0.424892 0.142752
#
# Coordination Sequence:
#
# PCOD9057176 Si02
#       7
#     2   2   2   2   2   2   2
#     4  11  24  46  72  98 136 186 234 286 351 412
#     4  12  25  48  69 102 137 181 238 291 344 412
#     4  11  24  46  69 104 142 179 231 292 351 414
#     4  11  22  41  72 104 142 186 232 283 352 424
#     4  11  24  44  72 104 139 182 233 285 353 421
#     4  11  23  44  69 105 147 182 233 287 352 430
#     4  11  25  47  69  98 141 184 229 289 350 415
#
# _framework density 25.803232000000001
#
# number of rings (size 3 to 8) (size 9 to 14) (size 15 to 20)
#    0.000    0.857    2.857    5.571    0.000    2.286 
#    5.143    0.000    0.000    0.000    0.000    0.000 
#    0.000    0.000    0.000    0.000    0.000    0.000 
#
# Total GULP energy -78528.446407 kJ/mol
# GULP energy per Si atom -5609.174743 kJ/mol
# Density = 2.574450 g / cm^3
# Si number density = 25.803232 Si / 1000 Ang^3
#
#
#
# Elastic Constant Matrix: (Units=GPa)
#
#
# Indices 1 2 3 4 5 6 
#
# 1 121.8482 23.6371 15.6446 -1.0204 11.8942 -7.2404
# 2 23.6371 88.5206 11.6339 16.8233 -10.0788 5.0463
# 3 15.6446 11.6339 117.7505 -4.7574 5.3144 -4.0061
# 4 -1.0204 16.8233 -4.7574 35.5231 -8.8091 -0.7492
# 5 11.8942 -10.0788 5.3144 -8.8091 39.9775 -16.0585
# 6 -7.2404 5.0463 -4.0061 -0.7492 -16.0585 46.0518
#
#
#
# Elastic Compliance Matrix: (Units=1/GPa)
#
#
# Indices 1 2 3 4 5 6 
#
# 1 0.009194 -0.002883 -0.000749 0.000825 -0.002901 0.000698
# 2 -0.002883 0.013797 -0.001392 -0.006171 0.002655 -0.001261
# 3 -0.000749 -0.001392 0.008848 0.001661 -0.000703 0.000586
# 4 0.000825 -0.006171 0.001661 0.033093 0.006824 0.003868
# 5 -0.002901 0.002655 -0.000703 0.006824 0.032402 0.010602
# 6 0.000698 -0.001261 0.000586 0.003868 0.010602 0.025773
#
#
# Mechanical properties :
#
#
# Convention : Reuss Voigt Hill
#
# Bulk Modulus (GPa) = 45.89122 47.77228 46.83175
# Shear Modulus (GPa) = 35.60750 42.79073 39.19912
#
# Velocity S-wave (km/s) = 3.71882 4.07670 3.90186
# Velocity P-wave (km/s) = 6.02189 6.38072 6.20390
#
# Compressibility (1/GPa) = 0.02179066
#
# Stress axis : x y z
#
# Youngs Moduli (GPa) = 108.76717 72.48083 113.01583
#
# Poissons Ratio (x) = 0.20899 0.08461
# Poissons Ratio (y) = 0.31362 0.15733
# Poissons Ratio (z) = 0.08143 0.10090
#
# Static dielectric constant tensor:
#      x y z
#    x 1.975200 0.004330 -0.014820 
#    y 0.004330 1.988430 0.023050 
#    z -0.014820 0.023050 2.093190 
# 
# From -- ./inp_files/314709.got.cif
#   From: 2010.05.17/outbox.cif.g08.bks.cpg/sg2_158_cif.got.tgz:314709.got - 2010.06.03 11:33:40.
