data_PCOD9057146
_publ_section_title
;
Structure prediction by ZEFSAII (Michael W. Deem and Ramdas Pophale) SiO2 
 PCOD9057146
Probable space group: P -1
;
_chemical_formula_sum "Si O2"
_cell_formula_units_Z 16
_cell_length_a 10.388470
_cell_length_b 13.060254
_cell_length_c 10.132926
_cell_angle_alpha 129.615629
_cell_angle_beta 43.224357
_cell_angle_gamma 139.985677
_cell_volume 595.428444
_symmetry_space_group_name_H-M "P -1"
_symmetry_group_IT_number 2
_symmetry_cell_setting 'triclinic'
loop_
_space_group_symop_operation_xyz
x,y,z
-x,-y,-z
loop_
_atom_site_type_symbol
_atom_site_label
_atom_site_fract_x
_atom_site_fract_y
_atom_site_fract_z
Si Si1 0.394295 0.313581 0.397065
Si Si2 0.657267 0.105590 0.643987
Si Si3 0.128521 0.457560 0.270349
Si Si4 0.362214 0.860389 0.881084
Si Si5 0.388138 0.215596 0.826896
Si Si6 0.143440 0.551936 0.069923
Si Si7 0.161436 0.269237 0.795837
Si Si8 0.109940 0.189815 0.239945
O O1 0.500000 0.500000 0.500000
O O2 0.574752 0.266906 0.236759
O O3 0.212410 0.225831 0.580802
O O4 0.273191 0.260069 0.302541
O O5 0.864779 0.107859 0.426090
O O6 0.479433 0.944141 0.723590
O O7 0.753567 0.264161 0.804767
O O8 0.529600 0.137143 0.652100
O O9 0.116034 0.311562 0.228611
O O10 0.000000 0.500000 0.500000
O O11 0.395380 0.597785 0.161992
O O12 0.005842 0.448191 0.217953
O O13 0.106335 0.813117 0.050618
O O14 0.500000 0.000000 0.000000
O O15 0.222375 0.127522 0.005556
O O16 0.258895 0.218941 0.799301
O O17 0.276191 0.463920 0.878127
O O18 0.000000 0.500000 0.000000
#
# Coordination Sequence:
#
# PCOD9057146 Si02
#       8
#     2   2   2   2   2   2   2   2
#     4  12  31  48  82 122 158 203 283 335 396 479
#     4  11  27  47  77 110 158 213 267 322 407 485
#     4  11  22  41  71 110 160 200 260 328 396 464
#     4  12  29  54  79 117 166 217 263 336 417 484
#     4  11  25  46  75 116 157 213 265 326 410 480
#     4  11  23  42  76 114 149 198 263 327 390 455
#     4  12  29  48  81 117 163 206 275 342 393 479
#     4  12  23  45  75 112 158 212 262 331 404 471
#
# _framework density 26.871404999999999
#
# number of rings (size 3 to 8) (size 9 to 14) (size 15 to 20)
#    0.000    0.500    3.750    4.125   10.500    5.500 
#    0.000    1.250    0.000    0.000    0.000    0.000 
#    0.000    0.000    0.000    0.000    0.000    0.000 
#
# Total GULP energy -89502.556344 kJ/mol
# GULP energy per Si atom -5593.909771 kJ/mol
# Density = 2.681024 g / cm^3
# Si number density = 26.871405 Si / 1000 Ang^3
#
#
#
# Elastic Constant Matrix: (Units=GPa)
#
#
# Indices 1 2 3 4 5 6 
#
# 1 233.0948 61.8127 58.8491 -12.7133 5.7097 -1.3495
# 2 61.8127 97.0216 34.5416 -0.9927 -13.8059 -5.0106
# 3 58.8491 34.5416 189.3311 -23.8540 -1.3938 13.6264
# 4 -12.7133 -0.9927 -23.8540 49.5224 3.3335 -4.7655
# 5 5.7097 -13.8059 -1.3938 3.3335 64.6816 2.1782
# 6 -1.3495 -5.0106 13.6264 -4.7655 2.1782 46.0519
#
#
#
# Elastic Compliance Matrix: (Units=1/GPa)
#
#
# Indices 1 2 3 4 5 6 
#
# 1 0.005509 -0.003306 -0.001015 0.000970 -0.001273 0.000263
# 2 -0.003306 0.013542 -0.001719 -0.001466 0.003168 0.001584
# 3 -0.001015 -0.001719 0.006369 0.002612 -0.000213 -0.001821
# 4 0.000970 -0.001466 0.002612 0.021911 -0.001520 0.001435
# 5 -0.001273 0.003168 -0.000213 -0.001520 0.016341 -0.000560
# 6 0.000263 0.001584 -0.001821 0.001435 -0.000560 0.022608
#
#
# Mechanical properties :
#
#
# Convention : Reuss Voigt Hill
#
# Bulk Modulus (GPa) = 74.95367 92.20605 83.57986
# Shear Modulus (GPa) = 48.63464 56.33410 52.48437
#
# Velocity S-wave (km/s) = 4.25891 4.58365 4.42426
# Velocity P-wave (km/s) = 7.22070 7.89946 7.56769
#
# Compressibility (1/GPa) = 0.01334158
#
# Stress axis : x y z
#
# Youngs Moduli (GPa) = 181.53382 73.84217 157.00020
#
# Poissons Ratio (x) = 0.24410 0.15939
# Poissons Ratio (y) = 0.60010 0.26981
# Poissons Ratio (z) = 0.18430 0.12690
#
# Static dielectric constant tensor:
#      x y z
#    x 0.474450 0.486250 -0.067500 
#    y 0.486250 2.264830 -0.004000 
#    z -0.067500 -0.004000 2.176800 
# 
# From -- ./inp_files/215075.got.cif
#   From: 2010.05.17/outbox.cif.g08.bks.cpg/sg2_108_cif.got.tgz:215075.got - 2010.06.03 11:33:40.
