data_PCOD9057525
_publ_section_title
;
Structure prediction by ZEFSAII (Michael W. Deem and Ramdas Pophale) SiO2 
 PCOD9057525
Probable space group: P -1
;
_chemical_formula_sum "Si O2"
_cell_formula_units_Z 12
_cell_length_a 9.319272
_cell_length_b 9.147923
_cell_length_c 12.513594
_cell_angle_alpha 147.772960
_cell_angle_beta 117.819006
_cell_angle_gamma 51.862526
_cell_volume 443.492483
_symmetry_space_group_name_H-M "P -1"
_symmetry_group_IT_number 2
_symmetry_cell_setting 'triclinic'
loop_
_space_group_symop_operation_xyz
x,y,z
-x,-y,-z
loop_
_atom_site_type_symbol
_atom_site_label
_atom_site_fract_x
_atom_site_fract_y
_atom_site_fract_z
Si Si1 0.243699 0.879347 0.229237
Si Si2 0.067743 0.138961 0.776712
Si Si3 0.715638 0.982914 0.012541
Si Si4 0.359882 0.451114 0.800774
Si Si5 0.974333 0.600163 0.690162
Si Si6 0.691177 0.419399 0.571830
O O1 0.443190 0.845357 0.300440
O O2 0.127845 0.856796 0.273347
O O3 0.102860 0.188141 0.309357
O O4 0.293770 0.602507 0.988708
O O5 0.216900 0.986811 0.829877
O O6 0.188264 0.956281 0.600976
O O7 0.000000 0.500000 0.000000
O O8 0.900941 0.830086 0.909696
O O9 0.651572 0.713836 0.817879
O O10 0.603425 0.304723 0.108508
O O11 0.191770 0.426121 0.672412
O O12 0.844197 0.441235 0.562389
O O13 0.500000 0.500000 0.500000
#
# Coordination Sequence:
#
# PCOD9057525 Si02
#       6
#     2   2   2   2   2   2
#     4  10  19  35  65 102 121 168 224 256 329 391
#     4  12  25  41  66  96 133 176 222 269 321 397
#     4   9  20  43  64  90 134 169 213 267 327 382
#     4  10  17  36  71  95 128 172 206 275 333 378
#     4   9  18  42  66  92 133 166 207 280 319 385
#     4  10  25  43  64  96 129 182 215 266 339 382
#
# _framework density 27.057957999999999
#
# number of rings (size 3 to 8) (size 9 to 14) (size 15 to 20)
#    1.000    1.000    3.333    1.000    2.333    2.000 
#    0.000    0.833    0.000    0.000    0.000    0.000 
#    0.000    0.000    0.000    0.000    0.000    0.000 
#
# Total GULP energy -66978.811971 kJ/mol
# GULP energy per Si atom -5581.567664 kJ/mol
# Density = 2.699637 g / cm^3
# Si number density = 27.057958 Si / 1000 Ang^3
#
#
#
# Elastic Constant Matrix: (Units=GPa)
#
#
# Indices 1 2 3 4 5 6 
#
# 1 78.6058 44.5231 27.3714 -6.8880 -1.6592 -32.8548
# 2 44.5231 162.8982 48.9468 -17.9036 -10.2793 -52.3505
# 3 27.3714 48.9468 131.4757 -13.6106 -8.1979 -19.4661
# 4 -6.8880 -17.9036 -13.6106 61.5358 -13.4694 -2.0860
# 5 -1.6592 -10.2793 -8.1979 -13.4694 34.1445 -7.9870
# 6 -32.8548 -52.3505 -19.4661 -2.0860 -7.9870 54.4430
#
#
#
# Elastic Compliance Matrix: (Units=1/GPa)
#
#
# Indices 1 2 3 4 5 6 
#
# 1 0.018359 -0.000587 -0.001490 0.002781 0.003950 0.010668
# 2 -0.000587 0.011467 -0.001441 0.005038 0.007752 0.011487
# 3 -0.001490 -0.001441 0.009060 0.002087 0.002831 0.001450
# 4 0.002781 0.005038 0.002087 0.021685 0.013050 0.010014
# 5 0.003950 0.007752 0.002831 0.013050 0.041728 0.017472
# 6 0.010668 0.011487 0.001450 0.010014 0.017472 0.039316
#
#
# Mechanical properties :
#
#
# Convention : Reuss Voigt Hill
#
# Bulk Modulus (GPa) = 31.39744 68.29580 49.84662
# Shear Modulus (GPa) = 31.39395 46.83388 39.11391
#
# Velocity S-wave (km/s) = 3.40994 4.16489 3.80618
# Velocity P-wave (km/s) = 5.20889 6.95872 6.14639
#
# Compressibility (1/GPa) = 0.03184973
#
# Stress axis : x y z
#
# Youngs Moduli (GPa) = 54.46944 87.21039 110.37693
#
# Poissons Ratio (x) = 0.05117 0.16445
# Poissons Ratio (y) = 0.03196 0.15907
# Poissons Ratio (z) = 0.08115 0.12568
#
# Static dielectric constant tensor:
#      x y z
#    x 2.114720 0.048340 0.055130 
#    y 0.048340 2.108680 0.075990 
#    z 0.055130 0.075990 2.587210 
# 
# From -- ./inp_files/266212.got.cif
#   From: 2010.05.17/outbox.cif.g08.bks.cpg/sg2_134_cif.got.tgz:266212.got - 2010.06.03 11:33:40.
