data_PCOD9057778
_publ_section_title
;
Structure prediction by ZEFSAII (Michael W. Deem and Ramdas Pophale) SiO2 
 PCOD9057778
Probable space group: P -1
;
_chemical_formula_sum "Si O2"
_cell_formula_units_Z 15
_cell_length_a 13.609022
_cell_length_b 6.249703
_cell_length_c 10.233033
_cell_angle_alpha 79.696906
_cell_angle_beta 45.199693
_cell_angle_gamma 79.005840
_cell_volume 604.995500
_symmetry_space_group_name_H-M "P -1"
_symmetry_group_IT_number 2
_symmetry_cell_setting 'triclinic'
loop_
_space_group_symop_operation_xyz
x,y,z
-x,-y,-z
loop_
_atom_site_type_symbol
_atom_site_label
_atom_site_fract_x
_atom_site_fract_y
_atom_site_fract_z
Si Si1 0.520360 0.965895 0.197363
Si Si2 0.387688 0.329347 0.103496
Si Si3 0.816558 0.982698 0.930149
Si Si4 0.910808 0.859889 0.271640
Si Si5 0.840535 0.598620 0.126761
Si Si6 0.702950 0.276707 0.456442
Si Si7 0.000000 0.000000 0.500000
Si Si8 0.840662 0.465450 0.549028
O O1 0.441355 0.831535 0.392088
O O2 0.409596 0.143917 0.216090
O O3 0.577249 0.800021 0.047909
O O4 0.658559 0.075751 0.095072
O O5 0.239074 0.460003 0.252384
O O6 0.500000 0.500000 0.000000
O O7 0.820962 0.729784 0.997974
O O8 0.929810 0.094106 0.899606
O O9 0.871002 0.003966 0.729986
O O10 0.832887 0.778538 0.228846
O O11 0.906666 0.675766 0.406097
O O12 0.827151 0.083019 0.369485
O O13 0.736015 0.424553 0.286252
O O14 0.000000 0.500000 0.000000
O O15 0.724867 0.410009 0.555130
O O16 0.947033 0.253897 0.483187
#
# Coordination Sequence:
#
# PCOD9057778 Si02
#       8
#     2   2   2   2   2   2   1   2
#     4  11  26  43  68 107 150 185 242 295 343 438
#     4  11  22  43  70  97 147 204 232 274 368 430
#     4  12  26  45  69 110 144 181 236 302 357 415
#     4  11  23  46  78  96 139 196 236 292 358 426
#     4  11  24  47  75 103 135 189 247 295 355 423
#     4  11  22  46  73 100 139 192 244 286 351 431
#     4  12  26  46  64 110 150 168 236 310 350 418
#     4  11  23  43  70 104 138 192 241 287 354 433
#
# _framework density 24.793575000000001
#
# number of rings (size 3 to 8) (size 9 to 14) (size 15 to 20)
#    0.000    0.800    5.333    2.000    3.733    1.067 
#    7.200    0.667    0.000    0.000    0.000    0.000 
#    0.000    0.000    0.000    0.000    0.000    0.000 
#
# Total GULP energy -83744.246460 kJ/mol
# GULP energy per Si atom -5582.949764 kJ/mol
# Density = 2.473714 g / cm^3
# Si number density = 24.793575 Si / 1000 Ang^3
#
#
#
# Elastic Constant Matrix: (Units=GPa)
#
#
# Indices 1 2 3 4 5 6 
#
# 1 41.5045 9.4126 23.2703 -8.6416 -13.4704 -0.3155
# 2 9.4126 102.6124 39.0867 -9.8925 -0.2677 -4.5734
# 3 23.2703 39.0867 155.8614 -43.8623 -16.4815 -0.2834
# 4 -8.6416 -9.8925 -43.8623 60.8384 -2.5719 3.1132
# 5 -13.4704 -0.2677 -16.4815 -2.5719 36.8695 -1.6755
# 6 -0.3155 -4.5734 -0.2834 3.1132 -1.6755 28.1313
#
#
#
# Elastic Compliance Matrix: (Units=1/GPa)
#
#
# Indices 1 2 3 4 5 6 
#
# 1 0.029493 -0.001570 -0.002171 0.002774 0.010003 0.000342
# 2 -0.001570 0.011000 -0.002901 -0.000688 -0.001760 0.001713
# 3 -0.002171 -0.002901 0.009686 0.006414 0.003923 -0.000874
# 4 0.002774 -0.000688 0.006414 0.021674 0.005292 -0.002100
# 5 0.010003 -0.001760 0.003923 0.005292 0.032944 0.001242
# 6 0.000342 0.001713 -0.000874 -0.002100 0.001242 0.036127
#
#
# Mechanical properties :
#
#
# Convention : Reuss Voigt Hill
#
# Bulk Modulus (GPa) = 27.10267 49.27972 38.19119
# Shear Modulus (GPa) = 30.02901 40.38176 35.20539
#
# Velocity S-wave (km/s) = 3.48395 4.04012 3.77230
# Velocity P-wave (km/s) = 5.20950 6.45620 5.86607
#
# Compressibility (1/GPa) = 0.03689674
#
# Stress axis : x y z
#
# Youngs Moduli (GPa) = 33.90583 90.91086 103.24536
#
# Poissons Ratio (x) = 0.14271 0.22410
# Poissons Ratio (y) = 0.05322 0.29949
# Poissons Ratio (z) = 0.07360 0.26371
#
# Static dielectric constant tensor:
#      x y z
#    x 2.094890 0.025820 -0.004650 
#    y 0.025820 1.940010 -0.011410 
#    z -0.004650 -0.011410 1.936880 
# 
# From -- ./inp_files/68688.got.cif
#   From: 2010.05.17/outbox.cif.g08.bks.cpg/sg2_35_cif.got.tgz:68688.got - 2010.06.03 11:33:40.
