data_PCOD9057005
_publ_section_title
;
Structure prediction by ZEFSAII (Michael W. Deem and Ramdas Pophale) SiO2 
 PCOD9057005
Probable space group: P -1
;
_chemical_formula_sum "Si O2"
_cell_formula_units_Z 16
_cell_length_a 8.547957
_cell_length_b 14.245708
_cell_length_c 9.621264
_cell_angle_alpha 107.449564
_cell_angle_beta 89.567707
_cell_angle_gamma 131.248561
_cell_volume 810.263556
_symmetry_space_group_name_H-M "P -1"
_symmetry_group_IT_number 2
_symmetry_cell_setting 'triclinic'
loop_
_space_group_symop_operation_xyz
x,y,z
-x,-y,-z
loop_
_atom_site_type_symbol
_atom_site_label
_atom_site_fract_x
_atom_site_fract_y
_atom_site_fract_z
Si Si1 0.712150 0.652207 0.022664
Si Si2 0.732152 0.810908 0.309829
Si Si3 0.220044 0.150172 0.109392
Si Si4 0.554105 0.119005 0.147220
Si Si5 0.968111 0.878472 0.618050
Si Si6 0.935885 0.351410 0.069323
Si Si7 0.318465 0.868618 0.536569
Si Si8 0.755386 0.331736 0.771093
O O1 0.686926 0.732726 0.952120
O O2 0.883378 0.651952 0.958419
O O3 0.500000 0.500000 0.000000
O O4 0.800669 0.741508 0.200949
O O5 0.478811 0.718474 0.249904
O O6 0.798374 0.831646 0.478294
O O7 0.862913 0.957735 0.307362
O O8 0.386133 0.134146 0.129709
O O9 0.155134 0.181317 0.262531
O O10 0.000000 0.000000 0.000000
O O11 0.784684 0.256003 0.153623
O O12 0.571017 0.104645 0.303964
O O13 0.500000 0.000000 0.000000
O O14 0.113180 0.848665 0.560992
O O15 0.056099 0.505966 0.165762
O O16 0.794528 0.297357 0.904892
O O17 0.245162 0.743052 0.391169
O O18 0.500000 0.000000 0.500000
#
# Coordination Sequence:
#
# PCOD9057005 Si02
#       8
#     2   2   2   2   2   2   2   2
#     4  12  24  43  72 100 140 182 227 276 343 412
#     4  11  22  41  68 101 136 176 224 285 339 407
#     4  12  25  44  68 101 136 178 228 286 334 402
#     4  12  27  44  70 103 138 177 229 287 346 408
#     4  11  24  41  69 100 137 176 226 284 345 398
#     4  11  25  43  69  99 135 184 227 278 345 406
#     4  12  24  42  69  99 135 179 226 284 345 401
#     4  11  23  43  69  97 139 179 230 280 340 411
#
# _framework density 19.746662000000001
#
# number of rings (size 3 to 8) (size 9 to 14) (size 15 to 20)
#    0.000    0.500    3.750    5.250    3.500    0.500 
#    0.000    0.625    0.000    0.000    0.000    0.000 
#    0.000    0.000    0.000    0.000    0.000    0.000 
#
# Total GULP energy -89487.098563 kJ/mol
# GULP energy per Si atom -5592.943660 kJ/mol
# Density = 1.970172 g / cm^3
# Si number density = 19.746662 Si / 1000 Ang^3
#
#
#
# Elastic Constant Matrix: (Units=GPa)
#
#
# Indices 1 2 3 4 5 6 
#
# 1 123.5911 39.3603 36.2479 -7.6921 -3.8569 9.4095
# 2 39.3603 114.9603 61.9693 -19.4906 6.2903 -0.0902
# 3 36.2479 61.9693 132.1485 -5.4593 -10.0104 -6.3951
# 4 -7.6921 -19.4906 -5.4593 36.1616 -4.8561 -5.3120
# 5 -3.8569 6.2903 -10.0104 -4.8561 42.4281 0.5047
# 6 9.4095 -0.0902 -6.3951 -5.3120 0.5047 31.7066
#
#
#
# Elastic Compliance Matrix: (Units=1/GPa)
#
#
# Indices 1 2 3 4 5 6 
#
# 1 0.009616 -0.002490 -0.001548 0.000130 0.000931 -0.003166
# 2 -0.002490 0.013776 -0.005736 0.005722 -0.002975 0.000627
# 3 -0.001548 -0.005736 0.010999 -0.000976 0.003164 0.002448
# 4 0.000130 0.005722 -0.000976 0.031696 0.002501 0.005051
# 5 0.000931 -0.002975 0.003164 0.002501 0.025123 0.000373
# 6 -0.003166 0.000627 0.002448 0.005051 0.000373 0.033815
#
#
# Mechanical properties :
#
#
# Convention : Reuss Voigt Hill
#
# Bulk Modulus (GPa) = 67.35946 71.76167 69.56056
# Shear Modulus (GPa) = 33.44019 37.60075 35.52047
#
# Velocity S-wave (km/s) = 4.11963 4.36840 4.24584
# Velocity P-wave (km/s) = 7.53753 7.86536 7.70319
#
# Compressibility (1/GPa) = 0.01484573
#
# Stress axis : x y z
#
# Youngs Moduli (GPa) = 103.99217 72.58762 90.91421
#
# Poissons Ratio (x) = 0.18071 0.14070
# Poissons Ratio (y) = 0.25889 0.52148
# Poissons Ratio (z) = 0.16094 0.41636
#
# Static dielectric constant tensor:
#      x y z
#    x 1.630530 0.009250 0.007980 
#    y 0.009250 1.664330 -0.002230 
#    z 0.007980 -0.002230 1.693600 
# 
# From -- ./inp_files/208315.got.cif
#   From: 2010.05.17/outbox.cif.g08.bks.cpg/sg2_105_cif.got.tgz:208315.got - 2010.06.03 11:33:40.
