data_PCOD9057111
_publ_section_title
;
Structure prediction by ZEFSAII (Michael W. Deem and Ramdas Pophale) SiO2 
 PCOD9057111
Probable space group: P -1
;
_chemical_formula_sum "Si O2"
_cell_formula_units_Z 16
_cell_length_a 10.342156
_cell_length_b 7.753136
_cell_length_c 18.863812
_cell_angle_alpha 121.971007
_cell_angle_beta 37.109028
_cell_angle_gamma 134.624340
_cell_volume 647.852075
_symmetry_space_group_name_H-M "P -1"
_symmetry_group_IT_number 2
_symmetry_cell_setting 'triclinic'
loop_
_space_group_symop_operation_xyz
x,y,z
-x,-y,-z
loop_
_atom_site_type_symbol
_atom_site_label
_atom_site_fract_x
_atom_site_fract_y
_atom_site_fract_z
Si Si1 0.644895 0.154101 0.854136
Si Si2 0.083147 0.072658 0.685725
Si Si3 0.437323 0.429801 0.429774
Si Si4 0.131540 0.969473 0.088438
Si Si5 0.093191 0.320289 0.433394
Si Si6 0.606473 0.627578 0.194167
Si Si7 0.814169 0.641790 0.958116
Si Si8 0.401882 0.932911 0.764037
O O1 0.713003 0.420235 0.900982
O O2 0.571928 0.074130 0.788177
O O3 0.390385 0.973840 0.973022
O O4 0.897046 0.159554 0.763544
O O5 0.939341 0.931694 0.790309
O O6 0.092264 0.924508 0.583145
O O7 0.362196 0.303257 0.632938
O O8 0.500000 0.500000 0.500000
O O9 0.165671 0.324820 0.485494
O O10 0.506316 0.231912 0.342952
O O11 0.166879 0.135596 0.042273
O O12 0.874827 0.708844 0.130913
O O13 0.361886 0.419827 0.296666
O O14 0.000000 0.500000 0.500000
O O15 0.587919 0.865174 0.248087
O O16 0.635325 0.566507 0.087967
O O17 0.106107 0.748163 0.874860
#
# Coordination Sequence:
#
# PCOD9057111 Si02
#       8
#     2   2   2   2   2   2   2   2
#     4  12  22  40  71 107 147 189 229 275 361 438
#     4  12  27  47  71 106 144 186 239 299 362 427
#     4  12  29  54  75 102 143 192 248 307 364 423
#     4  11  22  41  70 107 151 187 226 283 359 432
#     4  12  30  51  76 105 139 191 250 310 360 420
#     4  11  23  45  73 105 151 186 235 295 352 426
#     4  11  22  41  70 110 148 191 228 283 355 436
#     4  11  23  44  72 107 140 187 236 291 357 431
#
# _framework density 24.696995000000001
#
# number of rings (size 3 to 8) (size 9 to 14) (size 15 to 20)
#    0.000    0.500    6.250    2.250    3.500    4.000 
#    0.000    2.500    0.000    0.000    0.000    0.000 
#    0.000    0.000    0.000    0.000    0.000    0.000 
#
# Total GULP energy -89553.310516 kJ/mol
# GULP energy per Si atom -5597.081907 kJ/mol
# Density = 2.464078 g / cm^3
# Si number density = 24.696995 Si / 1000 Ang^3
#
#
#
# Elastic Constant Matrix: (Units=GPa)
#
#
# Indices 1 2 3 4 5 6 
#
# 1 86.3166 -1.2331 8.4325 18.6714 10.0129 20.3386
# 2 -1.2331 92.5306 15.8732 22.0685 3.7464 28.2473
# 3 8.4325 15.8732 57.2889 19.8680 14.6688 3.5201
# 4 18.6714 22.0685 19.8680 56.2256 0.7786 2.6168
# 5 10.0129 3.7464 14.6688 0.7786 44.9631 6.3247
# 6 20.3386 28.2473 3.5201 2.6168 6.3247 38.7169
#
#
#
# Elastic Compliance Matrix: (Units=1/GPa)
#
#
# Indices 1 2 3 4 5 6 
#
# 1 0.016204 0.005575 -0.000245 -0.006906 -0.002224 -0.011727
# 2 0.005575 0.017615 -0.002340 -0.007239 0.000308 -0.015129
# 3 -0.000245 -0.002340 0.022233 -0.006825 -0.007087 0.001434
# 4 -0.006906 -0.007239 -0.006825 0.024949 0.002899 0.007370
# 5 -0.002224 0.000308 -0.007087 0.002899 0.025359 -0.002750
# 6 -0.011727 -0.015129 0.001434 0.007370 -0.002750 0.042848
#
#
# Mechanical properties :
#
#
# Convention : Reuss Voigt Hill
#
# Bulk Modulus (GPa) = 16.12030 31.36459 23.74244
# Shear Modulus (GPa) = 30.50534 42.18533 36.34533
#
# Velocity S-wave (km/s) = 3.51833 4.13742 3.84037
# Velocity P-wave (km/s) = 4.80065 5.96252 5.41285
#
# Compressibility (1/GPa) = 0.06203358
#
# Stress axis : x y z
#
# Youngs Moduli (GPa) = 61.71312 56.76839 44.97719
#
# Poissons Ratio (x) = -0.31649 0.01101
# Poissons Ratio (y) = -0.34406 0.10525
# Poissons Ratio (z) = 0.01510 0.13285
#
# Static dielectric constant tensor:
#      x y z
#    x 2.017960 0.013860 0.036780 
#    y 0.013860 1.959370 -0.053310 
#    z 0.036780 -0.053310 1.995130 
# 
# From -- ./inp_files/280207.got.cif
#   From: 2010.05.17/outbox.cif.g08.bks.cpg/sg2_141_cif.got.tgz:280207.got - 2010.06.03 11:33:40.
