data_PCOD9057626
_publ_section_title
;
Structure prediction by ZEFSAII (Michael W. Deem and Ramdas Pophale) SiO2 
 PCOD9057626
Probable space group: P -1
;
_chemical_formula_sum "Si O2"
_cell_formula_units_Z 16
_cell_length_a 11.376764
_cell_length_b 15.648771
_cell_length_c 15.009352
_cell_angle_alpha 153.124790
_cell_angle_beta 140.810183
_cell_angle_gamma 37.187125
_cell_volume 709.510899
_symmetry_space_group_name_H-M "P -1"
_symmetry_group_IT_number 2
_symmetry_cell_setting 'triclinic'
loop_
_space_group_symop_operation_xyz
x,y,z
-x,-y,-z
loop_
_atom_site_type_symbol
_atom_site_label
_atom_site_fract_x
_atom_site_fract_y
_atom_site_fract_z
Si Si1 0.086485 0.872634 0.792924
Si Si2 0.906217 0.638015 0.205134
Si Si3 0.269928 0.051278 0.223584
Si Si4 0.992701 0.001556 0.667091
Si Si5 0.475030 0.392128 0.973966
Si Si6 0.568729 0.291381 0.607189
Si Si7 0.468078 0.575460 0.652266
Si Si8 0.759462 0.773316 0.052014
O O1 0.246600 0.673736 0.655370
O O2 0.193219 0.983823 0.024332
O O3 0.922597 0.829390 0.717567
O O4 0.985153 0.015377 0.782061
O O5 0.068115 0.428398 0.072750
O O6 0.005874 0.780221 0.440147
O O7 0.750930 0.598179 0.142323
O O8 0.780617 0.753971 0.152825
O O9 0.419335 0.169580 0.405785
O O10 0.385704 0.842237 0.150487
O O11 0.788396 0.153874 0.644145
O O12 0.181170 0.045848 0.781490
O O13 0.511616 0.518786 0.195929
O O14 0.500000 0.500000 0.000000
O O15 0.583994 0.387528 0.610537
O O16 0.500000 0.500000 0.500000
O O17 0.556862 0.752808 0.882581
#
# Coordination Sequence:
#
# PCOD9057626 Si02
#       8
#     2   2   2   2   2   2   2   2
#     4  11  27  51  69 111 152 191 252 305 372 447
#     4  11  22  43  66 109 146 181 239 307 362 436
#     4  11  26  50  77 105 155 194 245 308 373 450
#     4  12  25  42  76 110 141 192 247 304 369 433
#     4  12  24  45  78 110 148 189 242 313 371 437
#     4  12  25  48  80 110 146 195 250 305 374 439
#     4  12  27  50  73 107 154 203 248 301 374 445
#     4  11  23  44  69  99 151 188 242 304 362 430
#
# _framework density 22.550747000000001
#
# number of rings (size 3 to 8) (size 9 to 14) (size 15 to 20)
#    0.000    0.500    5.000    2.625    3.500    3.000 
#    0.000    0.000    0.000    0.000    0.000    0.000 
#    0.000    0.000    0.000    0.000    0.000    0.000 
#
# Total GULP energy -89632.142085 kJ/mol
# GULP energy per Si atom -5602.008880 kJ/mol
# Density = 2.249942 g / cm^3
# Si number density = 22.550747 Si / 1000 Ang^3
#
#
#
# Elastic Constant Matrix: (Units=GPa)
#
#
# Indices 1 2 3 4 5 6 
#
# 1 155.2766 44.8176 58.5929 -1.2941 4.1485 16.7702
# 2 44.8176 85.0572 25.1700 -14.8989 -2.5640 12.2475
# 3 58.5929 25.1700 122.8563 7.0417 25.7424 15.4680
# 4 -1.2941 -14.8989 7.0417 21.2778 1.5094 -5.5775
# 5 4.1485 -2.5640 25.7424 1.5094 42.4036 2.6155
# 6 16.7702 12.2475 15.4680 -5.5775 2.6155 47.1263
#
#
#
# Elastic Compliance Matrix: (Units=1/GPa)
#
#
# Indices 1 2 3 4 5 6 
#
# 1 0.008920 -0.003665 -0.003512 -0.001281 0.001162 -0.001285
# 2 -0.003665 0.016865 -0.002868 0.012117 0.002741 -0.000855
# 3 -0.003512 -0.002868 0.012576 -0.006541 -0.007077 -0.002514
# 4 -0.001281 0.012117 -0.006541 0.059058 0.002337 0.006314
# 5 0.001162 0.002741 -0.007077 0.002337 0.027852 -0.000072
# 6 -0.001285 -0.000855 -0.002514 0.006314 -0.000072 0.023476
#
#
# Mechanical properties :
#
#
# Convention : Reuss Voigt Hill
#
# Bulk Modulus (GPa) = 54.73126 68.92791 61.82959
# Shear Modulus (GPa) = 28.58317 37.80218 33.19268
#
# Velocity S-wave (km/s) = 3.56407 4.09873 3.84071
# Velocity P-wave (km/s) = 6.42337 7.28227 6.86626
#
# Compressibility (1/GPa) = 0.01827109
#
# Stress axis : x y z
#
# Youngs Moduli (GPa) = 112.10485 59.29416 79.51489
#
# Poissons Ratio (x) = 0.21733 0.27923
# Poissons Ratio (y) = 0.41090 0.22807
# Poissons Ratio (z) = 0.39367 0.17007
#
# Static dielectric constant tensor:
#      x y z
#    x 1.818840 -0.034910 -0.006690 
#    y -0.034910 1.892060 0.002560 
#    z -0.006690 0.002560 1.806840 
# 
# From -- ./inp_files/521957.got.cif
#   From: 2010.05.17/outbox.cif.g08.bks.cpg/sg2_261_cif.got.tgz:521957.got - 2010.06.03 11:33:40.
