data_PCOD9057895
_publ_section_title
;
Structure prediction by ZEFSAII (Michael W. Deem and Ramdas Pophale) SiO2 
 PCOD9057895
Probable space group: P -1
;
_chemical_formula_sum "Si O2"
_cell_formula_units_Z 16
_cell_length_a 9.543349
_cell_length_b 12.535225
_cell_length_c 21.689836
_cell_angle_alpha 28.789561
_cell_angle_beta 45.865577
_cell_angle_gamma 34.553629
_cell_volume 705.660465
_symmetry_space_group_name_H-M "P -1"
_symmetry_group_IT_number 2
_symmetry_cell_setting 'triclinic'
loop_
_space_group_symop_operation_xyz
x,y,z
-x,-y,-z
loop_
_atom_site_type_symbol
_atom_site_label
_atom_site_fract_x
_atom_site_fract_y
_atom_site_fract_z
Si Si1 0.264457 0.867483 0.626517
Si Si2 0.995426 0.886482 0.147111
Si Si3 0.423450 0.876645 0.439174
Si Si4 0.452954 0.366510 0.216314
Si Si5 0.053205 0.275058 0.252191
Si Si6 0.955718 0.501415 0.440551
Si Si7 0.668642 0.920075 0.049037
Si Si8 0.455918 0.275385 0.055941
O O1 0.382273 0.790909 0.561087
O O2 0.451050 0.685645 0.716672
O O3 0.055595 0.825824 0.711013
O O4 0.143363 0.191218 0.512337
O O5 0.168456 0.648952 0.161859
O O6 0.991746 0.711928 0.291217
O O7 0.717361 0.103273 0.098399
O O8 0.136881 0.014582 0.053938
O O9 0.671794 0.619566 0.459971
O O10 0.471674 0.102870 0.323291
O O11 0.185436 0.047685 0.381599
O O12 0.603981 0.431874 0.094699
O O13 0.254832 0.293684 0.149489
O O14 0.826639 0.590014 0.182512
O O15 0.000000 0.500000 0.500000
O O16 0.503652 0.108507 0.062441
O O17 0.500000 0.000000 0.000000
#
# Coordination Sequence:
#
# PCOD9057895 Si02
#       8
#     2   2   2   2   2   2   2   2
#     4  12  27  46  66 102 146 183 230 288 343 418
#     4  11  22  45  71 100 139 177 232 291 341 407
#     4  12  24  44  69 102 136 186 237 279 346 415
#     4  11  22  43  73  97 137 179 231 295 344 405
#     4  12  27  44  71 103 143 187 226 284 356 415
#     4  12  25  42  71 104 134 184 240 286 342 404
#     4  11  26  45  70 105 141 181 226 289 356 412
#     4  11  25  45  70 106 137 180 236 291 343 410
#
# _framework density 22.673794999999998
#
# number of rings (size 3 to 8) (size 9 to 14) (size 15 to 20)
#    0.000    0.500    3.750    6.000    1.750    5.500 
#    0.000    0.000    0.000    0.000    0.000    0.000 
#    0.000    0.000    0.000    0.000    0.000    0.000 
#
# Total GULP energy -89653.835724 kJ/mol
# GULP energy per Si atom -5603.364733 kJ/mol
# Density = 2.262219 g / cm^3
# Si number density = 22.673795 Si / 1000 Ang^3
#
#
#
# Elastic Constant Matrix: (Units=GPa)
#
#
# Indices 1 2 3 4 5 6 
#
# 1 93.5946 9.1376 8.4382 -3.6433 5.0545 -6.5948
# 2 9.1376 58.4538 12.4773 9.3080 5.3647 -5.6295
# 3 8.4382 12.4773 97.4282 11.7540 3.0666 -6.4782
# 4 -3.6433 9.3080 11.7540 38.2633 -2.7232 3.2043
# 5 5.0545 5.3647 3.0666 -2.7232 32.8491 1.9120
# 6 -6.5948 -5.6295 -6.4782 3.2043 1.9120 28.6959
#
#
#
# Elastic Compliance Matrix: (Units=1/GPa)
#
#
# Indices 1 2 3 4 5 6 
#
# 1 0.011172 -0.001478 -0.000765 0.001387 -0.001410 0.002044
# 2 -0.001478 0.019100 -0.001358 -0.004937 -0.003400 0.003879
# 3 -0.000765 -0.001358 0.011125 -0.003452 -0.001133 0.002530
# 4 0.001387 -0.004937 -0.003452 0.029199 0.003623 -0.004931
# 5 -0.001410 -0.003400 -0.001133 0.003623 0.031840 -0.003773
# 6 0.002044 0.003879 0.002530 -0.004931 -0.003773 0.037452
#
#
# Mechanical properties :
#
#
# Convention : Reuss Voigt Hill
#
# Bulk Modulus (GPa) = 29.24379 34.39808 31.82094
# Shear Modulus (GPa) = 31.54832 34.58989 33.06910
#
# Velocity S-wave (km/s) = 3.73419 3.91006 3.82314
# Velocity P-wave (km/s) = 5.61408 5.96561 5.79251
#
# Compressibility (1/GPa) = 0.03419529
#
# Stress axis : x y z
#
# Youngs Moduli (GPa) = 89.51118 52.35592 89.89165
#
# Poissons Ratio (x) = 0.07736 0.06880
# Poissons Ratio (y) = 0.13226 0.12204
# Poissons Ratio (z) = 0.06851 0.07108
#
# Static dielectric constant tensor:
#      x y z
#    x 1.834710 -0.029480 0.010570 
#    y -0.029480 1.893660 -0.010440 
#    z 0.010570 -0.010440 1.833230 
# 
# From -- ./inp_files/428464.got.cif
#   From: 2010.05.17/outbox.cif.g08.bks.cpg/sg2_215_cif.got.tgz:428464.got - 2010.06.03 11:33:40.
