data_PCOD9057105
_publ_section_title
;
Structure prediction by ZEFSAII (Michael W. Deem and Ramdas Pophale) SiO2 
 PCOD9057105
Probable space group: P -1
;
_chemical_formula_sum "Si O2"
_cell_formula_units_Z 16
_cell_length_a 12.074914
_cell_length_b 5.316763
_cell_length_c 17.548098
_cell_angle_alpha 123.068003
_cell_angle_beta 47.353179
_cell_angle_gamma 133.420957
_cell_volume 595.085335
_symmetry_space_group_name_H-M "P -1"
_symmetry_group_IT_number 2
_symmetry_cell_setting 'triclinic'
loop_
_space_group_symop_operation_xyz
x,y,z
-x,-y,-z
loop_
_atom_site_type_symbol
_atom_site_label
_atom_site_fract_x
_atom_site_fract_y
_atom_site_fract_z
Si Si1 0.355804 0.617522 0.265004
Si Si2 0.994204 0.996402 0.364070
Si Si3 0.362245 0.461570 0.492528
Si Si4 0.362815 0.574922 0.937987
Si Si5 0.787363 0.386006 0.827829
Si Si6 0.095706 0.120699 0.777576
Si Si7 0.186707 0.762943 0.918695
Si Si8 0.597575 0.919046 0.331586
O O1 0.453532 0.403723 0.163632
O O2 0.321020 0.731962 0.219340
O O3 0.488749 0.918441 0.309695
O O4 0.168033 0.374374 0.352401
O O5 0.836485 0.864902 0.475614
O O6 0.892850 0.976397 0.330196
O O7 0.076036 0.750546 0.266154
O O8 0.500000 0.500000 0.500000
O O9 0.458743 0.573860 0.385895
O O10 0.335710 0.768845 0.588310
O O11 0.314887 0.751478 0.921001
O O12 0.236945 0.150477 0.937504
O O13 0.327308 0.705014 0.056972
O O14 0.902257 0.813971 0.840536
O O15 0.157670 0.526850 0.818644
O O16 0.234173 0.108493 0.766527
O O17 0.000000 0.500000 0.000000
#
# Coordination Sequence:
#
# PCOD9057105 Si02
#       8
#     2   2   2   2   2   2   2   2
#     4  11  28  45  67 106 148 192 237 296 366 438
#     4  11  25  45  72 102 142 191 238 298 372 438
#     4  11  24  44  78 103 135 179 240 304 373 438
#     4  12  27  44  71 108 148 205 249 299 358 435
#     4  11  25  45  68  98 150 195 240 291 359 434
#     4  11  22  41  70 103 139 186 241 305 356 429
#     4  12  25  41  72 109 145 192 256 310 356 418
#     4  11  24  45  71 107 136 179 241 303 366 435
#
# _framework density 26.886897999999999
#
# number of rings (size 3 to 8) (size 9 to 14) (size 15 to 20)
#    0.000    0.750    5.000    1.500    7.000    2.000 
#    0.000    1.250    0.000    0.000    0.000    0.000 
#    0.000    0.000    0.000    0.000    0.000    0.000 
#
# Total GULP energy -89519.661193 kJ/mol
# GULP energy per Si atom -5594.978825 kJ/mol
# Density = 2.682570 g / cm^3
# Si number density = 26.886898 Si / 1000 Ang^3
#
#
#
# Elastic Constant Matrix: (Units=GPa)
#
#
# Indices 1 2 3 4 5 6 
#
# 1 149.9871 12.2425 32.2301 -9.0369 4.2861 12.8739
# 2 12.2425 122.8000 18.9884 -19.9561 -4.7782 15.6902
# 3 32.2301 18.9884 36.4604 -23.0085 -1.7198 1.6681
# 4 -9.0369 -19.9561 -23.0085 55.8675 10.9591 -11.7779
# 5 4.2861 -4.7782 -1.7198 10.9591 43.3206 0.6599
# 6 12.8739 15.6902 1.6681 -11.7779 0.6599 35.8085
#
#
#
# Elastic Compliance Matrix: (Units=1/GPa)
#
#
# Indices 1 2 3 4 5 6 
#
# 1 0.008966 0.000657 -0.010187 -0.003318 -0.000317 -0.004122
# 2 0.000657 0.009466 -0.005022 0.000427 0.000733 -0.004023
# 3 -0.010187 -0.005022 0.051325 0.020409 -0.002827 0.010237
# 4 -0.003318 0.000427 0.020409 0.029231 -0.006358 0.009786
# 5 -0.000317 0.000733 -0.002827 -0.006358 0.024732 -0.002623
# 6 -0.004122 -0.004023 0.010237 0.009786 -0.002623 0.033961
#
#
# Mechanical properties :
#
#
# Convention : Reuss Voigt Hill
#
# Bulk Modulus (GPa) = 24.59920 48.46327 36.53123
# Shear Modulus (GPa) = 24.95774 43.38507 34.17141
#
# Velocity S-wave (km/s) = 3.05002 4.02134 3.56888
# Velocity P-wave (km/s) = 4.64462 6.29488 5.53164
#
# Compressibility (1/GPa) = 0.04065174
#
# Stress axis : x y z
#
# Youngs Moduli (GPa) = 111.53573 105.63650 19.48353
#
# Poissons Ratio (x) = -0.06936 0.19849
# Poissons Ratio (y) = -0.07324 0.09785
# Poissons Ratio (z) = 1.13626 0.53052
#
# Static dielectric constant tensor:
#      x y z
#    x 2.034570 -0.015730 -0.041080 
#    y -0.015730 2.197500 0.035780 
#    z -0.041080 0.035780 2.295110 
# 
# From -- ./inp_files/47023.got.cif
#   From: 2010.05.17/outbox.cif.g08.bks.cpg/sg2_24_cif.got.tgz:47023.got - 2010.06.03 11:33:40.
