data_PCOD9057280
_publ_section_title
;
Structure prediction by ZEFSAII (Michael W. Deem and Ramdas Pophale) SiO2 
 PCOD9057280
Probable space group: P -1
;
_chemical_formula_sum "Si O2"
_cell_formula_units_Z 16
_cell_length_a 10.986041
_cell_length_b 7.340480
_cell_length_c 16.693964
_cell_angle_alpha 49.866792
_cell_angle_beta 38.666034
_cell_angle_gamma 64.804648
_cell_volume 634.531697
_symmetry_space_group_name_H-M "P -1"
_symmetry_group_IT_number 2
_symmetry_cell_setting 'triclinic'
loop_
_space_group_symop_operation_xyz
x,y,z
-x,-y,-z
loop_
_atom_site_type_symbol
_atom_site_label
_atom_site_fract_x
_atom_site_fract_y
_atom_site_fract_z
Si Si1 0.290686 0.281205 0.640699
Si Si2 0.885216 0.267590 0.389622
Si Si3 0.873532 0.823039 0.417544
Si Si4 0.779808 0.687090 0.074661
Si Si5 0.267460 0.937845 0.122759
Si Si6 0.209632 0.781300 0.887696
Si Si7 0.382209 0.626495 0.369930
Si Si8 0.282176 0.556249 0.085033
O O1 0.776077 0.242932 0.538943
O O2 0.166530 0.155494 0.663296
O O3 0.451900 0.461438 0.454453
O O4 0.323561 0.053297 0.739400
O O5 0.833840 0.526240 0.312670
O O6 0.120879 0.319436 0.252854
O O7 0.810916 0.039391 0.438106
O O8 0.736627 0.566777 0.575720
O O9 0.108648 0.833012 0.301258
O O10 0.749476 0.401774 0.152637
O O11 0.579629 0.758095 0.192538
O O12 0.802528 0.816622 0.940396
O O13 0.973553 0.775829 0.001808
O O14 0.242508 0.746193 0.118577
O O15 0.500000 0.000000 0.000000
O O16 0.260284 0.670946 0.976851
O O17 0.500000 0.500000 0.000000
#
# Coordination Sequence:
#
# PCOD9057280 Si02
#       8
#     2   2   2   2   2   2   2   2
#     4   8  19  39  61  96 133 173 205 271 323 384
#     4   9  18  38  67  93 132 176 213 269 324 387
#     4   9  17  40  65  92 133 179 213 266 324 382
#     4  11  22  42  66 103 131 175 218 268 338 381
#     4  12  23  43  70  97 129 174 226 271 329 389
#     4  11  23  40  68  97 134 167 222 280 319 393
#     4   8  20  40  64  96 139 172 213 266 326 401
#     4  12  24  42  69  99 126 170 228 275 327 390
#
# _framework density 25.215446
#
# number of rings (size 3 to 8) (size 9 to 14) (size 15 to 20)
#    1.500    0.250    3.750    2.250    1.750    2.500 
#    2.250    1.250    0.000    1.500    0.000    0.000 
#    0.000    0.000    0.000    0.000    0.000    0.000 
#
# Total GULP energy -89365.228763 kJ/mol
# GULP energy per Si atom -5585.326798 kJ/mol
# Density = 2.515805 g / cm^3
# Si number density = 25.215446 Si / 1000 Ang^3
#
#
#
# Elastic Constant Matrix: (Units=GPa)
#
#
# Indices 1 2 3 4 5 6 
#
# 1 82.0416 34.0667 26.0480 -1.6313 -9.5864 -3.8628
# 2 34.0667 128.9420 7.6118 -0.5400 5.9747 25.2163
# 3 26.0480 7.6118 103.4166 22.5023 -12.6381 -13.3673
# 4 -1.6313 -0.5400 22.5023 27.1625 -9.2206 0.8331
# 5 -9.5864 5.9747 -12.6381 -9.2206 33.4053 1.6050
# 6 -3.8628 25.2163 -13.3673 0.8331 1.6050 43.9350
#
#
#
# Elastic Compliance Matrix: (Units=1/GPa)
#
#
# Indices 1 2 3 4 5 6 
#
# 1 0.016389 -0.004844 -0.004066 0.006068 0.005578 0.002666
# 2 -0.004844 0.010511 -0.000716 -0.000423 -0.003343 -0.006546
# 3 -0.004066 -0.000716 0.013971 -0.011698 0.000802 0.004497
# 4 0.006068 -0.000423 -0.011698 0.050947 0.011654 -0.004175
# 5 0.005578 -0.003343 0.000802 0.011654 0.035600 0.001132
# 6 0.002666 -0.006546 0.004497 -0.004175 0.001132 0.028158
#
#
# Mechanical properties :
#
#
# Convention : Reuss Voigt Hill
#
# Bulk Modulus (GPa) = 46.25575 49.98370 48.11972
# Shear Modulus (GPa) = 27.46724 37.34549 32.40637
#
# Velocity S-wave (km/s) = 3.30404 3.85262 3.58883
# Velocity P-wave (km/s) = 5.73930 6.29730 6.02476
#
# Compressibility (1/GPa) = 0.02161894
#
# Stress axis : x y z
#
# Youngs Moduli (GPa) = 61.01536 95.13847 71.57710
#
# Poissons Ratio (x) = 0.46089 0.29100
# Poissons Ratio (y) = 0.29559 0.05126
# Poissons Ratio (z) = 0.24806 0.06814
#
# Static dielectric constant tensor:
#      x y z
#    x 2.084870 0.003980 -0.035520 
#    y 0.003980 1.997060 -0.012310 
#    z -0.035520 -0.012310 1.996750 
# 
# From -- ./inp_files/594029.got.cif
#   From: 2010.05.17/outbox.cif.g08.bks.cpg/sg2_298_cif.got.tgz:594029.got - 2010.06.03 11:33:40.
