data_PCOD9057597
_publ_section_title
;
Structure prediction by ZEFSAII (Michael W. Deem and Ramdas Pophale) SiO2 
 PCOD9057597
Probable space group: P -1
;
_chemical_formula_sum "Si O2"
_cell_formula_units_Z 14
_cell_length_a 21.710813
_cell_length_b 6.872627
_cell_length_c 9.929104
_cell_angle_alpha 132.744656
_cell_angle_beta 46.354054
_cell_angle_gamma 135.375558
_cell_volume 699.970060
_symmetry_space_group_name_H-M "P -1"
_symmetry_group_IT_number 2
_symmetry_cell_setting 'triclinic'
loop_
_space_group_symop_operation_xyz
x,y,z
-x,-y,-z
loop_
_atom_site_type_symbol
_atom_site_label
_atom_site_fract_x
_atom_site_fract_y
_atom_site_fract_z
Si Si1 0.737035 0.215942 0.489860
Si Si2 0.741709 0.590350 0.188087
Si Si3 0.609290 0.249941 0.458087
Si Si4 0.953471 0.709696 0.339199
Si Si5 0.529711 0.646990 0.879158
Si Si6 0.944807 0.708384 0.035047
Si Si7 0.643833 0.323272 0.950099
O O1 0.674056 0.183347 0.435724
O O2 0.843175 0.489181 0.440469
O O3 0.683696 0.275287 0.725134
O O4 0.745562 0.912201 0.356212
O O5 0.655181 0.336437 0.282814
O O6 0.835129 0.581606 0.099432
O O7 0.726623 0.521938 0.020642
O O8 0.601843 0.539604 0.657790
O O9 0.500000 0.000000 0.500000
O O10 0.955799 0.786632 0.213578
O O11 0.000000 0.000000 0.500000
O O12 0.013262 0.521530 0.167705
O O13 0.582102 0.002408 0.961559
O O14 0.500000 0.500000 0.000000
O O15 0.430946 0.544945 0.898483
O O16 0.000000 0.000000 0.000000
#
# Coordination Sequence:
#
# PCOD9057597 Si02
#       7
#     2   2   2   2   2   2   2
#     4  12  25  46  68 101 138 178 235 284 341 429
#     4  12  26  45  69 102 138 183 230 281 353 412
#     4  12  25  43  69  97 144 188 224 285 345 403
#     4  11  27  47  74 105 137 180 234 291 354 423
#     4  11  22  43  62  95 140 177 229 281 328 398
#     4  11  25  48  72 101 143 177 228 295 352 420
#     4  11  26  40  68  98 132 181 231 277 335 406
#
# _framework density 20.000857
#
# number of rings (size 3 to 8) (size 9 to 14) (size 15 to 20)
#    0.000    0.571    5.714    1.714    4.000    4.000 
#    2.571    0.000    0.000    0.000    0.000    0.000 
#    0.000    0.000    0.000    0.000    0.000    0.000 
#
# Total GULP energy -78276.857969 kJ/mol
# GULP energy per Si atom -5591.204141 kJ/mol
# Density = 1.995533 g / cm^3
# Si number density = 20.000857 Si / 1000 Ang^3
#
#
#
# Elastic Constant Matrix: (Units=GPa)
#
#
# Indices 1 2 3 4 5 6 
#
# 1 141.0541 51.2248 45.0474 9.6490 -5.6975 -1.0446
# 2 51.2248 121.6024 29.0030 -18.6163 6.7527 2.4784
# 3 45.0474 29.0030 75.8789 -5.8087 10.1843 -2.6497
# 4 9.6490 -18.6163 -5.8087 24.4527 1.6398 3.1674
# 5 -5.6975 6.7527 10.1843 1.6398 37.6672 -1.3360
# 6 -1.0446 2.4784 -2.6497 3.1674 -1.3360 36.8137
#
#
#
# Elastic Compliance Matrix: (Units=1/GPa)
#
#
# Indices 1 2 3 4 5 6 
#
# 1 0.012220 -0.005598 -0.006618 -0.011184 0.005178 0.001397
# 2 -0.005598 0.012782 -0.000191 0.012433 -0.003707 -0.002237
# 3 -0.006618 -0.000191 0.018593 0.007265 -0.006299 0.000310
# 4 -0.011184 0.012433 0.007265 0.057844 -0.008613 -0.005921
# 5 0.005178 -0.003707 -0.006299 -0.008613 0.030137 0.001778
# 6 0.001397 -0.002237 0.000310 -0.005921 0.001778 0.027950
#
#
# Mechanical properties :
#
#
# Convention : Reuss Voigt Hill
#
# Bulk Modulus (GPa) = 53.24134 65.45397 59.34766
# Shear Modulus (GPa) = 26.23294 34.00407 30.11850
#
# Velocity S-wave (km/s) = 3.62552 4.12774 3.88475
# Velocity P-wave (km/s) = 6.64855 7.45079 7.06107
#
# Compressibility (1/GPa) = 0.01878240
#
# Stress axis : x y z
#
# Youngs Moduli (GPa) = 81.83182 78.23557 53.78344
#
# Poissons Ratio (x) = 0.43793 0.35591
# Poissons Ratio (y) = 0.45806 0.01029
# Poissons Ratio (z) = 0.54153 0.01497
#
# Static dielectric constant tensor:
#      x y z
#    x 1.686370 -0.032200 0.035000 
#    y -0.032200 1.650050 0.067330 
#    z 0.035000 0.067330 1.625640 
# 
# From -- ./inp_files/39061.got.cif
#   From: 2010.05.17/outbox.cif.g08.bks.cpg/sg2_20_cif.got.tgz:39061.got - 2010.06.03 11:33:40.
