data_PCOD9057458
_publ_section_title
;
Structure prediction by ZEFSAII (Michael W. Deem and Ramdas Pophale) SiO2 
 PCOD9057458
Probable space group: P -1
;
_chemical_formula_sum "Si O2"
_cell_formula_units_Z 14
_cell_length_a 7.137435
_cell_length_b 15.759669
_cell_length_c 5.207886
_cell_angle_alpha 87.943799
_cell_angle_beta 107.317056
_cell_angle_gamma 64.971790
_cell_volume 497.790805
_symmetry_space_group_name_H-M "P -1"
_symmetry_group_IT_number 2
_symmetry_cell_setting 'triclinic'
loop_
_space_group_symop_operation_xyz
x,y,z
-x,-y,-z
loop_
_atom_site_type_symbol
_atom_site_label
_atom_site_fract_x
_atom_site_fract_y
_atom_site_fract_z
Si Si1 0.312114 0.915400 0.710254
Si Si2 0.701409 0.911718 0.721487
Si Si3 0.471622 0.284925 0.014449
Si Si4 0.037133 0.882278 0.244938
Si Si5 0.903839 0.736850 0.452278
Si Si6 0.868399 0.581036 0.726233
Si Si7 0.448790 0.454196 0.732896
O O1 0.552982 0.902270 0.889128
O O2 0.330217 0.820163 0.861348
O O3 0.257840 0.889992 0.402755
O O4 0.143092 0.025173 0.678608
O O5 0.772468 0.820197 0.588682
O O6 0.500000 0.000000 0.500000
O O7 0.917218 0.911917 0.920026
O O8 0.356758 0.343271 0.222735
O O9 0.264166 0.280669 0.794727
O O10 0.563894 0.343266 0.873344
O O11 0.039035 0.783089 0.347077
O O12 0.996518 0.640585 0.673919
O O13 0.783192 0.540700 0.458130
O O14 0.000000 0.500000 0.000000
O O15 0.500000 0.500000 0.500000
O O16 0.500000 0.500000 0.000000
#
# Coordination Sequence:
#
# PCOD9057458 Si02
#       7
#     2   2   2   2   2   2   2
#     4  11  23  43  69 100 144 181 243 295 355 441
#     4  12  22  41  69  96 141 194 230 296 362 431
#     4  11  23  46  72 101 143 193 238 296 378 437
#     4  11  24  43  64 106 139 186 239 294 358 434
#     4  11  22  42  70  99 143 188 238 289 374 435
#     4  11  25  45  76 105 139 192 249 305 372 452
#     4  11  24  47  72 105 143 187 245 305 379 441
#
# _framework density 28.124261000000001
#
# number of rings (size 3 to 8) (size 9 to 14) (size 15 to 20)
#    0.000    0.857    5.714    1.286    0.000    4.000 
#    7.714    0.000    0.000    0.000    0.000    0.000 
#    0.000    0.000    0.000    0.000    0.000    0.000 
#
# Total GULP energy -78147.632432 kJ/mol
# GULP energy per Si atom -5581.973745 kJ/mol
# Density = 2.806025 g / cm^3
# Si number density = 28.124261 Si / 1000 Ang^3
#
#
#
# Elastic Constant Matrix: (Units=GPa)
#
#
# Indices 1 2 3 4 5 6 
#
# 1 96.8512 40.9779 33.9102 2.8837 17.1428 13.5000
# 2 40.9779 188.6818 90.6329 -14.8289 -10.1411 38.1843
# 3 33.9102 90.6329 176.6669 5.7672 8.6517 20.0922
# 4 2.8837 -14.8289 5.7672 78.3229 24.9049 -18.1872
# 5 17.1428 -10.1411 8.6517 24.9049 44.8112 -3.7256
# 6 13.5000 38.1843 20.0922 -18.1872 -3.7256 51.7002
#
#
#
# Elastic Compliance Matrix: (Units=1/GPa)
#
#
# Indices 1 2 3 4 5 6 
#
# 1 0.012811 -0.002344 -0.000827 0.000627 -0.005744 -0.001486
# 2 -0.002344 0.008545 -0.003629 0.000018 0.003184 -0.004053
# 3 -0.000827 -0.003629 0.007852 -0.000863 -0.001589 -0.000573
# 4 0.000627 0.000018 -0.000863 0.016956 -0.009038 0.005472
# 5 -0.005744 0.003184 -0.001589 -0.009038 0.030462 -0.001219
# 6 -0.001486 -0.004053 -0.000573 0.005472 -0.001219 0.024784
#
#
# Mechanical properties :
#
#
# Convention : Reuss Voigt Hill
#
# Bulk Modulus (GPa) = 64.06758 88.13800 76.10279
# Shear Modulus (GPa) = 41.59247 54.74545 48.16896
#
# Velocity S-wave (km/s) = 3.84980 4.41677 4.14299
# Velocity P-wave (km/s) = 6.52617 7.57742 7.07135
#
# Compressibility (1/GPa) = 0.01560852
#
# Stress axis : x y z
#
# Youngs Moduli (GPa) = 78.05493 117.02540 127.35275
#
# Poissons Ratio (x) = 0.27430 0.10529
# Poissons Ratio (y) = 0.18296 0.46222
# Poissons Ratio (z) = 0.06453 0.42474
#
# Static dielectric constant tensor:
#      x y z
#    x 2.520860 0.122480 -0.251490 
#    y 0.122480 2.257410 -0.114480 
#    z -0.251490 -0.114480 2.285740 
# 
# From -- ./inp_files/39070.got.cif
#   From: 2010.05.17/outbox.cif.g08.bks.cpg/sg2_20_cif.got.tgz:39070.got - 2010.06.03 11:33:40.
