data_PCOD9057326
_publ_section_title
;
Structure prediction by ZEFSAII (Michael W. Deem and Ramdas Pophale) SiO2 
 PCOD9057326
Probable space group: P -1
;
_chemical_formula_sum "Si O2"
_cell_formula_units_Z 12
_cell_length_a 10.832891
_cell_length_b 13.899168
_cell_length_c 10.043375
_cell_angle_alpha 131.396254
_cell_angle_beta 48.726117
_cell_angle_gamma 150.214756
_cell_volume 548.386198
_symmetry_space_group_name_H-M "P -1"
_symmetry_group_IT_number 2
_symmetry_cell_setting 'triclinic'
loop_
_space_group_symop_operation_xyz
x,y,z
-x,-y,-z
loop_
_atom_site_type_symbol
_atom_site_label
_atom_site_fract_x
_atom_site_fract_y
_atom_site_fract_z
Si Si1 0.962174 0.806373 0.496567
Si Si2 0.684531 0.594988 0.757282
Si Si3 0.862278 0.639737 0.959823
Si Si4 0.610012 0.938625 0.934918
Si Si5 0.621992 0.757973 0.519358
Si Si6 0.142877 0.626947 0.150791
O O1 0.842367 0.764117 0.687215
O O2 0.755932 0.710488 0.439445
O O3 0.057740 0.717980 0.336819
O O4 0.184825 0.039001 0.515702
O O5 0.840335 0.661413 0.840360
O O6 0.607582 0.419432 0.573080
O O7 0.412950 0.492545 0.900351
O O8 0.909939 0.517840 0.840324
O O9 0.093644 0.858250 0.059964
O O10 0.562100 0.800459 0.733855
O O11 0.442230 0.812324 0.068989
O O12 0.500000 0.000000 0.000000
O O13 0.000000 0.500000 0.000000
#
# Coordination Sequence:
#
# PCOD9057326 Si02
#       6
#     2   2   2   2   2   2
#     4  11  23  39  68  99 128 171 222 270 321 379
#     4  11  25  45  67  94 137 174 216 267 326 390
#     4  11  26  45  65  98 133 176 216 266 330 386
#     4  12  23  43  69  96 131 169 219 270 320 387
#     4  11  22  42  67  99 127 171 224 264 318 389
#     4  12  22  40  69  99 130 170 217 271 325 382
#
# _framework density 21.882387999999999
#
# number of rings (size 3 to 8) (size 9 to 14) (size 15 to 20)
#    0.000    0.667    3.333    5.500    0.000    2.000 
#    0.000    5.833    0.000    0.000    0.000    0.000 
#    0.000    0.000    0.000    0.000    0.000    0.000 
#
# Total GULP energy -67160.989937 kJ/mol
# GULP energy per Si atom -5596.749161 kJ/mol
# Density = 2.183258 g / cm^3
# Si number density = 21.882388 Si / 1000 Ang^3
#
#
#
# Elastic Constant Matrix: (Units=GPa)
#
#
# Indices 1 2 3 4 5 6 
#
# 1 93.0245 13.4384 49.2563 6.9943 5.7585 -4.8833
# 2 13.4384 73.2409 28.1986 -17.9332 -6.6199 -8.0016
# 3 49.2563 28.1986 105.7831 -9.2160 -0.3052 -5.1981
# 4 6.9943 -17.9332 -9.2160 37.8222 -7.4949 4.2326
# 5 5.7585 -6.6199 -0.3052 -7.4949 32.4344 -0.1803
# 6 -4.8833 -8.0016 -5.1981 4.2326 -0.1803 32.8573
#
#
#
# Elastic Compliance Matrix: (Units=1/GPa)
#
#
# Indices 1 2 3 4 5 6 
#
# 1 0.015836 -0.002005 -0.007371 -0.006811 -0.004855 0.001550
# 2 -0.002005 0.018276 -0.002990 0.009256 0.006211 0.002521
# 3 -0.007371 -0.002990 0.014006 0.003700 0.001685 -0.000075
# 4 -0.006811 0.009256 0.003700 0.035535 0.011330 -0.002688
# 5 -0.004855 0.006211 0.001685 0.011330 0.035594 -0.000207
# 6 0.001550 0.002521 -0.000075 -0.002688 -0.000207 0.031612
#
#
# Mechanical properties :
#
#
# Convention : Reuss Voigt Hill
#
# Bulk Modulus (GPa) = 42.75915 50.42611 46.59263
# Shear Modulus (GPa) = 27.26480 32.69980 29.98230
#
# Velocity S-wave (km/s) = 3.53366 3.86987 3.70558
# Velocity P-wave (km/s) = 6.01929 6.56216 6.29658
#
# Compressibility (1/GPa) = 0.02338681
#
# Stress axis : x y z
#
# Youngs Moduli (GPa) = 63.14622 54.71685 71.39838
#
# Poissons Ratio (x) = 0.10971 0.52625
# Poissons Ratio (y) = 0.12661 0.21348
# Poissons Ratio (z) = 0.46543 0.16360
#
# Static dielectric constant tensor:
#      x y z
#    x 1.785160 0.022650 -0.054330 
#    y 0.022650 1.847710 -0.038850 
#    z -0.054330 -0.038850 1.811420 
# 
# From -- ./inp_files/189843.got.cif
#   From: 2010.05.17/outbox.cif.g08.bks.cpg/sg2_95_cif.got.tgz:189843.got - 2010.06.03 11:33:40.
