data_PCOD9057770
_publ_section_title
;
Structure prediction by ZEFSAII (Michael W. Deem and Ramdas Pophale) SiO2 
 PCOD9057770
Probable space group: P -1
;
_chemical_formula_sum "Si O2"
_cell_formula_units_Z 16
_cell_length_a 5.220519
_cell_length_b 16.211499
_cell_length_c 15.092020
_cell_angle_alpha 39.148876
_cell_angle_beta 57.736364
_cell_angle_gamma 61.789575
_cell_volume 677.746082
_symmetry_space_group_name_H-M "P -1"
_symmetry_group_IT_number 2
_symmetry_cell_setting 'triclinic'
loop_
_space_group_symop_operation_xyz
x,y,z
-x,-y,-z
loop_
_atom_site_type_symbol
_atom_site_label
_atom_site_fract_x
_atom_site_fract_y
_atom_site_fract_z
Si Si1 0.983933 0.360978 0.397467
Si Si2 0.927081 0.238624 0.319153
Si Si3 0.654437 0.634237 0.247277
Si Si4 0.318646 0.698935 0.081321
Si Si5 0.688043 0.159052 0.732630
Si Si6 0.435629 0.010980 0.399429
Si Si7 0.757439 0.997107 0.175031
Si Si8 0.559221 0.472577 0.115767
O O1 0.922969 0.317522 0.345303
O O2 0.753440 0.481479 0.375352
O O3 0.935035 0.238978 0.569948
O O4 0.309991 0.412145 0.276773
O O5 0.821687 0.351539 0.174386
O O6 0.235923 0.150800 0.308014
O O7 0.725476 0.120288 0.475978
O O8 0.402276 0.641584 0.210892
O O9 0.529793 0.731204 0.266683
O O10 0.982039 0.681102 0.120814
O O11 0.559497 0.614206 0.043918
O O12 0.322244 0.853459 0.963858
O O13 0.477350 0.086892 0.763421
O O14 0.889022 0.063215 0.844305
O O15 0.500000 0.000000 0.500000
O O16 0.700737 0.006109 0.284000
O O17 0.500000 0.500000 0.000000
#
# Coordination Sequence:
#
# PCOD9057770 Si02
#       8
#     2   2   2   2   2   2   2   2
#     4  11  24  46  68 108 141 177 241 296 350 428
#     4  11  22  43  70  96 141 183 235 288 353 416
#     4  11  25  48  74 102 141 188 238 297 360 417
#     4  11  26  47  68 105 146 186 240 293 344 437
#     4  12  26  46  77 103 137 191 237 302 362 406
#     4  11  25  41  68 103 140 187 235 289 355 420
#     4  12  27  45  70 105 146 182 244 293 353 423
#     4  11  26  44  69 102 147 194 232 287 358 428
#
# _framework density 23.607659999999999
#
# number of rings (size 3 to 8) (size 9 to 14) (size 15 to 20)
#    0.000    0.750    2.500    4.125    5.250    5.500 
#    0.000    3.125    0.000    0.000    0.000    0.000 
#    0.000    0.000    0.000    0.000    0.000    0.000 
#
# Total GULP energy -89335.832304 kJ/mol
# GULP energy per Si atom -5583.489519 kJ/mol
# Density = 2.355393 g / cm^3
# Si number density = 23.607660 Si / 1000 Ang^3
#
#
#
# Elastic Constant Matrix: (Units=GPa)
#
#
# Indices 1 2 3 4 5 6 
#
# 1 80.9223 43.3507 21.4629 -19.7826 14.3777 -7.0639
# 2 43.3507 126.1490 39.5773 -35.9874 14.9502 -16.1738
# 3 21.4629 39.5773 68.9862 -31.3835 20.1005 -17.1899
# 4 -19.7826 -35.9874 -31.3835 38.8952 -8.5244 4.8653
# 5 14.3777 14.9502 20.1005 -8.5244 39.5104 -7.9494
# 6 -7.0639 -16.1738 -17.1899 4.8653 -7.9494 47.4827
#
#
#
# Elastic Compliance Matrix: (Units=1/GPa)
#
#
# Indices 1 2 3 4 5 6 
#
# 1 0.016046 -0.004058 0.000042 0.003661 -0.003524 0.000055
# 2 -0.004058 0.012351 -0.001748 0.007634 -0.000228 0.002150
# 3 0.000042 -0.001748 0.027709 0.018171 -0.008284 0.006193
# 4 0.003661 0.007634 0.018171 0.048271 -0.002162 0.004415
# 5 -0.003524 -0.000228 -0.008284 -0.002162 0.030783 0.001774
# 6 0.000055 0.002150 0.006193 0.004415 0.001774 0.023888
#
#
# Mechanical properties :
#
#
# Convention : Reuss Voigt Hill
#
# Bulk Modulus (GPa) = 22.43302 53.87103 38.15202
# Shear Modulus (GPa) = 26.96352 36.62211 31.79281
#
# Velocity S-wave (km/s) = 3.38324 3.94290 3.67374
# Velocity P-wave (km/s) = 4.97843 6.60284 5.84732
#
# Compressibility (1/GPa) = 0.04457715
#
# Stress axis : x y z
#
# Youngs Moduli (GPa) = 62.31915 80.96771 36.08940
#
# Poissons Ratio (x) = 0.32860 -0.00151
# Poissons Ratio (y) = 0.25291 0.06308
# Poissons Ratio (z) = -0.00261 0.14153
#
# Static dielectric constant tensor:
#      x y z
#    x 2.544740 -0.321940 -0.711230 
#    y -0.321940 1.983130 0.336390 
#    z -0.711230 0.336390 2.674900 
# 
# From -- ./inp_files/484190.got.cif
#   From: 2010.05.17/outbox.cif.g08.bks.cpg/sg2_243_cif.got.tgz:484190.got - 2010.06.03 11:33:40.
