data_PCOD9057516
_publ_section_title
;
Structure prediction by ZEFSAII (Michael W. Deem and Ramdas Pophale) SiO2 
 PCOD9057516
Probable space group: P -1
;
_chemical_formula_sum "Si O2"
_cell_formula_units_Z 12
_cell_length_a 14.621763
_cell_length_b 11.273009
_cell_length_c 9.440045
_cell_angle_alpha 52.890363
_cell_angle_beta 38.190152
_cell_angle_gamma 29.378413
_cell_volume 454.577815
_symmetry_space_group_name_H-M "P -1"
_symmetry_group_IT_number 2
_symmetry_cell_setting 'triclinic'
loop_
_space_group_symop_operation_xyz
x,y,z
-x,-y,-z
loop_
_atom_site_type_symbol
_atom_site_label
_atom_site_fract_x
_atom_site_fract_y
_atom_site_fract_z
Si Si1 0.677873 0.563246 0.303368
Si Si2 0.104617 0.479278 0.200232
Si Si3 0.887147 0.224444 0.886550
Si Si4 0.833998 0.097067 0.474530
Si Si5 0.437148 0.774236 0.036090
Si Si6 0.608057 0.747394 0.565918
O O1 0.793176 0.305145 0.351645
O O2 0.410380 0.771393 0.402547
O O3 0.634504 0.654956 0.447287
O O4 0.847478 0.526784 0.019578
O O5 0.378760 0.246339 0.107278
O O6 0.999042 0.715215 0.232645
O O7 0.891945 0.529707 0.438137
O O8 0.596935 0.494384 0.070937
O O9 0.937644 0.151021 0.714519
O O10 0.000000 0.000000 0.000000
O O11 0.805026 0.054602 0.698317
O O12 0.435869 0.805448 0.849367
O O13 0.500000 0.000000 0.500000
#
# Coordination Sequence:
#
# PCOD9057516 Si02
#       6
#     2   2   2   2   2   2
#     4  10  20  37  64  90 122 157 204 257 300 362
#     4   9  20  40  63  87 122 159 206 245 299 367
#     4  10  17  36  70  91 114 156 201 247 301 358
#     4  10  18  40  64  94 117 158 207 248 307 364
#     4   9  23  39  63  93 120 160 206 253 293 369
#     4  12  24  41  57  89 129 166 201 252 307 352
#
# _framework density 26.398119999999999
#
# number of rings (size 3 to 8) (size 9 to 14) (size 15 to 20)
#    1.000    1.000    1.667    3.000    0.000    0.667 
#    6.000    3.333    0.000    0.000    0.000    0.000 
#    0.000    0.000    0.000    0.000    0.000    0.000 
#
# Total GULP energy -67225.797236 kJ/mol
# GULP energy per Si atom -5602.149770 kJ/mol
# Density = 2.633804 g / cm^3
# Si number density = 26.398120 Si / 1000 Ang^3
#
#
#
# Elastic Constant Matrix: (Units=GPa)
#
#
# Indices 1 2 3 4 5 6 
#
# 1 77.8611 24.3553 50.2133 4.1316 30.8228 14.8035
# 2 24.3553 46.4273 11.0305 -1.2676 1.1164 1.2553
# 3 50.2133 11.0305 188.2157 7.7544 33.6393 4.2696
# 4 4.1316 -1.2676 7.7544 36.4633 -2.0776 4.0309
# 5 30.8228 1.1164 33.6393 -2.0776 57.8007 14.8571
# 6 14.8035 1.2553 4.2696 4.0309 14.8571 40.7352
#
#
#
# Elastic Compliance Matrix: (Units=1/GPa)
#
#
# Indices 1 2 3 4 5 6 
#
# 1 0.023163 -0.010994 -0.003745 -0.002257 -0.008963 -0.004194
# 2 -0.010994 0.027139 0.000341 0.002277 0.004940 0.001096
# 3 -0.003745 0.000341 0.006738 -0.001316 -0.002403 0.001651
# 4 -0.002257 0.002277 -0.001316 0.028626 0.003812 -0.003335
# 5 -0.008963 0.004940 -0.002403 0.003812 0.025109 -0.006178
# 6 -0.004194 0.001096 0.001651 -0.003335 -0.006178 0.028449
#
#
# Mechanical properties :
#
#
# Convention : Reuss Voigt Hill
#
# Bulk Modulus (GPa) = 35.40562 53.74471 44.57516
# Shear Modulus (GPa) = 28.17931 42.12684 35.15308
#
# Velocity S-wave (km/s) = 3.27077 3.99911 3.65314
# Velocity P-wave (km/s) = 5.26357 6.45967 5.89205
#
# Compressibility (1/GPa) = 0.02824410
#
# Stress axis : x y z
#
# Youngs Moduli (GPa) = 43.17225 36.84717 148.40206
#
# Poissons Ratio (x) = 0.40510 0.55579
# Poissons Ratio (y) = 0.47464 -0.05059
# Poissons Ratio (z) = 0.16169 -0.01256
#
# Static dielectric constant tensor:
#      x y z
#    x 2.173290 -0.039710 -0.020090 
#    y -0.039710 1.986300 0.018750 
#    z -0.020090 0.018750 2.060140 
# 
# From -- ./inp_files/173017.got.cif
#   From: 2010.05.17/outbox.cif.g08.bks.cpg/sg2_87_cif.got.tgz:173017.got - 2010.06.03 11:33:40.
