data_PCOD9057848
_publ_section_title
;
Structure prediction by ZEFSAII (Michael W. Deem and Ramdas Pophale) SiO2 
 PCOD9057848
Probable space group: P -1
;
_chemical_formula_sum "Si O2"
_cell_formula_units_Z 14
_cell_length_a 21.361144
_cell_length_b 12.535521
_cell_length_c 16.112520
_cell_angle_alpha 152.354727
_cell_angle_beta 16.360536
_cell_angle_gamma 152.330210
_cell_volume 542.491798
_symmetry_space_group_name_H-M "P -1"
_symmetry_group_IT_number 2
_symmetry_cell_setting 'triclinic'
loop_
_space_group_symop_operation_xyz
x,y,z
-x,-y,-z
loop_
_atom_site_type_symbol
_atom_site_label
_atom_site_fract_x
_atom_site_fract_y
_atom_site_fract_z
Si Si1 0.609265 0.436633 0.111601
Si Si2 0.507505 0.018955 0.159866
Si Si3 0.108244 0.195784 0.867957
Si Si4 0.186003 0.334584 0.146196
Si Si5 0.126454 0.294596 0.686763
Si Si6 0.238223 0.183067 0.155452
Si Si7 0.004315 0.640926 0.273621
O O1 0.811661 0.634224 0.036603
O O2 0.399108 0.393929 0.414566
O O3 0.611650 0.176523 0.893410
O O4 0.610031 0.562910 0.108226
O O5 0.330808 0.158731 0.513096
O O6 0.584863 0.901193 0.065320
O O7 0.731169 0.203151 0.962465
O O8 0.990187 0.367466 0.085502
O O9 0.948588 0.929113 0.896546
O O10 0.292176 0.306010 0.081917
O O11 0.000000 0.500000 0.500000
O O12 0.116009 0.245834 0.566864
O O13 0.971892 0.054516 0.756791
O O14 0.000000 0.500000 0.000000
O O15 0.120682 0.341682 0.470581
#
# Coordination Sequence:
#
# PCOD9057848 Si02
#       7
#     2   2   2   2   2   2   2
#     4  12  24  47  73 103 147 186 238 295 356 424
#     4  11  23  47  73 110 143 186 240 294 360 427
#     4  12  27  44  70 107 147 191 239 295 360 426
#     4  12  27  49  70 103 147 195 239 296 358 427
#     4  11  22  45  74 107 141 187 243 295 353 429
#     4  11  23  45  76 102 143 193 237 293 359 426
#     4  11  22  43  72 110 143 183 239 301 357 421
#
# _framework density 25.806840999999999
#
# number of rings (size 3 to 8) (size 9 to 14) (size 15 to 20)
#    0.000    0.571    4.286    5.143    0.000    2.286 
#    0.000    5.000    0.000    0.000    0.000    0.000 
#    0.000    0.000    0.000    0.000    0.000    0.000 
#
# Total GULP energy -78287.602967 kJ/mol
# GULP energy per Si atom -5591.971640 kJ/mol
# Density = 2.574810 g / cm^3
# Si number density = 25.806841 Si / 1000 Ang^3
#
#
#
# Elastic Constant Matrix: (Units=GPa)
#
#
# Indices 1 2 3 4 5 6 
#
# 1 125.6486 17.2139 10.2335 1.0901 13.5437 -3.7869
# 2 17.2139 120.7245 15.2794 24.6671 8.3800 11.9543
# 3 10.2335 15.2794 94.0062 29.1704 0.9140 -9.5123
# 4 1.0901 24.6671 29.1704 46.9616 -1.7202 10.6531
# 5 13.5437 8.3800 0.9140 -1.7202 34.0205 1.6206
# 6 -3.7869 11.9543 -9.5123 10.6531 1.6206 53.7558
#
#
#
# Elastic Compliance Matrix: (Units=1/GPa)
#
#
# Indices 1 2 3 4 5 6 
#
# 1 0.008526 -0.001089 -0.000853 0.000641 -0.003102 0.000658
# 2 -0.001089 0.009704 -0.000061 -0.004835 -0.002141 -0.001223
# 3 -0.000853 -0.000061 0.014249 -0.009834 -0.000737 0.004446
# 4 0.000641 -0.004835 -0.009834 0.031626 0.003132 -0.006982
# 5 -0.003102 -0.002141 -0.000737 0.003132 0.031403 -0.001440
# 6 0.000658 -0.001223 0.004446 -0.006982 -0.001440 0.021135
#
#
# Mechanical properties :
#
#
# Convention : Reuss Voigt Hill
#
# Bulk Modulus (GPa) = 35.12162 47.31479 41.21820
# Shear Modulus (GPa) = 38.42005 46.79107 42.60556
#
# Velocity S-wave (km/s) = 3.86262 4.26270 4.06758
# Velocity P-wave (km/s) = 5.79069 6.52698 6.16983
#
# Compressibility (1/GPa) = 0.02847249
#
# Stress axis : x y z
#
# Youngs Moduli (GPa) = 117.28848 103.05137 70.17934
#
# Poissons Ratio (x) = 0.11217 0.05989
# Poissons Ratio (y) = 0.12767 0.00431
# Poissons Ratio (z) = 0.10009 0.00633
#
# Static dielectric constant tensor:
#      x y z
#    x 2.315030 0.003230 -0.004110 
#    y 0.003230 2.028710 -0.047630 
#    z -0.004110 -0.047630 2.074570 
# 
# From -- ./inp_files/508612.got.cif
#   From: 2010.05.17/outbox.cif.g08.bks.cpg/sg2_255_cif.got.tgz:508612.got - 2010.06.03 11:33:40.
