data_PCOD9057494
_publ_section_title
;
Structure prediction by ZEFSAII (Michael W. Deem and Ramdas Pophale) SiO2 
 PCOD9057494
Probable space group: P -1
;
_chemical_formula_sum "Si O2"
_cell_formula_units_Z 16
_cell_length_a 18.215076
_cell_length_b 8.618745
_cell_length_c 9.109546
_cell_angle_alpha 114.384202
_cell_angle_beta 94.010362
_cell_angle_gamma 39.359885
_cell_volume 745.180552
_symmetry_space_group_name_H-M "P -1"
_symmetry_group_IT_number 2
_symmetry_cell_setting 'triclinic'
loop_
_space_group_symop_operation_xyz
x,y,z
-x,-y,-z
loop_
_atom_site_type_symbol
_atom_site_label
_atom_site_fract_x
_atom_site_fract_y
_atom_site_fract_z
Si Si1 0.884272 0.780647 0.287061
Si Si2 0.363674 0.298490 0.524812
Si Si3 0.114270 0.168013 0.253271
Si Si4 0.733202 0.874225 0.521579
Si Si5 0.503939 0.520921 0.685355
Si Si6 0.248574 0.861009 0.864175
Si Si7 0.388409 0.311883 0.191861
Si Si8 0.895956 0.081610 0.604052
O O1 0.777125 0.852934 0.358684
O O2 0.010800 0.464391 0.256303
O O3 0.867942 0.850637 0.141424
O O4 0.857298 0.011607 0.452538
O O5 0.264944 0.330166 0.543993
O O6 0.303471 0.584063 0.693527
O O7 0.391506 0.258494 0.341617
O O8 0.500000 0.000000 0.500000
O O9 0.182713 0.176530 0.371415
O O10 0.060305 0.117176 0.327913
O O11 0.211101 0.909438 0.045981
O O12 0.586809 0.212343 0.647060
O O13 0.500000 0.500000 0.500000
O O14 0.361818 0.782954 0.831480
O O15 0.575576 0.556987 0.754965
O O16 0.237472 0.574612 0.231371
O O17 0.500000 0.000000 0.000000
O O18 0.000000 0.000000 0.500000
#
# Coordination Sequence:
#
# PCOD9057494 Si02
#       8
#     2   2   2   2   2   2   2   2
#     4  11  23  46  71  95 138 193 239 279 360 426
#     4  12  25  42  67 103 143 186 225 290 369 426
#     4  11  27  44  71 108 133 187 248 293 345 434
#     4  11  22  42  71  97 132 184 239 280 348 425
#     4  12  20  45  69  96 138 192 223 285 362 427
#     4  12  25  44  71 104 148 181 236 296 362 419
#     4  12  27  43  70 108 143 179 242 295 356 426
#     4  11  24  47  73 100 146 188 234 297 364 426
#
# _framework density 21.471309000000002
#
# number of rings (size 3 to 8) (size 9 to 14) (size 15 to 20)
#    0.000    0.500    7.500    1.875    7.000    0.500 
#    0.000    3.750    0.000    0.000    0.000    0.000 
#    0.000    0.000    0.000    0.000    0.000    0.000 
#
# Total GULP energy -89359.238392 kJ/mol
# GULP energy per Si atom -5584.952399 kJ/mol
# Density = 2.142244 g / cm^3
# Si number density = 21.471309 Si / 1000 Ang^3
#
#
#
# Elastic Constant Matrix: (Units=GPa)
#
#
# Indices 1 2 3 4 5 6 
#
# 1 136.0275 27.1131 42.6133 -0.3634 -10.9389 11.7193
# 2 27.1131 127.9749 26.9416 4.6552 -4.3247 -6.4327
# 3 42.6133 26.9416 114.2652 2.0744 -19.4996 6.2808
# 4 -0.3634 4.6552 2.0744 34.4941 4.5403 -9.3004
# 5 -10.9389 -4.3247 -19.4996 4.5403 19.0544 -1.4615
# 6 11.7193 -6.4327 6.2808 -9.3004 -1.4615 24.4122
#
#
#
# Elastic Compliance Matrix: (Units=1/GPa)
#
#
# Indices 1 2 3 4 5 6 
#
# 1 0.008938 -0.001507 -0.002323 -0.001041 0.002327 -0.004348
# 2 -0.001507 0.008659 -0.001728 -0.000119 -0.000381 0.003382
# 3 -0.002323 -0.001728 0.012130 -0.002752 0.011125 -0.002843
# 4 -0.001041 -0.000119 -0.002752 0.034211 -0.010551 0.013578
# 5 0.002327 -0.000381 0.011125 -0.010551 0.067318 -0.004069
# 6 -0.004348 0.003382 -0.002843 0.013578 -0.004069 0.049602
#
#
# Mechanical properties :
#
#
# Convention : Reuss Voigt Hill
#
# Bulk Modulus (GPa) = 53.73257 63.51152 58.62204
# Shear Modulus (GPa) = 25.22980 34.36543 29.79762
#
# Velocity S-wave (km/s) = 3.43161 4.00500 3.72934
# Velocity P-wave (km/s) = 6.38599 7.14357 6.77538
#
# Compressibility (1/GPa) = 0.01861069
#
# Stress axis : x y z
#
# Youngs Moduli (GPa) = 111.87607 115.49329 82.43803
#
# Poissons Ratio (x) = 0.17401 0.19153
# Poissons Ratio (y) = 0.16856 0.14248
# Poissons Ratio (z) = 0.25992 0.19961
#
# Static dielectric constant tensor:
#      x y z
#    x 1.797880 -0.020750 -0.028400 
#    y -0.020750 1.792240 0.069220 
#    z -0.028400 0.069220 1.748040 
# 
# From -- ./inp_files/297770.got.cif
#   From: 2010.05.17/outbox.cif.g08.bks.cpg/sg2_149_cif.got.tgz:297770.got - 2010.06.03 11:33:40.
