data_PCOD9057440
_publ_section_title
;
Structure prediction by ZEFSAII (Michael W. Deem and Ramdas Pophale) SiO2 
 PCOD9057440
Probable space group: P -1
;
_chemical_formula_sum "Si O2"
_cell_formula_units_Z 14
_cell_length_a 11.096276
_cell_length_b 9.232101
_cell_length_c 8.813128
_cell_angle_alpha 134.251801
_cell_angle_beta 117.155402
_cell_angle_gamma 80.134000
_cell_volume 559.854365
_symmetry_space_group_name_H-M "P -1"
_symmetry_group_IT_number 2
_symmetry_cell_setting 'triclinic'
loop_
_space_group_symop_operation_xyz
x,y,z
-x,-y,-z
loop_
_atom_site_type_symbol
_atom_site_label
_atom_site_fract_x
_atom_site_fract_y
_atom_site_fract_z
Si Si1 0.653286 0.242106 0.389182
Si Si2 0.929515 0.873487 0.510324
Si Si3 0.957454 0.474086 0.631398
Si Si4 0.595433 0.338505 0.764234
Si Si5 0.143433 0.135837 0.035785
Si Si6 0.704410 0.973084 0.657844
Si Si7 0.399907 0.242831 0.033234
O O1 0.804125 0.324956 0.462415
O O2 0.654883 0.331752 0.623273
O O3 0.537910 0.307664 0.264074
O O4 0.607051 0.992108 0.195221
O O5 0.793070 0.938752 0.536501
O O6 0.928660 0.634145 0.305851
O O7 0.000000 0.000000 0.500000
O O8 0.035408 0.943427 0.761589
O O9 0.941456 0.690054 0.850200
O O10 0.000000 0.500000 0.500000
O O11 0.439986 0.196501 0.560030
O O12 0.596733 0.580560 0.962082
O O13 0.675741 0.203692 0.815430
O O14 0.216655 0.075682 0.183232
O O15 0.264192 0.217405 0.042506
#
# Coordination Sequence:
#
# PCOD9057440 Si02
#       7
#     2   2   2   2   2   2   2
#     4  11  22  42  70 104 144 180 241 292 345 428
#     4  12  28  49  70 103 148 185 237 300 353 429
#     4  12  25  42  73 107 142 189 237 287 359 422
#     4  11  23  46  71 102 144 186 233 295 354 414
#     4  12  24  48  74 103 140 191 238 292 355 425
#     4  11  25  45  72 106 146 182 236 299 352 414
#     4  11  23  40  76 102 136 193 237 283 359 417
#
# _framework density 25.006504
#
# number of rings (size 3 to 8) (size 9 to 14) (size 15 to 20)
#    0.000    0.571    5.714    2.571    0.000    0.571 
#    0.000    4.286    0.000    0.000    0.000    0.000 
#    0.000    0.000    0.000    0.000    0.000    0.000 
#
# Total GULP energy -78503.609865 kJ/mol
# GULP energy per Si atom -5607.400705 kJ/mol
# Density = 2.494959 g / cm^3
# Si number density = 25.006504 Si / 1000 Ang^3
#
#
#
# Elastic Constant Matrix: (Units=GPa)
#
#
# Indices 1 2 3 4 5 6 
#
# 1 98.9763 16.5138 -4.3747 5.1328 16.8402 1.0881
# 2 16.5138 165.1431 24.3460 26.1909 3.7453 -20.2166
# 3 -4.3747 24.3460 59.1510 13.8110 0.8204 -13.9239
# 4 5.1328 26.1909 13.8110 40.4562 -2.4579 -0.9715
# 5 16.8402 3.7453 0.8204 -2.4579 26.3065 10.8474
# 6 1.0881 -20.2166 -13.9239 -0.9715 10.8474 45.3019
#
#
#
# Elastic Compliance Matrix: (Units=1/GPa)
#
#
# Indices 1 2 3 4 5 6 
#
# 1 0.011901 -0.000705 0.002341 -0.002329 -0.008696 0.002151
# 2 -0.000705 0.007485 -0.001262 -0.004389 -0.002408 0.003452
# 3 0.002341 -0.001262 0.020898 -0.006780 -0.005478 0.006970
# 4 -0.002329 -0.004389 -0.006780 0.030489 0.007268 -0.005073
# 5 -0.008696 -0.002408 -0.005478 0.007268 0.050773 -0.014551
# 6 0.002151 0.003452 0.006970 -0.005073 -0.014551 0.029081
#
#
# Mechanical properties :
#
#
# Convention : Reuss Voigt Hill
#
# Bulk Modulus (GPa) = 24.37100 44.02674 34.19887
# Shear Modulus (GPa) = 30.57026 41.53194 36.05110
#
# Velocity S-wave (km/s) = 3.50021 4.07977 3.80105
# Velocity P-wave (km/s) = 5.10904 6.31166 5.74192
#
# Compressibility (1/GPa) = 0.04103237
#
# Stress axis : x y z
#
# Youngs Moduli (GPa) = 84.02440 133.59658 47.85092
#
# Poissons Ratio (x) = 0.09422 -0.11204
# Poissons Ratio (y) = 0.05926 0.06040
# Poissons Ratio (z) = -0.19673 0.16864
#
# Static dielectric constant tensor:
#      x y z
#    x 1.937130 -0.024490 -0.008150 
#    y -0.024490 2.006480 0.021020 
#    z -0.008150 0.021020 1.983360 
# 
# From -- ./inp_files/187138.got.cif
#   From: 2010.05.17/outbox.cif.g08.bks.cpg/sg2_94_cif.got.tgz:187138.got - 2010.06.03 11:33:40.
