data_PCOD9057638
_publ_section_title
;
Structure prediction by ZEFSAII (Michael W. Deem and Ramdas Pophale) SiO2 
 PCOD9057638
Probable space group: P -1
;
_chemical_formula_sum "Si O2"
_cell_formula_units_Z 14
_cell_length_a 12.225580
_cell_length_b 15.179756
_cell_length_c 20.326599
_cell_angle_alpha 19.934506
_cell_angle_beta 35.184665
_cell_angle_gamma 47.768495
_cell_volume 646.153681
_symmetry_space_group_name_H-M "P -1"
_symmetry_group_IT_number 2
_symmetry_cell_setting 'triclinic'
loop_
_space_group_symop_operation_xyz
x,y,z
-x,-y,-z
loop_
_atom_site_type_symbol
_atom_site_label
_atom_site_fract_x
_atom_site_fract_y
_atom_site_fract_z
Si Si1 0.828870 0.682181 0.629467
Si Si2 0.856123 0.661555 0.961599
Si Si3 0.779765 0.767196 0.308975
Si Si4 0.402029 0.661596 0.808132
Si Si5 0.124991 0.717889 0.344284
Si Si6 0.101905 0.714609 0.025102
Si Si7 0.317926 0.382488 0.772682
O O1 0.583887 0.616833 0.787741
O O2 0.861309 0.436282 0.823206
O O3 0.939407 0.730585 0.470096
O O4 0.976621 0.993547 0.373774
O O5 0.683295 0.538051 0.074574
O O6 0.751220 0.612548 0.120271
O O7 0.000000 0.500000 0.000000
O O8 0.776324 0.459184 0.541155
O O9 0.558092 0.660414 0.452419
O O10 0.785517 0.938941 0.252999
O O11 0.000000 0.000000 0.000000
O O12 0.500000 0.000000 0.500000
O O13 0.211320 0.623722 0.977027
O O14 0.000000 0.500000 0.500000
O O15 0.292419 0.055235 0.005955
O O16 0.857255 0.610077 0.195800
#
# Coordination Sequence:
#
# PCOD9057638 Si02
#       7
#     2   2   2   2   2   2   2
#     4  11  26  43  66 103 139 178 229 286 345 410
#     4  11  22  43  67 100 133 177 233 278 342 415
#     4  12  26  47  70 101 142 182 231 291 352 408
#     4  12  23  42  72  97 135 181 228 283 340 413
#     4  11  23  47  70 103 135 182 241 280 339 415
#     4  12  25  45  67 105 140 179 231 284 355 411
#     4  11  25  44  74 100 140 185 231 287 344 415
#
# _framework density 21.666671000000001
#
# number of rings (size 3 to 8) (size 9 to 14) (size 15 to 20)
#    0.000    0.571    5.714    2.571    2.000    2.286 
#    0.000    0.000    0.000    0.000    0.000    0.000 
#    0.000    0.000    0.000    0.000    0.000    0.000 
#
# Total GULP energy -78275.984911 kJ/mol
# GULP energy per Si atom -5591.141779 kJ/mol
# Density = 2.161736 g / cm^3
# Si number density = 21.666671 Si / 1000 Ang^3
#
#
#
# Elastic Constant Matrix: (Units=GPa)
#
#
# Indices 1 2 3 4 5 6 
#
# 1 123.2544 31.8634 55.6113 -0.6979 -35.3177 -20.6375
# 2 31.8634 79.4541 37.9573 -20.6151 -18.4094 -7.1816
# 3 55.6113 37.9573 99.9020 -2.7500 -31.6963 -16.0303
# 4 -0.6979 -20.6151 -2.7500 25.9144 -0.1421 -5.1325
# 5 -35.3177 -18.4094 -31.6963 -0.1421 43.6598 -1.3627
# 6 -20.6375 -7.1816 -16.0303 -5.1325 -1.3627 45.7561
#
#
#
# Elastic Compliance Matrix: (Units=1/GPa)
#
#
# Indices 1 2 3 4 5 6 
#
# 1 0.013007 -0.001401 -0.003616 -0.000200 0.007448 0.004579
# 2 -0.001401 0.021169 -0.004937 0.016893 0.004357 0.002986
# 3 -0.003616 -0.004937 0.016711 -0.001520 0.007229 0.003494
# 4 -0.000200 0.016893 -0.001520 0.053523 0.006289 0.008220
# 5 0.007448 0.004357 0.007229 0.006289 0.036296 0.008362
# 6 0.004579 0.002986 0.003494 0.008220 0.008362 0.026784
#
#
# Mechanical properties :
#
#
# Convention : Reuss Voigt Hill
#
# Bulk Modulus (GPa) = 32.27966 61.49718 46.88842
# Shear Modulus (GPa) = 25.28800 34.87795 30.08297
#
# Velocity S-wave (km/s) = 3.42005 4.01652 3.73023
# Velocity P-wave (km/s) = 5.52506 7.06788 6.34355
#
# Compressibility (1/GPa) = 0.03097926
#
# Stress axis : x y z
#
# Youngs Moduli (GPa) = 76.88394 47.23988 59.84248
#
# Poissons Ratio (x) = 0.06619 0.21636
# Poissons Ratio (y) = 0.10773 0.29542
# Poissons Ratio (z) = 0.27798 0.23320
#
# Static dielectric constant tensor:
#      x y z
#    x 1.833260 0.050120 0.052940 
#    y 0.050120 2.202470 0.057950 
#    z 0.052940 0.057950 1.870910 
# 
# From -- ./inp_files/89049.got.cif
#   From: 2010.05.17/outbox.cif.g08.bks.cpg/sg2_45_cif.got.tgz:89049.got - 2010.06.03 11:33:40.
