data_PCOD9057537
_publ_section_title
;
Structure prediction by ZEFSAII (Michael W. Deem and Ramdas Pophale) SiO2 
 PCOD9057537
Probable space group: P -1
;
_chemical_formula_sum "Si O2"
_cell_formula_units_Z 16
_cell_length_a 9.683703
_cell_length_b 11.387240
_cell_length_c 16.902830
_cell_angle_alpha 33.767952
_cell_angle_beta 129.986855
_cell_angle_gamma 130.649835
_cell_volume 763.110522
_symmetry_space_group_name_H-M "P -1"
_symmetry_group_IT_number 2
_symmetry_cell_setting 'triclinic'
loop_
_space_group_symop_operation_xyz
x,y,z
-x,-y,-z
loop_
_atom_site_type_symbol
_atom_site_label
_atom_site_fract_x
_atom_site_fract_y
_atom_site_fract_z
Si Si1 0.962934 0.721274 0.332175
Si Si2 0.843059 0.104176 0.850311
Si Si3 0.403426 0.478616 0.103488
Si Si4 0.534083 0.205316 0.191163
Si Si5 0.824028 0.372878 0.846293
Si Si6 0.983523 0.833602 0.825263
Si Si7 0.545747 0.763462 0.139764
Si Si8 0.092535 0.856041 0.670929
O O1 0.749230 0.739660 0.250183
O O2 0.000000 0.500000 0.500000
O O3 0.043707 0.740165 0.263219
O O4 0.067716 0.946616 0.289270
O O5 0.788580 0.227541 0.835756
O O6 0.664612 0.932629 0.840425
O O7 0.000000 0.000000 0.000000
O O8 0.506959 0.298428 0.215401
O O9 0.207678 0.361913 0.137926
O O10 0.517214 0.676378 0.088546
O O11 0.376134 0.587067 0.949449
O O12 0.692016 0.080730 0.312672
O O13 0.622281 0.398187 0.782775
O O14 0.977303 0.601217 0.758418
O O15 0.898114 0.245633 0.017043
O O16 0.079161 0.878197 0.749413
O O17 0.500000 0.000000 0.000000
O O18 0.000000 0.000000 0.500000
#
# Coordination Sequence:
#
# PCOD9057537 Si02
#       8
#     2   2   2   2   2   2   2   2
#     4  12  29  46  69 105 150 189 231 300 365 421
#     4  12  24  46  71 107 142 182 242 296 356 428
#     4  11  22  42  73 103 135 180 243 296 340 414
#     4  11  24  41  71 105 141 180 236 297 353 414
#     4  12  24  44  74 103 138 183 244 299 342 422
#     4  12  23  49  73 101 138 188 243 291 349 428
#     4  12  24  43  71 106 136 189 245 291 347 426
#     4  12  29  46  68 104 148 188 230 295 365 421
#
# _framework density 20.966818
#
# number of rings (size 3 to 8) (size 9 to 14) (size 15 to 20)
#    0.000    0.250    6.250    2.625    7.000    1.000 
#    0.000    2.500    0.000    0.000    0.000    0.000 
#    0.000    0.000    0.000    0.000    0.000    0.000 
#
# Total GULP energy -89333.778215 kJ/mol
# GULP energy per Si atom -5583.361138 kJ/mol
# Density = 2.091910 g / cm^3
# Si number density = 20.966818 Si / 1000 Ang^3
#
#
#
# Elastic Constant Matrix: (Units=GPa)
#
#
# Indices 1 2 3 4 5 6 
#
# 1 136.3764 44.6814 45.2212 14.8217 6.1018 -4.3833
# 2 44.6814 104.8814 40.4175 -7.2613 10.3857 -6.5580
# 3 45.2212 40.4175 129.8663 -1.5194 3.1476 9.6940
# 4 14.8217 -7.2613 -1.5194 16.8465 2.6596 3.8991
# 5 6.1018 10.3857 3.1476 2.6596 28.4325 2.6096
# 6 -4.3833 -6.5580 9.6940 3.8991 2.6096 52.3241
#
#
#
# Elastic Compliance Matrix: (Units=1/GPa)
#
#
# Indices 1 2 3 4 5 6 
#
# 1 0.011098 -0.004467 -0.002766 -0.012439 0.000556 0.001781
# 2 -0.004467 0.013681 -0.002566 0.010053 -0.004815 0.001307
# 3 -0.002766 -0.002566 0.009675 0.002726 0.000441 -0.002571
# 4 -0.012439 0.010053 0.002726 0.077459 -0.008031 -0.005659
# 5 0.000556 -0.004815 0.000441 -0.008031 0.037689 -0.001920
# 6 0.001781 0.001307 -0.002571 -0.005659 -0.001920 0.020418
#
#
# Mechanical properties :
#
#
# Convention : Reuss Voigt Hill
#
# Bulk Modulus (GPa) = 67.31128 70.19601 68.75365
# Shear Modulus (GPa) = 25.69783 35.57422 30.63603
#
# Velocity S-wave (km/s) = 3.50472 4.12356 3.82667
# Velocity P-wave (km/s) = 6.96784 7.49826 7.23791
#
# Compressibility (1/GPa) = 0.01485635
#
# Stress axis : x y z
#
# Youngs Moduli (GPa) = 90.11026 73.09609 103.35864
#
# Poissons Ratio (x) = 0.32649 0.28591
# Poissons Ratio (y) = 0.40249 0.26518
# Poissons Ratio (z) = 0.24926 0.18754
#
# Static dielectric constant tensor:
#      x y z
#    x 1.809790 -0.001410 0.063190 
#    y -0.001410 1.812630 -0.027080 
#    z 0.063190 -0.027080 1.750850 
# 
# From -- ./inp_files/559599.got.cif
#   From: 2010.05.17/outbox.cif.g08.bks.cpg/sg2_280_cif.got.tgz:559599.got - 2010.06.03 11:33:40.
