data_PCOD9057882
_publ_section_title
;
Structure prediction by ZEFSAII (Michael W. Deem and Ramdas Pophale) SiO2 
 PCOD9057882
Probable space group: P -1
;
_chemical_formula_sum "Si O2"
_cell_formula_units_Z 10
_cell_length_a 8.385237
_cell_length_b 8.613797
_cell_length_c 9.328941
_cell_angle_alpha 62.975858
_cell_angle_beta 48.904279
_cell_angle_gamma 53.382020
_cell_volume 405.406594
_symmetry_space_group_name_H-M "P -1"
_symmetry_group_IT_number 2
_symmetry_cell_setting 'triclinic'
loop_
_space_group_symop_operation_xyz
x,y,z
-x,-y,-z
loop_
_atom_site_type_symbol
_atom_site_label
_atom_site_fract_x
_atom_site_fract_y
_atom_site_fract_z
Si Si1 0.462565 0.828929 0.017817
Si Si2 0.166129 0.575673 0.948755
Si Si3 0.737651 0.291863 0.444703
Si Si4 0.997161 0.853298 0.185323
Si Si5 0.777991 0.874274 0.592879
O O1 0.576942 0.820840 0.796709
O O2 0.596096 0.617482 0.093734
O O3 0.198298 0.861922 0.162084
O O4 0.500000 0.000000 0.000000
O O5 0.190490 0.722243 0.759820
O O6 0.073220 0.662960 0.122049
O O7 0.000000 0.500000 0.000000
O O8 0.500000 0.500000 0.500000
O O9 0.972193 0.257406 0.415229
O O10 0.700483 0.101591 0.579406
O O11 0.805906 0.859681 0.410698
O O12 0.000000 0.000000 0.000000
#
# Coordination Sequence:
#
# PCOD9057882 Si02
#       5
#     2   2   2   2   2
#     4  12  25  46  76 107 145 188 241 300 363 434
#     4  12  24  47  71 102 143 189 237 299 365 425
#     4  11  22  43  73 106 142 187 244 295 360 438
#     4  12  26  47  71 105 149 185 244 304 353 431
#     4  11  24  46  73 104 146 191 238 300 364 424
#
# _framework density 24.666595999999998
#
# number of rings (size 3 to 8) (size 9 to 14) (size 15 to 20)
#    0.000    0.400    4.000    6.600    0.000    1.600 
#    3.600    0.000    0.000    0.000    0.000    0.000 
#    0.000    0.000    0.000    0.000    0.000    0.000 
#
# Total GULP energy -55880.963019 kJ/mol
# GULP energy per Si atom -5588.096302 kJ/mol
# Density = 2.461045 g / cm^3
# Si number density = 24.666596 Si / 1000 Ang^3
#
#
#
# Elastic Constant Matrix: (Units=GPa)
#
#
# Indices 1 2 3 4 5 6 
#
# 1 22.6598 20.7263 9.6441 8.1370 10.2871 11.6626
# 2 20.7263 131.1072 20.7418 4.7264 18.9982 -16.0178
# 3 9.6441 20.7418 171.9454 -6.4362 26.1163 -5.4662
# 4 8.1370 4.7264 -6.4362 50.0451 6.7324 9.1120
# 5 10.2871 18.9982 26.1163 6.7324 41.4153 3.6450
# 6 11.6626 -16.0178 -5.4662 9.1120 3.6450 37.4708
#
#
#
# Elastic Compliance Matrix: (Units=1/GPa)
#
#
# Indices 1 2 3 4 5 6 
#
# 1 0.078619 -0.014187 -0.002611 -0.005463 -0.007950 -0.028814
# 2 -0.014187 0.011407 0.000114 -0.000154 -0.002601 0.009599
# 3 -0.002611 0.000114 0.006673 0.001472 -0.004015 0.001868
# 4 -0.005463 -0.000154 0.001472 0.022040 -0.002799 -0.003238
# 5 -0.007950 -0.002601 -0.004015 -0.002799 0.030432 -0.001503
# 6 -0.028814 0.009599 0.001868 -0.003238 -0.001503 0.040965
#
#
# Mechanical properties :
#
#
# Convention : Reuss Voigt Hill
#
# Bulk Modulus (GPa) = 15.78999 47.54852 31.66926
# Shear Modulus (GPa) = 20.44024 44.09292 32.26658
#
# Velocity S-wave (km/s) = 2.88177 4.23254 3.62070
# Velocity P-wave (km/s) = 4.18187 6.57299 5.50873
#
# Compressibility (1/GPa) = 0.06333124
#
# Stress axis : x y z
#
# Youngs Moduli (GPa) = 12.71949 87.66411 149.86131
#
# Poissons Ratio (x) = 1.24368 0.39133
# Poissons Ratio (y) = 0.18045 -0.01709
# Poissons Ratio (z) = 0.03321 -0.01000
#
# Static dielectric constant tensor:
#      x y z
#    x 1.907290 -0.025220 0.087940 
#    y -0.025220 2.119780 -0.037060 
#    z 0.087940 -0.037060 2.052590 
# 
# From -- ./inp_files/143951.got.cif
#   From: 2010.05.17/outbox.cif.g08.bks.cpg/sg2_72_cif.got.tgz:143951.got - 2010.06.03 11:33:40.
