data_PCOD9057706
_publ_section_title
;
Structure prediction by ZEFSAII (Michael W. Deem and Ramdas Pophale) SiO2 
 PCOD9057706
Probable space group: P -1
;
_chemical_formula_sum "Si O2"
_cell_formula_units_Z 16
_cell_length_a 9.499219
_cell_length_b 12.823685
_cell_length_c 8.526530
_cell_angle_alpha 71.594958
_cell_angle_beta 133.887867
_cell_angle_gamma 113.241226
_cell_volume 686.418853
_symmetry_space_group_name_H-M "P -1"
_symmetry_group_IT_number 2
_symmetry_cell_setting 'triclinic'
loop_
_space_group_symop_operation_xyz
x,y,z
-x,-y,-z
loop_
_atom_site_type_symbol
_atom_site_label
_atom_site_fract_x
_atom_site_fract_y
_atom_site_fract_z
Si Si1 0.987844 0.246806 0.035575
Si Si2 0.869865 0.805855 0.160769
Si Si3 0.551567 0.239474 0.577315
Si Si4 0.833394 0.024080 0.186275
Si Si5 0.408916 0.998992 0.685636
Si Si6 0.412198 0.749062 0.754579
Si Si7 0.002327 0.611705 0.546929
Si Si8 0.696323 0.604384 0.592088
O O1 0.153453 0.360387 0.159522
O O2 0.957897 0.153788 0.195615
O O3 0.771493 0.265030 0.813259
O O4 0.060616 0.189409 0.967695
O O5 0.927898 0.929177 0.227346
O O6 0.953631 0.709803 0.354209
O O7 0.626930 0.765455 0.993683
O O8 0.449752 0.104502 0.549872
O O9 0.573820 0.290812 0.395078
O O10 0.403989 0.289742 0.546590
O O11 0.759896 0.994761 0.319792
O O12 0.624231 0.017172 0.933085
O O13 0.364882 0.872140 0.647410
O O14 0.233403 0.665684 0.751241
O O15 0.839923 0.588896 0.569724
O O16 0.000000 0.500000 0.500000
O O17 0.500000 0.500000 0.500000
#
# Coordination Sequence:
#
# PCOD9057706 Si02
#       8
#     2   2   2   2   2   2   2   2
#     4  11  23  43  73 101 142 182 223 283 344 404
#     4  11  23  43  73 101 142 182 223 283 344 404
#     4  11  22  43  69 102 142 182 228 277 340 410
#     4   9  19  37  63 106 141 178 226 270 340 416
#     4   9  19  35  65 100 145 180 220 276 340 402
#     4  11  22  43  69 102 142 182 228 277 340 410
#     4  12  28  48  70  99 133 176 238 287 340 406
#     4  12  28  48  70  99 133 176 238 287 340 406
#
# _framework density 23.309381999999999
#
# number of rings (size 3 to 8) (size 9 to 14) (size 15 to 20)
#    0.000    1.250    2.500    3.000    0.000    5.000 
#    0.000    2.500    0.000    0.000    0.000    0.000 
#    0.000    0.000    0.000    0.000    0.000    0.000 
#
# Total GULP energy -89563.148087 kJ/mol
# GULP energy per Si atom -5597.696755 kJ/mol
# Density = 2.325633 g / cm^3
# Si number density = 23.309382 Si / 1000 Ang^3
#
#
#
# Elastic Constant Matrix: (Units=GPa)
#
#
# Indices 1 2 3 4 5 6 
#
# 1 132.0223 22.1366 10.6840 19.4666 11.3617 -9.4643
# 2 22.1366 76.7891 17.5128 21.8844 12.2626 -10.5863
# 3 10.6840 17.5128 63.4815 18.0679 21.6683 4.7720
# 4 19.4666 21.8844 18.0679 27.3916 2.8302 6.8981
# 5 11.3617 12.2626 21.6683 2.8302 40.4781 1.1523
# 6 -9.4643 -10.5863 4.7720 6.8981 1.1523 45.8835
#
#
#
# Elastic Compliance Matrix: (Units=1/GPa)
#
#
# Indices 1 2 3 4 5 6 
#
# 1 0.009079 0.000242 0.001479 -0.008090 -0.002935 0.003065
# 2 0.000242 0.019698 0.000910 -0.017784 -0.005487 0.007312
# 3 0.001479 0.000910 0.024199 -0.016654 -0.012504 0.000816
# 4 -0.008090 -0.017784 -0.016654 0.069943 0.012106 -0.014859
# 5 -0.002935 -0.005487 -0.012504 0.012106 0.033130 -0.003223
# 6 0.003065 0.007312 0.000816 -0.014859 -0.003223 0.026343
#
#
# Mechanical properties :
#
#
# Convention : Reuss Voigt Hill
#
# Bulk Modulus (GPa) = 17.17030 41.43996 29.30513
# Shear Modulus (GPa) = 25.43982 37.54793 31.49388
#
# Velocity S-wave (km/s) = 3.30722 4.01789 3.67975
# Velocity P-wave (km/s) = 4.68677 6.27228 5.53657
#
# Compressibility (1/GPa) = 0.05824008
#
# Stress axis : x y z
#
# Youngs Moduli (GPa) = 110.13954 50.76654 41.32355
#
# Poissons Ratio (x) = -0.01230 -0.06113
# Poissons Ratio (y) = -0.02668 -0.03761
# Poissons Ratio (z) = -0.16293 -0.04621
#
# Static dielectric constant tensor:
#      x y z
#    x 1.859030 0.005150 0.030540 
#    y 0.005150 1.862190 -0.000300 
#    z 0.030540 -0.000300 1.886670 
# 
# From -- ./inp_files/187078.got.cif
#   From: 2010.05.17/outbox.cif.g08.bks.cpg/sg2_94_cif.got.tgz:187078.got - 2010.06.03 11:33:40.
