data_PCOD9057182
_publ_section_title
;
Structure prediction by ZEFSAII (Michael W. Deem and Ramdas Pophale) SiO2 
 PCOD9057182
Probable space group: P -1
;
_chemical_formula_sum "Si O2"
_cell_formula_units_Z 16
_cell_length_a 12.937107
_cell_length_b 8.560097
_cell_length_c 9.131548
_cell_angle_alpha 109.794930
_cell_angle_beta 71.808089
_cell_angle_gamma 64.503626
_cell_volume 723.262819
_symmetry_space_group_name_H-M "P -1"
_symmetry_group_IT_number 2
_symmetry_cell_setting 'triclinic'
loop_
_space_group_symop_operation_xyz
x,y,z
-x,-y,-z
loop_
_atom_site_type_symbol
_atom_site_label
_atom_site_fract_x
_atom_site_fract_y
_atom_site_fract_z
Si Si1 0.777667 0.639149 0.847608
Si Si2 0.284092 0.954401 0.461266
Si Si3 0.068133 0.047558 0.358163
Si Si4 0.834164 0.477841 0.455629
Si Si5 0.267187 0.931182 0.991003
Si Si6 0.501007 0.296854 0.946295
Si Si7 0.341422 0.652655 0.589723
Si Si8 0.948491 0.618562 0.212321
O O1 0.782537 0.626794 0.665115
O O2 0.913729 0.431547 0.791489
O O3 0.645794 0.654329 0.958062
O O4 0.775664 0.838057 0.946758
O O5 0.177154 0.047146 0.405433
O O6 0.194319 0.152415 0.671004
O O7 0.424360 0.850393 0.277205
O O8 0.307928 0.766715 0.484394
O O9 0.945615 0.254827 0.403816
O O10 0.000000 0.000000 0.500000
O O11 0.163472 0.918614 0.135291
O O12 0.718197 0.476399 0.431117
O O13 0.907168 0.518864 0.315900
O O14 0.281366 0.818822 0.798906
O O15 0.407353 0.818111 0.986006
O O16 0.500000 0.500000 0.000000
O O17 0.500000 0.500000 0.500000
O O18 0.000000 0.500000 0.000000
#
# Coordination Sequence:
#
# PCOD9057182 Si02
#       8
#     2   2   2   2   2   2   2   2
#     4  12  24  47  75 103 145 192 243 300 364 441
#     4  11  24  44  70 103 145 186 243 299 366 436
#     4  11  22  41  72 106 137 186 244 301 353 430
#     4  12  24  46  74 106 145 190 243 301 364 431
#     4  11  25  44  70 104 144 188 241 297 372 427
#     4  11  25  44  72 106 140 191 249 298 356 442
#     4  12  27  47  69 104 150 192 241 304 370 432
#     4  12  27  45  71 111 147 191 243 306 371 437
#
# _framework density 22.121972
#
# number of rings (size 3 to 8) (size 9 to 14) (size 15 to 20)
#    0.000    0.500    3.750    5.250    1.750    4.500 
#    0.000    1.875    0.000    0.000    0.000    0.000 
#    0.000    0.000    0.000    0.000    0.000    0.000 
#
# Total GULP energy -89290.446255 kJ/mol
# GULP energy per Si atom -5580.652891 kJ/mol
# Density = 2.207162 g / cm^3
# Si number density = 22.121972 Si / 1000 Ang^3
#
#
#
# Elastic Constant Matrix: (Units=GPa)
#
#
# Indices 1 2 3 4 5 6 
#
# 1 101.5836 14.8164 63.7013 -2.5288 -22.6045 0.0031
# 2 14.8164 71.6703 19.5290 3.4388 -26.4354 -1.7340
# 3 63.7013 19.5290 179.1743 -14.1641 -7.2929 12.2426
# 4 -2.5288 3.4388 -14.1641 29.3276 8.2531 -6.2978
# 5 -22.6045 -26.4354 -7.2929 8.2531 50.4894 0.2301
# 6 0.0031 -1.7340 12.2426 -6.2978 0.2301 21.2130
#
#
#
# Elastic Compliance Matrix: (Units=1/GPa)
#
#
# Indices 1 2 3 4 5 6 
#
# 1 0.014490 0.001171 -0.005388 -0.002914 0.006788 0.002264
# 2 0.001171 0.018797 -0.002581 -0.006219 0.011005 0.001060
# 3 -0.005388 -0.002581 0.008213 0.003897 -0.003197 -0.003758
# 4 -0.002914 -0.006219 0.003897 0.041593 -0.010841 0.009709
# 5 0.006788 0.011005 -0.003197 -0.010841 0.029921 -0.000799
# 6 0.002264 0.001060 -0.003758 0.009709 -0.000799 0.052287
#
#
# Mechanical properties :
#
#
# Convention : Reuss Voigt Hill
#
# Bulk Modulus (GPa) = 35.83769 60.94683 48.39226
# Shear Modulus (GPa) = 26.56752 37.16477 31.86614
#
# Velocity S-wave (km/s) = 3.46924 4.10322 3.79948
# Velocity P-wave (km/s) = 5.68179 7.07522 6.41644
#
# Compressibility (1/GPa) = 0.02790359
#
# Stress axis : x y z
#
# Youngs Moduli (GPa) = 69.01355 53.19911 121.76093
#
# Poissons Ratio (x) = -0.06230 0.65604
# Poissons Ratio (y) = -0.08082 0.31430
# Poissons Ratio (z) = 0.37184 0.13732
#
# Static dielectric constant tensor:
#      x y z
#    x 1.817980 0.036010 0.007860 
#    y 0.036010 1.868500 0.063170 
#    z 0.007860 0.063170 1.922930 
# 
# From -- ./inp_files/298734.got.cif
#   From: 2010.05.17/outbox.cif.g08.bks.cpg/sg2_150_cif.got.tgz:298734.got - 2010.06.03 11:33:40.
