data_PCOD9057650
_publ_section_title
;
Structure prediction by ZEFSAII (Michael W. Deem and Ramdas Pophale) SiO2 
 PCOD9057650
Probable space group: P -1
;
_chemical_formula_sum "Si O2"
_cell_formula_units_Z 16
_cell_length_a 9.099650
_cell_length_b 15.184778
_cell_length_c 15.288641
_cell_angle_alpha 151.335452
_cell_angle_beta 69.600592
_cell_angle_gamma 90.596899
_cell_volume 715.961285
_symmetry_space_group_name_H-M "P -1"
_symmetry_group_IT_number 2
_symmetry_cell_setting 'triclinic'
loop_
_space_group_symop_operation_xyz
x,y,z
-x,-y,-z
loop_
_atom_site_type_symbol
_atom_site_label
_atom_site_fract_x
_atom_site_fract_y
_atom_site_fract_z
Si Si1 0.687545 0.196649 0.896767
Si Si2 0.480758 0.729356 0.180754
Si Si3 0.914809 0.689883 0.470922
Si Si4 0.225436 0.782975 0.726052
Si Si5 0.416567 0.250947 0.288189
Si Si6 0.267949 0.645520 0.413747
Si Si7 0.924363 0.555351 0.962313
Si Si8 0.108040 0.032511 0.641653
O O1 0.549074 0.210821 0.863046
O O2 0.792745 0.977391 0.749928
O O3 0.516389 0.448051 0.199120
O O4 0.874927 0.155133 0.771661
O O5 0.269627 0.959760 0.470014
O O6 0.500000 0.500000 0.000000
O O7 0.692432 0.656537 0.103602
O O8 0.762682 0.670589 0.536614
O O9 0.135490 0.558499 0.358481
O O10 0.954213 0.631208 0.306877
O O11 0.311701 0.505382 0.479287
O O12 0.389997 0.799961 0.747230
O O13 0.195044 0.822536 0.663267
O O14 0.000000 0.000000 0.000000
O O15 0.500000 0.000000 0.000000
O O16 0.212721 0.787722 0.458885
O O17 0.000000 0.500000 0.000000
O O18 0.916646 0.772081 0.123331
#
# Coordination Sequence:
#
# PCOD9057650 Si02
#       8
#     2   2   2   2   2   2   2   2
#     4  11  22  43  67  95 132 181 233 279 343 407
#     4  12  21  43  65  91 131 183 231 281 340 402
#     4  11  25  44  70  99 138 185 228 286 347 422
#     4  11  27  46  76 107 143 185 232 296 359 434
#     4  11  26  49  74 109 145 183 238 294 362 429
#     4  11  24  45  69 102 135 178 235 280 350 417
#     4  12  26  42  63 101 140 179 233 285 343 408
#     4  11  25  39  66  95 136 176 226 287 338 409
#
# _framework density 22.347576
#
# number of rings (size 3 to 8) (size 9 to 14) (size 15 to 20)
#    0.000    0.750    2.500    4.500    3.500    6.000 
#    0.000    0.000    0.000    0.000    0.000    0.000 
#    0.000    0.000    0.000    0.000    0.000    0.000 
#
# Total GULP energy -89238.700998 kJ/mol
# GULP energy per Si atom -5577.418812 kJ/mol
# Density = 2.229671 g / cm^3
# Si number density = 22.347576 Si / 1000 Ang^3
#
#
#
# Elastic Constant Matrix: (Units=GPa)
#
#
# Indices 1 2 3 4 5 6 
#
# 1 152.8830 33.7346 42.4541 -7.7586 -17.3044 4.8138
# 2 33.7346 53.8099 18.1341 -20.1039 -6.8285 3.7865
# 3 42.4541 18.1341 126.6508 -18.8272 -11.6218 1.5679
# 4 -7.7586 -20.1039 -18.8272 43.3860 6.0888 7.3207
# 5 -17.3044 -6.8285 -11.6218 6.0888 41.0482 -3.7353
# 6 4.8138 3.7865 1.5679 7.3207 -3.7353 22.3718
#
#
#
# Elastic Compliance Matrix: (Units=1/GPa)
#
#
# Indices 1 2 3 4 5 6 
#
# 1 0.008428 -0.005075 -0.002205 -0.002199 0.002440 0.000327
# 2 -0.005075 0.027183 -0.000196 0.012960 -0.000304 -0.007787
# 3 -0.002205 -0.000196 0.009308 0.003603 0.001034 -0.001151
# 4 -0.002199 0.012960 0.003603 0.033034 -0.003873 -0.013429
# 5 0.002440 -0.000304 0.001034 -0.003873 0.026678 0.005176
# 6 0.000327 -0.007787 -0.001151 -0.013429 0.005176 0.051286
#
#
# Mechanical properties :
#
#
# Convention : Reuss Voigt Hill
#
# Bulk Modulus (GPa) = 33.37184 57.99882 45.68533
# Shear Modulus (GPa) = 27.64612 37.29592 32.47102
#
# Velocity S-wave (km/s) = 3.52105 4.08965 3.81596
# Velocity P-wave (km/s) = 5.61212 6.95052 6.31687
#
# Compressibility (1/GPa) = 0.02996538
#
# Stress axis : x y z
#
# Youngs Moduli (GPa) = 118.65902 36.78769 107.43752
#
# Poissons Ratio (x) = 0.18671 0.23694
# Poissons Ratio (y) = 0.60223 0.02104
# Poissons Ratio (z) = 0.26169 0.00720
#
# Static dielectric constant tensor:
#      x y z
#    x 2.144600 0.094160 -0.125000 
#    y 0.094160 1.880250 -0.043780 
#    z -0.125000 -0.043780 2.064080 
# 
# From -- ./inp_files/340613.got.cif
#   From: 2010.05.17/outbox.cif.g08.bks.cpg/sg2_171_cif.got.tgz:340613.got - 2010.06.03 11:33:40.
