data_PCOD9057902
_publ_section_title
;
Structure prediction by ZEFSAII (Michael W. Deem and Ramdas Pophale) SiO2 
 PCOD9057902
Probable space group: P -1
;
_chemical_formula_sum "Si O2"
_cell_formula_units_Z 16
_cell_length_a 11.477787
_cell_length_b 12.086679
_cell_length_c 16.968769
_cell_angle_alpha 157.934759
_cell_angle_beta 122.943310
_cell_angle_gamma 56.355478
_cell_volume 732.719259
_symmetry_space_group_name_H-M "P -1"
_symmetry_group_IT_number 2
_symmetry_cell_setting 'triclinic'
loop_
_space_group_symop_operation_xyz
x,y,z
-x,-y,-z
loop_
_atom_site_type_symbol
_atom_site_label
_atom_site_fract_x
_atom_site_fract_y
_atom_site_fract_z
Si Si1 0.615654 0.646227 0.592834
Si Si2 0.229017 0.289386 0.876540
Si Si3 0.138693 0.951437 0.252074
Si Si4 0.944591 0.257693 0.087345
Si Si5 0.902369 0.262553 0.482255
Si Si6 0.433034 0.195355 0.500496
Si Si7 0.533187 0.266120 0.020121
Si Si8 0.661826 0.651477 0.220623
O O1 0.500000 0.500000 0.500000
O O2 0.761554 0.427674 0.498329
O O3 0.562465 0.741071 0.548845
O O4 0.630101 0.947999 0.844425
O O5 0.278739 0.292977 0.806419
O O6 0.134029 0.037393 0.689644
O O7 0.157935 0.629024 0.089141
O O8 0.371446 0.221321 0.935017
O O9 0.290459 0.057782 0.372212
O O10 0.084345 0.895363 0.107006
O O11 0.024609 0.174751 0.405351
O O12 0.798032 0.471931 0.196524
O O13 0.051335 0.497165 0.281610
O O14 0.000000 0.000000 0.000000
O O15 0.433796 0.500123 0.749054
O O16 0.572616 0.962869 0.420995
O O17 0.554615 0.419973 0.045008
#
# Coordination Sequence:
#
# PCOD9057902 Si02
#       8
#     2   2   2   2   2   2   2   2
#     4  12  26  48  68  99 145 180 228 289 342 411
#     4  11  23  45  70 101 142 179 228 290 341 406
#     4  11  26  45  71 103 138 179 235 286 338 414
#     4  11  26  45  70 101 139 186 227 282 346 414
#     4  12  26  47  68  99 146 185 223 282 354 412
#     4  12  25  43  74 107 132 180 239 289 339 405
#     4  12  23  42  72 104 135 175 233 289 340 399
#     4  11  22  43  74 102 137 179 234 289 337 401
#
# _framework density 21.836466999999999
#
# number of rings (size 3 to 8) (size 9 to 14) (size 15 to 20)
#    0.000    0.500    3.750    4.875    1.750    6.500 
#    4.500    0.000    0.000    0.000    0.000    0.000 
#    0.000    0.000    0.000    0.000    0.000    0.000 
#
# Total GULP energy -89456.902859 kJ/mol
# GULP energy per Si atom -5591.056429 kJ/mol
# Density = 2.178677 g / cm^3
# Si number density = 21.836467 Si / 1000 Ang^3
#
#
#
# Elastic Constant Matrix: (Units=GPa)
#
#
# Indices 1 2 3 4 5 6 
#
# 1 112.1035 47.3258 62.2916 2.9439 -5.9745 -8.3956
# 2 47.3258 96.0251 59.8318 6.7042 -4.8890 -15.6710
# 3 62.2916 59.8318 163.7779 3.1111 4.1352 3.6114
# 4 2.9439 6.7042 3.1111 38.4090 -8.4001 -4.3212
# 5 -5.9745 -4.8890 4.1352 -8.4001 50.9475 9.1137
# 6 -8.3956 -15.6710 3.6114 -4.3212 9.1137 24.8064
#
#
#
# Elastic Compliance Matrix: (Units=1/GPa)
#
#
# Indices 1 2 3 4 5 6 
#
# 1 0.012645 -0.003628 -0.003569 0.000440 0.001108 0.002177
# 2 -0.003628 0.017087 -0.005055 -0.001233 -0.000410 0.010239
# 3 -0.003569 -0.005055 0.009459 -0.000399 -0.000740 -0.005576
# 4 0.000440 -0.001233 -0.000399 0.027432 0.003999 0.002738
# 5 0.001108 -0.000410 -0.000740 0.003999 0.021699 -0.007052
# 6 0.002177 0.010239 -0.005576 0.002738 -0.007052 0.051397
#
#
# Mechanical properties :
#
#
# Convention : Reuss Voigt Hill
#
# Bulk Modulus (GPa) = 68.07468 78.97832 73.52650
# Shear Modulus (GPa) = 29.56514 36.32976 32.94745
#
# Velocity S-wave (km/s) = 3.68358 4.08330 3.88858
# Velocity P-wave (km/s) = 7.02382 7.64707 7.34206
#
# Compressibility (1/GPa) = 0.01468975
#
# Stress axis : x y z
#
# Youngs Moduli (GPa) = 79.08121 58.52254 105.72037
#
# Poissons Ratio (x) = 0.21230 0.37727
# Poissons Ratio (y) = 0.28688 0.53438
# Poissons Ratio (z) = 0.28221 0.29581
#
# Static dielectric constant tensor:
#      x y z
#    x 1.804830 -0.012810 -0.001710 
#    y -0.012810 1.820190 -0.019010 
#    z -0.001710 -0.019010 1.818880 
# 
# From -- ./inp_files/569269.got.cif
#   From: 2010.05.17/outbox.cif.g08.bks.cpg/sg2_285_cif.got.tgz:569269.got - 2010.06.03 11:33:40.
