data_PCOD9057763
_publ_section_title
;
Structure prediction by ZEFSAII (Michael W. Deem and Ramdas Pophale) SiO2 
 PCOD9057763
Probable space group: P -1
;
_chemical_formula_sum "Si O2"
_cell_formula_units_Z 14
_cell_length_a 18.086765
_cell_length_b 19.954236
_cell_length_c 8.480950
_cell_angle_alpha 33.559059
_cell_angle_beta 35.181300
_cell_angle_gamma 20.407873
_cell_volume 579.440717
_symmetry_space_group_name_H-M "P -1"
_symmetry_group_IT_number 2
_symmetry_cell_setting 'triclinic'
loop_
_space_group_symop_operation_xyz
x,y,z
-x,-y,-z
loop_
_atom_site_type_symbol
_atom_site_label
_atom_site_fract_x
_atom_site_fract_y
_atom_site_fract_z
Si Si1 0.434450 0.080088 0.632043
Si Si2 0.517474 0.362622 0.406741
Si Si3 0.796677 0.739657 0.911584
Si Si4 0.932178 0.211089 0.956413
Si Si5 0.817599 0.962102 0.818352
Si Si6 0.026006 0.816942 0.413227
Si Si7 0.352208 0.350650 0.430055
O O1 0.410894 0.244673 0.370397
O O2 0.500000 0.000000 0.500000
O O3 0.638745 0.879899 0.768387
O O4 0.229930 0.146058 0.892172
O O5 0.700524 0.324799 0.167686
O O6 0.281111 0.593451 0.402099
O O7 0.509999 0.308517 0.350052
O O8 0.591007 0.202511 0.712316
O O9 0.887075 0.799928 0.682819
O O10 0.668740 0.760566 0.223271
O O11 0.000000 0.500000 0.000000
O O12 0.080051 0.085064 0.098542
O O13 0.016120 0.100777 0.854984
O O14 0.864466 0.404738 0.678001
O O15 0.960435 0.906400 0.530328
#
# Coordination Sequence:
#
# PCOD9057763 Si02
#       7
#     2   2   2   2   2   2   2
#     4  12  26  42  68 108 142 173 231 295 354 420
#     4  11  24  47  72 100 142 186 239 287 334 421
#     4  12  20  40  69  97 134 179 222 284 358 410
#     4  11  26  45  70 104 140 187 240 280 340 418
#     4  12  25  45  70 103 141 184 233 292 353 407
#     4  11  23  43  72  99 137 185 232 283 357 407
#     4  11  22  43  70  95 139 181 227 285 348 415
#
# _framework density 24.161227
#
# number of rings (size 3 to 8) (size 9 to 14) (size 15 to 20)
#    0.000    0.571    5.714    4.286    0.000    4.000 
#    0.000    5.714    0.000    0.000    0.000    0.000 
#    0.000    0.000    0.000    0.000    0.000    0.000 
#
# Total GULP energy -78189.635970 kJ/mol
# GULP energy per Si atom -5584.973998 kJ/mol
# Density = 2.410624 g / cm^3
# Si number density = 24.161227 Si / 1000 Ang^3
#
#
#
# Elastic Constant Matrix: (Units=GPa)
#
#
# Indices 1 2 3 4 5 6 
#
# 1 150.7628 56.5472 26.3292 -5.3378 22.3391 -9.4128
# 2 56.5472 85.8407 8.7974 2.8408 21.6290 -3.2825
# 3 26.3292 8.7974 62.5496 4.8268 15.0105 -10.0417
# 4 -5.3378 2.8408 4.8268 38.9742 -8.2347 -0.4800
# 5 22.3391 21.6290 15.0105 -8.2347 44.9851 8.5750
# 6 -9.4128 -3.2825 -10.0417 -0.4800 8.5750 33.8057
#
#
#
# Elastic Compliance Matrix: (Units=1/GPa)
#
#
# Indices 1 2 3 4 5 6 
#
# 1 0.009623 -0.005805 -0.002908 0.001918 -0.000956 0.001521
# 2 -0.005805 0.017345 0.002547 -0.003934 -0.007537 0.002680
# 3 -0.002908 0.002547 0.020667 -0.004965 -0.009074 0.007808
# 4 0.001918 -0.003934 -0.004965 0.028561 0.008405 -0.003049
# 5 -0.000956 -0.007537 -0.009074 0.008405 0.033180 -0.011990
# 6 0.001521 0.002680 0.007808 -0.003049 -0.011990 0.035582
#
#
# Mechanical properties :
#
#
# Convention : Reuss Voigt Hill
#
# Bulk Modulus (GPa) = 28.32788 53.61119 40.96953
# Shear Modulus (GPa) = 29.57561 37.38495 33.48028
#
# Velocity S-wave (km/s) = 3.50250 3.93786 3.72654
# Velocity P-wave (km/s) = 5.30157 6.55078 5.95900
#
# Compressibility (1/GPa) = 0.03530092
#
# Stress axis : x y z
#
# Youngs Moduli (GPa) = 103.91933 57.65470 48.38550
#
# Poissons Ratio (x) = 0.33471 0.14073
# Poissons Ratio (y) = 0.60330 -0.12324
# Poissons Ratio (z) = 0.30225 -0.14684
#
# Static dielectric constant tensor:
#      x y z
#    x 4.954780 1.837390 1.593520 
#    y 1.837390 2.977230 0.977600 
#    z 1.593520 0.977600 2.966430 
# 
# From -- ./inp_files/337401.got.cif
#   From: 2010.05.17/outbox.cif.g08.bks.cpg/sg2_169_cif.got.tgz:337401.got - 2010.06.03 11:33:40.
