data_PCOD9057636
_publ_section_title
;
Structure prediction by ZEFSAII (Michael W. Deem and Ramdas Pophale) SiO2 
 PCOD9057636
Probable space group: P -1
;
_chemical_formula_sum "Si O2"
_cell_formula_units_Z 16
_cell_length_a 18.629998
_cell_length_b 5.855605
_cell_length_c 7.503851
_cell_angle_alpha 112.407391
_cell_angle_beta 110.321750
_cell_angle_gamma 63.805681
_cell_volume 663.065097
_symmetry_space_group_name_H-M "P -1"
_symmetry_group_IT_number 2
_symmetry_cell_setting 'triclinic'
loop_
_space_group_symop_operation_xyz
x,y,z
-x,-y,-z
loop_
_atom_site_type_symbol
_atom_site_label
_atom_site_fract_x
_atom_site_fract_y
_atom_site_fract_z
Si Si1 0.672651 0.354384 0.344642
Si Si2 0.750992 0.965939 0.581445
Si Si3 0.075170 0.079518 0.653304
Si Si4 0.545516 0.188417 0.014255
Si Si5 0.915052 0.934352 0.729961
Si Si6 0.404135 0.068796 0.388192
Si Si7 0.085138 0.576507 0.952553
Si Si8 0.788567 0.438183 0.232600
O O1 0.743271 0.178556 0.483444
O O2 0.607180 0.213782 0.224483
O O3 0.633245 0.628898 0.492947
O O4 0.705193 0.379783 0.180325
O O5 0.831947 0.937996 0.758140
O O6 0.661420 0.047970 0.617246
O O7 0.769272 0.686599 0.419797
O O8 0.093217 0.178281 0.505336
O O9 0.141478 0.815971 0.704088
O O10 0.069007 0.303036 0.860031
O O11 0.000000 0.000000 0.500000
O O12 0.500000 0.500000 0.000000
O O13 0.500000 0.000000 0.000000
O O14 0.592880 0.016659 0.838041
O O15 0.910040 0.239402 0.824045
O O16 0.003771 0.761939 0.830721
O O17 0.500000 0.000000 0.500000
O O18 0.171622 0.515017 0.903202
#
# Coordination Sequence:
#
# PCOD9057636 Si02
#       8
#     2   2   2   2   2   2   2   2
#     4  11  25  45  72 103 142 185 236 292 356 432
#     4  11  24  45  70  99 142 182 234 293 355 425
#     4  12  22  42  68  91 130 183 230 286 353 416
#     4  12  28  49  78 110 143 189 242 296 365 442
#     4  11  23  43  63  98 134 179 232 287 353 417
#     4  11  25  47  73 104 142 186 231 293 358 429
#     4  11  24  42  65  95 138 181 230 295 342 426
#     4  11  22  43  66  97 136 180 230 287 350 416
#
# _framework density 24.130362999999999
#
# number of rings (size 3 to 8) (size 9 to 14) (size 15 to 20)
#    0.000    0.750    5.000    1.875    5.250    1.500 
#    6.750    0.000    0.000    0.000    0.000    0.000 
#    0.000    0.000    0.000    0.000    0.000    0.000 
#
# Total GULP energy -89198.885104 kJ/mol
# GULP energy per Si atom -5574.930319 kJ/mol
# Density = 2.407544 g / cm^3
# Si number density = 24.130363 Si / 1000 Ang^3
#
#
#
# Elastic Constant Matrix: (Units=GPa)
#
#
# Indices 1 2 3 4 5 6 
#
# 1 161.5352 22.4904 24.1304 19.6844 2.3698 14.3809
# 2 22.4904 82.6649 12.5025 24.7895 -3.6206 -15.6657
# 3 24.1304 12.5025 93.2372 16.3851 -6.4241 -2.7145
# 4 19.6844 24.7895 16.3851 26.8428 -0.7910 -0.7249
# 5 2.3698 -3.6206 -6.4241 -0.7910 34.5992 2.0863
# 6 14.3809 -15.6657 -2.7145 -0.7249 2.0863 32.8504
#
#
#
# Elastic Compliance Matrix: (Units=1/GPa)
#
#
# Indices 1 2 3 4 5 6 
#
# 1 0.007391 -0.001671 -0.001295 -0.003221 -0.000744 -0.004163
# 2 -0.001671 0.019383 0.001217 -0.017118 0.001398 0.009609
# 3 -0.001295 0.001217 0.012452 -0.007659 0.002241 0.001865
# 4 -0.003221 -0.017118 -0.007659 0.059900 -0.001262 -0.005984
# 5 -0.000744 0.001398 0.002241 -0.001262 0.029531 -0.000726
# 6 -0.004163 0.009609 0.001865 -0.005984 -0.000726 0.036914
#
#
# Mechanical properties :
#
#
# Convention : Reuss Voigt Hill
#
# Bulk Modulus (GPa) = 27.98860 50.63155 39.31007
# Shear Modulus (GPa) = 27.62796 37.41274 32.52035
#
# Velocity S-wave (km/s) = 3.38738 3.94184 3.67508
# Velocity P-wave (km/s) = 5.18875 6.46108 5.85955
#
# Compressibility (1/GPa) = 0.03572884
#
# Stress axis : x y z
#
# Youngs Moduli (GPa) = 135.30579 51.59224 80.30891
#
# Poissons Ratio (x) = 0.08619 0.10402
# Poissons Ratio (y) = 0.22603 -0.09778
# Poissons Ratio (z) = 0.17525 -0.06281
#
# Static dielectric constant tensor:
#      x y z
#    x 2.157770 0.071240 0.014990 
#    y 0.071240 1.949490 -0.021780 
#    z 0.014990 -0.021780 1.879570 
# 
# From -- ./inp_files/46521.got.cif
#   From: 2010.05.17/outbox.cif.g08.bks.cpg/sg2_24_cif.got.tgz:46521.got - 2010.06.03 11:33:40.
