data_PCOD9057605
_publ_section_title
;
Structure prediction by ZEFSAII (Michael W. Deem and Ramdas Pophale) SiO2 
 PCOD9057605
Probable space group: P -1
;
_chemical_formula_sum "Si O2"
_cell_formula_units_Z 14
_cell_length_a 5.095577
_cell_length_b 16.311306
_cell_length_c 20.478420
_cell_angle_alpha 26.152264
_cell_angle_beta 129.897400
_cell_angle_gamma 118.489160
_cell_volume 550.458136
_symmetry_space_group_name_H-M "P -1"
_symmetry_group_IT_number 2
_symmetry_cell_setting 'triclinic'
loop_
_space_group_symop_operation_xyz
x,y,z
-x,-y,-z
loop_
_atom_site_type_symbol
_atom_site_label
_atom_site_fract_x
_atom_site_fract_y
_atom_site_fract_z
Si Si1 0.318117 0.240956 0.065683
Si Si2 0.117056 0.313184 0.698745
Si Si3 0.058663 0.918294 0.993592
Si Si4 0.151638 0.581812 0.612469
Si Si5 0.608703 0.812475 0.446508
Si Si6 0.274590 0.534915 0.095975
Si Si7 0.718122 0.138671 0.405705
O O1 0.673205 0.292160 0.064168
O O2 0.139613 0.201930 0.996833
O O3 0.082539 0.403354 0.961251
O O4 0.395350 0.036150 0.260572
O O5 0.538991 0.218205 0.841786
O O6 0.015842 0.408995 0.684927
O O7 0.000000 0.500000 0.500000
O O8 0.997757 0.124246 0.797786
O O9 0.000000 0.000000 0.000000
O O10 0.388407 0.673460 0.537142
O O11 0.424987 0.501080 0.772800
O O12 0.784957 0.748212 0.450298
O O13 0.979931 0.789841 0.559611
O O14 0.394944 0.343607 0.205880
O O15 0.500000 0.000000 0.500000
O O16 0.000000 0.000000 0.500000
#
# Coordination Sequence:
#
# PCOD9057605 Si02
#       7
#     2   2   2   2   2   2   2
#     4  12  24  44  65  98 137 172 225 274 331 399
#     4  11  25  41  63  93 133 180 234 280 340 385
#     4  11  26  41  63  95 137 180 227 294 336 373
#     4  11  22  43  64  93 129 179 229 266 320 403
#     4  11  25  41  70  98 129 173 222 269 332 398
#     4  11  23  42  70  94 129 178 210 266 337 396
#     4  11  23  44  70  98 131 165 214 268 326 409
#
# _framework density 25.433361000000001
#
# number of rings (size 3 to 8) (size 9 to 14) (size 15 to 20)
#    0.000    0.857    1.429    6.857    6.000    0.571 
#    0.000    4.286    0.000    0.000    0.000    0.000 
#    0.000    0.000    0.000    0.000    0.000    0.000 
#
# Total GULP energy -78053.694638 kJ/mol
# GULP energy per Si atom -5575.263903 kJ/mol
# Density = 2.537547 g / cm^3
# Si number density = 25.433361 Si / 1000 Ang^3
#
#
#
# Elastic Constant Matrix: (Units=GPa)
#
#
# Indices 1 2 3 4 5 6 
#
# 1 145.9718 33.9926 31.3282 -25.0136 5.6701 5.6769
# 2 33.9926 60.6128 4.4360 -10.4651 3.8910 2.7981
# 3 31.3282 4.4360 90.1537 -18.9963 2.5177 -5.9116
# 4 -25.0136 -10.4651 -18.9963 42.1465 -0.5341 5.9679
# 5 5.6701 3.8910 2.5177 -0.5341 50.6356 -16.5947
# 6 5.6769 2.7981 -5.9116 5.9679 -16.5947 39.9243
#
#
#
# Elastic Compliance Matrix: (Units=1/GPa)
#
#
# Indices 1 2 3 4 5 6 
#
# 1 0.009072 -0.004087 -0.002303 0.003662 -0.001353 -0.002454
# 2 -0.004087 0.019436 0.001047 0.003102 -0.001635 -0.001769
# 3 -0.002303 0.001047 0.012884 0.004485 0.000084 0.001526
# 4 0.003662 0.003102 0.004485 0.029434 -0.002347 -0.005449
# 5 -0.001353 -0.001635 0.000084 -0.002347 0.023405 0.010399
# 6 -0.002454 -0.001769 0.001526 -0.005449 0.010399 0.030883
#
#
# Mechanical properties :
#
#
# Convention : Reuss Voigt Hill
#
# Bulk Modulus (GPa) = 32.56675 48.47244 40.51960
# Shear Modulus (GPa) = 34.23849 41.67336 37.95593
#
# Velocity S-wave (km/s) = 3.67305 4.05227 3.86731
# Velocity P-wave (km/s) = 5.55166 6.40269 5.99230
#
# Compressibility (1/GPa) = 0.03070616
#
# Stress axis : x y z
#
# Youngs Moduli (GPa) = 110.22800 51.45158 77.61735
#
# Poissons Ratio (x) = 0.21027 0.17875
# Poissons Ratio (y) = 0.45048 -0.08128
# Poissons Ratio (z) = 0.25386 -0.05388
#
# Static dielectric constant tensor:
#      x y z
#    x 2.097770 -0.433260 0.331170 
#    y -0.433260 3.690920 -1.835040 
#    z 0.331170 -1.835040 4.248700 
# 
# From -- ./inp_files/142139.got.cif
#   From: 2010.05.17/outbox.cif.g08.bks.cpg/sg2_72_cif.got.tgz:142139.got - 2010.06.03 11:33:40.
