data_PCOD9057657
_publ_section_title
;
Structure prediction by ZEFSAII (Michael W. Deem and Ramdas Pophale) SiO2 
 PCOD9057657
Probable space group: P -1
;
_chemical_formula_sum "Si O2"
_cell_formula_units_Z 16
_cell_length_a 21.450716
_cell_length_b 6.900039
_cell_length_c 19.149787
_cell_angle_alpha 35.826724
_cell_angle_beta 153.016431
_cell_angle_gamma 137.017674
_cell_volume 752.338098
_symmetry_space_group_name_H-M "P -1"
_symmetry_group_IT_number 2
_symmetry_cell_setting 'triclinic'
loop_
_space_group_symop_operation_xyz
x,y,z
-x,-y,-z
loop_
_atom_site_type_symbol
_atom_site_label
_atom_site_fract_x
_atom_site_fract_y
_atom_site_fract_z
Si Si1 0.522200 0.629445 0.404386
Si Si2 0.678732 0.304423 0.060521
Si Si3 0.790683 0.364719 0.773334
Si Si4 0.814240 0.640304 0.343487
Si Si5 0.085238 0.544900 0.977889
Si Si6 0.326779 0.331131 0.186567
Si Si7 0.474597 0.631734 0.857570
Si Si8 0.904692 0.694360 0.257191
O O1 0.500000 0.500000 0.500000
O O2 0.686260 0.616933 0.561588
O O3 0.439736 0.369732 0.348404
O O4 0.476121 0.999473 0.227841
O O5 0.793276 0.565498 0.128229
O O6 0.758665 0.967325 0.229314
O O7 0.629922 0.408490 0.905350
O O8 0.550143 0.357704 0.966943
O O9 0.940356 0.347066 0.893327
O O10 0.705826 0.019382 0.779920
O O11 0.829334 0.471514 0.859679
O O12 0.689789 0.381218 0.309823
O O13 0.836058 0.679080 0.270242
O O14 0.961869 0.526720 0.549188
O O15 0.051978 0.928189 0.824131
O O16 0.184054 0.436538 0.047212
O O17 0.500000 0.500000 0.000000
#
# Coordination Sequence:
#
# PCOD9057657 Si02
#       8
#     2   2   2   2   2   2   2   2
#     4  12  25  46  71 102 142 185 231 293 355 412
#     4  12  23  43  70 100 135 188 234 285 355 423
#     4  11  24  41  68  98 136 181 231 290 347 413
#     4  11  24  41  68  98 136 181 231 290 347 413
#     4  11  22  43  67  97 139 179 231 288 353 413
#     4  12  23  43  70 100 135 188 234 285 355 423
#     4  12  25  46  71 102 142 185 231 293 355 412
#     4  11  22  43  67  97 139 179 231 288 353 413
#
# _framework density 21.267035
#
# number of rings (size 3 to 8) (size 9 to 14) (size 15 to 20)
#    0.000    0.500    5.000    4.500    0.000    0.000 
#    0.000    1.250    0.000    0.000    0.000    0.000 
#    0.000    0.000    0.000    0.000    0.000    0.000 
#
# Total GULP energy -89345.996735 kJ/mol
# GULP energy per Si atom -5584.124796 kJ/mol
# Density = 2.121863 g / cm^3
# Si number density = 21.267035 Si / 1000 Ang^3
#
#
#
# Elastic Constant Matrix: (Units=GPa)
#
#
# Indices 1 2 3 4 5 6 
#
# 1 107.8882 5.7896 44.7015 6.0274 17.3093 -9.4077
# 2 5.7896 78.0368 39.7626 1.1471 1.8288 5.4695
# 3 44.7015 39.7626 114.9812 -0.5161 8.4069 -9.6570
# 4 6.0274 1.1471 -0.5161 44.3291 -2.4029 2.0452
# 5 17.3093 1.8288 8.4069 -2.4029 37.4342 -1.6917
# 6 -9.4077 5.4695 -9.6570 2.0452 -1.6917 26.3672
#
#
#
# Elastic Compliance Matrix: (Units=1/GPa)
#
#
# Indices 1 2 3 4 5 6 
#
# 1 0.012218 0.001505 -0.004755 -0.002110 -0.004693 0.002168
# 2 0.001505 0.016518 -0.006728 -0.000479 -0.000264 -0.005333
# 3 -0.004755 -0.006728 0.013267 0.000757 -0.000201 0.004487
# 4 -0.002110 -0.000479 0.000757 0.023080 0.002219 -0.002024
# 5 -0.004693 -0.000264 -0.000201 0.002219 0.029084 0.000001
# 6 0.002168 -0.005333 0.004487 -0.002024 0.000001 0.041606
#
#
# Mechanical properties :
#
#
# Convention : Reuss Voigt Hill
#
# Bulk Modulus (GPa) = 45.35603 53.49039 49.42321
# Shear Modulus (GPa) = 30.66005 35.66962 33.16483
#
# Velocity S-wave (km/s) = 3.80105 4.09984 3.95327
# Velocity P-wave (km/s) = 6.37473 6.90058 6.64286
#
# Compressibility (1/GPa) = 0.02204778
#
# Stress axis : x y z
#
# Youngs Moduli (GPa) = 81.84658 60.53956 75.37315
#
# Poissons Ratio (x) = -0.09113 0.35839
# Poissons Ratio (y) = -0.12321 0.50713
# Poissons Ratio (z) = 0.38917 0.40733
#
# Static dielectric constant tensor:
#      x y z
#    x 1.777340 0.019420 -0.013480 
#    y 0.019420 1.794250 -0.026640 
#    z -0.013480 -0.026640 1.792520 
# 
# From -- ./inp_files/120147.got.cif
#   From: 2010.05.17/outbox.cif.g08.bks.cpg/sg2_61_cif.got.tgz:120147.got - 2010.06.03 11:33:40.
