data_PCOD9057547
_publ_section_title
;
Structure prediction by ZEFSAII (Michael W. Deem and Ramdas Pophale) SiO2 
 PCOD9057547
Probable space group: P -1
;
_chemical_formula_sum "Si O2"
_cell_formula_units_Z 16
_cell_length_a 15.783353
_cell_length_b 12.180866
_cell_length_c 18.890797
_cell_angle_alpha 28.899739
_cell_angle_beta 149.518364
_cell_angle_gamma 131.275856
_cell_volume 821.101104
_symmetry_space_group_name_H-M "P -1"
_symmetry_group_IT_number 2
_symmetry_cell_setting 'triclinic'
loop_
_space_group_symop_operation_xyz
x,y,z
-x,-y,-z
loop_
_atom_site_type_symbol
_atom_site_label
_atom_site_fract_x
_atom_site_fract_y
_atom_site_fract_z
Si Si1 0.009839 0.244732 0.903310
Si Si2 0.963461 0.250541 0.028135
Si Si3 0.579398 0.257243 0.978312
Si Si4 0.427740 0.571790 0.830023
Si Si5 0.438735 0.032023 0.355810
Si Si6 0.728148 0.548684 0.818421
Si Si7 0.765575 0.720372 0.369781
Si Si8 0.984509 0.268540 0.580629
O O1 0.904512 0.480189 0.645126
O O2 0.924515 0.301274 0.888582
O O3 0.225156 0.171789 0.111310
O O4 0.000000 0.000000 0.000000
O O5 0.135905 0.320370 0.132788
O O6 0.810224 0.403908 0.887399
O O7 0.996398 0.965406 0.225599
O O8 0.674847 0.961703 0.216764
O O9 0.521505 0.374072 0.947697
O O10 0.705777 0.373629 0.963100
O O11 0.397866 0.325687 0.761178
O O12 0.462583 0.810207 0.697996
O O13 0.217321 0.632644 0.648563
O O14 0.500000 0.500000 0.000000
O O15 0.500000 0.000000 0.500000
O O16 0.528695 0.757281 0.545057
O O17 0.871671 0.801115 0.339466
O O18 0.000000 0.500000 0.500000
#
# Coordination Sequence:
#
# PCOD9057547 Si02
#       8
#     2   2   2   2   2   2   2   2
#     4  12  25  44  68 105 135 177 233 285 329 401
#     4  11  24  42  67 103 131 180 227 273 344 400
#     4  11  23  46  68  95 137 187 219 276 351 407
#     4  12  25  40  65 102 132 171 227 282 334 398
#     4  12  22  43  69  96 134 181 225 270 339 406
#     4  11  22  42  73  94 134 184 225 272 335 419
#     4  11  25  43  69  97 137 181 227 273 347 407
#     4  12  22  43  68  98 136 178 225 274 339 412
#
# _framework density 19.48603
#
# number of rings (size 3 to 8) (size 9 to 14) (size 15 to 20)
#    0.000    0.500    6.250    2.250    0.000    1.000 
#    0.000    4.375    0.000    0.000    0.000    0.000 
#    0.000    0.000    0.000    0.000    0.000    0.000 
#
# Total GULP energy -89393.853715 kJ/mol
# GULP energy per Si atom -5587.115857 kJ/mol
# Density = 1.944168 g / cm^3
# Si number density = 19.486030 Si / 1000 Ang^3
#
#
#
# Elastic Constant Matrix: (Units=GPa)
#
#
# Indices 1 2 3 4 5 6 
#
# 1 66.1033 18.9671 11.6108 -2.3753 -0.4678 6.0668
# 2 18.9671 89.5536 34.7835 -9.9570 -8.1606 11.3030
# 3 11.6108 34.7835 114.8838 -4.2287 -6.5892 6.0930
# 4 -2.3753 -9.9570 -4.2287 28.5524 0.7356 10.1048
# 5 -0.4678 -8.1606 -6.5892 0.7356 38.4824 -6.1839
# 6 6.0668 11.3030 6.0930 10.1048 -6.1839 36.9347
#
#
#
# Elastic Compliance Matrix: (Units=1/GPa)
#
#
# Indices 1 2 3 4 5 6 
#
# 1 0.016300 -0.002893 -0.000673 0.001016 -0.000889 -0.002108
# 2 -0.002893 0.014567 -0.003556 0.005958 0.001566 -0.004764
# 3 -0.000673 -0.003556 0.009929 0.000283 0.000873 -0.000370
# 4 0.001016 0.005958 0.000283 0.042178 -0.001710 -0.013862
# 5 -0.000889 0.001566 0.000873 -0.001710 0.027220 0.004548
# 6 -0.002108 -0.004764 -0.000370 -0.013862 0.004548 0.033494
#
#
# Mechanical properties :
#
#
# Convention : Reuss Voigt Hill
#
# Bulk Modulus (GPa) = 37.66265 44.58486 41.12375
# Shear Modulus (GPa) = 29.97912 34.47251 32.22582
#
# Velocity S-wave (km/s) = 3.92662 4.21062 4.07109
# Velocity P-wave (km/s) = 6.31884 6.82416 6.57636
#
# Compressibility (1/GPa) = 0.02655150
#
# Stress axis : x y z
#
# Youngs Moduli (GPa) = 61.35048 68.64895 100.71138
#
# Poissons Ratio (x) = 0.19858 0.06781
# Poissons Ratio (y) = 0.17746 0.35816
# Poissons Ratio (z) = 0.04131 0.24414
#
# Static dielectric constant tensor:
#      x y z
#    x 1.668640 -0.009290 0.024690 
#    y -0.009290 1.681290 -0.037480 
#    z 0.024690 -0.037480 1.668290 
# 
# From -- ./inp_files/207323.got.cif
#   From: 2010.05.17/outbox.cif.g08.bks.cpg/sg2_104_cif.got.tgz:207323.got - 2010.06.03 11:33:40.
