data_PCOD9057799
_publ_section_title
;
Structure prediction by ZEFSAII (Michael W. Deem and Ramdas Pophale) SiO2 
 PCOD9057799
Probable space group: P -1
;
_chemical_formula_sum "Si O2"
_cell_formula_units_Z 14
_cell_length_a 9.455585
_cell_length_b 21.368040
_cell_length_c 8.898380
_cell_angle_alpha 50.802081
_cell_angle_beta 124.038144
_cell_angle_gamma 151.564073
_cell_volume 663.421096
_symmetry_space_group_name_H-M "P -1"
_symmetry_group_IT_number 2
_symmetry_cell_setting 'triclinic'
loop_
_space_group_symop_operation_xyz
x,y,z
-x,-y,-z
loop_
_atom_site_type_symbol
_atom_site_label
_atom_site_fract_x
_atom_site_fract_y
_atom_site_fract_z
Si Si1 0.842236 0.668959 0.079128
Si Si2 0.566799 0.396622 0.254670
Si Si3 0.488248 0.917508 0.008810
Si Si4 0.643734 0.795545 0.305527
Si Si5 0.847923 0.636337 0.470358
Si Si6 0.899609 0.470470 0.811122
Si Si7 0.794631 0.083506 0.630208
O O1 0.623060 0.507402 0.186379
O O2 0.922560 0.700331 0.253703
O O3 0.679080 0.684905 0.896527
O O4 0.134477 0.768800 0.001854
O O5 0.475367 0.301224 0.476341
O O6 0.869685 0.487524 0.219290
O O7 0.672730 0.008529 0.832439
O O8 0.605651 0.875694 0.195882
O O9 0.500000 0.000000 0.000000
O O10 0.429739 0.686759 0.200880
O O11 0.984769 0.900851 0.322222
O O12 0.500000 0.500000 0.500000
O O13 0.943431 0.581383 0.628625
O O14 0.999721 0.757483 0.487818
O O15 0.000000 0.500000 0.000000
O O16 0.500000 0.000000 0.500000
#
# Coordination Sequence:
#
# PCOD9057799 Si02
#       7
#     2   2   2   2   2   2   2
#     4  11  22  43  71 103 136 187 237 290 360 424
#     4  11  23  42  74 103 140 180 235 301 362 420
#     4  12  26  46  71  95 141 195 237 289 357 428
#     4  12  25  49  71 103 146 189 242 300 355 424
#     4  12  23  44  73 102 143 182 244 300 352 419
#     4  12  25  39  71 110 141 181 235 301 358 421
#     4  12  28  48  71 104 146 195 236 292 364 431
#
# _framework density 21.102734999999999
#
# number of rings (size 3 to 8) (size 9 to 14) (size 15 to 20)
#    0.000    0.286    5.714    3.429    2.000    2.286 
#    2.571    1.429    0.000    0.000    0.000    0.000 
#    0.000    0.000    0.000    0.000    0.000    0.000 
#
# Total GULP energy -78202.466402 kJ/mol
# GULP energy per Si atom -5585.890457 kJ/mol
# Density = 2.105470 g / cm^3
# Si number density = 21.102735 Si / 1000 Ang^3
#
#
#
# Elastic Constant Matrix: (Units=GPa)
#
#
# Indices 1 2 3 4 5 6 
#
# 1 83.7023 30.9607 41.3398 0.3771 18.5566 14.2874
# 2 30.9607 88.9801 53.7535 -8.1368 14.3333 16.1199
# 3 41.3398 53.7535 135.2580 2.3345 9.4734 -4.8835
# 4 0.3771 -8.1368 2.3345 33.5060 7.2236 5.4726
# 5 18.5566 14.3333 9.4734 7.2236 44.7639 -7.3574
# 6 14.2874 16.1199 -4.8835 5.4726 -7.3574 43.1211
#
#
#
# Elastic Compliance Matrix: (Units=1/GPa)
#
#
# Indices 1 2 3 4 5 6 
#
# 1 0.017712 0.000146 -0.005257 0.003328 -0.008184 -0.008337
# 2 0.000146 0.020171 -0.008048 0.008999 -0.008079 -0.011021
# 3 -0.005257 -0.008048 0.012260 -0.004869 0.004175 0.007469
# 4 0.003328 0.008999 -0.004869 0.036597 -0.011034 -0.011546
# 5 -0.008184 -0.008079 0.004175 -0.011034 0.031345 0.012953
# 6 -0.008337 -0.011021 0.007469 -0.011546 0.012953 0.034594
#
#
# Mechanical properties :
#
#
# Convention : Reuss Voigt Hill
#
# Bulk Modulus (GPa) = 41.97386 62.22761 52.10074
# Shear Modulus (GPa) = 26.74687 36.40396 31.57542
#
# Velocity S-wave (km/s) = 3.56400 4.15792 3.87236
# Velocity P-wave (km/s) = 6.07203 7.25279 6.68852
#
# Compressibility (1/GPa) = 0.02382435
#
# Stress axis : x y z
#
# Youngs Moduli (GPa) = 56.45944 49.57711 81.56884
#
# Poissons Ratio (x) = -0.00723 0.42877
# Poissons Ratio (y) = -0.00823 0.65647
# Poissons Ratio (z) = 0.29678 0.39900
#
# Static dielectric constant tensor:
#      x y z
#    x 1.813420 -0.055810 0.025710 
#    y -0.055810 1.856040 0.027470 
#    z 0.025710 0.027470 1.798470 
# 
# From -- ./inp_files/209130.got.cif
#   From: 2010.05.17/outbox.cif.g08.bks.cpg/sg2_105_cif.got.tgz:209130.got - 2010.06.03 11:33:40.
