data_PCOD9057958
_publ_section_title
;
Structure prediction by ZEFSAII (Michael W. Deem and Ramdas Pophale) SiO2 
 PCOD9057958
Probable space group: P -1
;
_chemical_formula_sum "Si O2"
_cell_formula_units_Z 12
_cell_length_a 5.910520
_cell_length_b 11.945369
_cell_length_c 15.967970
_cell_angle_alpha 152.181692
_cell_angle_beta 109.602932
_cell_angle_gamma 83.522857
_cell_volume 450.167419
_symmetry_space_group_name_H-M "P -1"
_symmetry_group_IT_number 2
_symmetry_cell_setting 'triclinic'
loop_
_space_group_symop_operation_xyz
x,y,z
-x,-y,-z
loop_
_atom_site_type_symbol
_atom_site_label
_atom_site_fract_x
_atom_site_fract_y
_atom_site_fract_z
Si Si1 0.089518 0.882061 0.267056
Si Si2 0.541036 0.725357 0.322172
Si Si3 0.438556 0.738612 0.765536
Si Si4 0.157833 0.438787 0.230995
Si Si5 0.112964 0.760712 0.582518
Si Si6 0.249091 0.592465 0.968675
O O1 0.969924 0.642601 0.158681
O O2 0.901240 0.956933 0.232596
O O3 0.181146 0.139528 0.507217
O O4 0.294764 0.829319 0.196609
O O5 0.343829 0.528753 0.233216
O O6 0.567975 0.553973 0.134980
O O7 0.500000 0.000000 0.500000
O O8 0.714842 0.710208 0.791760
O O9 0.334630 0.771315 0.683319
O O10 0.178892 0.475864 0.589774
O O11 0.500000 0.000000 0.000000
O O12 0.197792 0.687311 0.456668
O O13 0.869546 0.335812 0.083378
#
# Coordination Sequence:
#
# PCOD9057958 Si02
#       6
#     2   2   2   2   2   2
#     4  11  22  44  65 100 140 180 227 286 340 404
#     4  12  23  42  67  99 140 183 223 279 351 413
#     4  11  25  45  70 103 133 183 239 286 354 412
#     4  12  22  44  67  97 136 183 228 280 351 408
#     4  11  24  46  70  99 144 180 232 294 343 413
#     4  11  24  41  68 102 140 181 232 282 336 422
#
# _framework density 26.656746999999999
#
# number of rings (size 3 to 8) (size 9 to 14) (size 15 to 20)
#    0.000    0.667    5.000    3.000    0.000    1.333 
#    9.000    0.000    0.000    0.000    0.000    0.000 
#    0.000    0.000    0.000    0.000    0.000    0.000 
#
# Total GULP energy -66929.719153 kJ/mol
# GULP energy per Si atom -5577.476596 kJ/mol
# Density = 2.659607 g / cm^3
# Si number density = 26.656747 Si / 1000 Ang^3
#
#
#
# Elastic Constant Matrix: (Units=GPa)
#
#
# Indices 1 2 3 4 5 6 
#
# 1 93.4798 46.3803 44.7734 -10.9911 -34.9347 -34.9172
# 2 46.3803 105.0034 36.5091 -23.8742 -4.5555 -43.4228
# 3 44.7734 36.5091 160.8601 -24.6875 -15.9448 0.9509
# 4 -10.9911 -23.8742 -24.6875 34.3970 14.9412 -16.9547
# 5 -34.9347 -4.5555 -15.9448 14.9412 60.1332 7.5088
# 6 -34.9172 -43.4228 0.9509 -16.9547 7.5088 66.6110
#
#
#
# Elastic Compliance Matrix: (Units=1/GPa)
#
#
# Indices 1 2 3 4 5 6 
#
# 1 0.021304 -0.005055 -0.003914 -0.000755 0.010323 0.006572
# 2 -0.005055 0.037526 -0.001569 0.048520 -0.017075 0.036110
# 3 -0.003914 -0.001569 0.007990 0.002395 -0.000555 -0.002517
# 4 -0.000755 0.048520 0.002395 0.108283 -0.030804 0.062234
# 5 0.010323 -0.017075 -0.000555 -0.030804 0.030968 -0.017043
# 6 0.006572 0.036110 -0.002517 0.062234 -0.017043 0.059795
#
#
# Mechanical properties :
#
#
# Convention : Reuss Voigt Hill
#
# Bulk Modulus (GPa) = 21.86129 68.29655 45.07892
# Shear Modulus (GPa) = 16.54583 47.67360 32.10971
#
# Velocity S-wave (km/s) = 2.49409 4.23357 3.47445
# Velocity P-wave (km/s) = 4.06359 7.04087 5.74833
#
# Compressibility (1/GPa) = 0.04574295
#
# Stress axis : x y z
#
# Youngs Moduli (GPa) = 46.93903 26.64817 125.16293
#
# Poissons Ratio (x) = 0.13471 0.48987
# Poissons Ratio (y) = 0.23729 0.19643
# Poissons Ratio (z) = 0.18371 0.04182
#
# Static dielectric constant tensor:
#      x y z
#    x 2.300670 -0.231500 0.144970 
#    y -0.231500 2.287700 -0.069480 
#    z 0.144970 -0.069480 2.080480 
# 
# From -- ./inp_files/427322.got.cif
#   From: 2010.05.17/outbox.cif.g08.bks.cpg/sg2_214_cif.got.tgz:427322.got - 2010.06.03 11:33:40.
