data_PCOD9057991
_publ_section_title
;
Structure prediction by ZEFSAII (Michael W. Deem and Ramdas Pophale) SiO2 
 PCOD9057991
Probable space group: P -1
;
_chemical_formula_sum "Si O2"
_cell_formula_units_Z 16
_cell_length_a 21.857046
_cell_length_b 9.257532
_cell_length_c 17.717949
_cell_angle_alpha 56.990505
_cell_angle_beta 16.341879
_cell_angle_gamma 49.091071
_cell_volume 700.925382
_symmetry_space_group_name_H-M "P -1"
_symmetry_group_IT_number 2
_symmetry_cell_setting 'triclinic'
loop_
_space_group_symop_operation_xyz
x,y,z
-x,-y,-z
loop_
_atom_site_type_symbol
_atom_site_label
_atom_site_fract_x
_atom_site_fract_y
_atom_site_fract_z
Si Si1 0.530612 0.937019 0.590305
Si Si2 0.123990 0.335877 0.211859
Si Si3 0.482358 0.706561 0.440909
Si Si4 0.042669 0.891140 0.782247
Si Si5 0.919282 0.460226 0.260518
Si Si6 0.965080 0.312565 0.697965
Si Si7 0.783694 0.323667 0.746490
Si Si8 0.468971 0.909809 0.852779
O O1 0.601297 0.107672 0.453216
O O2 0.729404 0.701824 0.394669
O O3 0.504367 0.916459 0.719015
O O4 0.241314 0.040885 0.869528
O O5 0.913357 0.438926 0.363980
O O6 0.196626 0.494800 0.108597
O O7 0.003865 0.279587 0.438647
O O8 0.369281 0.128390 0.946354
O O9 0.500000 0.500000 0.500000
O O10 0.265123 0.813874 0.602715
O O11 0.780881 0.621564 0.089407
O O12 0.127922 0.700601 0.678686
O O13 0.983694 0.103923 0.755689
O O14 0.854742 0.379041 0.726161
O O15 0.258002 0.254604 0.382713
O O16 0.749723 0.136301 0.857792
O O17 0.500000 0.500000 0.000000
#
# Coordination Sequence:
#
# PCOD9057991 Si02
#       8
#     2   2   2   2   2   2   2   2
#     4  11  22  44  68 100 140 171 226 279 327 405
#     4  12  23  42  67  95 134 178 225 277 330 389
#     4  11  25  47  71 102 141 171 219 282 336 412
#     4  11  23  43  71 101 131 183 226 267 342 401
#     4  11  23  44  70 101 136 183 222 273 340 402
#     4  12  24  43  67  94 135 182 224 274 332 392
#     4  12  25  44  62  95 139 177 226 282 327 379
#     4  12  23  45  63  94 134 177 224 280 327 393
#
# _framework density 22.826967
#
# number of rings (size 3 to 8) (size 9 to 14) (size 15 to 20)
#    0.000    0.500    7.500    0.750    0.000    6.000 
#    2.250    1.250    0.000    0.000    0.000    0.000 
#    0.000    0.000    0.000    0.000    0.000    0.000 
#
# Total GULP energy -89478.646005 kJ/mol
# GULP energy per Si atom -5592.415375 kJ/mol
# Density = 2.277501 g / cm^3
# Si number density = 22.826967 Si / 1000 Ang^3
#
#
#
# Elastic Constant Matrix: (Units=GPa)
#
#
# Indices 1 2 3 4 5 6 
#
# 1 89.3079 37.7888 37.6755 4.4157 -11.5483 19.3280
# 2 37.7888 156.2523 28.7837 5.0838 1.0185 31.2808
# 3 37.6755 28.7837 64.7817 13.8947 -24.1898 15.2383
# 4 4.4157 5.0838 13.8947 46.7725 8.4320 0.5789
# 5 -11.5483 1.0185 -24.1898 8.4320 21.0901 2.6527
# 6 19.3280 31.2808 15.2383 0.5789 2.6527 43.0463
#
#
#
# Elastic Compliance Matrix: (Units=1/GPa)
#
#
# Indices 1 2 3 4 5 6 
#
# 1 0.015947 -0.001734 -0.008817 0.001626 -0.001608 -0.002702
# 2 -0.001734 0.008451 -0.006117 0.002742 -0.009134 -0.002671
# 3 -0.008817 -0.006117 0.072701 -0.037234 0.096606 -0.022784
# 4 0.001626 0.002742 -0.037234 0.042776 -0.060765 0.013628
# 5 -0.001608 -0.009134 0.096606 -0.060765 0.186797 -0.037533
# 6 -0.002702 -0.002671 -0.022784 0.013628 -0.037533 0.036580
#
#
# Mechanical properties :
#
#
# Convention : Reuss Voigt Hill
#
# Bulk Modulus (GPa) = 15.68316 57.64867 36.66592
# Shear Modulus (GPa) = 11.96620 35.92136 23.94378
#
# Velocity S-wave (km/s) = 2.29205 3.97121 3.24222
# Velocity P-wave (km/s) = 3.72694 6.80712 5.48757
#
# Compressibility (1/GPa) = 0.06376266
#
# Stress axis : x y z
#
# Youngs Moduli (GPa) = 62.70731 118.32634 13.75493
#
# Poissons Ratio (x) = 0.20518 0.12128
# Poissons Ratio (y) = 0.10873 0.08414
# Poissons Ratio (z) = 0.55292 0.72380
#
# Static dielectric constant tensor:
#      x y z
#    x 1.841980 -0.017610 0.020090 
#    y -0.017610 1.929630 -0.018630 
#    z 0.020090 -0.018630 1.852630 
# 
# From -- ./inp_files/577296.got.cif
#   From: 2010.05.17/outbox.cif.g08.bks.cpg/sg2_289_cif.got.tgz:577296.got - 2010.06.03 11:33:40.
