data_PCOD9057682
_publ_section_title
;
Structure prediction by ZEFSAII (Michael W. Deem and Ramdas Pophale) SiO2 
 PCOD9057682
Probable space group: P -1
;
_chemical_formula_sum "Si O2"
_cell_formula_units_Z 16
_cell_length_a 17.653584
_cell_length_b 9.576990
_cell_length_c 11.572410
_cell_angle_alpha 55.229591
_cell_angle_beta 149.158885
_cell_angle_gamma 115.614382
_cell_volume 816.261927
_symmetry_space_group_name_H-M "P -1"
_symmetry_group_IT_number 2
_symmetry_cell_setting 'triclinic'
loop_
_space_group_symop_operation_xyz
x,y,z
-x,-y,-z
loop_
_atom_site_type_symbol
_atom_site_label
_atom_site_fract_x
_atom_site_fract_y
_atom_site_fract_z
Si Si1 0.147813 0.892355 0.689435
Si Si2 0.371082 0.890614 0.418815
Si Si3 0.899086 0.859813 0.978577
Si Si4 0.306285 0.330754 0.339013
Si Si5 0.080509 0.661327 0.503829
Si Si6 0.641162 0.989173 0.271688
Si Si7 0.381260 0.670887 0.757620
Si Si8 0.654849 0.282365 0.761252
O O1 0.116669 0.735325 0.640868
O O2 0.221128 0.003703 0.637648
O O3 0.268884 0.818784 0.980067
O O4 0.000000 0.000000 0.500000
O O5 0.398805 0.735330 0.618965
O O6 0.297326 0.824928 0.239319
O O7 0.500000 0.000000 0.500000
O O8 0.258778 0.028452 0.271730
O O9 0.846954 0.702274 0.911485
O O10 0.967397 0.795522 0.219951
O O11 0.000000 0.000000 0.000000
O O12 0.328919 0.186325 0.535661
O O13 0.472451 0.303269 0.509642
O O14 0.295289 0.529316 0.267084
O O15 0.223731 0.624593 0.623182
O O16 0.000000 0.500000 0.500000
O O17 0.608852 0.157842 0.232260
O O18 0.500000 0.000000 0.000000
O O19 0.500000 0.500000 0.000000
#
# Coordination Sequence:
#
# PCOD9057682 Si02
#       8
#     2   2   2   2   2   2   2   2
#     4  11  24  45  66  99 135 174 223 274 341 402
#     4  12  24  43  68 102 134 180 229 275 340 404
#     4  12  22  45  70  93 139 176 227 277 333 411
#     4  11  23  43  68 101 134 180 224 277 343 398
#     4  11  25  44  68  97 134 179 217 279 342 397
#     4  11  22  43  68  94 133 177 218 273 339 397
#     4  11  26  43  66 102 133 172 232 277 331 407
#     4  11  24  41  68 103 138 172 227 281 333 409
#
# _framework density 19.601551000000001
#
# number of rings (size 3 to 8) (size 9 to 14) (size 15 to 20)
#    0.000    0.750    5.000    2.250    3.500    2.000 
#    0.000    1.250    0.000    0.000    0.000    0.000 
#    0.000    0.000    0.000    0.000    0.000    0.000 
#
# Total GULP energy -89134.922119 kJ/mol
# GULP energy per Si atom -5570.932632 kJ/mol
# Density = 1.955694 g / cm^3
# Si number density = 19.601551 Si / 1000 Ang^3
#
#
#
# Elastic Constant Matrix: (Units=GPa)
#
#
# Indices 1 2 3 4 5 6 
#
# 1 84.7852 53.2400 17.9642 3.3240 -12.9637 17.1452
# 2 53.2400 117.4844 13.7587 8.7133 -8.9361 20.7795
# 3 17.9642 13.7587 68.0071 -3.3135 -14.3309 2.5721
# 4 3.3240 8.7133 -3.3135 42.6412 2.1736 -4.3108
# 5 -12.9637 -8.9361 -14.3309 2.1736 44.0284 7.8185
# 6 17.1452 20.7795 2.5721 -4.3108 7.8185 31.7978
#
#
#
# Elastic Compliance Matrix: (Units=1/GPa)
#
#
# Indices 1 2 3 4 5 6 
#
# 1 0.018497 -0.006438 -0.002406 -0.001245 0.004640 -0.006881
# 2 -0.006438 0.012825 -0.000457 -0.002815 0.001705 -0.005673
# 3 -0.002406 -0.000457 0.016496 0.001255 0.004632 -0.000707
# 4 -0.001245 -0.002815 0.001255 0.025030 -0.002923 0.006521
# 5 0.004640 0.001705 0.004632 -0.002923 0.028082 -0.011292
# 6 -0.006881 -0.005673 -0.000707 0.006521 -0.011292 0.042584
#
#
# Mechanical properties :
#
#
# Convention : Reuss Voigt Hill
#
# Bulk Modulus (GPa) = 34.22907 48.91140 41.57023
# Shear Modulus (GPa) = 29.09440 36.04773 32.57107
#
# Velocity S-wave (km/s) = 3.85683 4.29304 4.08077
# Velocity P-wave (km/s) = 6.11014 7.04135 6.59221
#
# Compressibility (1/GPa) = 0.02921493
#
# Stress axis : x y z
#
# Youngs Moduli (GPa) = 54.06362 77.97495 60.61934
#
# Poissons Ratio (x) = 0.50200 0.14586
# Poissons Ratio (y) = 0.34806 0.02772
# Poissons Ratio (z) = 0.13009 0.03566
#
# Static dielectric constant tensor:
#      x y z
#    x 1.649750 0.006380 0.034010 
#    y 0.006380 0.104240 -1.088630 
#    z 0.034010 -1.088630 0.881410 
# 
# From -- ./inp_files/271655.got.cif
#   From: 2010.05.17/outbox.cif.g08.bks.cpg/sg2_136_cif.got.tgz:271655.got - 2010.06.03 11:33:40.
