data_PCOD9057051
_publ_section_title
;
Structure prediction by ZEFSAII (Michael W. Deem and Ramdas Pophale) SiO2 
 PCOD9057051
Probable space group: P -1
;
_chemical_formula_sum "Si O2"
_cell_formula_units_Z 15
_cell_length_a 8.109702
_cell_length_b 14.790426
_cell_length_c 8.516942
_cell_angle_alpha 106.366923
_cell_angle_beta 127.214700
_cell_angle_gamma 102.835416
_cell_volume 669.684821
_symmetry_space_group_name_H-M "P -1"
_symmetry_group_IT_number 2
_symmetry_cell_setting 'triclinic'
loop_
_space_group_symop_operation_xyz
x,y,z
-x,-y,-z
loop_
_atom_site_type_symbol
_atom_site_label
_atom_site_fract_x
_atom_site_fract_y
_atom_site_fract_z
Si Si1 0.485716 0.853258 0.030967
Si Si2 0.198982 0.479560 0.516577
Si Si3 0.968858 0.708164 0.251453
Si Si4 0.500000 0.500000 0.000000
Si Si5 0.583604 0.291067 0.358885
Si Si6 0.115490 0.903924 0.645384
Si Si7 0.913909 0.266712 0.030462
Si Si8 0.136743 0.124202 0.204691
O O1 0.513000 0.770551 0.892622
O O2 0.299150 0.878103 0.837977
O O3 0.357801 0.794609 0.089658
O O4 0.727492 0.968905 0.246663
O O5 0.339373 0.457533 0.722160
O O6 0.380884 0.589050 0.575699
O O7 0.000000 0.500000 0.500000
O O8 0.058954 0.376960 0.270177
O O9 0.150130 0.685270 0.444311
O O10 0.019925 0.824371 0.403059
O O11 0.700214 0.612392 0.081633
O O12 0.045272 0.710405 0.117563
O O13 0.410628 0.202584 0.344799
O O14 0.907982 0.881133 0.638225
O O15 0.010608 0.185693 0.086258
O O16 0.000000 0.000000 0.000000
#
# Coordination Sequence:
#
# PCOD9057051 Si02
#       8
#     2   2   2   1   2   2   2   2
#     4   9  17  37  67  92 135 185 231 290 349 415
#     4  12  24  48  75 103 141 185 238 297 358 425
#     4  11  25  43  67 105 142 190 237 293 355 433
#     4  12  24  46  76  98 140 186 242 290 360 416
#     4  11  22  43  71 105 142 185 237 292 361 426
#     4   9  19  38  64  93 136 186 232 288 355 413
#     4  11  25  44  67 105 141 189 236 294 359 424
#     4  11  22  41  69 100 138 188 241 295 359 418
#
# _framework density 22.398598
#
# number of rings (size 3 to 8) (size 9 to 14) (size 15 to 20)
#    0.000    1.333    4.000    2.400    1.867    4.267 
#    4.800    0.667    0.000    0.000    0.000    0.000 
#    0.000    0.000    0.000    0.000    0.000    0.000 
#
# Total GULP energy -83642.223236 kJ/mol
# GULP energy per Si atom -5576.148216 kJ/mol
# Density = 2.234762 g / cm^3
# Si number density = 22.398598 Si / 1000 Ang^3
#
#
#
# Elastic Constant Matrix: (Units=GPa)
#
#
# Indices 1 2 3 4 5 6 
#
# 1 81.5620 49.9114 59.2214 34.1626 -27.2223 20.1492
# 2 49.9114 128.7220 55.8987 34.0273 -15.2382 28.3918
# 3 59.2214 55.8987 109.5815 11.1343 -18.5012 25.9303
# 4 34.1626 34.0273 11.1343 27.0404 11.0717 15.9036
# 5 -27.2223 -15.2382 -18.5012 11.0717 35.4553 -0.7077
# 6 20.1492 28.3918 25.9303 15.9036 -0.7077 39.2111
#
#
#
# Elastic Compliance Matrix: (Units=1/GPa)
#
#
# Indices 1 2 3 4 5 6 
#
# 1 -0.020626 -0.013842 0.008206 0.061243 -0.036834 -0.010309
# 2 -0.013842 0.009346 0.001046 0.012845 -0.010191 -0.005739
# 3 0.008206 0.001046 0.010173 -0.022268 0.018965 -0.002327
# 4 0.061243 0.012845 -0.022268 -0.078245 0.065493 0.006872
# 5 -0.036834 -0.010191 0.018965 0.065493 -0.015272 -0.013074
# 6 -0.010309 -0.005739 -0.002327 0.006872 -0.013074 0.033472
#
#
# Mechanical properties :
#
#
# Convention : Reuss Voigt Hill
#
# Bulk Modulus (GPa) = -97.19647 72.21426 -12.49110
# Shear Modulus (GPa) = -90.25163 30.66362 -29.79401
#
# Velocity S-wave (km/s) = -6.35460 3.70401 -3.65111
# Velocity P-wave (km/s) = 9.86557 7.11361 4.83353
#
# Compressibility (1/GPa) = -0.01028844
#
# Stress axis : x y z
#
# Youngs Moduli (GPa) = -48.48250 107.00009 98.29960
#
# Poissons Ratio (x) = 1.48107 -0.80661
# Poissons Ratio (y) = -0.67108 -0.10277
# Poissons Ratio (z) = 0.39783 -0.11187
#
# Static dielectric constant tensor:
#      x y z
#    x 1.921270 -0.024330 0.050180 
#    y -0.024330 1.833270 -0.027360 
#    z 0.050180 -0.027360 1.786130 
# 
# From -- ./inp_files/202775.got.cif
#   From: 2010.05.17/outbox.cif.g08.bks.cpg/sg2_102_cif.got.tgz:202775.got - 2010.06.03 11:33:40.
