data_PCOD9057888
_publ_section_title
;
Structure prediction by ZEFSAII (Michael W. Deem and Ramdas Pophale) SiO2 
 PCOD9057888
Probable space group: P -1
;
_chemical_formula_sum "Si O2"
_cell_formula_units_Z 13
_cell_length_a 8.830863
_cell_length_b 8.728642
_cell_length_c 11.681666
_cell_angle_alpha 118.642448
_cell_angle_beta 125.682537
_cell_angle_gamma 51.549660
_cell_volume 563.078530
_symmetry_space_group_name_H-M "P -1"
_symmetry_group_IT_number 2
_symmetry_cell_setting 'triclinic'
loop_
_space_group_symop_operation_xyz
x,y,z
-x,-y,-z
loop_
_atom_site_type_symbol
_atom_site_label
_atom_site_fract_x
_atom_site_fract_y
_atom_site_fract_z
Si Si1 0.988619 0.494666 0.131797
Si Si2 0.154055 0.064522 0.153714
Si Si3 0.359169 0.550643 0.342680
Si Si4 0.000000 0.000000 0.500000
Si Si5 0.649185 0.147479 0.208118
Si Si6 0.700533 0.035108 0.580542
Si Si7 0.528953 0.804903 0.086392
O O1 0.110879 0.270685 0.151115
O O2 0.112900 0.609538 0.278184
O O3 0.745345 0.597664 0.103610
O O4 0.000000 0.500000 0.000000
O O5 0.136275 0.084722 0.289107
O O6 0.392953 0.889733 0.170343
O O7 0.000000 0.000000 0.000000
O O8 0.500000 0.500000 0.500000
O O9 0.455553 0.351930 0.241022
O O10 0.363852 0.732886 0.348238
O O11 0.150946 0.898038 0.642078
O O12 0.202818 0.000955 0.517609
O O13 0.606900 0.962131 0.140906
O O14 0.638267 0.181343 0.079430
O O15 0.500000 0.000000 0.500000
#
# Coordination Sequence:
#
# PCOD9057888 Si02
#       7
#     2   2   2   1   2   2   2
#     4  12  23  45  77 110 149 210 258 311 394 464
#     4  12  26  46  69 111 159 196 256 334 377 453
#     4  12  23  45  73 106 149 199 257 314 383 462
#     4  12  24  48  78 104 150 208 252 306 402 452
#     4  11  22  43  73 110 140 196 258 311 369 465
#     4  12  27  48  74 108 157 198 254 328 382 455
#     4  11  23  44  74 105 152 196 256 311 386 454
#
# _framework density 23.087364999999998
#
# number of rings (size 3 to 8) (size 9 to 14) (size 15 to 20)
#    0.000    0.308    4.615    5.538    0.000    0.615 
#    2.769    0.769    0.000    0.000    0.000    0.000 
#    0.000    0.000    0.000    0.000    0.000    0.000 
#
# Total GULP energy -72449.374154 kJ/mol
# GULP energy per Si atom -5573.028781 kJ/mol
# Density = 2.303482 g / cm^3
# Si number density = 23.087365 Si / 1000 Ang^3
#
#
#
# Elastic Constant Matrix: (Units=GPa)
#
#
# Indices 1 2 3 4 5 6 
#
# 1 144.5230 34.8856 49.7137 -15.4558 -6.2119 -1.7739
# 2 34.8856 97.8130 25.1636 -10.2562 1.9836 9.4078
# 3 49.7137 25.1636 121.5813 -38.1497 4.5763 7.5073
# 4 -15.4558 -10.2562 -38.1497 29.8808 -1.1700 -1.9456
# 5 -6.2119 1.9836 4.5763 -1.1700 54.3398 -2.8286
# 6 -1.7739 9.4078 7.5073 -1.9456 -2.8286 46.1179
#
#
#
# Elastic Compliance Matrix: (Units=1/GPa)
#
#
# Indices 1 2 3 4 5 6 
#
# 1 0.008688 -0.002458 -0.003328 -0.000448 0.001429 0.001446
# 2 -0.002458 0.011699 -0.000734 0.001626 -0.000733 -0.002338
# 3 -0.003328 -0.000734 0.015397 0.017512 -0.001368 -0.001830
# 4 -0.000448 0.001626 0.017512 0.056078 -0.000423 -0.000860
# 5 0.001429 -0.000733 -0.001368 -0.000423 0.018780 0.001561
# 6 0.001446 -0.002338 -0.001830 -0.000860 0.001561 0.022573
#
#
# Mechanical properties :
#
#
# Convention : Reuss Voigt Hill
#
# Bulk Modulus (GPa) = 43.96494 64.82702 54.39598
# Shear Modulus (GPa) = 32.50190 43.01133 37.75662
#
# Velocity S-wave (km/s) = 3.75611 4.32091 4.04837
# Velocity P-wave (km/s) = 6.15592 7.28242 6.74274
#
# Compressibility (1/GPa) = 0.02274540
#
# Stress axis : x y z
#
# Youngs Moduli (GPa) = 115.09499 85.47527 64.94848
#
# Poissons Ratio (x) = 0.21008 0.21612
# Poissons Ratio (y) = 0.28288 0.04769
# Poissons Ratio (z) = 0.38298 0.06276
#
# Static dielectric constant tensor:
#      x y z
#    x 1.724840 -0.217150 -0.134030 
#    y -0.217150 1.719280 -0.122470 
#    z -0.134030 -0.122470 1.768750 
# 
# From -- ./inp_files/380475.got.cif
#   From: 2010.05.17/outbox.cif.g08.bks.cpg/sg2_191_cif.got.tgz:380475.got - 2010.06.03 11:33:40.
