data_PCOD9057225
_publ_section_title
;
Structure prediction by ZEFSAII (Michael W. Deem and Ramdas Pophale) SiO2 
 PCOD9057225
Probable space group: P -1
;
_chemical_formula_sum "Si O2"
_cell_formula_units_Z 11
_cell_length_a 9.608160
_cell_length_b 10.018095
_cell_length_c 7.479608
_cell_angle_alpha 46.674268
_cell_angle_beta 85.032373
_cell_angle_gamma 110.383675
_cell_volume 431.372030
_symmetry_space_group_name_H-M "P -1"
_symmetry_group_IT_number 2
_symmetry_cell_setting 'triclinic'
loop_
_space_group_symop_operation_xyz
x,y,z
-x,-y,-z
loop_
_atom_site_type_symbol
_atom_site_label
_atom_site_fract_x
_atom_site_fract_y
_atom_site_fract_z
Si Si1 0.421213 0.698632 0.130470
Si Si2 0.226933 0.894409 0.116848
Si Si3 0.252070 0.226281 0.569341
Si Si4 0.116738 0.694471 0.669725
Si Si5 0.000000 0.000000 0.500000
Si Si6 0.550789 0.242210 0.327034
O O1 0.303338 0.788520 0.086272
O O2 0.326182 0.457010 0.452143
O O3 0.431011 0.649159 0.966738
O O4 0.607850 0.893498 0.996698
O O5 0.098617 0.719671 0.437206
O O6 0.155731 0.006053 0.903855
O O7 0.417551 0.241977 0.466156
O O8 0.129019 0.187064 0.457297
O O9 0.276674 0.673515 0.669057
O O10 0.126184 0.907248 0.555602
O O11 0.000000 0.500000 0.000000
O O12 0.500000 0.000000 0.500000
#
# Coordination Sequence:
#
# PCOD9057225 Si02
#       6
#     2   2   2   2   1   2
#     4  11  22  41  75 110 138 186 239 296 360 424
#     4  11  23  44  69 106 150 179 236 308 351 424
#     4  12  25  43  76 108 142 191 243 291 359 424
#     4  12  27  46  71 102 144 193 235 294 367 423
#     4  12  26  48  68 102 146 186 240 298 348 426
#     4  12  20  46  74  97 143 189 235 292 350 421
#
# _framework density 25.500028
#
# number of rings (size 3 to 8) (size 9 to 14) (size 15 to 20)
#    0.000    0.364    5.455    3.273    0.000    3.636 
#    0.000    6.364    0.000    0.000    0.000    0.000 
#    0.000    0.000    0.000    0.000    0.000    0.000 
#
# Total GULP energy -61279.463748 kJ/mol
# GULP energy per Si atom -5570.860341 kJ/mol
# Density = 2.544199 g / cm^3
# Si number density = 25.500028 Si / 1000 Ang^3
#
#
#
# Elastic Constant Matrix: (Units=GPa)
#
#
# Indices 1 2 3 4 5 6 
#
# 1 124.3040 33.3298 11.8091 -7.8839 -17.5898 -17.2439
# 2 33.3298 80.8719 32.3699 -0.0330 -0.0445 -12.8266
# 3 11.8091 32.3699 121.6927 7.4876 0.9806 -6.3654
# 4 -7.8839 -0.0330 7.4876 27.3325 -10.3936 -3.8103
# 5 -17.5898 -0.0445 0.9806 -10.3936 20.1042 -4.6531
# 6 -17.2439 -12.8266 -6.3654 -3.8103 -4.6531 39.5715
#
#
#
# Elastic Compliance Matrix: (Units=1/GPa)
#
#
# Indices 1 2 3 4 5 6 
#
# 1 0.014445 -0.004210 -0.000860 0.013935 0.021890 0.008707
# 2 -0.004210 0.015883 -0.003593 -0.001288 -0.003633 0.002184
# 3 -0.000860 -0.003593 0.009511 -0.004382 -0.003690 -0.000866
# 4 0.013935 -0.001288 -0.004382 0.062632 0.048648 0.016701
# 5 0.021890 -0.003633 -0.003690 0.048648 0.099814 0.024189
# 6 0.008707 0.002184 -0.000866 0.016701 0.024189 0.034086
#
#
# Mechanical properties :
#
#
# Convention : Reuss Voigt Hill
#
# Bulk Modulus (GPa) = 44.42332 53.54293 48.98313
# Shear Modulus (GPa) = 19.14233 34.02564 26.58398
#
# Velocity S-wave (km/s) = 2.74282 3.65682 3.23229
# Velocity P-wave (km/s) = 5.24304 6.23479 5.76030
#
# Compressibility (1/GPa) = 0.02251070
#
# Stress axis : x y z
#
# Youngs Moduli (GPa) = 69.22968 62.96222 105.14363
#
# Poissons Ratio (x) = 0.26507 0.09045
# Poissons Ratio (y) = 0.29146 0.37782
# Poissons Ratio (z) = 0.05955 0.22625
#
# Static dielectric constant tensor:
#      x y z
#    x 2.718380 0.494490 0.139600 
#    y 0.494490 2.269170 0.086860 
#    z 0.139600 0.086860 2.187150 
# 
# From -- ./inp_files/166890.got.cif
#   From: 2010.05.17/outbox.cif.g08.bks.cpg/sg2_84_cif.got.tgz:166890.got - 2010.06.03 11:33:40.
