data_PCOD9057141
_publ_section_title
;
Structure prediction by ZEFSAII (Michael W. Deem and Ramdas Pophale) SiO2 
 PCOD9057141
Probable space group: P -1
;
_chemical_formula_sum "Si O2"
_cell_formula_units_Z 16
_cell_length_a 13.809911
_cell_length_b 14.069387
_cell_length_c 12.675778
_cell_angle_alpha 42.337275
_cell_angle_beta 64.776822
_cell_angle_gamma 31.919108
_cell_volume 723.459863
_symmetry_space_group_name_H-M "P -1"
_symmetry_group_IT_number 2
_symmetry_cell_setting 'triclinic'
loop_
_space_group_symop_operation_xyz
x,y,z
-x,-y,-z
loop_
_atom_site_type_symbol
_atom_site_label
_atom_site_fract_x
_atom_site_fract_y
_atom_site_fract_z
Si Si1 0.671921 0.853928 0.128548
Si Si2 0.320806 0.304105 0.273784
Si Si3 0.694143 0.804008 0.847846
Si Si4 0.625494 0.212858 0.145383
Si Si5 0.747748 0.245393 0.635398
Si Si6 0.920495 0.829609 0.733753
Si Si7 0.158215 0.045646 0.974626
Si Si8 0.995017 0.773559 0.512768
O O1 0.721318 0.961621 0.017571
O O2 0.890788 0.509700 0.300462
O O3 0.557040 0.945731 0.217185
O O4 0.500000 0.000000 0.000000
O O5 0.240662 0.302161 0.214644
O O6 0.451520 0.286190 0.178663
O O7 0.104561 0.610701 0.185419
O O8 0.500000 0.000000 0.500000
O O9 0.744293 0.907142 0.768803
O O10 0.846724 0.521094 0.075969
O O11 0.736498 0.091074 0.077967
O O12 0.500000 0.500000 0.000000
O O13 0.815387 0.975835 0.339023
O O14 0.500000 0.500000 0.500000
O O15 0.821751 0.319940 0.521901
O O16 0.901496 0.968951 0.717125
O O17 0.791593 0.145923 0.816626
O O18 0.894946 0.921118 0.553713
#
# Coordination Sequence:
#
# PCOD9057141 Si02
#       8
#     2   2   2   2   2   2   2   2
#     4  12  23  43  75 108 142 180 234 302 368 426
#     4  12  26  47  75 106 142 192 247 299 360 424
#     4  11  22  41  71 105 141 183 234 299 364 425
#     4  12  30  51  71 103 148 203 245 295 356 428
#     4  12  27  45  72 105 143 190 234 299 374 428
#     4  11  23  43  70 105 143 182 241 303 362 428
#     4  12  27  50  74 105 150 191 248 300 356 440
#     4  12  27  45  71 106 144 188 243 297 360 438
#
# _framework density 22.115946999999998
#
# number of rings (size 3 to 8) (size 9 to 14) (size 15 to 20)
#    0.000    0.250    3.750    5.625    3.500    3.000 
#    0.000    0.000    0.000    0.000    0.000    0.000 
#    0.000    0.000    0.000    0.000    0.000    0.000 
#
# Total GULP energy -89566.792246 kJ/mol
# GULP energy per Si atom -5597.924515 kJ/mol
# Density = 2.206561 g / cm^3
# Si number density = 22.115947 Si / 1000 Ang^3
#
#
#
# Elastic Constant Matrix: (Units=GPa)
#
#
# Indices 1 2 3 4 5 6 
#
# 1 75.4610 26.3491 15.8722 8.3249 0.0627 2.3315
# 2 26.3491 144.1930 39.6851 16.0928 3.1688 3.5850
# 3 15.8722 39.6851 102.5398 9.3590 15.2682 14.5006
# 4 8.3249 16.0928 9.3590 31.7567 -1.4567 8.2057
# 5 0.0627 3.1688 15.2682 -1.4567 35.0423 1.1202
# 6 2.3315 3.5850 14.5006 8.2057 1.1202 32.8976
#
#
#
# Elastic Compliance Matrix: (Units=1/GPa)
#
#
# Indices 1 2 3 4 5 6 
#
# 1 0.014507 -0.002019 -0.001394 -0.002441 0.000650 0.000393
# 2 -0.002019 0.008416 -0.002882 -0.003203 0.000324 0.001284
# 3 -0.001394 -0.002882 0.012597 -0.000896 -0.005111 -0.004742
# 4 -0.002441 -0.003203 -0.000896 0.036250 0.002454 -0.008209
# 5 0.000650 0.000324 -0.005111 0.002454 0.030819 0.000510
# 6 0.000393 0.001284 -0.004742 -0.008209 0.000510 0.034350
#
#
# Mechanical properties :
#
#
# Convention : Reuss Voigt Hill
#
# Bulk Modulus (GPa) = 43.61138 54.00074 48.80606
# Shear Modulus (GPa) = 31.81252 35.95846 33.88549
#
# Velocity S-wave (km/s) = 3.79680 4.03663 3.91855
# Velocity P-wave (km/s) = 6.24365 6.79676 6.52606
#
# Compressibility (1/GPa) = 0.02292980
#
# Stress axis : x y z
#
# Youngs Moduli (GPa) = 68.93430 118.82534 79.38479
#
# Poissons Ratio (x) = 0.23990 0.11064
# Poissons Ratio (y) = 0.13917 0.22879
# Poissons Ratio (z) = 0.09607 0.34246
#
# Static dielectric constant tensor:
#      x y z
#    x 1.794590 -0.022200 -0.011760 
#    y -0.022200 1.782540 -0.064100 
#    z -0.011760 -0.064100 1.750140 
# 
# From -- ./inp_files/455463.got.cif
#   From: 2010.05.17/outbox.cif.g08.bks.cpg/sg2_228_cif.got.tgz:455463.got - 2010.06.03 11:33:40.
