data_PCOD9057171
_publ_section_title
;
Structure prediction by ZEFSAII (Michael W. Deem and Ramdas Pophale) SiO2 
 PCOD9057171
Probable space group: P -1
;
_chemical_formula_sum "Si O2"
_cell_formula_units_Z 12
_cell_length_a 14.100375
_cell_length_b 8.387963
_cell_length_c 9.217495
_cell_angle_alpha 63.350246
_cell_angle_beta 122.513146
_cell_angle_gamma 147.102119
_cell_volume 499.312414
_symmetry_space_group_name_H-M "P -1"
_symmetry_group_IT_number 2
_symmetry_cell_setting 'triclinic'
loop_
_space_group_symop_operation_xyz
x,y,z
-x,-y,-z
loop_
_atom_site_type_symbol
_atom_site_label
_atom_site_fract_x
_atom_site_fract_y
_atom_site_fract_z
Si Si1 0.032251 0.437878 0.401715
Si Si2 0.368110 0.860868 0.311902
Si Si3 0.683879 0.611410 0.597990
Si Si4 0.274216 0.149092 0.758699
Si Si5 0.917435 0.808451 0.242181
Si Si6 0.564753 0.254398 0.038761
O O1 0.180129 0.691176 0.302730
O O2 0.098080 0.334656 0.568614
O O3 0.000000 0.500000 0.500000
O O4 0.845341 0.166412 0.271617
O O5 0.343103 0.634073 0.310504
O O6 0.500000 0.000000 0.500000
O O7 0.467223 0.110113 0.174984
O O8 0.500000 0.500000 0.500000
O O9 0.734604 0.719202 0.430155
O O10 0.862492 0.896428 0.722398
O O11 0.173194 0.114829 0.824528
O O12 0.477321 0.326115 0.875985
O O13 0.784588 0.549918 0.120325
O O14 0.500000 0.000000 0.000000
#
# Coordination Sequence:
#
# PCOD9057171 Si02
#       6
#     2   2   2   2   2   2
#     4  11  22  41  72 102 136 184 236 288 345 411
#     4  12  24  44  70 106 137 178 243 287 337 428
#     4  11  23  43  72 101 133 183 242 281 337 426
#     4  11  22  44  70  96 142 185 225 288 357 407
#     4  11  22  46  69  95 138 191 229 280 356 418
#     4  12  26  44  71 106 146 181 229 294 362 410
#
# _framework density 24.033048000000001
#
# number of rings (size 3 to 8) (size 9 to 14) (size 15 to 20)
#    0.000    0.667    5.000    3.500    4.667    0.667 
#    0.000    3.333    0.000    0.000    0.000    0.000 
#    0.000    0.000    0.000    0.000    0.000    0.000 
#
# Total GULP energy -67051.542047 kJ/mol
# GULP energy per Si atom -5587.628504 kJ/mol
# Density = 2.397835 g / cm^3
# Si number density = 24.033048 Si / 1000 Ang^3
#
#
#
# Elastic Constant Matrix: (Units=GPa)
#
#
# Indices 1 2 3 4 5 6 
#
# 1 142.1828 36.5509 5.9423 27.7784 -1.3173 -0.3823
# 2 36.5509 105.1066 31.1750 37.6330 0.5736 4.7614
# 3 5.9423 31.1750 74.3953 21.9013 7.9357 -0.9238
# 4 27.7784 37.6330 21.9013 56.2304 6.3837 2.4326
# 5 -1.3173 0.5736 7.9357 6.3837 34.9666 3.0699
# 6 -0.3823 4.7614 -0.9238 2.4326 3.0699 32.2020
#
#
#
# Elastic Compliance Matrix: (Units=1/GPa)
#
#
# Indices 1 2 3 4 5 6 
#
# 1 0.008141 -0.002049 0.001083 -0.003169 0.000620 0.000611
# 2 -0.002049 0.013938 -0.003866 -0.006957 0.002005 -0.001862
# 3 0.001083 -0.003866 0.016531 -0.004113 -0.003042 0.001659
# 4 -0.003169 -0.006957 -0.004113 0.026067 -0.003766 -0.000737
# 5 0.000620 0.002005 -0.003042 -0.003766 0.030228 -0.002974
# 6 0.000611 -0.001862 0.001659 -0.000737 -0.002974 0.031723
#
#
# Mechanical properties :
#
#
# Convention : Reuss Voigt Hill
#
# Bulk Modulus (GPa) = 34.54634 52.11344 43.32989
# Shear Modulus (GPa) = 34.26056 41.21425 37.73741
#
# Velocity S-wave (km/s) = 3.77976 4.14563 3.96691
# Velocity P-wave (km/s) = 5.78398 6.68177 6.24902
#
# Compressibility (1/GPa) = 0.02894663
#
# Stress axis : x y z
#
# Youngs Moduli (GPa) = 122.83311 71.74871 60.49234
#
# Poissons Ratio (x) = 0.14698 -0.06549
# Poissons Ratio (y) = 0.25163 0.23384
# Poissons Ratio (z) = -0.13299 0.27736
#
# Static dielectric constant tensor:
#      x y z
#    x 2.245940 0.030410 0.031340 
#    y 0.030410 1.996010 0.021990 
#    z 0.031340 0.021990 1.904520 
# 
# From -- ./inp_files/148963.got.cif
#   From: 2010.05.17/outbox.cif.g08.bks.cpg/sg2_75_cif.got.tgz:148963.got - 2010.06.03 11:33:40.
