data_PCOD9057139
_publ_section_title
;
Structure prediction by ZEFSAII (Michael W. Deem and Ramdas Pophale) SiO2 
 PCOD9057139
Probable space group: P -1
;
_chemical_formula_sum "Si O2"
_cell_formula_units_Z 13
_cell_length_a 11.691479
_cell_length_b 17.589413
_cell_length_c 21.109732
_cell_angle_alpha 19.801748
_cell_angle_beta 157.740497
_cell_angle_gamma 148.957272
_cell_volume 553.767014
_symmetry_space_group_name_H-M "P -1"
_symmetry_group_IT_number 2
_symmetry_cell_setting 'triclinic'
loop_
_space_group_symop_operation_xyz
x,y,z
-x,-y,-z
loop_
_atom_site_type_symbol
_atom_site_label
_atom_site_fract_x
_atom_site_fract_y
_atom_site_fract_z
Si Si1 0.688916 0.411979 0.935258
Si Si2 0.902795 0.625785 0.160690
Si Si3 0.696458 0.815458 0.703047
Si Si4 0.214002 0.809834 0.062844
Si Si5 0.280070 0.322385 0.675671
Si Si6 0.000000 0.000000 0.500000
Si Si7 0.232992 0.803956 0.652866
O O1 0.548822 0.615280 0.750129
O O2 0.482775 0.377053 0.796307
O O3 0.000000 0.500000 0.000000
O O4 0.779187 0.187224 0.197532
O O5 0.819374 0.401510 0.257762
O O6 0.153631 0.734362 0.162087
O O7 0.040176 0.535007 0.368607
O O8 0.584951 0.785242 0.871231
O O9 0.500000 0.000000 0.500000
O O10 0.828752 0.966862 0.598293
O O11 0.955637 0.713670 0.963166
O O12 0.523432 0.726615 0.250232
O O13 0.161508 0.081740 0.817951
O O14 0.022853 0.824926 0.589311
#
# Coordination Sequence:
#
# PCOD9057139 Si02
#       7
#     2   2   2   2   2   1   2
#     4  12  26  46  72 103 142 190 236 304 351 421
#     4  11  24  43  73 104 144 192 237 291 351 425
#     4  12  23  47  76 103 141 190 245 292 358 425
#     4  11  22  41  71 104 142 191 234 299 350 424
#     4  11  25  43  68 108 145 184 243 288 362 422
#     4  12  26  44  70 110 140 178 246 290 356 420
#     4  11  24  43  75 108 139 191 244 291 349 430
#
# _framework density 23.475576
#
# number of rings (size 3 to 8) (size 9 to 14) (size 15 to 20)
#    0.000    0.615    6.154    1.385    4.308    1.231 
#    0.000    3.846    0.000    0.000    0.000    0.000 
#    0.000    0.000    0.000    0.000    0.000    0.000 
#
# Total GULP energy -72461.133583 kJ/mol
# GULP energy per Si atom -5573.933353 kJ/mol
# Density = 2.342214 g / cm^3
# Si number density = 23.475576 Si / 1000 Ang^3
#
#
#
# Elastic Constant Matrix: (Units=GPa)
#
#
# Indices 1 2 3 4 5 6 
#
# 1 57.4732 33.6123 29.8198 -2.0868 -11.6595 -7.0777
# 2 33.6123 84.0616 30.3596 -0.7517 -12.3925 -8.6715
# 3 29.8198 30.3596 94.5600 -6.8422 -32.6125 -5.2180
# 4 -2.0868 -0.7517 -6.8422 33.8280 -9.4094 -5.9702
# 5 -11.6595 -12.3925 -32.6125 -9.4094 43.7865 -3.4457
# 6 -7.0777 -8.6715 -5.2180 -5.9702 -3.4457 34.5195
#
#
#
# Elastic Compliance Matrix: (Units=1/GPa)
#
#
# Indices 1 2 3 4 5 6 
#
# 1 0.025087 -0.007830 -0.004599 0.001386 0.001563 0.002877
# 2 -0.007830 0.016226 -0.002254 0.000105 0.001028 0.002251
# 3 -0.004599 -0.002254 0.018292 0.007903 0.013775 0.003998
# 4 0.001386 0.000105 0.007903 0.037080 0.014994 0.009415
# 5 0.001563 0.001028 0.013775 0.014994 0.037737 0.009021
# 6 0.002877 0.002251 0.003998 0.009415 0.009021 0.033257
#
#
# Mechanical properties :
#
#
# Convention : Reuss Voigt Hill
#
# Bulk Modulus (GPa) = 33.07071 47.07536 40.07304
# Shear Modulus (GPa) = 24.13995 31.91366 28.02681
#
# Velocity S-wave (km/s) = 3.21019 3.69106 3.45899
# Velocity P-wave (km/s) = 5.27810 6.18560 5.74978
#
# Compressibility (1/GPa) = 0.03023824
#
# Stress axis : x y z
#
# Youngs Moduli (GPa) = 39.86157 61.63066 54.66723
#
# Poissons Ratio (x) = 0.48260 0.25143
# Poissons Ratio (y) = 0.31213 0.12320
# Poissons Ratio (z) = 0.18333 0.13890
#
# Static dielectric constant tensor:
#      x y z
#    x 1.959550 0.037670 0.060650 
#    y 0.037670 1.843090 0.013760 
#    z 0.060650 0.013760 1.923270 
# 
# From -- ./inp_files/237949.got.cif
#   From: 2010.05.17/outbox.cif.g08.bks.cpg/sg2_119_cif.got.tgz:237949.got - 2010.06.03 11:33:40.
