data_PCOD9057576
_publ_section_title
;
Structure prediction by ZEFSAII (Michael W. Deem and Ramdas Pophale) SiO2 
 PCOD9057576
Probable space group: P -1
;
_chemical_formula_sum "Si O2"
_cell_formula_units_Z 16
_cell_length_a 7.792554
_cell_length_b 9.454085
_cell_length_c 11.819989
_cell_angle_alpha 66.113290
_cell_angle_beta 130.885139
_cell_angle_gamma 112.128542
_cell_volume 594.051394
_symmetry_space_group_name_H-M "P -1"
_symmetry_group_IT_number 2
_symmetry_cell_setting 'triclinic'
loop_
_space_group_symop_operation_xyz
x,y,z
-x,-y,-z
loop_
_atom_site_type_symbol
_atom_site_label
_atom_site_fract_x
_atom_site_fract_y
_atom_site_fract_z
Si Si1 0.368546 0.745468 0.118095
Si Si2 0.220666 0.632509 0.528697
Si Si3 0.230254 0.959974 0.305181
Si Si4 0.456325 0.443373 0.127996
Si Si5 0.429630 0.949892 0.778075
Si Si6 0.834667 0.451523 0.694967
Si Si7 0.000877 0.792969 0.753497
Si Si8 0.162765 0.234333 0.936543
O O1 0.460448 0.600166 0.149101
O O2 0.266100 0.675128 0.214982
O O3 0.544908 0.897521 0.179431
O O4 0.179715 0.786114 0.935804
O O5 0.317049 0.559221 0.480083
O O6 0.165272 0.872292 0.697749
O O7 0.000000 0.500000 0.500000
O O8 0.212131 0.808648 0.426908
O O9 0.454631 0.998122 0.309916
O O10 0.181806 0.103224 0.314825
O O11 0.023406 0.910346 0.140500
O O12 0.629296 0.354719 0.298067
O O13 0.500000 0.500000 0.000000
O O14 0.215418 0.323728 0.051884
O O15 0.597523 0.835824 0.942318
O O16 0.895099 0.620117 0.722117
O O17 0.066561 0.378327 0.784431
#
# Coordination Sequence:
#
# PCOD9057576 Si02
#       8
#     2   2   2   2   2   2   2   2
#     4  12  24  45  78 117 160 207 270 330 384 466
#     4  11  27  51  77 107 160 213 257 325 408 472
#     4  11  25  50  77 114 165 208 252 334 404 465
#     4  12  27  45  79 114 146 200 271 326 384 480
#     4  12  25  43  76 122 163 206 267 326 395 466
#     4  11  25  49  77 116 159 213 263 323 401 468
#     4  12  26  43  81 124 156 210 267 324 390 472
#     4  11  22  42  75 109 156 197 258 319 381 457
#
# _framework density 26.933696999999999
#
# number of rings (size 3 to 8) (size 9 to 14) (size 15 to 20)
#    0.000    0.500    5.000    4.125    7.000    0.500 
#    0.000    2.500    0.000    0.000    0.000    0.000 
#    0.000    0.000    0.000    0.000    0.000    0.000 
#
# Total GULP energy -89505.705674 kJ/mol
# GULP energy per Si atom -5594.106605 kJ/mol
# Density = 2.687239 g / cm^3
# Si number density = 26.933697 Si / 1000 Ang^3
#
#
#
# Elastic Constant Matrix: (Units=GPa)
#
#
# Indices 1 2 3 4 5 6 
#
# 1 73.1209 17.7121 40.3495 -2.0404 -24.1638 3.2715
# 2 17.7121 182.7791 11.8091 17.2704 -4.9570 -8.5012
# 3 40.3495 11.8091 156.4274 -8.8315 -4.1174 10.7111
# 4 -2.0404 17.2704 -8.8315 40.8395 10.3786 -6.7299
# 5 -24.1638 -4.9570 -4.1174 10.3786 39.7704 11.4242
# 6 3.2715 -8.5012 10.7111 -6.7299 11.4242 48.3382
#
#
#
# Elastic Compliance Matrix: (Units=1/GPa)
#
#
# Indices 1 2 3 4 5 6 
#
# 1 0.021799 -0.001214 -0.005047 -0.004065 0.014975 -0.004676
# 2 -0.001214 0.005902 -0.000318 -0.002619 0.000441 0.000722
# 3 -0.005047 -0.000318 0.007804 0.002181 -0.002724 -0.000496
# 4 -0.004065 -0.002619 0.002181 0.030030 -0.012248 0.006407
# 5 0.014975 0.000441 -0.002724 -0.012248 0.040550 -0.011621
# 6 -0.004676 0.000722 -0.000496 0.006407 -0.011621 0.024879
#
#
# Mechanical properties :
#
#
# Convention : Reuss Voigt Hill
#
# Bulk Modulus (GPa) = 44.74554 61.34098 53.04326
# Shear Modulus (GPa) = 32.98775 48.62005 40.80390
#
# Velocity S-wave (km/s) = 3.50348 4.25334 3.89649
# Velocity P-wave (km/s) = 5.74588 6.85168 6.32300
#
# Compressibility (1/GPa) = 0.02234860
#
# Stress axis : x y z
#
# Youngs Moduli (GPa) = 45.87330 169.42788 128.14185
#
# Poissons Ratio (x) = 0.20562 0.64667
# Poissons Ratio (y) = 0.05567 0.04077
# Poissons Ratio (z) = 0.23150 0.05391
#
# Static dielectric constant tensor:
#      x y z
#    x 2.314150 0.027450 -0.063790 
#    y 0.027450 2.111090 -0.032150 
#    z -0.063790 -0.032150 2.163770 
# 
# From -- ./inp_files/412381.got.cif
#   From: 2010.05.17/outbox.cif.g08.bks.cpg/sg2_207_cif.got.tgz:412381.got - 2010.06.03 11:33:40.
