data_PCOD9057808
_publ_section_title
;
Structure prediction by ZEFSAII (Michael W. Deem and Ramdas Pophale) SiO2 
 PCOD9057808
Probable space group: P -1
;
_chemical_formula_sum "Si O2"
_cell_formula_units_Z 16
_cell_length_a 8.682064
_cell_length_b 11.326981
_cell_length_c 16.991239
_cell_angle_alpha 43.585591
_cell_angle_beta 41.308946
_cell_angle_gamma 43.797781
_cell_volume 700.110197
_symmetry_space_group_name_H-M "P -1"
_symmetry_group_IT_number 2
_symmetry_cell_setting 'triclinic'
loop_
_space_group_symop_operation_xyz
x,y,z
-x,-y,-z
loop_
_atom_site_type_symbol
_atom_site_label
_atom_site_fract_x
_atom_site_fract_y
_atom_site_fract_z
Si Si1 0.919467 0.199193 0.123724
Si Si2 0.416632 0.932936 0.366931
Si Si3 0.032249 0.121756 0.856727
Si Si4 0.166816 0.246401 0.424832
Si Si5 0.136601 0.982934 0.288685
Si Si6 0.374251 0.303834 0.841146
Si Si7 0.591373 0.486999 0.801740
Si Si8 0.277185 0.598011 0.599933
O O1 0.645151 0.360678 0.135363
O O2 0.962590 0.002806 0.161538
O O3 0.966410 0.160764 0.217754
O O4 0.136152 0.259787 0.978226
O O5 0.225628 0.012157 0.327821
O O6 0.331414 0.779420 0.512952
O O7 0.698268 0.858280 0.259359
O O8 0.387167 0.080386 0.375466
O O9 0.803714 0.322191 0.847572
O O10 0.000000 0.000000 0.000000
O O11 0.270580 0.390691 0.352217
O O12 0.011453 0.155741 0.580336
O O13 0.978443 0.348760 0.376697
O O14 0.396699 0.877320 0.192333
O O15 0.476544 0.383395 0.836252
O O16 0.297512 0.460853 0.728354
O O17 0.500000 0.500000 0.500000
#
# Coordination Sequence:
#
# PCOD9057808 Si02
#       8
#     2   2   2   2   2   2   2   2
#     4  12  28  51  69 110 151 192 245 295 370 434
#     4  11  24  46  73 109 148 189 246 301 363 426
#     4  12  28  48  77 104 148 195 241 306 360 436
#     4  11  25  45  72 110 149 190 244 301 364 425
#     4  11  24  46  77 105 143 198 238 298 364 433
#     4  12  26  46  73 103 149 193 244 304 357 439
#     4  12  29  48  71 112 145 193 242 296 374 428
#     4  11  22  43  71 106 137 190 247 294 355 429
#
# _framework density 22.853542999999998
#
# number of rings (size 3 to 8) (size 9 to 14) (size 15 to 20)
#    0.000    0.500    5.000    3.750    7.000    3.500 
#    0.000    0.000    0.000    0.000    0.000    0.000 
#    0.000    0.000    0.000    0.000    0.000    0.000 
#
# Total GULP energy -89573.666746 kJ/mol
# GULP energy per Si atom -5598.354172 kJ/mol
# Density = 2.280153 g / cm^3
# Si number density = 22.853543 Si / 1000 Ang^3
#
#
#
# Elastic Constant Matrix: (Units=GPa)
#
#
# Indices 1 2 3 4 5 6 
#
# 1 47.2732 22.9251 41.8535 -6.5737 -19.2769 -9.0040
# 2 22.9251 118.0289 31.9820 -1.7551 -6.8017 -26.7025
# 3 41.8535 31.9820 131.8706 -1.2495 -18.0882 -28.9381
# 4 -6.5737 -1.7551 -1.2495 26.1288 -7.0531 -7.5033
# 5 -19.2769 -6.8017 -18.0882 -7.0531 43.6830 -4.5997
# 6 -9.0040 -26.7025 -28.9381 -7.5033 -4.5997 42.0191
#
#
#
# Elastic Compliance Matrix: (Units=1/GPa)
#
#
# Indices 1 2 3 4 5 6 
#
# 1 0.040126 -0.003077 -0.008298 0.015656 0.016907 0.005574
# 2 -0.003077 0.010691 0.000081 0.002269 0.001418 0.006751
# 3 -0.008298 0.000081 0.012061 0.001125 0.002267 0.007029
# 4 0.015656 0.002269 0.001125 0.052086 0.017910 0.016833
# 5 0.016907 0.001418 0.002267 0.017910 0.035794 0.013201
# 6 0.005574 0.006751 0.007029 0.016833 0.013201 0.038575
#
#
# Mechanical properties :
#
#
# Convention : Reuss Voigt Hill
#
# Bulk Modulus (GPa) = 24.82029 54.52152 39.67091
# Shear Modulus (GPa) = 22.18765 35.72699 28.95732
#
# Velocity S-wave (km/s) = 3.11925 3.95815 3.56347
# Velocity P-wave (km/s) = 4.88437 6.69313 5.85897
#
# Compressibility (1/GPa) = 0.04028961
#
# Stress axis : x y z
#
# Youngs Moduli (GPa) = 24.92167 93.53761 82.91014
#
# Poissons Ratio (x) = 0.28781 0.68802
# Poissons Ratio (y) = 0.07668 -0.00673
# Poissons Ratio (z) = 0.20681 -0.00759
#
# Static dielectric constant tensor:
#      x y z
#    x 1.858410 0.019280 -0.007940 
#    y 0.019280 1.583370 0.034960 
#    z -0.007940 0.034960 1.796220 
# 
# From -- ./inp_files/346452.got.cif
#   From: 2010.05.17/outbox.cif.g08.bks.cpg/sg2_174_cif.got.tgz:346452.got - 2010.06.03 11:33:40.
