data_PCOD9057596
_publ_section_title
;
Structure prediction by ZEFSAII (Michael W. Deem and Ramdas Pophale) SiO2 
 PCOD9057596
Probable space group: P -1
;
_chemical_formula_sum "Si O2"
_cell_formula_units_Z 14
_cell_length_a 23.385377
_cell_length_b 5.323003
_cell_length_c 5.833192
_cell_angle_alpha 128.866293
_cell_angle_beta 86.023900
_cell_angle_gamma 102.876886
_cell_volume 548.763705
_symmetry_space_group_name_H-M "P -1"
_symmetry_group_IT_number 2
_symmetry_cell_setting 'triclinic'
loop_
_space_group_symop_operation_xyz
x,y,z
-x,-y,-z
loop_
_atom_site_type_symbol
_atom_site_label
_atom_site_fract_x
_atom_site_fract_y
_atom_site_fract_z
Si Si1 0.108827 0.072752 0.389090
Si Si2 0.824882 0.191478 0.144884
Si Si3 0.461409 0.675436 0.445924
Si Si4 0.014511 0.689555 0.357222
Si Si5 0.269801 0.252127 0.844297
Si Si6 0.379886 0.062994 0.929571
Si Si7 0.285938 0.960735 0.255678
O O1 0.042889 0.123949 0.488333
O O2 0.124316 0.954284 0.069433
O O3 0.089399 0.749400 0.371665
O O4 0.153164 0.416299 0.622663
O O5 0.768643 0.092222 0.933360
O O6 0.794087 0.992063 0.257456
O O7 0.500000 0.500000 0.500000
O O8 0.428460 0.406382 0.119182
O O9 0.500000 0.000000 0.500000
O O10 0.411398 0.788901 0.672976
O O11 0.000000 0.500000 0.500000
O O12 0.000000 0.500000 0.000000
O O13 0.282620 0.279758 0.586483
O O14 0.323865 0.100930 0.820871
O O15 0.273312 0.597061 0.167791
O O16 0.350098 0.000011 0.151328
#
# Coordination Sequence:
#
# PCOD9057596 Si02
#       7
#     2   2   2   2   2   2   2
#     4   9  22  37  66  87 142 170 228 280 342 400
#     4  11  22  43  60 105 128 174 226 282 340 404
#     4  12  28  47  74 107 142 180 234 281 342 401
#     4   8  20  40  64  96 131 181 227 274 348 406
#     4  11  24  41  69  97 133 180 224 277 347 406
#     4  11  26  46  70  97 144 177 230 282 342 406
#     4  11  24  41  69  97 133 180 224 277 347 406
#
# _framework density 25.511890999999999
#
# number of rings (size 3 to 8) (size 9 to 14) (size 15 to 20)
#    0.857    0.571    0.000    4.286    6.000   10.286 
#    0.000    1.429    0.000    0.000    0.000    0.000 
#    0.000    0.000    0.000    0.000    0.000    0.000 
#
# Total GULP energy -78097.060533 kJ/mol
# GULP energy per Si atom -5578.361467 kJ/mol
# Density = 2.545382 g / cm^3
# Si number density = 25.511891 Si / 1000 Ang^3
#
#
#
# Elastic Constant Matrix: (Units=GPa)
#
#
# Indices 1 2 3 4 5 6 
#
# 1 99.9786 27.5493 14.1013 3.8487 -13.4555 6.7299
# 2 27.5493 106.7994 22.0843 3.6589 8.2311 23.2588
# 3 14.1013 22.0843 129.8873 19.7191 -14.3834 3.5383
# 4 3.8487 3.6589 19.7191 33.7499 11.2256 1.4262
# 5 -13.4555 8.2311 -14.3834 11.2256 47.5341 9.3944
# 6 6.7299 23.2588 3.5383 1.4262 9.3944 42.7836
#
#
#
# Elastic Compliance Matrix: (Units=1/GPa)
#
#
# Indices 1 2 3 4 5 6 
#
# 1 0.011635 -0.003075 0.000218 -0.002650 0.004741 -0.001129
# 2 -0.003075 0.011898 -0.002086 0.001456 -0.002872 -0.005230
# 3 0.000218 -0.002086 0.009707 -0.007164 0.005170 -0.000600
# 4 -0.002650 0.001456 -0.007164 0.038042 -0.012488 0.001692
# 5 0.004741 -0.002872 0.005170 -0.012488 0.028467 -0.005446
# 6 -0.001129 -0.005230 -0.000600 0.001692 -0.005446 0.027583
#
#
# Mechanical properties :
#
#
# Convention : Reuss Voigt Hill
#
# Bulk Modulus (GPa) = 42.81989 51.57056 47.19523
# Shear Modulus (GPa) = 34.48209 43.00888 38.74549
#
# Velocity S-wave (km/s) = 3.68041 4.11035 3.90131
# Velocity P-wave (km/s) = 5.90604 6.54101 6.23162
#
# Compressibility (1/GPa) = 0.02335363
#
# Stress axis : x y z
#
# Youngs Moduli (GPa) = 85.94927 84.04548 103.02348
#
# Poissons Ratio (x) = 0.25843 -0.02243
# Poissons Ratio (y) = 0.26429 0.21488
# Poissons Ratio (z) = -0.01871 0.17530
#
# Static dielectric constant tensor:
#      x y z
#    x 2.009190 -0.069960 0.029650 
#    y -0.069960 2.345940 -0.052250 
#    z 0.029650 -0.052250 2.021140 
# 
# From -- ./inp_files/121355.got.cif
#   From: 2010.05.17/outbox.cif.g08.bks.cpg/sg2_61_cif.got.tgz:121355.got - 2010.06.03 11:33:40.
