data_PCOD9057539
_publ_section_title
;
Structure prediction by ZEFSAII (Michael W. Deem and Ramdas Pophale) SiO2 
 PCOD9057539
Probable space group: P -1
;
_chemical_formula_sum "Si O2"
_cell_formula_units_Z 16
_cell_length_a 7.865350
_cell_length_b 20.189685
_cell_length_c 12.538023
_cell_angle_alpha 41.859008
_cell_angle_beta 100.992467
_cell_angle_gamma 136.050573
_cell_volume 613.960907
_symmetry_space_group_name_H-M "P -1"
_symmetry_group_IT_number 2
_symmetry_cell_setting 'triclinic'
loop_
_space_group_symop_operation_xyz
x,y,z
-x,-y,-z
loop_
_atom_site_type_symbol
_atom_site_label
_atom_site_fract_x
_atom_site_fract_y
_atom_site_fract_z
Si Si1 0.608528 0.539255 0.272586
Si Si2 0.265967 0.868318 0.523706
Si Si3 0.475451 0.774132 0.689065
Si Si4 0.728635 0.877664 0.015896
Si Si5 0.259710 0.892928 0.261305
Si Si6 0.838205 0.866999 0.814185
Si Si7 0.524324 0.595971 0.797402
Si Si8 0.051402 0.415907 0.556231
O O1 0.679875 0.508539 0.213984
O O2 0.839826 0.613605 0.309307
O O3 0.182268 0.317856 0.522768
O O4 0.687420 0.685646 0.053543
O O5 0.171363 0.703692 0.717641
O O6 0.435700 0.961231 0.315368
O O7 0.946161 0.786993 0.587830
O O8 0.500000 0.000000 0.500000
O O9 0.561281 0.794430 0.798146
O O10 0.409732 0.638188 0.787411
O O11 0.843962 0.993246 0.403845
O O12 0.924707 0.965509 0.818567
O O13 0.593783 0.922657 0.967162
O O14 0.419623 0.634876 0.272173
O O15 0.000000 0.000000 0.000000
O O16 0.258252 0.795338 0.301092
O O17 0.500000 0.500000 0.000000
O O18 0.000000 0.500000 0.500000
#
# Coordination Sequence:
#
# PCOD9057539 Si02
#       8
#     2   2   2   2   2   2   2   2
#     4  11  22  45  70  99 144 184 239 299 360 434
#     4  11  25  44  72 108 144 185 244 307 356 445
#     4  11  24  43  70 104 144 185 246 293 367 442
#     4  12  24  44  78 101 140 198 243 295 375 439
#     4  11  24  47  72 101 145 190 241 301 365 438
#     4  11  22  42  73 103 137 192 236 297 367 435
#     4  11  24  45  68 104 143 195 234 297 379 433
#     4  12  28  46  70 111 145 188 250 306 363 437
#
# _framework density 26.060293000000001
#
# number of rings (size 3 to 8) (size 9 to 14) (size 15 to 20)
#    0.000    0.750    3.750    4.875    1.750    2.000 
#    2.250    0.000    0.000    0.000    0.000    0.000 
#    0.000    0.000    0.000    0.000    0.000    0.000 
#
# Total GULP energy -89367.056020 kJ/mol
# GULP energy per Si atom -5585.441001 kJ/mol
# Density = 2.600098 g / cm^3
# Si number density = 26.060293 Si / 1000 Ang^3
#
#
#
# Elastic Constant Matrix: (Units=GPa)
#
#
# Indices 1 2 3 4 5 6 
#
# 1 74.0524 27.8285 25.3476 15.3891 17.0143 -18.9535
# 2 27.8285 145.7969 31.8679 38.5106 -2.6374 -38.2429
# 3 25.3476 31.8679 125.3747 19.2603 33.5746 4.3932
# 4 15.3891 38.5106 19.2603 44.0239 1.3808 3.5078
# 5 17.0143 -2.6374 33.5746 1.3808 40.7934 -7.1522
# 6 -18.9535 -38.2429 4.3932 3.5078 -7.1522 44.1845
#
#
#
# Elastic Compliance Matrix: (Units=1/GPa)
#
#
# Indices 1 2 3 4 5 6 
#
# 1 0.018551 0.001105 -0.002173 -0.007094 -0.004053 0.009037
# 2 0.001105 0.016124 -0.004982 -0.013952 0.008198 0.017360
# 3 -0.002173 -0.004982 0.013023 0.000459 -0.011633 -0.008459
# 4 -0.007094 -0.013952 0.000459 0.038781 -0.002915 -0.018715
# 5 -0.004053 0.008198 -0.011633 -0.002915 0.038688 0.013008
# 6 0.009037 0.017360 -0.008459 -0.018715 0.013008 0.045967
#
#
# Mechanical properties :
#
#
# Convention : Reuss Voigt Hill
#
# Bulk Modulus (GPa) = 28.09219 57.25690 42.67455
# Shear Modulus (GPa) = 25.62809 43.14569 34.38689
#
# Velocity S-wave (km/s) = 3.13935 4.07333 3.63645
# Velocity P-wave (km/s) = 4.89324 6.64390 5.83460
#
# Compressibility (1/GPa) = 0.03559708
#
# Stress axis : x y z
#
# Youngs Moduli (GPa) = 53.90586 62.01994 76.78839
#
# Poissons Ratio (x) = -0.06853 0.16686
# Poissons Ratio (y) = -0.05957 0.38257
# Poissons Ratio (z) = 0.11714 0.30900
#
# Static dielectric constant tensor:
#      x y z
#    x 2.131940 -0.058480 -0.061220 
#    y -0.058480 2.084730 -0.056680 
#    z -0.061220 -0.056680 2.188780 
# 
# From -- ./inp_files/405425.got.cif
#   From: 2010.05.17/outbox.cif.g08.bks.cpg/sg2_203_cif.got.tgz:405425.got - 2010.06.03 11:33:40.
