data_PCOD9057950
_publ_section_title
;
Structure prediction by ZEFSAII (Michael W. Deem and Ramdas Pophale) SiO2 
 PCOD9057950
Probable space group: P -1
;
_chemical_formula_sum "Si O2"
_cell_formula_units_Z 16
_cell_length_a 8.779410
_cell_length_b 11.203098
_cell_length_c 9.240898
_cell_angle_alpha 53.764748
_cell_angle_beta 114.756713
_cell_angle_gamma 96.554086
_cell_volume 654.607591
_symmetry_space_group_name_H-M "P -1"
_symmetry_group_IT_number 2
_symmetry_cell_setting 'triclinic'
loop_
_space_group_symop_operation_xyz
x,y,z
-x,-y,-z
loop_
_atom_site_type_symbol
_atom_site_label
_atom_site_fract_x
_atom_site_fract_y
_atom_site_fract_z
Si Si1 0.537219 0.169580 0.985933
Si Si2 0.982142 0.570054 0.283314
Si Si3 0.660968 0.367016 0.644921
Si Si4 0.702585 0.109005 0.645178
Si Si5 0.828985 0.896810 0.094025
Si Si6 0.638664 0.603671 0.003434
Si Si7 0.319932 0.148869 0.399705
Si Si8 0.134130 0.055912 0.614813
O O1 0.615265 0.243615 0.827403
O O2 0.368029 0.098632 0.936206
O O3 0.444067 0.299472 0.962556
O O4 0.698419 0.072915 0.202272
O O5 0.903218 0.745743 0.148617
O O6 0.000000 0.500000 0.500000
O O7 0.168800 0.568748 0.294150
O O8 0.830357 0.514738 0.175349
O O9 0.500000 0.500000 0.500000
O O10 0.694182 0.285590 0.557576
O O11 0.502387 0.099494 0.583174
O O12 0.735185 0.994762 0.601963
O O13 0.815930 0.026896 0.878739
O O14 0.929905 0.901257 0.280055
O O15 0.658105 0.721548 0.797728
O O16 0.500000 0.500000 0.000000
O O17 0.191060 0.191524 0.450591
O O18 0.000000 0.000000 0.500000
#
# Coordination Sequence:
#
# PCOD9057950 Si02
#       8
#     2   2   2   2   2   2   2   2
#     4  11  22  46  69 103 142 193 252 301 374 447
#     4  11  27  49  72 106 146 199 263 299 380 461
#     4  12  27  44  76 108 148 199 256 308 377 456
#     4  11  22  43  79 103 146 193 249 303 377 448
#     4  11  22  48  73 103 144 197 238 312 365 452
#     4  11  26  48  75 102 154 202 249 315 383 450
#     4  11  23  43  72 116 145 195 250 310 386 447
#     4  12  26  39  71 112 155 181 248 320 377 440
#
# _framework density 24.442125000000001
#
# number of rings (size 3 to 8) (size 9 to 14) (size 15 to 20)
#    0.000    0.750    5.000    3.375    7.000    1.500 
#    0.000    0.625    0.000    0.000    0.000    0.000 
#    0.000    0.000    0.000    0.000    0.000    0.000 
#
# Total GULP energy -89345.478790 kJ/mol
# GULP energy per Si atom -5584.092424 kJ/mol
# Density = 2.438649 g / cm^3
# Si number density = 24.442125 Si / 1000 Ang^3
#
#
#
# Elastic Constant Matrix: (Units=GPa)
#
#
# Indices 1 2 3 4 5 6 
#
# 1 151.7631 24.5392 56.0874 -0.0805 2.2258 26.1561
# 2 24.5392 87.3722 38.1175 15.6245 14.0307 18.2444
# 3 56.0874 38.1175 115.9666 15.2688 5.6564 13.0177
# 4 -0.0805 15.6245 15.2688 42.5940 2.4954 11.3999
# 5 2.2258 14.0307 5.6564 2.4954 55.4778 4.5642
# 6 26.1561 18.2444 13.0177 11.3999 4.5642 36.1455
#
#
#
# Elastic Compliance Matrix: (Units=1/GPa)
#
#
# Indices 1 2 3 4 5 6 
#
# 1 0.009203 -0.000125 -0.004159 0.003175 0.000450 -0.006157
# 2 -0.000125 0.015147 -0.003869 -0.002674 -0.002904 -0.004952
# 3 -0.004159 -0.003869 0.012170 -0.003391 -0.000080 0.001658
# 4 0.003175 -0.002674 -0.003391 0.027958 0.000344 -0.008588
# 5 0.000450 -0.002904 -0.000080 0.000344 0.018843 -0.001319
# 6 -0.006157 -0.004952 0.001658 -0.008588 -0.001319 0.036898
#
#
# Mechanical properties :
#
#
# Convention : Reuss Voigt Hill
#
# Bulk Modulus (GPa) = 49.46816 65.84334 57.65575
# Shear Modulus (GPa) = 34.90120 42.60064 38.75092
#
# Velocity S-wave (km/s) = 3.78287 4.17936 3.98605
# Velocity P-wave (km/s) = 6.27399 7.09128 6.69512
#
# Compressibility (1/GPa) = 0.02021502
#
# Stress axis : x y z
#
# Youngs Moduli (GPa) = 108.66553 66.02173 82.16725
#
# Poissons Ratio (x) = 0.00824 0.34171
# Poissons Ratio (y) = 0.01356 0.31788
# Poissons Ratio (z) = 0.45191 0.25542
#
# Static dielectric constant tensor:
#      x y z
#    x 2.062110 -0.002760 0.074230 
#    y -0.002760 2.090940 -0.018670 
#    z 0.074230 -0.018670 2.024040 
# 
# From -- ./inp_files/185327.got.cif
#   From: 2010.05.17/outbox.cif.g08.bks.cpg/sg2_93_cif.got.tgz:185327.got - 2010.06.03 11:33:40.
