data_PCOD9057949
_publ_section_title
;
Structure prediction by ZEFSAII (Michael W. Deem and Ramdas Pophale) SiO2 
 PCOD9057949
Probable space group: P -1
;
_chemical_formula_sum "Si O2"
_cell_formula_units_Z 13
_cell_length_a 9.251000
_cell_length_b 11.319878
_cell_length_c 9.631602
_cell_angle_alpha 140.456011
_cell_angle_beta 98.539581
_cell_angle_gamma 65.334033
_cell_volume 556.767064
_symmetry_space_group_name_H-M "P -1"
_symmetry_group_IT_number 2
_symmetry_cell_setting 'triclinic'
loop_
_space_group_symop_operation_xyz
x,y,z
-x,-y,-z
loop_
_atom_site_type_symbol
_atom_site_label
_atom_site_fract_x
_atom_site_fract_y
_atom_site_fract_z
Si Si1 0.795087 0.842861 0.057364
Si Si2 0.330078 0.208335 0.706367
Si Si3 0.870356 0.167003 0.238982
Si Si4 0.075010 0.383389 0.585780
Si Si5 0.470675 0.530683 0.697072
Si Si6 0.500000 0.500000 0.000000
Si Si7 0.645268 0.708986 0.689924
O O1 0.665733 0.876611 0.943232
O O2 0.957813 0.622246 0.838015
O O3 0.728863 0.818395 0.174073
O O4 0.839256 0.030787 0.227065
O O5 0.190633 0.249790 0.608770
O O6 0.369603 0.401687 0.882118
O O7 0.500000 0.000000 0.500000
O O8 0.706550 0.303193 0.244777
O O9 0.957299 0.290098 0.432550
O O10 0.000000 0.000000 0.000000
O O11 0.196452 0.363528 0.457392
O O12 0.474843 0.555741 0.881698
O O13 0.609625 0.575300 0.684905
O O14 0.483649 0.303968 0.451853
#
# Coordination Sequence:
#
# PCOD9057949 Si02
#       7
#     2   2   2   2   2   1   2
#     4  12  26  48  76 112 153 204 251 320 384 448
#     4  12  31  48  76 113 156 206 255 316 381 457
#     4  12  27  43  80 114 151 196 263 308 380 454
#     4  12  26  50  76 113 158 200 252 315 387 449
#     4  11  25  45  76 114 147 204 254 313 375 457
#     4  12  26  50  76 106 162 198 248 314 390 442
#     4  11  22  43  78 108 147 195 255 305 374 447
#
# _framework density 23.349083
#
# number of rings (size 3 to 8) (size 9 to 14) (size 15 to 20)
#    0.000    0.308    6.154    1.846    4.308    2.462 
#    0.000    0.000    0.000    0.000    0.000    0.000 
#    0.000    0.000    0.000    0.000    0.000    0.000 
#
# Total GULP energy -72384.855947 kJ/mol
# GULP energy per Si atom -5568.065842 kJ/mol
# Density = 2.329594 g / cm^3
# Si number density = 23.349083 Si / 1000 Ang^3
#
#
#
# Elastic Constant Matrix: (Units=GPa)
#
#
# Indices 1 2 3 4 5 6 
#
# 1 188.5090 70.5360 64.6696 -10.4199 -0.0709 26.7572
# 2 70.5360 109.4248 60.6271 -34.3394 -20.9491 -3.3124
# 3 64.6696 60.6271 93.8003 -24.8351 6.1587 -0.1203
# 4 -10.4199 -34.3394 -24.8351 40.3356 12.2685 2.4565
# 5 -0.0709 -20.9491 6.1587 12.2685 50.7360 -5.2200
# 6 26.7572 -3.3124 -0.1203 2.4565 -5.2200 59.5758
#
#
#
# Elastic Compliance Matrix: (Units=1/GPa)
#
#
# Indices 1 2 3 4 5 6 
#
# 1 0.008941 -0.005290 -0.003682 -0.003824 -0.001239 -0.004268
# 2 -0.005290 0.021919 -0.008610 0.009243 0.008256 0.003920
# 3 -0.003682 -0.008610 0.021162 0.007114 -0.007825 0.000239
# 4 -0.003824 0.009243 0.007114 0.037934 -0.006211 0.000137
# 5 -0.001239 0.008256 -0.007825 -0.006211 0.025932 0.003528
# 6 -0.004268 0.003920 0.000239 0.000137 0.003528 0.019224
#
#
# Mechanical properties :
#
#
# Convention : Reuss Voigt Hill
#
# Bulk Modulus (GPa) = 59.31717 87.04440 73.18079
# Shear Modulus (GPa) = 28.42603 43.18957 35.80780
#
# Velocity S-wave (km/s) = 3.49296 4.30552 3.92035
# Velocity P-wave (km/s) = 6.45967 7.87891 7.20432
#
# Compressibility (1/GPa) = 0.01685852
#
# Stress axis : x y z
#
# Youngs Moduli (GPa) = 111.83952 45.62259 47.25526
#
# Poissons Ratio (x) = 0.24136 0.17398
# Poissons Ratio (y) = 0.59167 0.40685
# Poissons Ratio (z) = 0.41176 0.39280
#
# Static dielectric constant tensor:
#      x y z
#    x 1.906490 -0.059560 -0.046870 
#    y -0.059560 1.936770 0.128890 
#    z -0.046870 0.128890 1.980430 
# 
# From -- ./inp_files/183578.got.cif
#   From: 2010.05.17/outbox.cif.g08.bks.cpg/sg2_92_cif.got.tgz:183578.got - 2010.06.03 11:33:40.
