data_PCOD9057214
_publ_section_title
;
Structure prediction by ZEFSAII (Michael W. Deem and Ramdas Pophale) SiO2 
 PCOD9057214
Probable space group: P -1
;
_chemical_formula_sum "Si O2"
_cell_formula_units_Z 16
_cell_length_a 11.353383
_cell_length_b 9.500421
_cell_length_c 9.156481
_cell_angle_alpha 94.147389
_cell_angle_beta 81.686236
_cell_angle_gamma 41.811181
_cell_volume 626.765735
_symmetry_space_group_name_H-M "P -1"
_symmetry_group_IT_number 2
_symmetry_cell_setting 'triclinic'
loop_
_space_group_symop_operation_xyz
x,y,z
-x,-y,-z
loop_
_atom_site_type_symbol
_atom_site_label
_atom_site_fract_x
_atom_site_fract_y
_atom_site_fract_z
Si Si1 0.618278 0.781046 0.048454
Si Si2 0.600426 0.283738 0.040956
Si Si3 0.126683 0.248079 0.483487
Si Si4 0.630412 0.962442 0.309046
Si Si5 0.946809 0.867114 0.777264
Si Si6 0.531768 0.580584 0.631932
Si Si7 0.924217 0.180651 0.691192
Si Si8 0.014351 0.684862 0.047585
O O1 0.533497 0.720761 0.983952
O O2 0.575691 0.867277 0.229117
O O3 0.838626 0.572804 0.962053
O O4 0.500000 0.000000 0.000000
O O5 0.793274 0.074055 0.921844
O O6 0.500000 0.500000 0.000000
O O7 0.620714 0.303887 0.207406
O O8 0.293293 0.138899 0.551360
O O9 0.148377 0.158673 0.315032
O O10 0.000000 0.500000 0.500000
O O11 0.037616 0.198750 0.587273
O O12 0.805353 0.847432 0.159056
O O13 0.495732 0.223186 0.368670
O O14 0.009508 0.945048 0.673318
O O15 0.056801 0.682561 0.869120
O O16 0.500000 0.500000 0.500000
O O17 0.724524 0.366094 0.661638
O O18 0.919321 0.244866 0.860670
#
# Coordination Sequence:
#
# PCOD9057214 Si02
#       8
#     2   2   2   2   2   2   2   2
#     4  12  22  43  71 104 143 186 241 293 354 427
#     4  12  25  46  71 107 145 189 243 298 360 425
#     4  11  27  49  67 101 148 187 240 296 367 429
#     4  11  24  43  71 108 138 195 237 295 365 422
#     4  12  23  45  72 106 140 192 239 303 351 428
#     4  12  24  47  72 106 148 190 238 296 363 428
#     4  11  24  46  70 102 143 189 241 292 362 427
#     4  11  22  41  73 107 142 179 242 302 352 423
#
# _framework density 25.527878999999999
#
# number of rings (size 3 to 8) (size 9 to 14) (size 15 to 20)
#    0.000    0.500    5.000    2.625    0.000    5.000 
#    6.750    1.250    0.000    0.000    0.000    0.000 
#    0.000    0.000    0.000    0.000    0.000    0.000 
#
# Total GULP energy -89322.474985 kJ/mol
# GULP energy per Si atom -5582.654687 kJ/mol
# Density = 2.546978 g / cm^3
# Si number density = 25.527879 Si / 1000 Ang^3
#
#
#
# Elastic Constant Matrix: (Units=GPa)
#
#
# Indices 1 2 3 4 5 6 
#
# 1 78.6810 19.0268 36.0468 3.4999 17.1095 1.3216
# 2 19.0268 129.4225 36.7398 -6.9777 8.1287 14.0501
# 3 36.0468 36.7398 183.5178 5.9831 46.5763 9.2880
# 4 3.4999 -6.9777 5.9831 48.2218 2.4836 10.5343
# 5 17.1095 8.1287 46.5763 2.4836 57.1397 0.8153
# 6 1.3216 14.0501 9.2880 10.5343 0.8153 38.7295
#
#
#
# Elastic Compliance Matrix: (Units=1/GPa)
#
#
# Indices 1 2 3 4 5 6 
#
# 1 0.014555 -0.001597 -0.001902 -0.001116 -0.002545 0.000896
# 2 -0.001597 0.008849 -0.001447 0.002310 0.000348 -0.003444
# 3 -0.001902 -0.001447 0.007530 -0.000521 -0.005326 -0.000962
# 4 -0.001116 0.002310 -0.000521 0.022738 -0.000460 -0.006850
# 5 -0.002545 0.000348 -0.005326 -0.000460 0.022562 0.000888
# 6 0.000896 -0.003444 -0.000962 -0.006850 0.000888 0.029114
#
#
# Mechanical properties :
#
#
# Convention : Reuss Voigt Hill
#
# Bulk Modulus (GPa) = 47.52732 63.91643 55.72187
# Shear Modulus (GPa) = 40.89812 48.80540 44.85176
#
# Velocity S-wave (km/s) = 4.00696 4.37721 4.19617
# Velocity P-wave (km/s) = 6.32976 7.11610 6.73442
#
# Compressibility (1/GPa) = 0.02104053
#
# Stress axis : x y z
#
# Youngs Moduli (GPa) = 68.70335 113.00845 132.80603
#
# Poissons Ratio (x) = 0.18053 0.25263
# Poissons Ratio (y) = 0.10975 0.19217
# Poissons Ratio (z) = 0.13069 0.16352
#
# Static dielectric constant tensor:
#      x y z
#    x 2.113440 0.014120 -0.079220 
#    y 0.014120 2.095310 -0.085150 
#    z -0.079220 -0.085150 2.085950 
# 
# From -- ./inp_files/244574.got.cif
#   From: 2010.05.17/outbox.cif.g08.bks.cpg/sg2_123_cif.got.tgz:244574.got - 2010.06.03 11:33:40.
