data_PCOD9057012
_publ_section_title
;
Structure prediction by ZEFSAII (Michael W. Deem and Ramdas Pophale) SiO2 
 PCOD9057012
Probable space group: P -1
;
_chemical_formula_sum "Si O2"
_cell_formula_units_Z 16
_cell_length_a 20.146572
_cell_length_b 8.883877
_cell_length_c 5.201022
_cell_angle_alpha 130.014930
_cell_angle_beta 118.810086
_cell_angle_gamma 62.258004
_cell_volume 607.660373
_symmetry_space_group_name_H-M "P -1"
_symmetry_group_IT_number 2
_symmetry_cell_setting 'triclinic'
loop_
_space_group_symop_operation_xyz
x,y,z
-x,-y,-z
loop_
_atom_site_type_symbol
_atom_site_label
_atom_site_fract_x
_atom_site_fract_y
_atom_site_fract_z
Si Si1 0.215133 0.988233 0.749561
Si Si2 0.851245 0.663695 0.684188
Si Si3 0.620529 0.015135 0.210328
Si Si4 0.328081 0.724408 0.013380
Si Si5 0.993943 0.860276 0.076876
Si Si6 0.854214 0.361237 0.740855
Si Si7 0.709706 0.602276 0.032566
Si Si8 0.459673 0.617081 0.801613
O O1 0.294224 0.977737 0.734856
O O2 0.247556 0.874851 0.953083
O O3 0.156937 0.855174 0.417413
O O4 0.169623 0.213956 0.953863
O O5 0.868029 0.430795 0.552366
O O6 0.770582 0.699012 0.417342
O O7 0.915960 0.772541 0.819189
O O8 0.553497 0.144336 0.043540
O O9 0.634139 0.776410 0.008685
O O10 0.618350 0.138708 0.607035
O O11 0.316645 0.557432 0.007309
O O12 0.370892 0.620969 0.723287
O O13 0.062590 0.653379 0.990386
O O14 0.000000 0.000000 0.500000
O O15 0.000000 0.000000 0.000000
O O16 0.769072 0.491021 0.805055
O O17 0.500000 0.500000 0.500000
O O18 0.500000 0.500000 0.000000
#
# Coordination Sequence:
#
# PCOD9057012 Si02
#       8
#     2   2   2   2   2   2   2   2
#     4  11  22  41  68 103 142 192 240 310 360 435
#     4  12  26  45  71 102 148 191 253 308 380 432
#     4  11  23  42  73 108 149 186 240 295 363 430
#     4  11  23  42  73 108 149 186 240 295 363 430
#     4  12  31  49  74 101 146 204 254 306 381 452
#     4  12  26  45  71 102 148 191 253 308 380 432
#     4  12  26  41  74 114 144 188 250 312 366 428
#     4  11  24  48  78 107 146 201 236 283 358 439
#
# _framework density 26.330497999999999
#
# number of rings (size 3 to 8) (size 9 to 14) (size 15 to 20)
#    0.000    0.500    7.500    0.375    7.000    0.500 
#    0.000    1.250    0.000    0.000    0.000    0.000 
#    0.000    0.000    0.000    0.000    0.000    0.000 
#
# Total GULP energy -89246.398077 kJ/mol
# GULP energy per Si atom -5577.899880 kJ/mol
# Density = 2.627057 g / cm^3
# Si number density = 26.330498 Si / 1000 Ang^3
#
#
#
# Elastic Constant Matrix: (Units=GPa)
#
#
# Indices 1 2 3 4 5 6 
#
# 1 103.2517 23.6221 8.8250 -1.5099 -11.9121 8.7808
# 2 23.6221 162.5212 -0.6299 -19.0793 -7.9245 4.2141
# 3 8.8250 -0.6299 60.4707 1.0457 -5.3003 5.7716
# 4 -1.5099 -19.0793 1.0457 27.0417 12.0139 1.8289
# 5 -11.9121 -7.9245 -5.3003 12.0139 27.4112 -4.8638
# 6 8.7808 4.2141 5.7716 1.8289 -4.8638 49.0422
#
#
#
# Elastic Compliance Matrix: (Units=1/GPa)
#
#
# Indices 1 2 3 4 5 6 
#
# 1 0.010767 -0.001607 -0.001003 -0.002635 0.004984 -0.001079
# 2 -0.001607 0.006980 0.000178 0.005365 -0.001112 -0.000643
# 3 -0.001003 0.000178 0.017173 -0.002099 0.003604 -0.001421
# 4 -0.002635 0.005365 -0.002099 0.051259 -0.023167 -0.003951
# 5 0.004984 -0.001112 0.003604 -0.023167 0.049993 0.004601
# 6 -0.001079 -0.000643 -0.001421 -0.003951 0.004601 0.021410
#
#
# Mechanical properties :
#
#
# Convention : Reuss Voigt Hill
#
# Bulk Modulus (GPa) = 33.27056 43.31979 38.29518
# Shear Modulus (GPa) = 28.99172 40.32746 34.65959
#
# Velocity S-wave (km/s) = 3.32184 3.91780 3.63206
# Velocity P-wave (km/s) = 5.23221 6.07894 5.67140
#
# Compressibility (1/GPa) = 0.03005660
#
# Stress axis : x y z
#
# Youngs Moduli (GPa) = 92.87921 143.27324 58.23102
#
# Poissons Ratio (x) = 0.23026 0.05838
# Poissons Ratio (y) = 0.14927 -0.01039
# Poissons Ratio (z) = 0.09312 -0.02556
#
# Static dielectric constant tensor:
#      x y z
#    x 2.097930 0.004030 0.000510 
#    y 0.004030 2.112170 0.029750 
#    z 0.000510 0.029750 2.238830 
# 
# From -- ./inp_files/10677.got.cif
#   From: 2010.05.17/outbox.cif.g08.bks.cpg/sg2_6_cif.got.tgz:10677.got - 2010.06.03 11:33:40.
