data_PCOD9057258
_publ_section_title
;
Structure prediction by ZEFSAII (Michael W. Deem and Ramdas Pophale) SiO2 
 PCOD9057258
Probable space group: P -1
;
_chemical_formula_sum "Si O2"
_cell_formula_units_Z 14
_cell_length_a 15.401685
_cell_length_b 8.909526
_cell_length_c 5.760698
_cell_angle_alpha 122.906079
_cell_angle_beta 78.064606
_cell_angle_gamma 85.442635
_cell_volume 631.369371
_symmetry_space_group_name_H-M "P -1"
_symmetry_group_IT_number 2
_symmetry_cell_setting 'triclinic'
loop_
_space_group_symop_operation_xyz
x,y,z
-x,-y,-z
loop_
_atom_site_type_symbol
_atom_site_label
_atom_site_fract_x
_atom_site_fract_y
_atom_site_fract_z
Si Si1 0.108304 0.469167 0.874715
Si Si2 0.900549 0.303384 0.332955
Si Si3 0.238584 0.694357 0.236204
Si Si4 0.419738 0.182823 0.231090
Si Si5 0.772162 0.900466 0.592418
Si Si6 0.045974 0.060485 0.296802
Si Si7 0.423284 0.388598 0.900685
O O1 0.114346 0.506955 0.629050
O O2 0.170220 0.268568 0.739374
O O3 0.163113 0.615661 0.068210
O O4 0.000000 0.500000 0.000000
O O5 0.804167 0.287102 0.469467
O O6 0.980063 0.256283 0.437886
O O7 0.943509 0.125801 0.008670
O O8 0.249946 0.895443 0.331725
O O9 0.330091 0.540414 0.041862
O O10 0.319700 0.143698 0.298092
O O11 0.439136 0.277861 0.549348
O O12 0.416537 0.284210 0.064491
O O13 0.500000 0.000000 0.000000
O O14 0.852109 0.913079 0.736232
O O15 0.000000 0.000000 0.500000
O O16 0.500000 0.500000 0.000000
#
# Coordination Sequence:
#
# PCOD9057258 Si02
#       7
#     2   2   2   2   2   2   2
#     4  12  26  44  69 105 155 196 260 318 385 463
#     4  11  23  41  70  97 147 200 258 313 389 460
#     4  12  26  47  72 109 150 201 259 318 397 471
#     4  12  28  53  84 125 159 204 270 331 408 487
#     4  12  25  46  74 109 154 199 258 330 388 475
#     4  11  22  42  65 104 144 202 258 311 383 467
#     4  12  28  54  84 117 165 207 260 338 409 482
#
# _framework density 22.174023999999999
#
# number of rings (size 3 to 8) (size 9 to 14) (size 15 to 20)
#    0.000    0.286    4.286    4.286    2.000    5.714 
#    0.000    0.000    0.000    0.000    0.000    0.000 
#    0.000    0.000    0.000    0.000    0.000    0.000 
#
# Total GULP energy -77958.731349 kJ/mol
# GULP energy per Si atom -5568.480811 kJ/mol
# Density = 2.212355 g / cm^3
# Si number density = 22.174024 Si / 1000 Ang^3
#
#
#
# Elastic Constant Matrix: (Units=GPa)
#
#
# Indices 1 2 3 4 5 6 
#
# 1 165.1485 69.5619 55.2295 0.9606 -26.2069 11.9171
# 2 69.5619 146.8141 72.3906 5.9294 0.2922 11.1467
# 3 55.2295 72.3906 155.0801 10.8384 -17.4931 -0.2140
# 4 0.9606 5.9294 10.8384 28.3739 -2.2529 -8.6799
# 5 -26.2069 0.2922 -17.4931 -2.2529 43.0347 6.6096
# 6 11.9171 11.1467 -0.2140 -8.6799 6.6096 40.6660
#
#
#
# Elastic Compliance Matrix: (Units=1/GPa)
#
#
# Indices 1 2 3 4 5 6 
#
# 1 0.008931 -0.003634 -0.000903 0.000500 0.005493 -0.002412
# 2 -0.003634 0.010703 -0.004033 -0.001351 -0.003755 -0.001568
# 3 -0.000903 -0.004033 0.009150 -0.002245 0.003010 0.000450
# 4 0.000500 -0.001351 -0.002245 0.038981 0.000135 0.008510
# 5 0.005493 -0.003755 0.003010 0.000135 0.028635 -0.005190
# 6 -0.002412 -0.001568 0.000450 0.008510 -0.005190 0.028389
#
#
# Mechanical properties :
#
#
# Convention : Reuss Voigt Hill
#
# Bulk Modulus (GPa) = 85.89054 95.71185 90.80119
# Shear Modulus (GPa) = 34.29127 40.40563 37.34845
#
# Velocity S-wave (km/s) = 3.93677 4.27336 4.10852
# Velocity P-wave (km/s) = 7.71253 8.22232 7.97150
#
# Compressibility (1/GPa) = 0.01164273
#
# Stress axis : x y z
#
# Youngs Moduli (GPa) = 111.97448 93.43142 109.29554
#
# Poissons Ratio (x) = 0.33956 0.09866
# Poissons Ratio (y) = 0.40695 0.44081
# Poissons Ratio (z) = 0.10108 0.37682
#
# Static dielectric constant tensor:
#      x y z
#    x 2.022720 -0.153070 0.298760 
#    y -0.153070 1.924530 -0.125240 
#    z 0.298760 -0.125240 2.186410 
# 
# From -- ./inp_files/91100.got.cif
#   From: 2010.05.17/outbox.cif.g08.bks.cpg/sg2_46_cif.got.tgz:91100.got - 2010.06.03 11:33:40.
