data_PCOD9057972
_publ_section_title
;
Structure prediction by ZEFSAII (Michael W. Deem and Ramdas Pophale) SiO2 
 PCOD9057972
Probable space group: P -1
;
_chemical_formula_sum "Si O2"
_cell_formula_units_Z 14
_cell_length_a 12.736822
_cell_length_b 8.539184
_cell_length_c 12.807243
_cell_angle_alpha 69.106464
_cell_angle_beta 39.762889
_cell_angle_gamma 96.491272
_cell_volume 633.981858
_symmetry_space_group_name_H-M "P -1"
_symmetry_group_IT_number 2
_symmetry_cell_setting 'triclinic'
loop_
_space_group_symop_operation_xyz
x,y,z
-x,-y,-z
loop_
_atom_site_type_symbol
_atom_site_label
_atom_site_fract_x
_atom_site_fract_y
_atom_site_fract_z
Si Si1 0.846160 0.885491 0.921386
Si Si2 0.407035 0.914042 0.705554
Si Si3 0.034234 0.546726 0.617139
Si Si4 0.092533 0.462359 0.044182
Si Si5 0.402715 0.663351 0.416508
Si Si6 0.960328 0.798408 0.132051
Si Si7 0.250326 0.883522 0.200621
O O1 0.632627 0.744203 0.190511
O O2 0.934560 0.755776 0.890165
O O3 0.775114 0.941108 0.859554
O O4 0.016782 0.126515 0.784289
O O5 0.168566 0.831400 0.929240
O O6 0.500000 0.000000 0.500000
O O7 0.552496 0.122006 0.620672
O O8 0.346528 0.678426 0.811229
O O9 0.257283 0.590790 0.442611
O O10 0.098485 0.745948 0.449308
O O11 0.994378 0.555912 0.767705
O O12 0.844692 0.311312 0.766949
O O13 0.000000 0.500000 0.000000
O O14 0.261255 0.449723 0.650631
O O15 0.000000 0.000000 0.000000
O O16 0.500000 0.000000 0.000000
#
# Coordination Sequence:
#
# PCOD9057972 Si02
#       7
#     2   2   2   2   2   2   2
#     4  11  25  42  69 104 135 180 238 284 350 421
#     4  11  25  38  63  94 135 184 226 278 348 412
#     4  11  23  45  75 100 140 183 234 289 358 408
#     4  12  26  48  68 105 150 184 226 293 360 422
#     4  11  22  44  66  97 134 184 234 283 345 421
#     4  11  24  41  65  95 137 182 232 288 346 424
#     4  11  23  45  77 102 134 186 242 292 339 414
#
# _framework density 22.082650999999998
#
# number of rings (size 3 to 8) (size 9 to 14) (size 15 to 20)
#    0.000    0.857    4.286    2.571    4.000    1.714 
#    0.000    0.714    0.000    0.000    0.000    0.000 
#    0.000    0.000    0.000    0.000    0.000    0.000 
#
# Total GULP energy -77937.369587 kJ/mol
# GULP energy per Si atom -5566.954971 kJ/mol
# Density = 2.203239 g / cm^3
# Si number density = 22.082651 Si / 1000 Ang^3
#
#
#
# Elastic Constant Matrix: (Units=GPa)
#
#
# Indices 1 2 3 4 5 6 
#
# 1 114.9573 39.8613 42.8990 -8.7662 26.9859 7.5127
# 2 39.8613 104.8653 49.3523 -11.9077 -2.8870 12.3780
# 3 42.8990 49.3523 146.0627 -23.0949 22.3232 7.0563
# 4 -8.7662 -11.9077 -23.0949 43.5944 8.4057 -2.3345
# 5 26.9859 -2.8870 22.3232 8.4057 44.6543 -11.5447
# 6 7.5127 12.3780 7.0563 -2.3345 -11.5447 25.8503
#
#
#
# Elastic Compliance Matrix: (Units=1/GPa)
#
#
# Indices 1 2 3 4 5 6 
#
# 1 0.013294 -0.004210 -0.000081 0.003166 -0.010468 -0.006215
# 2 -0.004210 0.013335 -0.004004 -0.000389 0.004997 -0.001872
# 3 -0.000081 -0.004004 0.010437 0.005657 -0.007456 -0.003727
# 4 0.003166 -0.000389 0.005657 0.028398 -0.011348 -0.004782
# 5 -0.010468 0.004997 -0.007456 -0.011348 0.039949 0.019501
# 6 -0.006215 -0.001872 -0.003727 -0.004782 0.019501 0.050681
#
#
# Mechanical properties :
#
#
# Convention : Reuss Voigt Hill
#
# Bulk Modulus (GPa) = 48.83917 70.01229 59.42573
# Shear Modulus (GPa) = 27.85341 38.40464 33.12903
#
# Velocity S-wave (km/s) = 3.55537 4.17481 3.87748
# Velocity P-wave (km/s) = 6.24650 7.41702 6.85678
#
# Compressibility (1/GPa) = 0.02047537
#
# Stress axis : x y z
#
# Youngs Moduli (GPa) = 75.22181 74.98946 95.81068
#
# Poissons Ratio (x) = 0.31572 0.00778
# Poissons Ratio (y) = 0.31670 0.38363
# Poissons Ratio (z) = 0.00611 0.30026
#
# Static dielectric constant tensor:
#      x y z
#    x 1.933130 0.006390 0.030510 
#    y 0.006390 2.082210 -0.026160 
#    z 0.030510 -0.026160 1.883950 
# 
# From -- ./inp_files/423254.got.cif
#   From: 2010.05.17/outbox.cif.g08.bks.cpg/sg2_212_cif.got.tgz:423254.got - 2010.06.03 11:33:40.
