data_PCOD9057521
_publ_section_title
;
Structure prediction by ZEFSAII (Michael W. Deem and Ramdas Pophale) SiO2 
 PCOD9057521
Probable space group: P -1
;
_chemical_formula_sum "Si O2"
_cell_formula_units_Z 14
_cell_length_a 22.768750
_cell_length_b 9.345122
_cell_length_c 9.049415
_cell_angle_alpha 45.717822
_cell_angle_beta 142.965241
_cell_angle_gamma 150.284243
_cell_volume 574.798198
_symmetry_space_group_name_H-M "P -1"
_symmetry_group_IT_number 2
_symmetry_cell_setting 'triclinic'
loop_
_space_group_symop_operation_xyz
x,y,z
-x,-y,-z
loop_
_atom_site_type_symbol
_atom_site_label
_atom_site_fract_x
_atom_site_fract_y
_atom_site_fract_z
Si Si1 0.620569 0.400019 0.525251
Si Si2 0.925697 0.954181 0.733132
Si Si3 0.668406 0.874563 0.956582
Si Si4 0.945613 0.542184 0.997306
Si Si5 0.615173 0.026972 0.013802
Si Si6 0.869595 0.439277 0.453767
Si Si7 0.686922 0.444571 0.286210
O O1 0.759955 0.739916 0.581863
O O2 0.465661 0.269392 0.310771
O O3 0.629936 0.243691 0.781772
O O4 0.640229 0.344509 0.436239
O O5 0.937045 0.765347 0.797666
O O6 0.009737 0.251752 0.606099
O O7 0.000000 0.000000 0.000000
O O8 0.615527 0.832908 0.047523
O O9 0.724436 0.734812 0.143020
O O10 0.795141 0.218620 0.955681
O O11 0.053570 0.643987 0.271621
O O12 0.000000 0.500000 0.000000
O O13 0.456570 0.796746 0.922122
O O14 0.742982 0.211736 0.250475
O O15 0.801938 0.468190 0.431305
#
# Coordination Sequence:
#
# PCOD9057521 Si02
#       7
#     2   2   2   2   2   2   2
#     4  11  22  42  72  94 137 176 232 279 333 410
#     4  12  25  46  70 104 138 181 230 281 347 406
#     4  11  23  43  70 101 129 182 238 273 338 408
#     4  12  27  44  70 103 141 183 226 281 352 406
#     4  11  23  44  69 100 136 182 225 283 346 397
#     4  12  27  47  68 103 148 177 225 292 344 408
#     4  11  24  42  70 102 136 180 230 282 341 407
#
# _framework density 24.356376000000001
#
# number of rings (size 3 to 8) (size 9 to 14) (size 15 to 20)
#    0.000    0.571    2.857    6.429    2.000    6.286 
#    0.000    0.714    0.000    0.000    0.000    0.000 
#    0.000    0.000    0.000    0.000    0.000    0.000 
#
# Total GULP energy -78408.279045 kJ/mol
# GULP energy per Si atom -5600.591360 kJ/mol
# Density = 2.430094 g / cm^3
# Si number density = 24.356376 Si / 1000 Ang^3
#
#
#
# Elastic Constant Matrix: (Units=GPa)
#
#
# Indices 1 2 3 4 5 6 
#
# 1 59.7457 -8.9134 -0.7702 3.0453 15.6738 -7.9491
# 2 -8.9134 68.6698 20.8852 22.0745 6.5872 -8.3809
# 3 -0.7702 20.8852 144.5348 22.7646 15.9158 -7.9477
# 4 3.0453 22.0745 22.7646 52.2108 -2.9173 10.8732
# 5 15.6738 6.5872 15.9158 -2.9173 39.3751 3.6460
# 6 -7.9491 -8.3809 -7.9477 10.8732 3.6460 33.3961
#
#
#
# Elastic Compliance Matrix: (Units=1/GPa)
#
#
# Indices 1 2 3 4 5 6 
#
# 1 0.023865 0.008270 0.002679 -0.009543 -0.013878 0.013016
# 2 0.008270 0.022272 0.000723 -0.013487 -0.009528 0.013161
# 3 0.002679 0.000723 0.008624 -0.005642 -0.005584 0.005318
# 4 -0.009543 -0.013487 -0.005642 0.032517 0.012499 -0.018950
# 5 -0.013878 -0.009528 -0.005584 0.012499 0.037101 -0.015143
# 6 0.013016 0.013161 0.005318 -0.018950 -0.015143 0.045433
#
#
# Mechanical properties :
#
#
# Convention : Reuss Voigt Hill
#
# Bulk Modulus (GPa) = 12.80311 32.81707 22.81009
# Shear Modulus (GPa) = 28.98503 42.44632 35.71567
#
# Velocity S-wave (km/s) = 3.45344 4.17912 3.83349
# Velocity P-wave (km/s) = 4.60104 6.06545 5.38327
#
# Compressibility (1/GPa) = 0.07810604
#
# Stress axis : x y z
#
# Youngs Moduli (GPa) = 41.90250 44.89950 115.94906
#
# Poissons Ratio (x) = -0.37133 -0.31064
# Poissons Ratio (y) = -0.34654 -0.08383
# Poissons Ratio (z) = -0.11226 -0.03246
#
# Static dielectric constant tensor:
#      x y z
#    x 2.150800 0.102910 0.038210 
#    y 0.102910 2.032890 0.054000 
#    z 0.038210 0.054000 2.003010 
# 
# From -- ./inp_files/352061.got.cif
#   From: 2010.05.17/outbox.cif.g08.bks.cpg/sg2_177_cif.got.tgz:352061.got - 2010.06.03 11:33:40.
