data_PCOD9057639
_publ_section_title
;
Structure prediction by ZEFSAII (Michael W. Deem and Ramdas Pophale) SiO2 
 PCOD9057639
Probable space group: P -1
;
_chemical_formula_sum "Si O2"
_cell_formula_units_Z 16
_cell_length_a 9.510506
_cell_length_b 8.295115
_cell_length_c 11.672639
_cell_angle_alpha 114.871602
_cell_angle_beta 124.140086
_cell_angle_gamma 79.630777
_cell_volume 689.550646
_symmetry_space_group_name_H-M "P -1"
_symmetry_group_IT_number 2
_symmetry_cell_setting 'triclinic'
loop_
_space_group_symop_operation_xyz
x,y,z
-x,-y,-z
loop_
_atom_site_type_symbol
_atom_site_label
_atom_site_fract_x
_atom_site_fract_y
_atom_site_fract_z
Si Si1 0.264277 0.024442 0.648353
Si Si2 0.215307 0.432549 0.387936
Si Si3 0.912032 0.203887 0.142735
Si Si4 0.419100 0.877389 0.324385
Si Si5 0.448626 0.477171 0.290140
Si Si6 0.400625 0.818954 0.858350
Si Si7 0.043015 0.836986 0.096438
Si Si8 0.979032 0.237213 0.680221
O O1 0.294169 0.879853 0.717206
O O2 0.156775 0.927131 0.466771
O O3 0.447348 0.097553 0.709403
O O4 0.155722 0.179167 0.693779
O O5 0.324868 0.404313 0.314114
O O6 0.360661 0.479382 0.560684
O O7 0.098284 0.594557 0.360996
O O8 0.077847 0.274068 0.310974
O O9 0.737649 0.253217 0.133001
O O10 0.950095 0.270494 0.050582
O O11 0.912451 0.990165 0.073130
O O12 0.393630 0.669230 0.284136
O O13 0.234099 0.930840 0.221295
O O14 0.500000 0.000000 0.500000
O O15 0.470304 0.326922 0.160980
O O16 0.500000 0.000000 0.000000
O O17 0.007975 0.739410 0.170701
#
# Coordination Sequence:
#
# PCOD9057639 Si02
#       8
#     2   2   2   2   2   2   2   2
#     4  11  24  41  70 100 134 181 228 286 350 408
#     4  11  24  44  70 104 140 174 234 294 348 413
#     4  11  27  43  71 100 137 189 230 285 349 418
#     4  12  23  43  72 102 138 182 229 287 347 412
#     4  11  26  43  71 108 139 182 233 288 350 417
#     4  12  27  49  68 100 147 188 228 288 351 415
#     4  11  23  45  65  99 134 182 239 270 347 418
#     4  11  22  43  67 100 136 177 227 291 344 401
#
# _framework density 23.203516
#
# number of rings (size 3 to 8) (size 9 to 14) (size 15 to 20)
#    0.000    0.750    5.000    1.500    8.750    1.000 
#    2.250    1.250    0.000    0.000    0.000    0.000 
#    0.000    0.000    0.000    0.000    0.000    0.000 
#
# Total GULP energy -89535.333829 kJ/mol
# GULP energy per Si atom -5595.958364 kJ/mol
# Density = 2.315070 g / cm^3
# Si number density = 23.203516 Si / 1000 Ang^3
#
#
#
# Elastic Constant Matrix: (Units=GPa)
#
#
# Indices 1 2 3 4 5 6 
#
# 1 72.6102 7.8212 11.5502 21.2736 0.7406 -11.9493
# 2 7.8212 80.4869 9.3887 5.6410 -12.8150 -22.3371
# 3 11.5502 9.3887 69.3961 8.8252 -0.3615 1.4561
# 4 21.2736 5.6410 8.8252 37.0424 2.1285 -1.6809
# 5 0.7406 -12.8150 -0.3615 2.1285 27.5571 -0.8451
# 6 -11.9493 -22.3371 1.4561 -1.6809 -0.8451 32.8881
#
#
#
# Elastic Compliance Matrix: (Units=1/GPa)
#
#
# Indices 1 2 3 4 5 6 
#
# 1 0.017969 0.001300 -0.002067 -0.009767 0.001065 0.007032
# 2 0.001300 0.017698 -0.002478 -0.002780 0.008767 0.012686
# 3 -0.002067 -0.002478 0.015435 -0.002213 -0.000823 -0.003251
# 4 -0.009767 -0.002780 -0.002213 0.033604 -0.003769 -0.003718
# 5 0.001065 0.008767 -0.000823 -0.003769 0.040839 0.007234
# 6 0.007032 0.012686 -0.003251 -0.003718 0.007234 0.041717
#
#
# Mechanical properties :
#
#
# Convention : Reuss Voigt Hill
#
# Bulk Modulus (GPa) = 22.41452 31.11260 26.76356
# Shear Modulus (GPa) = 26.50831 32.41306 29.46069
#
# Velocity S-wave (km/s) = 3.38365 3.74157 3.56710
# Velocity P-wave (km/s) = 4.99463 5.66599 5.34087
#
# Compressibility (1/GPa) = 0.04461393
#
# Stress axis : x y z
#
# Youngs Moduli (GPa) = 55.65195 56.50266 64.78946
#
# Poissons Ratio (x) = -0.07348 0.13389
# Poissons Ratio (y) = -0.07237 0.16054
# Poissons Ratio (z) = 0.11501 0.14001
#
# Static dielectric constant tensor:
#      x y z
#    x 1.845830 0.008800 -0.028170 
#    y 0.008800 1.858160 0.017190 
#    z -0.028170 0.017190 1.926830 
# 
# From -- ./inp_files/190019.got.cif
#   From: 2010.05.17/outbox.cif.g08.bks.cpg/sg2_96_cif.got.tgz:190019.got - 2010.06.03 11:33:40.
