data_PCOD9057046
_publ_section_title
;
Structure prediction by ZEFSAII (Michael W. Deem and Ramdas Pophale) SiO2 
 PCOD9057046
Probable space group: P -1
;
_chemical_formula_sum "Si O2"
_cell_formula_units_Z 16
_cell_length_a 17.965311
_cell_length_b 12.715390
_cell_length_c 8.235535
_cell_angle_alpha 68.154254
_cell_angle_beta 89.504879
_cell_angle_gamma 31.598721
_cell_volume 707.623702
_symmetry_space_group_name_H-M "P -1"
_symmetry_group_IT_number 2
_symmetry_cell_setting 'triclinic'
loop_
_space_group_symop_operation_xyz
x,y,z
-x,-y,-z
loop_
_atom_site_type_symbol
_atom_site_label
_atom_site_fract_x
_atom_site_fract_y
_atom_site_fract_z
Si Si1 0.966516 0.390788 0.718770
Si Si2 0.148961 0.447607 0.738931
Si Si3 0.204910 0.170208 0.354819
Si Si4 0.010889 0.857350 0.648058
Si Si5 0.401461 0.560888 0.736938
Si Si6 0.662333 0.023213 0.902225
Si Si7 0.456058 0.411612 0.190009
Si Si8 0.874353 0.275554 0.908676
O O1 0.924696 0.474894 0.484107
O O2 0.831879 0.652224 0.684240
O O3 0.921100 0.322912 0.782946
O O4 0.171291 0.142485 0.911865
O O5 0.994471 0.610603 0.768695
O O6 0.138121 0.595758 0.691383
O O7 0.326561 0.122702 0.953582
O O8 0.295416 0.035304 0.255390
O O9 0.337420 0.922937 0.621826
O O10 0.797243 0.118953 0.496923
O O11 0.000000 0.000000 0.500000
O O12 0.080944 0.760277 0.884950
O O13 0.537866 0.478620 0.775901
O O14 0.479520 0.347287 0.757801
O O15 0.391368 0.533888 0.940071
O O16 0.329999 0.490781 0.224429
O O17 0.000000 0.000000 0.000000
#
# Coordination Sequence:
#
# PCOD9057046 Si02
#       8
#     2   2   2   2   2   2   2   2
#     4  11  23  41  68  95 135 177 222 269 333 391
#     4  11  22  44  69  96 130 179 221 269 330 396
#     4  11  22  41  68  99 131 170 223 277 327 391
#     4  12  24  44  69  99 134 176 217 275 331 392
#     4  11  24  43  70 100 132 172 225 269 327 395
#     4  11  23  40  70 101 130 172 226 274 325 392
#     4  11  24  42  67  96 136 173 219 272 329 391
#     4  12  26  42  64  97 139 175 218 269 338 389
#
# _framework density 22.610887999999999
#
# number of rings (size 3 to 8) (size 9 to 14) (size 15 to 20)
#    0.000    0.750    2.500    7.500    3.500    1.000 
#    0.000    0.625    0.000    0.000    0.000    0.000 
#    0.000    0.000    0.000    0.000    0.000    0.000 
#
# Total GULP energy -89539.905560 kJ/mol
# GULP energy per Si atom -5596.244097 kJ/mol
# Density = 2.255942 g / cm^3
# Si number density = 22.610888 Si / 1000 Ang^3
#
#
#
# Elastic Constant Matrix: (Units=GPa)
#
#
# Indices 1 2 3 4 5 6 
#
# 1 95.7118 18.4537 6.0045 -6.4871 -17.1468 22.8286
# 2 18.4537 94.5167 11.4774 -2.4922 -2.5247 34.2863
# 3 6.0045 11.4774 65.0110 1.5777 -1.2057 7.1767
# 4 -6.4871 -2.4922 1.5777 41.8555 7.8592 -7.2589
# 5 -17.1468 -2.5247 -1.2057 7.8592 30.3867 -8.1604
# 6 22.8286 34.2863 7.1767 -7.2589 -8.1604 35.2693
#
#
#
# Elastic Compliance Matrix: (Units=1/GPa)
#
#
# Indices 1 2 3 4 5 6 
#
# 1 0.013175 0.000365 -0.000334 -0.000271 0.005480 -0.007603
# 2 0.000365 0.016791 -0.001111 -0.001383 -0.002717 -0.017247
# 3 -0.000334 -0.001111 0.015874 -0.001099 0.000057 -0.002147
# 4 -0.000271 -0.001383 -0.001099 0.025836 -0.005435 0.005803
# 5 0.005480 -0.002717 0.000057 -0.005435 0.039064 0.007002
# 6 -0.007603 -0.017247 -0.002147 0.005803 0.007002 0.053292
#
#
# Mechanical properties :
#
#
# Convention : Reuss Voigt Hill
#
# Bulk Modulus (GPa) = 22.89319 36.34560 29.61940
# Shear Modulus (GPa) = 27.66234 36.12257 31.89246
#
# Velocity S-wave (km/s) = 3.50152 4.00130 3.75973
# Velocity P-wave (km/s) = 5.14727 6.12017 5.65468
#
# Compressibility (1/GPa) = 0.04368111
#
# Stress axis : x y z
#
# Youngs Moduli (GPa) = 75.89933 59.55585 62.99711
#
# Poissons Ratio (x) = -0.02177 0.02103
# Poissons Ratio (y) = -0.02774 0.06999
# Poissons Ratio (z) = 0.02534 0.06617
#
# Static dielectric constant tensor:
#      x y z
#    x 1.910270 -0.007590 -0.003340 
#    y -0.007590 1.825200 -0.025030 
#    z -0.003340 -0.025030 1.823350 
# 
# From -- ./inp_files/331846.got.cif
#   From: 2010.05.17/outbox.cif.g08.bks.cpg/sg2_166_cif.got.tgz:331846.got - 2010.06.03 11:33:40.
