data_PCOD9057562
_publ_section_title
;
Structure prediction by ZEFSAII (Michael W. Deem and Ramdas Pophale) SiO2 
 PCOD9057562
Probable space group: P -1
;
_chemical_formula_sum "Si O2"
_cell_formula_units_Z 14
_cell_length_a 21.235982
_cell_length_b 12.143624
_cell_length_c 15.341727
_cell_angle_alpha 34.969781
_cell_angle_beta 155.153430
_cell_angle_gamma 158.727089
_cell_volume 594.202595
_symmetry_space_group_name_H-M "P -1"
_symmetry_group_IT_number 2
_symmetry_cell_setting 'triclinic'
loop_
_space_group_symop_operation_xyz
x,y,z
-x,-y,-z
loop_
_atom_site_type_symbol
_atom_site_label
_atom_site_fract_x
_atom_site_fract_y
_atom_site_fract_z
Si Si1 0.441828 0.258438 0.728157
Si Si2 0.451738 0.381149 0.920400
Si Si3 0.661087 0.346316 0.476559
Si Si4 0.081299 0.254786 0.295358
Si Si5 0.841608 0.649367 0.128990
Si Si6 0.036746 0.547756 0.705562
Si Si7 0.876759 0.684264 0.891333
O O1 0.248793 0.233741 0.511432
O O2 0.589646 0.407348 0.727142
O O3 0.286105 0.910591 0.771583
O O4 0.656236 0.493775 0.915826
O O5 0.476003 0.591643 0.752278
O O6 0.500000 0.500000 0.000000
O O7 0.653044 0.431392 0.111846
O O8 0.178379 0.039246 0.796780
O O9 0.786495 0.480922 0.640355
O O10 0.840009 0.504085 0.516603
O O11 0.500000 0.000000 0.500000
O O12 0.056829 0.292777 0.139834
O O13 0.996536 0.622099 0.310082
O O14 0.002853 0.994269 0.133983
O O15 0.039568 0.404972 0.883643
#
# Coordination Sequence:
#
# PCOD9057562 Si02
#       7
#     2   2   2   2   2   2   2
#     4  11  22  44  70  98 141 184 227 278 340 408
#     4  12  24  48  72 100 136 182 230 277 343 416
#     4  12  27  47  71 101 139 179 229 286 345 403
#     4  12  25  45  70 100 142 184 225 283 343 411
#     4  11  22  42  74  98 138 180 228 275 340 404
#     4  11  24  44  70 103 137 180 229 278 341 399
#     4  11  24  42  69 106 138 181 229 276 343 404
#
# _framework density 23.560987999999998
#
# number of rings (size 3 to 8) (size 9 to 14) (size 15 to 20)
#    0.000    0.571    4.286    6.000    2.000    0.571 
#    5.143    1.429    0.000    0.000    0.000    0.000 
#    0.000    0.000    0.000    0.000    0.000    0.000 
#
# Total GULP energy -78300.739787 kJ/mol
# GULP energy per Si atom -5592.909985 kJ/mol
# Density = 2.350736 g / cm^3
# Si number density = 23.560988 Si / 1000 Ang^3
#
#
#
# Elastic Constant Matrix: (Units=GPa)
#
#
# Indices 1 2 3 4 5 6 
#
# 1 136.5542 49.4131 17.3228 -5.8779 6.5010 -5.1948
# 2 49.4131 150.0722 18.3529 25.6201 -10.6615 -4.1398
# 3 17.3228 18.3529 26.4640 -0.8058 2.4976 -12.2523
# 4 -5.8779 25.6201 -0.8058 22.3153 0.2056 3.8044
# 5 6.5010 -10.6615 2.4976 0.2056 50.5848 10.6378
# 6 -5.1948 -4.1398 -12.2523 3.8044 10.6378 34.6736
#
#
#
# Elastic Compliance Matrix: (Units=1/GPa)
#
#
# Indices 1 2 3 4 5 6 
#
# 1 0.009627 -0.004171 -0.003192 0.007295 -0.001904 -0.000400
# 2 -0.004171 0.011520 -0.006530 -0.014410 0.003570 -0.001071
# 3 -0.003192 -0.006530 0.054483 0.005318 -0.007845 0.019818
# 4 0.007295 -0.014410 0.005318 0.064309 -0.003504 -0.004729
# 5 -0.001904 0.003570 -0.007845 -0.003504 0.023133 -0.009344
# 6 -0.000400 -0.001071 0.019818 -0.004729 -0.009344 0.039041
#
#
# Mechanical properties :
#
#
# Convention : Reuss Voigt Hill
#
# Bulk Modulus (GPa) = 20.90193 53.69643 37.29918
# Shear Modulus (GPa) = 20.33783 36.71484 28.52634
#
# Velocity S-wave (km/s) = 2.94121 3.95180 3.48335
# Velocity P-wave (km/s) = 4.51940 6.60774 5.66071
#
# Compressibility (1/GPa) = 0.04784247
#
# Stress axis : x y z
#
# Youngs Moduli (GPa) = 103.87630 86.80792 18.35426
#
# Poissons Ratio (x) = 0.36208 0.05859
# Poissons Ratio (y) = 0.43328 0.11986
# Poissons Ratio (z) = 0.33159 0.56689
#
# Static dielectric constant tensor:
#      x y z
#    x 2.004240 -0.002420 -0.015250 
#    y -0.002420 1.906640 0.045840 
#    z -0.015250 0.045840 1.968580 
# 
# From -- ./inp_files/382085.got.cif
#   From: 2010.05.17/outbox.cif.g08.bks.cpg/sg2_192_cif.got.tgz:382085.got - 2010.06.03 11:33:40.
