data_PCOD9057756
_publ_section_title
;
Structure prediction by ZEFSAII (Michael W. Deem and Ramdas Pophale) SiO2 
 PCOD9057756
Probable space group: P -1
;
_chemical_formula_sum "Si O2"
_cell_formula_units_Z 16
_cell_length_a 11.751522
_cell_length_b 9.048712
_cell_length_c 9.497098
_cell_angle_alpha 49.120045
_cell_angle_beta 97.722705
_cell_angle_gamma 90.413476
_cell_volume 752.225371
_symmetry_space_group_name_H-M "P -1"
_symmetry_group_IT_number 2
_symmetry_cell_setting 'triclinic'
loop_
_space_group_symop_operation_xyz
x,y,z
-x,-y,-z
loop_
_atom_site_type_symbol
_atom_site_label
_atom_site_fract_x
_atom_site_fract_y
_atom_site_fract_z
Si Si1 0.890901 0.927857 0.103652
Si Si2 0.239868 0.417212 0.393520
Si Si3 0.945623 0.857866 0.469278
Si Si4 0.142206 0.521676 0.614033
Si Si5 0.502686 0.754080 0.435725
Si Si6 0.530476 0.178865 0.144460
Si Si7 0.668301 0.206303 0.877875
Si Si8 0.621299 0.440921 0.214902
O O1 0.897914 0.963670 0.251215
O O2 0.892294 0.695189 0.226873
O O3 0.771448 0.041729 0.958224
O O4 0.000000 0.000000 0.000000
O O5 0.157846 0.262550 0.415584
O O6 0.175189 0.517307 0.457112
O O7 0.361824 0.303878 0.534189
O O8 0.273291 0.597389 0.192300
O O9 0.044906 0.692348 0.534379
O O10 0.000000 0.000000 0.500000
O O11 0.255941 0.550511 0.701742
O O12 0.418574 0.734534 0.301981
O O13 0.464198 0.622159 0.638401
O O14 0.488247 0.985296 0.323910
O O15 0.618484 0.275095 0.200051
O O16 0.593927 0.128550 0.039135
O O17 0.428572 0.350566 0.988364
#
# Coordination Sequence:
#
# PCOD9057756 Si02
#       8
#     2   2   2   2   2   2   2   2
#     4  11  24  44  68 100 129 174 233 284 331 399
#     4  11  22  43  71  98 131 180 225 274 336 404
#     4  11  26  46  68  95 133 178 228 278 343 400
#     4  11  22  43  70  91 133 178 223 273 339 404
#     4  12  23  42  71  98 137 182 225 271 345 404
#     4  11  24  40  60 104 139 174 222 277 334 404
#     4  12  22  41  69  98 136 171 230 282 331 404
#     4  11  24  42  64  98 143 177 220 275 345 402
#
# _framework density 21.270220999999999
#
# number of rings (size 3 to 8) (size 9 to 14) (size 15 to 20)
#    0.000    0.750    2.500    7.125    3.500    0.000 
#    2.250    1.250    0.000    0.000    0.000    0.000 
#    0.000    0.000    0.000    0.000    0.000    0.000 
#
# Total GULP energy -89523.665256 kJ/mol
# GULP energy per Si atom -5595.229078 kJ/mol
# Density = 2.122181 g / cm^3
# Si number density = 21.270221 Si / 1000 Ang^3
#
#
#
# Elastic Constant Matrix: (Units=GPa)
#
#
# Indices 1 2 3 4 5 6 
#
# 1 93.0742 34.6068 8.0923 -4.9120 11.8763 19.3515
# 2 34.6068 91.4032 29.8091 -6.8862 14.8039 20.1586
# 3 8.0923 29.8091 54.3344 -15.4162 -0.6825 9.8519
# 4 -4.9120 -6.8862 -15.4162 31.1627 1.8452 0.2332
# 5 11.8763 14.8039 -0.6825 1.8452 25.8521 0.0532
# 6 19.3515 20.1586 9.8519 0.2332 0.0532 34.0790
#
#
#
# Elastic Compliance Matrix: (Units=1/GPa)
#
#
# Indices 1 2 3 4 5 6 
#
# 1 0.013927 -0.003492 0.001659 0.002560 -0.004524 -0.006333
# 2 -0.003492 0.017692 -0.008235 -0.000153 -0.008721 -0.006087
# 3 0.001659 -0.008235 0.026669 0.011436 0.003849 -0.003865
# 4 0.002560 -0.000153 0.011436 0.038362 -0.003514 -0.004926
# 5 -0.004524 -0.008721 0.003849 -0.003514 0.046093 0.006567
# 6 -0.006333 -0.006087 -0.003865 -0.004926 0.006567 0.037681
#
#
# Mechanical properties :
#
#
# Convention : Reuss Voigt Hill
#
# Bulk Modulus (GPa) = 26.21058 42.64758 34.42908
# Shear Modulus (GPa) = 23.44364 29.30568 26.37466
#
# Velocity S-wave (km/s) = 3.32351 3.71587 3.52516
# Velocity P-wave (km/s) = 5.20356 6.20517 5.72631
#
# Compressibility (1/GPa) = 0.03815254
#
# Stress axis : x y z
#
# Youngs Moduli (GPa) = 71.80111 56.52371 37.49613
#
# Poissons Ratio (x) = 0.19737 -0.06221
# Poissons Ratio (y) = 0.25072 0.30879
# Poissons Ratio (z) = -0.11913 0.46549
#
# Static dielectric constant tensor:
#      x y z
#    x 1.761260 0.002010 -0.007000 
#    y 0.002010 1.778870 -0.012290 
#    z -0.007000 -0.012290 1.776510 
# 
# From -- ./inp_files/242145.got.cif
#   From: 2010.05.17/outbox.cif.g08.bks.cpg/sg2_122_cif.got.tgz:242145.got - 2010.06.03 11:33:40.
