data_PCOD9057362
_publ_section_title
;
Structure prediction by ZEFSAII (Michael W. Deem and Ramdas Pophale) SiO2 
 PCOD9057362
Probable space group: P -1
;
_chemical_formula_sum "Si O2"
_cell_formula_units_Z 14
_cell_length_a 10.323783
_cell_length_b 13.465924
_cell_length_c 20.890096
_cell_angle_alpha 19.925724
_cell_angle_beta 35.233205
_cell_angle_gamma 43.275035
_cell_volume 559.135667
_symmetry_space_group_name_H-M "P -1"
_symmetry_group_IT_number 2
_symmetry_cell_setting 'triclinic'
loop_
_space_group_symop_operation_xyz
x,y,z
-x,-y,-z
loop_
_atom_site_type_symbol
_atom_site_label
_atom_site_fract_x
_atom_site_fract_y
_atom_site_fract_z
Si Si1 0.052578 0.103023 0.843251
Si Si2 0.710742 0.340919 0.528619
Si Si3 0.552441 0.943876 0.377165
Si Si4 0.400663 0.766631 0.051196
Si Si5 0.618780 0.717453 0.113896
Si Si6 0.906672 0.168393 0.210158
Si Si7 0.838840 0.760982 0.612803
O O1 0.155237 0.454925 0.593310
O O2 0.245547 0.977301 0.804741
O O3 0.798348 0.074783 0.936368
O O4 0.000000 0.000000 0.000000
O O5 0.500000 0.500000 0.500000
O O6 0.917202 0.296831 0.424981
O O7 0.598295 0.021068 0.792070
O O8 0.451370 0.584255 0.633657
O O9 0.680393 0.074497 0.313120
O O10 0.333496 0.092354 0.364941
O O11 0.501866 0.587902 0.172238
O O12 0.299846 0.556132 0.162127
O O13 0.883671 0.846929 0.913348
O O14 0.500000 0.000000 0.000000
O O15 0.884257 0.959487 0.408748
O O16 0.000000 0.500000 0.000000
#
# Coordination Sequence:
#
# PCOD9057362 Si02
#       7
#     2   2   2   2   2   2   2
#     4  11  25  46  71  94 137 193 243 295 348 403
#     4  11  23  45  74  95 131 189 243 295 350 417
#     4  12  26  43  66 110 151 182 235 292 352 433
#     4  11  22  42  68  97 137 185 233 290 354 420
#     4  12  24  38  67 108 145 185 232 282 354 435
#     4  12  23  42  68 105 154 188 221 283 371 434
#     4  11  24  41  69 103 140 186 227 292 366 420
#
# _framework density 25.038646
#
# number of rings (size 3 to 8) (size 9 to 14) (size 15 to 20)
#    0.000    0.571    5.714    3.000    2.000    1.143 
#    0.000    3.571    0.000    0.000    0.000    0.000 
#    0.000    0.000    0.000    0.000    0.000    0.000 
#
# Total GULP energy -78171.951372 kJ/mol
# GULP energy per Si atom -5583.710812 kJ/mol
# Density = 2.498166 g / cm^3
# Si number density = 25.038646 Si / 1000 Ang^3
#
#
#
# Elastic Constant Matrix: (Units=GPa)
#
#
# Indices 1 2 3 4 5 6 
#
# 1 64.1729 20.2875 2.7125 13.1008 -6.7822 -15.0376
# 2 20.2875 183.9352 40.3916 24.4668 -8.2714 -24.7984
# 3 2.7125 40.3916 108.5110 3.5108 -6.5789 4.3925
# 4 13.1008 24.4668 3.5108 51.4378 -6.4431 -14.1754
# 5 -6.7822 -8.2714 -6.5789 -6.4431 33.1471 7.9536
# 6 -15.0376 -24.7984 4.3925 -14.1754 7.9536 40.6768
#
#
#
# Elastic Compliance Matrix: (Units=1/GPa)
#
#
# Indices 1 2 3 4 5 6 
#
# 1 0.017688 -0.000858 -0.000130 -0.002547 0.001732 0.004804
# 2 -0.000858 0.006821 -0.002609 -0.001909 -0.000202 0.003497
# 3 -0.000130 -0.002609 0.010453 -0.000053 0.002156 -0.003208
# 4 -0.002547 -0.001909 -0.000053 0.022760 0.002116 0.005418
# 5 0.001732 -0.000202 0.002156 0.002116 0.032596 -0.005352
# 6 0.004804 0.003497 -0.003208 0.005418 -0.005352 0.031773
#
#
# Mechanical properties :
#
#
# Convention : Reuss Voigt Hill
#
# Bulk Modulus (GPa) = 36.01418 53.71137 44.86278
# Shear Modulus (GPa) = 36.09062 44.60083 40.34573
#
# Velocity S-wave (km/s) = 3.80069 4.22510 4.01850
# Velocity P-wave (km/s) = 5.80302 6.73052 6.28390
#
# Compressibility (1/GPa) = 0.02776684
#
# Stress axis : x y z
#
# Youngs Moduli (GPa) = 56.53437 146.61192 95.67059
#
# Poissons Ratio (x) = 0.12581 0.01242
# Poissons Ratio (y) = 0.04851 0.24965
# Poissons Ratio (z) = 0.00734 0.38258
#
# Static dielectric constant tensor:
#      x y z
#    x 2.098990 0.056440 -0.040430 
#    y 0.056440 2.102990 -0.012980 
#    z -0.040430 -0.012980 1.949440 
# 
# From -- ./inp_files/333354.got.cif
#   From: 2010.05.17/outbox.cif.g08.bks.cpg/sg2_167_cif.got.tgz:333354.got - 2010.06.03 11:33:40.
