data_PCOD9057009
_publ_section_title
;
Structure prediction by ZEFSAII (Michael W. Deem and Ramdas Pophale) SiO2 
 PCOD9057009
Probable space group: P -1
;
_chemical_formula_sum "Si O2"
_cell_formula_units_Z 16
_cell_length_a 15.901773
_cell_length_b 9.259373
_cell_length_c 11.314337
_cell_angle_alpha 92.370214
_cell_angle_beta 46.498719
_cell_angle_gamma 57.448490
_cell_volume 752.981057
_symmetry_space_group_name_H-M "P -1"
_symmetry_group_IT_number 2
_symmetry_cell_setting 'triclinic'
loop_
_space_group_symop_operation_xyz
x,y,z
-x,-y,-z
loop_
_atom_site_type_symbol
_atom_site_label
_atom_site_fract_x
_atom_site_fract_y
_atom_site_fract_z
Si Si1 0.190295 0.820869 0.383685
Si Si2 0.826537 0.587259 0.013570
Si Si3 0.684976 0.444108 0.087711
Si Si4 0.042219 0.945521 0.795523
Si Si5 0.445103 0.690912 0.953585
Si Si6 0.617197 0.247578 0.420815
Si Si7 0.550048 0.106489 0.262801
Si Si8 0.868859 0.471748 0.245874
O O1 0.123140 0.898482 0.585250
O O2 0.337066 0.542908 0.234935
O O3 0.315337 0.822554 0.199100
O O4 0.000000 0.000000 0.500000
O O5 0.994928 0.536258 0.839654
O O6 0.807558 0.466719 0.943442
O O7 0.841447 0.515376 0.132167
O O8 0.646708 0.859292 0.172568
O O9 0.613269 0.404032 0.056847
O O10 0.507800 0.672333 0.341563
O O11 0.831238 0.204038 0.011256
O O12 0.177865 0.906123 0.745197
O O13 0.063439 0.755300 0.795782
O O14 0.407978 0.849295 0.897580
O O15 0.500000 0.500000 0.500000
O O16 0.616402 0.132089 0.314322
O O17 0.330073 0.313590 0.495378
#
# Coordination Sequence:
#
# PCOD9057009 Si02
#       8
#     2   2   2   2   2   2   2   2
#     4  11  22  41  68 103 120 156 211 285 324 358
#     4  11  27  37  59  91 139 177 208 244 312 398
#     4  12  23  40  59  98 126 167 212 260 311 378
#     4  12  24  40  69  95 128 166 214 272 321 365
#     4  11  23  41  71  97 122 159 222 268 317 374
#     4  12  22  36  62  95 127 163 211 260 317 374
#     4  12  23  43  63  93 135 174 205 257 321 385
#     4  11  23  41  56  92 129 177 210 248 313 379
#
# _framework density 21.248873
#
# number of rings (size 3 to 8) (size 9 to 14) (size 15 to 20)
#    0.000    0.500    7.500    1.125    3.500    1.000 
#    0.000    0.000    0.000    6.000    0.000    0.000 
#    0.000    0.000    0.000    0.000    0.000    0.000 
#
# Total GULP energy -89423.250111 kJ/mol
# GULP energy per Si atom -5588.953132 kJ/mol
# Density = 2.120051 g / cm^3
# Si number density = 21.248873 Si / 1000 Ang^3
#
#
#
# Elastic Constant Matrix: (Units=GPa)
#
#
# Indices 1 2 3 4 5 6 
#
# 1 55.9905 57.6270 26.7427 0.8365 -19.1347 0.5262
# 2 57.6270 132.3341 40.7106 7.0945 0.4912 4.2328
# 3 26.7427 40.7106 92.8420 -8.3375 -8.7101 -4.5929
# 4 0.8365 7.0945 -8.3375 40.5459 -14.0939 -3.7835
# 5 -19.1347 0.4912 -8.7101 -14.0939 34.6516 -4.4768
# 6 0.5262 4.2328 -4.5929 -3.7835 -4.4768 36.3266
#
#
#
# Elastic Compliance Matrix: (Units=1/GPa)
#
#
# Indices 1 2 3 4 5 6 
#
# 1 0.061808 -0.028951 0.001428 0.020542 0.044585 0.010293
# 2 -0.028951 0.022941 -0.005586 -0.013676 -0.024231 -0.007371
# 3 0.001428 -0.005586 0.014386 0.007033 0.007881 0.004153
# 4 0.020542 -0.013676 0.007033 0.039717 0.030766 0.010113
# 5 0.044585 -0.024231 0.007881 0.030766 0.070259 0.015037
# 6 0.010293 -0.007371 0.004153 0.010113 0.015037 0.031669
#
#
# Mechanical properties :
#
#
# Convention : Reuss Voigt Hill
#
# Bulk Modulus (GPa) = 30.37979 59.03635 44.70807
# Shear Modulus (GPa) = 15.72466 32.71057 24.21762
#
# Velocity S-wave (km/s) = 2.72329 3.92778 3.37963
# Velocity P-wave (km/s) = 4.92103 6.95798 6.02620
#
# Compressibility (1/GPa) = 0.03291662
#
# Stress axis : x y z
#
# Youngs Moduli (GPa) = 16.17902 43.58978 69.51341
#
# Poissons Ratio (x) = 1.26196 -0.09925
# Poissons Ratio (y) = 0.46839 0.38833
# Poissons Ratio (z) = -0.02310 0.24351
#
# Static dielectric constant tensor:
#      x y z
#    x 1.801060 -0.001670 0.011440 
#    y -0.001670 1.799440 -0.018220 
#    z 0.011440 -0.018220 1.827120 
# 
# From -- ./inp_files/455356.got.cif
#   From: 2010.05.17/outbox.cif.g08.bks.cpg/sg2_228_cif.got.tgz:455356.got - 2010.06.03 11:33:40.
