data_PCOD9057329
_publ_section_title
;
Structure prediction by ZEFSAII (Michael W. Deem and Ramdas Pophale) SiO2 
 PCOD9057329
Probable space group: P -1
;
_chemical_formula_sum "Si O2"
_cell_formula_units_Z 16
_cell_length_a 9.303493
_cell_length_b 21.046119
_cell_length_c 12.072478
_cell_angle_alpha 151.462527
_cell_angle_beta 41.168929
_cell_angle_gamma 132.485965
_cell_volume 742.634231
_symmetry_space_group_name_H-M "P -1"
_symmetry_group_IT_number 2
_symmetry_cell_setting 'triclinic'
loop_
_space_group_symop_operation_xyz
x,y,z
-x,-y,-z
loop_
_atom_site_type_symbol
_atom_site_label
_atom_site_fract_x
_atom_site_fract_y
_atom_site_fract_z
Si Si1 0.942306 0.552772 0.933492
Si Si2 0.837546 0.535963 0.553999
Si Si3 0.699882 0.107806 0.039037
Si Si4 0.933789 0.727906 0.483625
Si Si5 0.544198 0.650351 0.429119
Si Si6 0.753436 0.183228 0.863484
Si Si7 0.710499 0.802446 0.948222
Si Si8 0.856548 0.023902 0.360481
O O1 0.028260 0.501177 0.688551
O O2 0.999841 0.425068 0.779450
O O3 0.690144 0.581648 0.146930
O O4 0.071459 0.697264 0.086035
O O5 0.609357 0.452639 0.571007
O O6 0.776483 0.687755 0.817610
O O7 0.000000 0.500000 0.500000
O O8 0.617480 0.238822 0.348709
O O9 0.746153 0.150276 0.948481
O O10 0.500000 0.000000 0.000000
O O11 0.912007 0.046635 0.875395
O O12 0.720369 0.721125 0.518463
O O13 0.876533 0.793228 0.734800
O O14 0.113288 0.828077 0.479876
O O15 0.792390 0.050491 0.565696
O O16 0.521011 0.228556 0.023475
O O17 0.712700 0.935587 0.223270
#
# Coordination Sequence:
#
# PCOD9057329 Si02
#       8
#     2   2   2   2   2   2   2   2
#     4  11  24  42  74 104 129 178 235 291 339 401
#     4  11  25  45  67  98 144 178 227 288 347 413
#     4  12  23  43  66 101 137 179 229 284 346 405
#     4  11  22  42  68 100 135 173 234 284 337 411
#     4  12  22  42  73  97 134 176 233 285 338 407
#     4  12  23  44  69 102 137 177 240 282 339 410
#     4  11  24  42  65  96 141 187 221 280 353 405
#     4  12  25  41  67 101 140 183 227 284 343 411
#
# _framework density 21.544926
#
# number of rings (size 3 to 8) (size 9 to 14) (size 15 to 20)
#    0.000    0.500    5.000    3.000    1.750    2.500 
#    0.000    0.000    0.000    0.000    0.000    0.000 
#    0.000    0.000    0.000    0.000    0.000    0.000 
#
# Total GULP energy -89355.364381 kJ/mol
# GULP energy per Si atom -5584.710274 kJ/mol
# Density = 2.149589 g / cm^3
# Si number density = 21.544926 Si / 1000 Ang^3
#
#
#
# Elastic Constant Matrix: (Units=GPa)
#
#
# Indices 1 2 3 4 5 6 
#
# 1 40.9214 23.5589 -1.7346 3.4342 -0.0748 1.8634
# 2 23.5589 64.9156 42.3540 6.5569 4.7539 -32.0270
# 3 -1.7346 42.3540 109.7674 -16.5612 8.3715 -0.6872
# 4 3.4342 6.5569 -16.5612 31.9071 6.6005 -0.3497
# 5 -0.0748 4.7539 8.3715 6.6005 34.1610 4.8457
# 6 1.8634 -32.0270 -0.6872 -0.3497 4.8457 1.8345
#
#
#
# Elastic Compliance Matrix: (Units=1/GPa)
#
#
# Indices 1 2 3 4 5 6 
#
# 1 0.022531 0.002092 -0.000513 -0.002417 -0.002385 0.019287
# 2 0.002092 -0.000900 -0.000456 -0.001672 0.005062 -0.031704
# 3 -0.000513 -0.000456 0.010901 0.007186 -0.005941 0.013704
# 4 -0.002417 -0.001672 0.007186 0.037934 -0.010362 0.010566
# 5 -0.002385 0.005062 -0.005941 -0.010362 0.031566 0.003212
# 6 0.019287 -0.031704 0.013704 0.010566 0.003212 -0.029311
#
#
# Mechanical properties :
#
#
# Convention : Reuss Voigt Hill
#
# Bulk Modulus (GPa) = 28.75428 38.21790 33.48609
# Shear Modulus (GPa) = 60.92519 23.67560 42.30039
#
# Velocity S-wave (km/s) = 5.32349 3.31855 4.43579
# Velocity P-wave (km/s) = 7.15271 5.69745 6.46615
#
# Compressibility (1/GPa) = 0.03477744
#
# Stress axis : x y z
#
# Youngs Moduli (GPa) = 44.38323 -1110.62325 91.73237
#
# Poissons Ratio (x) = 2.32365 0.04708
# Poissons Ratio (y) = -0.09286 0.04185
# Poissons Ratio (z) = 0.02278 -0.50669
#
# Static dielectric constant tensor:
#      x y z
#    x 0.555950 1.512160 -0.072070 
#    y 1.512160 -0.062280 0.085300 
#    z -0.072070 0.085300 1.828580 
# 
# From -- ./inp_files/282956.got.cif
#   From: 2010.05.17/outbox.cif.g08.bks.cpg/sg2_142_cif.got.tgz:282956.got - 2010.06.03 11:33:40.
