data_PCOD9057489
_publ_section_title
;
Structure prediction by ZEFSAII (Michael W. Deem and Ramdas Pophale) SiO2 
 PCOD9057489
Probable space group: P -1
;
_chemical_formula_sum "Si O2"
_cell_formula_units_Z 16
_cell_length_a 12.186352
_cell_length_b 9.545625
_cell_length_c 14.590940
_cell_angle_alpha 66.892232
_cell_angle_beta 40.635392
_cell_angle_gamma 45.631532
_cell_volume 754.560973
_symmetry_space_group_name_H-M "P -1"
_symmetry_group_IT_number 2
_symmetry_cell_setting 'triclinic'
loop_
_space_group_symop_operation_xyz
x,y,z
-x,-y,-z
loop_
_atom_site_type_symbol
_atom_site_label
_atom_site_fract_x
_atom_site_fract_y
_atom_site_fract_z
Si Si1 0.296430 0.511387 0.600394
Si Si2 0.202571 0.756278 0.417279
Si Si3 0.984657 0.984945 0.122018
Si Si4 0.702480 0.481553 0.914319
Si Si5 0.378001 0.937095 0.543778
Si Si6 0.959288 0.363357 0.607213
Si Si7 0.163421 0.136197 0.103526
Si Si8 0.498603 0.200290 0.877049
O O1 0.500000 0.500000 0.500000
O O2 0.216622 0.626518 0.523382
O O3 0.421095 0.274792 0.578820
O O4 0.080433 0.649675 0.768106
O O5 0.422551 0.729143 0.268247
O O6 0.168802 0.677860 0.366979
O O7 0.000000 0.000000 0.500000
O O8 0.743685 0.104585 0.295668
O O9 0.117518 0.033632 0.083534
O O10 0.106171 0.750633 0.116959
O O11 0.000000 0.000000 0.000000
O O12 0.808973 0.498929 0.755372
O O13 0.500000 0.500000 0.000000
O O14 0.632811 0.631506 0.002293
O O15 0.500000 0.000000 0.500000
O O16 0.182688 0.132368 0.555186
O O17 0.000000 0.500000 0.500000
O O18 0.280330 0.996231 0.157503
O O19 0.340928 0.158035 0.954090
#
# Coordination Sequence:
#
# PCOD9057489 Si02
#       8
#     2   2   2   2   2   2   2   2
#     4  12  25  45  70  96 145 186 224 290 360 409
#     4  12  24  43  69 102 136 184 239 281 344 421
#     4  11  25  46  66  99 139 185 228 279 350 424
#     4  11  22  42  71  94 137 176 227 287 343 397
#     4  11  25  46  67 101 139 182 229 294 353 410
#     4  11  25  44  70 102 136 177 242 291 341 420
#     4  11  24  46  69 101 142 183 234 289 351 409
#     4  11  24  44  72 104 137 181 240 295 341 412
#
# _framework density 21.204384000000001
#
# number of rings (size 3 to 8) (size 9 to 14) (size 15 to 20)
#    0.000    0.750    5.000    2.250    7.000    1.000 
#    4.500    1.250    0.000    0.000    0.000    0.000 
#    0.000    0.000    0.000    0.000    0.000    0.000 
#
# Total GULP energy -89415.174071 kJ/mol
# GULP energy per Si atom -5588.448379 kJ/mol
# Density = 2.115612 g / cm^3
# Si number density = 21.204384 Si / 1000 Ang^3
#
#
#
# Elastic Constant Matrix: (Units=GPa)
#
#
# Indices 1 2 3 4 5 6 
#
# 1 81.9652 5.7256 20.5181 -7.7854 -17.2938 16.6277
# 2 5.7256 75.1277 37.1645 10.9307 -0.1838 15.9818
# 3 20.5181 37.1645 112.8207 -9.1176 1.1442 2.4681
# 4 -7.7854 10.9307 -9.1176 49.9286 3.6875 0.1407
# 5 -17.2938 -0.1838 1.1442 3.6875 29.0029 -6.4911
# 6 16.6277 15.9818 2.4681 0.1407 -6.4911 37.6473
#
#
#
# Elastic Compliance Matrix: (Units=1/GPa)
#
#
# Indices 1 2 3 4 5 6 
#
# 1 0.015970 0.001598 -0.003303 0.000950 0.008175 -0.006110
# 2 0.001598 0.019078 -0.006812 -0.005158 0.000137 -0.008315
# 3 -0.003303 -0.006812 0.011928 0.003307 -0.002193 0.003178
# 4 0.000950 -0.005158 0.003307 0.022066 -0.002156 0.001099
# 5 0.008175 0.000137 -0.002193 -0.002156 0.040491 0.003464
# 6 -0.006110 -0.008315 0.003178 0.001099 0.003464 0.033176
#
#
# Mechanical properties :
#
#
# Convention : Reuss Voigt Hill
#
# Bulk Modulus (GPa) = 33.39643 44.08111 38.73877
# Shear Modulus (GPa) = 29.45975 37.08279 33.27127
#
# Velocity S-wave (km/s) = 3.73141 4.18643 3.96545
# Velocity P-wave (km/s) = 5.86076 6.64847 6.26700
#
# Compressibility (1/GPa) = 0.02994332
#
# Stress axis : x y z
#
# Youngs Moduli (GPa) = 62.61711 52.41586 83.83486
#
# Poissons Ratio (x) = -0.08378 0.27694
# Poissons Ratio (y) = -0.10009 0.57105
# Poissons Ratio (z) = 0.20685 0.35704
#
# Static dielectric constant tensor:
#      x y z
#    x 1.862770 -0.066340 0.033000 
#    y -0.066340 1.738740 -0.000510 
#    z 0.033000 -0.000510 1.910960 
# 
# From -- ./inp_files/244587.got.cif
#   From: 2010.05.17/outbox.cif.g08.bks.cpg/sg2_123_cif.got.tgz:244587.got - 2010.06.03 11:33:40.
