data_PCOD9057803
_publ_section_title
;
Structure prediction by ZEFSAII (Michael W. Deem and Ramdas Pophale) SiO2 
 PCOD9057803
Probable space group: P -1
;
_chemical_formula_sum "Si O2"
_cell_formula_units_Z 13
_cell_length_a 5.250913
_cell_length_b 12.136942
_cell_length_c 8.889113
_cell_angle_alpha 108.154456
_cell_angle_beta 75.853963
_cell_angle_gamma 70.322370
_cell_volume 466.642575
_symmetry_space_group_name_H-M "P -1"
_symmetry_group_IT_number 2
_symmetry_cell_setting 'triclinic'
loop_
_space_group_symop_operation_xyz
x,y,z
-x,-y,-z
loop_
_atom_site_type_symbol
_atom_site_label
_atom_site_fract_x
_atom_site_fract_y
_atom_site_fract_z
Si Si1 0.685121 0.690824 0.676828
Si Si2 0.733778 0.204375 0.695051
Si Si3 0.388146 0.442563 0.630052
Si Si4 0.500000 0.000000 0.500000
Si Si5 0.438365 0.605483 0.926135
Si Si6 0.017406 0.150485 0.164864
Si Si7 0.859438 0.948036 0.211495
O O1 0.773586 0.622348 0.473717
O O2 0.697501 0.598745 0.778346
O O3 0.333013 0.776395 0.768961
O O4 0.868095 0.765302 0.725111
O O5 0.629862 0.322372 0.642314
O O6 0.082255 0.109327 0.645235
O O7 0.582270 0.116596 0.629927
O O8 0.668905 0.264882 0.900800
O O9 0.500000 0.500000 0.500000
O O10 0.251661 0.560958 0.819086
O O11 0.541541 0.054183 0.350138
O O12 0.500000 0.500000 0.000000
O O13 0.068546 0.014484 0.172893
O O14 0.148458 0.125301 0.967279
#
# Coordination Sequence:
#
# PCOD9057803 Si02
#       7
#     2   2   2   1   2   2   2
#     4  11  22  46  73 108 147 196 251 312 377 448
#     4  11  22  43  71 104 147 190 251 304 378 450
#     4   9  21  42  75 103 143 193 247 309 367 441
#     4  12  26  42  70 110 150 192 242 318 380 442
#     4   9  19  42  74 100 147 194 253 307 373 438
#     4  11  26  44  77 107 154 200 249 306 380 460
#     4  11  26  43  70 108 149 202 248 305 378 460
#
# _framework density 27.858581999999998
#
# number of rings (size 3 to 8) (size 9 to 14) (size 15 to 20)
#    0.000    1.538    1.538    2.308    4.308    1.231 
#    0.000    7.692   13.538    0.000    0.000    0.000 
#    0.000    0.000    0.000    0.000    0.000    0.000 
#
# Total GULP energy -72420.597529 kJ/mol
# GULP energy per Si atom -5570.815195 kJ/mol
# Density = 2.779517 g / cm^3
# Si number density = 27.858582 Si / 1000 Ang^3
#
#
#
# Elastic Constant Matrix: (Units=GPa)
#
#
# Indices 1 2 3 4 5 6 
#
# 1 145.6239 60.4406 86.3272 10.6316 38.8620 12.0463
# 2 60.4406 150.1283 72.5666 1.1985 36.2614 0.7012
# 3 86.3272 72.5666 288.2680 36.1732 37.6640 12.9992
# 4 10.6316 1.1985 36.1732 64.9668 4.8742 23.6349
# 5 38.8620 36.2614 37.6640 4.8742 48.4903 14.9684
# 6 12.0463 0.7012 12.9992 23.6349 14.9684 40.7499
#
#
#
# Elastic Compliance Matrix: (Units=1/GPa)
#
#
# Indices 1 2 3 4 5 6 
#
# 1 0.010192 -0.001970 -0.001865 -0.000031 -0.005090 -0.000497
# 2 -0.001970 0.009296 -0.001216 0.000286 -0.005252 0.002574
# 3 -0.001865 -0.001216 0.004797 -0.002631 -0.001390 0.001079
# 4 -0.000031 0.000286 -0.002631 0.021250 0.003680 -0.012833
# 5 -0.005090 -0.005252 -0.001390 0.003680 0.033125 -0.012263
# 6 -0.000497 0.002574 0.001079 -0.012833 -0.012263 0.036246
#
#
# Mechanical properties :
#
#
# Convention : Reuss Voigt Hill
#
# Bulk Modulus (GPa) = 70.50571 113.63212 92.06892
# Shear Modulus (GPa) = 38.54022 55.15378 46.84700
#
# Velocity S-wave (km/s) = 3.72348 4.45430 4.10518
# Velocity P-wave (km/s) = 6.62186 8.20560 7.45590
#
# Compressibility (1/GPa) = 0.01418325
#
# Stress axis : x y z
#
# Youngs Moduli (GPa) = 98.11810 107.57502 208.47143
#
# Poissons Ratio (x) = 0.21188 0.38880
# Poissons Ratio (y) = 0.19326 0.25349
# Poissons Ratio (z) = 0.18299 0.13081
#
# Static dielectric constant tensor:
#      x y z
#    x 2.787570 -0.436750 -0.259100 
#    y -0.436750 2.568300 0.076930 
#    z -0.259100 0.076930 2.266460 
# 
# From -- ./inp_files/131097.got.cif
#   From: 2010.05.17/outbox.cif.g08.bks.cpg/sg2_66_cif.got.tgz:131097.got - 2010.06.03 11:33:40.
