data_PCOD9057801
_publ_section_title
;
Structure prediction by ZEFSAII (Michael W. Deem and Ramdas Pophale) SiO2 
 PCOD9057801
Probable space group: P -1
;
_chemical_formula_sum "Si O2"
_cell_formula_units_Z 16
_cell_length_a 8.790955
_cell_length_b 9.370526
_cell_length_c 12.238346
_cell_angle_alpha 106.181892
_cell_angle_beta 96.015696
_cell_angle_gamma 128.274672
_cell_volume 706.759416
_symmetry_space_group_name_H-M "P -1"
_symmetry_group_IT_number 2
_symmetry_cell_setting 'triclinic'
loop_
_space_group_symop_operation_xyz
x,y,z
-x,-y,-z
loop_
_atom_site_type_symbol
_atom_site_label
_atom_site_fract_x
_atom_site_fract_y
_atom_site_fract_z
Si Si1 0.408303 0.347115 0.703581
Si Si2 0.664746 0.487885 0.551376
Si Si3 0.679432 0.671855 0.969054
Si Si4 0.008814 0.288865 0.645201
Si Si5 0.406187 0.074911 0.074085
Si Si6 0.965110 0.307643 0.907033
Si Si7 0.135593 0.903336 0.631023
Si Si8 0.269329 0.687879 0.673485
O O1 0.550399 0.361368 0.626398
O O2 0.588860 0.553250 0.823546
O O3 0.227121 0.343659 0.655460
O O4 0.263293 0.136581 0.715086
O O5 0.500000 0.500000 0.500000
O O6 0.662924 0.352974 0.437437
O O7 0.895902 0.718799 0.615464
O O8 0.692788 0.858787 0.993001
O O9 0.500000 0.500000 0.000000
O O10 0.873432 0.702904 0.029505
O O11 0.970435 0.287335 0.770979
O O12 0.866508 0.113290 0.506191
O O13 0.039988 0.474119 0.638038
O O14 0.594634 0.260972 0.200254
O O15 0.250492 0.897633 0.109480
O O16 0.500000 0.000000 0.000000
O O17 0.000000 0.500000 0.000000
O O18 0.262746 0.855505 0.685250
#
# Coordination Sequence:
#
# PCOD9057801 Si02
#       8
#     2   2   2   2   2   2   2   2
#     4  12  25  43  76 103 146 186 243 301 359 445
#     4  11  22  43  71 103 144 189 237 292 368 432
#     4  12  25  51  72 107 145 188 250 305 366 437
#     4  11  22  48  69 103 147 182 239 299 359 438
#     4  12  27  48  75 105 146 195 245 304 372 437
#     4  12  28  46  78 107 144 193 244 309 375 442
#     4  11  27  43  73 109 147 192 236 300 370 431
#     4  11  24  46  68 105 149 186 236 303 358 434
#
# _framework density 22.638539999999999
#
# number of rings (size 3 to 8) (size 9 to 14) (size 15 to 20)
#    0.000    0.500    5.000    3.750    5.250    4.500 
#    0.000    0.000    0.000    0.000    0.000    0.000 
#    0.000    0.000    0.000    0.000    0.000    0.000 
#
# Total GULP energy -89226.303527 kJ/mol
# GULP energy per Si atom -5576.643970 kJ/mol
# Density = 2.258701 g / cm^3
# Si number density = 22.638540 Si / 1000 Ang^3
#
#
#
# Elastic Constant Matrix: (Units=GPa)
#
#
# Indices 1 2 3 4 5 6 
#
# 1 100.4963 34.8805 28.8717 -13.1747 -1.9169 -11.2727
# 2 34.8805 86.3221 -7.5979 -2.0066 -16.5411 -12.8790
# 3 28.8717 -7.5979 61.8533 -18.0079 -6.6412 0.0271
# 4 -13.1747 -2.0066 -18.0079 30.0084 5.8154 -1.2431
# 5 -1.9169 -16.5411 -6.6412 5.8154 33.8390 -12.1607
# 6 -11.2727 -12.8790 0.0271 -1.2431 -12.1607 44.9627
#
#
#
# Elastic Compliance Matrix: (Units=1/GPa)
#
#
# Indices 1 2 3 4 5 6 
#
# 1 0.015067 -0.007531 -0.007764 0.002361 -0.004597 0.000447
# 2 -0.007531 0.018697 0.007190 0.000106 0.012573 0.006866
# 3 -0.007764 0.007190 0.024475 0.010519 0.006879 0.002249
# 4 0.002361 0.000106 0.010519 0.041617 -0.004726 0.000488
# 5 -0.004597 0.012573 0.006879 -0.004726 0.042569 0.013827
# 6 0.000447 0.006866 0.002249 0.000488 0.013827 0.028072
#
#
# Mechanical properties :
#
#
# Convention : Reuss Voigt Hill
#
# Bulk Modulus (GPa) = 23.79381 40.10894 31.95137
# Shear Modulus (GPa) = 24.91092 34.59649 29.75370
#
# Velocity S-wave (km/s) = 3.32079 3.91348 3.62925
# Velocity P-wave (km/s) = 5.02361 6.17867 5.63084
#
# Compressibility (1/GPa) = 0.04202774
#
# Stress axis : x y z
#
# Youngs Moduli (GPa) = 66.36984 53.48585 40.85835
#
# Poissons Ratio (x) = 0.40279 0.31724
# Poissons Ratio (y) = 0.49982 -0.29376
# Poissons Ratio (z) = 0.51531 -0.38455
#
# Static dielectric constant tensor:
#      x y z
#    x 1.864730 -0.051180 -0.080350 
#    y -0.051180 1.684520 -0.165540 
#    z -0.080350 -0.165540 1.792550 
# 
# From -- ./inp_files/382384.got.cif
#   From: 2010.05.17/outbox.cif.g08.bks.cpg/sg2_192_cif.got.tgz:382384.got - 2010.06.03 11:33:40.
