data_PCOD9057910
_publ_section_title
;
Structure prediction by ZEFSAII (Michael W. Deem and Ramdas Pophale) SiO2 
 PCOD9057910
Probable space group: P -1
;
_chemical_formula_sum "Si O2"
_cell_formula_units_Z 16
_cell_length_a 14.966200
_cell_length_b 8.737208
_cell_length_c 12.416313
_cell_angle_alpha 146.491504
_cell_angle_beta 50.990019
_cell_angle_gamma 129.482613
_cell_volume 672.753011
_symmetry_space_group_name_H-M "P -1"
_symmetry_group_IT_number 2
_symmetry_cell_setting 'triclinic'
loop_
_space_group_symop_operation_xyz
x,y,z
-x,-y,-z
loop_
_atom_site_type_symbol
_atom_site_label
_atom_site_fract_x
_atom_site_fract_y
_atom_site_fract_z
Si Si1 0.869456 0.356608 0.712023
Si Si2 0.367398 0.401112 0.272437
Si Si3 0.412397 0.218967 0.562565
Si Si4 0.187919 0.755834 0.539782
Si Si5 0.172975 0.024338 0.919009
Si Si6 0.563910 0.830368 0.117947
Si Si7 0.279329 0.266294 0.502203
Si Si8 0.943802 0.469202 0.142772
O O1 0.896101 0.307872 0.537777
O O2 0.963346 0.370356 0.743294
O O3 0.761665 0.078122 0.654363
O O4 0.837915 0.660678 0.913296
O O5 0.493801 0.629935 0.330607
O O6 0.266609 0.526583 0.364187
O O7 0.323374 0.321980 0.380059
O O8 0.397817 0.164440 0.033084
O O9 0.375044 0.400311 0.600623
O O10 0.289492 0.048641 0.610062
O O11 0.474929 0.007868 0.328135
O O12 0.127424 0.813151 0.729178
O O13 0.311884 0.047959 0.843670
O O14 0.101287 0.863524 0.981341
O O15 0.500000 0.500000 0.000000
O O16 0.167507 0.394036 0.684097
O O17 0.000000 0.500000 0.000000
#
# Coordination Sequence:
#
# PCOD9057910 Si02
#       8
#     2   2   2   2   2   2   2   2
#     4  11  27  48  74 104 138 189 245 297 361 418
#     4  12  22  42  73 103 149 190 228 294 360 432
#     4  11  23  41  67 106 148 189 234 282 362 434
#     4  11  22  43  74 104 144 188 236 299 348 433
#     4  12  25  48  75 110 143 186 247 293 357 431
#     4  12  22  39  71 111 144 186 234 285 358 435
#     4  11  26  50  67 106 148 192 237 298 362 426
#     4  12  29  51  75 103 144 193 245 308 359 412
#
# _framework density 23.782876000000002
#
# number of rings (size 3 to 8) (size 9 to 14) (size 15 to 20)
#    0.000    0.500    5.000    3.000    5.250    1.000 
#    2.250    0.000    0.000    0.000    0.000    0.000 
#    0.000    0.000    0.000    0.000    0.000    0.000 
#
# Total GULP energy -89589.371202 kJ/mol
# GULP energy per Si atom -5599.335700 kJ/mol
# Density = 2.372875 g / cm^3
# Si number density = 23.782876 Si / 1000 Ang^3
#
#
#
# Elastic Constant Matrix: (Units=GPa)
#
#
# Indices 1 2 3 4 5 6 
#
# 1 113.4229 14.5032 34.7442 0.0468 12.6042 -16.0090
# 2 14.5032 93.3865 17.1015 -18.1597 8.7440 -7.9988
# 3 34.7442 17.1015 107.2992 -14.2608 17.2653 -11.9850
# 4 0.0468 -18.1597 -14.2608 44.3853 -6.3435 13.2200
# 5 12.6042 8.7440 17.2653 -6.3435 35.2483 -8.0472
# 6 -16.0090 -7.9988 -11.9850 13.2200 -8.0472 25.5896
#
#
#
# Elastic Compliance Matrix: (Units=1/GPa)
#
#
# Indices 1 2 3 4 5 6 
#
# 1 0.010921 -0.001175 -0.002874 -0.003554 -0.001355 0.006529
# 2 -0.001175 0.012025 -0.000718 0.004515 -0.001420 -0.000091
# 3 -0.002874 -0.000718 0.011400 0.002601 -0.003727 0.000801
# 4 -0.003554 0.004515 0.002601 0.029710 0.000875 -0.014668
# 5 -0.001355 -0.001420 -0.003727 0.000875 0.032744 0.006808
# 6 0.006529 -0.000091 0.000801 -0.014668 0.006808 0.053228
#
#
# Mechanical properties :
#
#
# Convention : Reuss Voigt Hill
#
# Bulk Modulus (GPa) = 40.30284 49.64517 44.97400
# Shear Modulus (GPa) = 29.79174 37.56195 33.67684
#
# Velocity S-wave (km/s) = 3.54313 3.97844 3.76708
# Velocity P-wave (km/s) = 5.80700 6.48256 6.15406
#
# Compressibility (1/GPa) = 0.02481215
#
# Stress axis : x y z
#
# Youngs Moduli (GPa) = 91.56948 83.15913 87.72220
#
# Poissons Ratio (x) = 0.09769 0.25212
# Poissons Ratio (y) = 0.10757 0.06298
# Poissons Ratio (z) = 0.26317 0.05970
#
# Static dielectric constant tensor:
#      x y z
#    x 1.931080 -0.011660 0.023490 
#    y -0.011660 1.940660 0.017880 
#    z 0.023490 0.017880 1.865740 
# 
# From -- ./inp_files/448308.got.cif
#   From: 2010.05.17/outbox.cif.g08.bks.cpg/sg2_225_cif.got.tgz:448308.got - 2010.06.03 11:33:40.
