data_PCOD9057260
_publ_section_title
;
Structure prediction by ZEFSAII (Michael W. Deem and Ramdas Pophale) SiO2 
 PCOD9057260
Probable space group: P -1
;
_chemical_formula_sum "Si O2"
_cell_formula_units_Z 16
_cell_length_a 8.420060
_cell_length_b 8.860366
_cell_length_c 13.246564
_cell_angle_alpha 94.751826
_cell_angle_beta 81.897418
_cell_angle_gamma 52.694188
_cell_volume 760.251487
_symmetry_space_group_name_H-M "P -1"
_symmetry_group_IT_number 2
_symmetry_cell_setting 'triclinic'
loop_
_space_group_symop_operation_xyz
x,y,z
-x,-y,-z
loop_
_atom_site_type_symbol
_atom_site_label
_atom_site_fract_x
_atom_site_fract_y
_atom_site_fract_z
Si Si1 0.791723 0.743325 0.227479
Si Si2 0.284325 0.693771 0.494321
Si Si3 0.550585 0.399383 0.098925
Si Si4 0.090286 0.110811 0.308909
Si Si5 0.838329 0.286450 0.717473
Si Si6 0.333783 0.020219 0.943301
Si Si7 0.433364 0.924230 0.415973
Si Si8 0.953861 0.335317 0.125980
O O1 0.634628 0.764052 0.323531
O O2 0.916110 0.536310 0.149640
O O3 0.950658 0.760652 0.269561
O O4 0.663571 0.911794 0.165048
O O5 0.500000 0.500000 0.500000
O O6 0.203247 0.670697 0.395608
O O7 0.325841 0.844383 0.472960
O O8 0.116236 0.774222 0.600224
O O9 0.348817 0.531900 0.193185
O O10 0.623377 0.183391 0.071745
O O11 0.734736 0.386473 0.130540
O O12 0.500000 0.500000 0.000000
O O13 0.050882 0.219685 0.215139
O O14 0.155378 0.897767 0.271377
O O15 0.265607 0.083557 0.360263
O O16 0.500000 0.000000 0.000000
O O17 0.109122 0.192599 0.016882
O O18 0.500000 0.000000 0.500000
#
# Coordination Sequence:
#
# PCOD9057260 Si02
#       8
#     2   2   2   2   2   2   2   2
#     4  12  24  41  63  94 127 165 207 255 311 371
#     4  11  23  41  64  92 125 165 208 255 308 367
#     4  12  24  42  65  93 123 164 212 258 308 369
#     4  11  22  42  65  91 125 166 207 256 310 366
#     4  11  23  41  63  91 125 164 206 256 310 370
#     4  12  25  43  64  92 128 166 204 258 314 368
#     4  11  23  40  63  92 125 164 208 256 307 367
#     4  12  24  42  65  93 124 164 211 258 308 372
#
# _framework density 21.045669
#
# number of rings (size 3 to 8) (size 9 to 14) (size 15 to 20)
#    0.000    0.500    0.000   11.250    0.000    2.000 
#    0.000    2.500    0.000    0.000    0.000    0.000 
#    0.000    0.000    0.000    0.000    0.000    0.000 
#
# Total GULP energy -89623.987175 kJ/mol
# GULP energy per Si atom -5601.499198 kJ/mol
# Density = 2.099777 g / cm^3
# Si number density = 21.045669 Si / 1000 Ang^3
#
#
#
# Elastic Constant Matrix: (Units=GPa)
#
#
# Indices 1 2 3 4 5 6 
#
# 1 90.4501 3.9359 16.6201 -2.9472 27.9272 -13.4165
# 2 3.9359 106.8147 28.6678 -2.7723 16.7610 6.0853
# 3 16.6201 28.6678 78.2322 6.0633 4.0546 5.9888
# 4 -2.9472 -2.7723 6.0633 44.4764 -15.9156 -0.8528
# 5 27.9272 16.7610 4.0546 -15.9156 54.5124 2.7138
# 6 -13.4165 6.0853 5.9888 -0.8528 2.7138 37.1345
#
#
#
# Elastic Compliance Matrix: (Units=1/GPa)
#
#
# Indices 1 2 3 4 5 6 
#
# 1 0.015281 0.001389 -0.003693 -0.001390 -0.008710 0.006494
# 2 0.001389 0.011028 -0.004110 -0.000022 -0.003785 -0.000366
# 3 -0.003693 -0.004110 0.015409 -0.002107 0.001559 -0.003308
# 4 -0.001390 -0.000022 -0.002107 0.025673 0.008380 -0.000182
# 5 -0.008710 -0.003785 0.001559 0.008380 0.026526 -0.004524
# 6 0.006494 -0.000366 -0.003308 -0.000182 -0.004524 0.030195
#
#
# Mechanical properties :
#
#
# Convention : Reuss Voigt Hill
#
# Bulk Modulus (GPa) = 34.61551 41.54939 38.08245
# Shear Modulus (GPa) = 34.11284 42.30953 38.21119
#
# Velocity S-wave (km/s) = 4.03040 4.48858 4.26565
# Velocity P-wave (km/s) = 6.17595 6.82997 6.51118
#
# Compressibility (1/GPa) = 0.02888879
#
# Stress axis : x y z
#
# Youngs Moduli (GPa) = 65.43954 90.67655 64.89677
#
# Poissons Ratio (x) = -0.12594 0.23969
# Poissons Ratio (y) = -0.09089 0.26675
# Poissons Ratio (z) = 0.24169 0.37272
#
# Static dielectric constant tensor:
#      x y z
#    x 1.729050 -0.011090 0.000950 
#    y -0.011090 1.725590 0.013250 
#    z 0.000950 0.013250 1.730330 
# 
# From -- ./inp_files/382641.got.cif
#   From: 2010.05.17/outbox.cif.g08.bks.cpg/sg2_192_cif.got.tgz:382641.got - 2010.06.03 11:33:40.
