data_PCOD9057344
_publ_section_title
;
Structure prediction by ZEFSAII (Michael W. Deem and Ramdas Pophale) SiO2 
 PCOD9057344
Probable space group: P -1
;
_chemical_formula_sum "Si O2"
_cell_formula_units_Z 16
_cell_length_a 11.842107
_cell_length_b 8.050164
_cell_length_c 16.538979
_cell_angle_alpha 103.771830
_cell_angle_beta 46.273417
_cell_angle_gamma 67.766538
_cell_volume 701.311763
_symmetry_space_group_name_H-M "P -1"
_symmetry_group_IT_number 2
_symmetry_cell_setting 'triclinic'
loop_
_space_group_symop_operation_xyz
x,y,z
-x,-y,-z
loop_
_atom_site_type_symbol
_atom_site_label
_atom_site_fract_x
_atom_site_fract_y
_atom_site_fract_z
Si Si1 0.832288 0.499391 0.774406
Si Si2 0.517219 0.594287 0.255574
Si Si3 0.791693 0.785764 0.682357
Si Si4 0.693460 0.648917 0.046431
Si Si5 0.390630 0.560212 0.472095
Si Si6 0.009906 0.994022 0.382229
Si Si7 0.226372 0.328179 0.764552
Si Si8 0.684519 0.721393 0.462227
O O1 0.741445 0.718313 0.780910
O O2 0.720917 0.612352 0.931719
O O3 0.814393 0.317785 0.736049
O O4 0.126147 0.289841 0.611499
O O5 0.560981 0.432832 0.292383
O O6 0.629690 0.673169 0.245963
O O7 0.220955 0.832575 0.421197
O O8 0.639395 0.509377 0.097599
O O9 0.876121 0.913060 0.664363
O O10 0.000000 0.500000 0.500000
O O11 0.535531 0.028330 0.789302
O O12 0.947787 0.511209 0.937641
O O13 0.500000 0.500000 0.500000
O O14 0.291140 0.452420 0.508716
O O15 0.155927 0.877878 0.604162
O O16 0.236639 0.407406 0.680606
O O17 0.401924 0.015626 0.632462
#
# Coordination Sequence:
#
# PCOD9057344 Si02
#       8
#     2   2   2   2   2   2   2   2
#     4  11  22  45  71 101 134 179 226 281 346 402
#     4  10  20  40  61  98 132 175 220 274 340 389
#     4  12  27  48  74  98 129 183 243 279 332 410
#     4  11  26  40  66 101 142 181 220 280 350 401
#     4  10  19  34  67 101 133 170 233 276 324 404
#     4  10  23  43  75  99 133 178 236 284 329 404
#     4  10  20  35  67  95 136 175 222 279 342 405
#     4  10  17  36  67 102 125 180 230 271 342 408
#
# _framework density 22.814388000000001
#
# number of rings (size 3 to 8) (size 9 to 14) (size 15 to 20)
#    0.750    0.750    3.750    1.500    3.500    2.500 
#    0.000    1.875    5.500    0.000    0.000    0.000 
#    0.000    0.000    0.000    0.000    0.000    0.000 
#
# Total GULP energy -89167.128896 kJ/mol
# GULP energy per Si atom -5572.945556 kJ/mol
# Density = 2.276246 g / cm^3
# Si number density = 22.814388 Si / 1000 Ang^3
#
#
#
# Elastic Constant Matrix: (Units=GPa)
#
#
# Indices 1 2 3 4 5 6 
#
# 1 88.4855 38.4550 28.2256 -3.5048 -10.5174 3.6909
# 2 38.4550 152.0755 53.3046 -40.1007 -4.0435 3.1027
# 3 28.2256 53.3046 99.5145 -13.7063 -18.2966 -1.5055
# 4 -3.5048 -40.1007 -13.7063 43.8990 -10.5869 1.6599
# 5 -10.5174 -4.0435 -18.2966 -10.5869 33.7721 -0.6130
# 6 3.6909 3.1027 -1.5055 1.6599 -0.6130 38.0531
#
#
#
# Elastic Compliance Matrix: (Units=1/GPa)
#
#
# Indices 1 2 3 4 5 6 
#
# 1 0.013531 -0.003114 -0.002048 -0.001851 0.002133 -0.001024
# 2 -0.003114 0.011072 -0.003584 0.009088 0.001243 -0.001119
# 3 -0.002048 -0.003584 0.014359 0.002844 0.007623 0.001058
# 4 -0.001851 0.009088 0.002844 0.035023 0.013000 -0.001767
# 5 0.002133 0.001243 0.007623 0.013000 0.038629 0.000049
# 6 -0.001024 -0.001119 0.001058 -0.001767 0.000049 0.026589
#
#
# Mechanical properties :
#
#
# Convention : Reuss Voigt Hill
#
# Bulk Modulus (GPa) = 46.57871 64.44955 55.51413
# Shear Modulus (GPa) = 30.51542 37.81753 34.16647
#
# Velocity S-wave (km/s) = 3.66122 4.07580 3.87406
# Velocity P-wave (km/s) = 6.19140 7.10355 6.66310
#
# Compressibility (1/GPa) = 0.02146904
#
# Stress axis : x y z
#
# Youngs Moduli (GPa) = 73.90520 90.32060 69.64422
#
# Poissons Ratio (x) = 0.28126 0.14264
# Poissons Ratio (y) = 0.23014 0.24960
# Poissons Ratio (z) = 0.15136 0.32371
#
# Static dielectric constant tensor:
#      x y z
#    x 1.938600 -0.046840 0.028310 
#    y -0.046840 1.887360 -0.055800 
#    z 0.028310 -0.055800 1.873530 
# 
# From -- ./inp_files/572651.got.cif
#   From: 2010.05.17/outbox.cif.g08.bks.cpg/sg2_287_cif.got.tgz:572651.got - 2010.06.03 11:33:40.
