data_PCOD9057099
_publ_section_title
;
Structure prediction by ZEFSAII (Michael W. Deem and Ramdas Pophale) SiO2 
 PCOD9057099
Probable space group: P -1
;
_chemical_formula_sum "Si O2"
_cell_formula_units_Z 14
_cell_length_a 10.081455
_cell_length_b 25.143353
_cell_length_c 12.397650
_cell_angle_alpha 25.180510
_cell_angle_beta 37.032606
_cell_angle_gamma 27.359541
_cell_volume 614.245248
_symmetry_space_group_name_H-M "P -1"
_symmetry_group_IT_number 2
_symmetry_cell_setting 'triclinic'
loop_
_space_group_symop_operation_xyz
x,y,z
-x,-y,-z
loop_
_atom_site_type_symbol
_atom_site_label
_atom_site_fract_x
_atom_site_fract_y
_atom_site_fract_z
Si Si1 0.611668 0.598893 0.271421
Si Si2 0.690924 0.890089 0.178563
Si Si3 0.718409 0.089137 0.443519
Si Si4 0.768113 0.525967 0.922509
Si Si5 0.230477 0.401487 0.437215
Si Si6 0.147582 0.937157 0.839078
Si Si7 0.317531 0.705858 0.489777
O O1 0.500000 0.500000 0.500000
O O2 0.547802 0.633298 0.377332
O O3 0.937839 0.503935 0.194880
O O4 0.422983 0.777501 0.010976
O O5 0.479176 0.945705 0.313528
O O6 0.815739 0.711624 0.386972
O O7 0.932917 0.899288 0.032488
O O8 0.500000 0.000000 0.000000
O O9 0.519807 0.286682 0.215414
O O10 0.785808 0.039709 0.366805
O O11 0.000000 0.000000 0.500000
O O12 0.778625 0.494115 0.844840
O O13 0.753103 0.410012 0.219517
O O14 0.537098 0.289879 0.504453
O O15 0.000000 0.500000 0.500000
O O16 0.967550 0.112906 0.690361
#
# Coordination Sequence:
#
# PCOD9057099 Si02
#       7
#     2   2   2   2   2   2   2
#     4  12  27  49  72  98 139 187 236 283 344 421
#     4  11  22  42  68 101 137 176 223 281 348 399
#     4  11  23  41  69 100 135 175 227 283 343 407
#     4  11  26  45  70 104 139 184 228 287 353 408
#     4  11  22  41  70 101 136 178 225 286 344 398
#     4  12  26  45  71 104 138 185 233 281 343 419
#     4  12  26  45  70 103 141 181 233 288 346 411
#
# _framework density 22.792197999999999
#
# number of rings (size 3 to 8) (size 9 to 14) (size 15 to 20)
#    0.000    0.571    4.286    4.286    2.000    6.286 
#    0.000    0.000    0.000    0.000    0.000    0.000 
#    0.000    0.000    0.000    0.000    0.000    0.000 
#
# Total GULP energy -78347.071035 kJ/mol
# GULP energy per Si atom -5596.219360 kJ/mol
# Density = 2.274032 g / cm^3
# Si number density = 22.792198 Si / 1000 Ang^3
#
#
#
# Elastic Constant Matrix: (Units=GPa)
#
#
# Indices 1 2 3 4 5 6 
#
# 1 44.3810 10.1610 13.2111 0.3280 11.4831 -7.9134
# 2 10.1610 114.7530 33.9934 -2.8454 1.1446 -6.2907
# 3 13.2111 33.9934 102.8049 -5.5105 10.4286 -14.7202
# 4 0.3280 -2.8454 -5.5105 49.4067 -2.6743 17.3830
# 5 11.4831 1.1446 10.4286 -2.6743 29.8201 -0.1482
# 6 -7.9134 -6.2907 -14.7202 17.3830 -0.1482 38.3310
#
#
#
# Elastic Compliance Matrix: (Units=1/GPa)
#
#
# Indices 1 2 3 4 5 6 
#
# 1 0.027039 -0.001685 -0.001157 -0.003158 -0.010195 0.006254
# 2 -0.001685 0.009788 -0.003159 0.000334 0.001408 -0.000101
# 3 -0.001157 -0.003159 0.011830 -0.000448 -0.003591 0.003975
# 4 -0.003158 0.000334 -0.000448 0.024613 0.003508 -0.011918
# 5 -0.010195 0.001408 -0.003591 0.003508 0.038953 -0.004693
# 6 0.006254 -0.000101 0.003975 -0.011918 -0.004693 0.034276
#
#
# Mechanical properties :
#
#
# Convention : Reuss Voigt Hill
#
# Bulk Modulus (GPa) = 27.28247 41.85220 34.56734
# Shear Modulus (GPa) = 29.28769 37.14979 33.21874
#
# Velocity S-wave (km/s) = 3.58856 4.04162 3.82181
# Velocity P-wave (km/s) = 5.40060 6.33893 5.88848
#
# Compressibility (1/GPa) = 0.03665357
#
# Stress axis : x y z
#
# Youngs Moduli (GPa) = 36.98409 102.16388 84.53168
#
# Poissons Ratio (x) = 0.17217 0.09781
# Poissons Ratio (y) = 0.06233 0.26706
# Poissons Ratio (z) = 0.04279 0.32277
#
# Static dielectric constant tensor:
#      x y z
#    x 1.865040 -0.011640 0.021150 
#    y -0.011640 1.862240 -0.033760 
#    z 0.021150 -0.033760 1.878910 
# 
# From -- ./inp_files/524607.got.cif
#   From: 2010.05.17/outbox.cif.g08.bks.cpg/sg2_263_cif.got.tgz:524607.got - 2010.06.03 11:33:40.
