data_PCOD9057490
_publ_section_title
;
Structure prediction by ZEFSAII (Michael W. Deem and Ramdas Pophale) SiO2 
 PCOD9057490
Probable space group: P -1
;
_chemical_formula_sum "Si O2"
_cell_formula_units_Z 14
_cell_length_a 27.886081
_cell_length_b 27.314826
_cell_length_c 14.970536
_cell_angle_alpha 161.387223
_cell_angle_beta 20.419259
_cell_angle_gamma 169.821753
_cell_volume 641.202859
_symmetry_space_group_name_H-M "P -1"
_symmetry_group_IT_number 2
_symmetry_cell_setting 'triclinic'
loop_
_space_group_symop_operation_xyz
x,y,z
-x,-y,-z
loop_
_atom_site_type_symbol
_atom_site_label
_atom_site_fract_x
_atom_site_fract_y
_atom_site_fract_z
Si Si1 0.970733 0.155709 0.319274
Si Si2 0.980635 0.320908 0.394089
Si Si3 0.611310 0.214850 0.940627
Si Si4 0.061618 0.857228 0.243098
Si Si5 0.724097 0.630029 0.272519
Si Si6 0.486762 0.147136 0.724753
Si Si7 0.543472 0.163843 0.287310
O O1 0.185939 0.474672 0.545839
O O2 0.971561 0.211353 0.310166
O O3 0.690000 0.933515 0.470965
O O4 0.000000 0.000000 0.000000
O O5 0.814338 0.316553 0.697990
O O6 0.288744 0.643707 0.384428
O O7 0.804759 0.092212 0.222119
O O8 0.501752 0.988307 0.811123
O O9 0.823599 0.547943 0.181393
O O10 0.344071 0.037177 0.060784
O O11 0.936094 0.756677 0.189454
O O12 0.131882 0.097620 0.564568
O O13 0.500000 0.500000 0.500000
O O14 0.580735 0.368756 0.010557
O O15 0.500000 0.000000 0.500000
O O16 0.500000 0.000000 0.000000
#
# Coordination Sequence:
#
# PCOD9057490 Si02
#       7
#     2   2   2   2   2   2   2
#     4  11  24  48  75 100 144 190 220 286 366 410
#     4  11  25  44  69  98 137 172 237 270 333 419
#     4  11  22  42  71  95 131 178 221 272 346 398
#     4  11  23  41  66  91 128 182 220 264 348 391
#     4  11  26  43  64  92 140 172 226 278 339 395
#     4  12  27  43  67  98 133 178 230 280 329 400
#     4  11  24  45  72 109 138 170 237 288 335 424
#
# _framework density 21.833964000000002
#
# number of rings (size 3 to 8) (size 9 to 14) (size 15 to 20)
#    0.000    0.857    1.429    6.429    6.000    0.000 
#    7.714    0.000    0.000    0.000    0.000    0.000 
#    0.000    0.000    0.000    0.000    0.000    0.000 
#
# Total GULP energy -78272.903079 kJ/mol
# GULP energy per Si atom -5590.921648 kJ/mol
# Density = 2.178427 g / cm^3
# Si number density = 21.833964 Si / 1000 Ang^3
#
#
#
# Elastic Constant Matrix: (Units=GPa)
#
#
# Indices 1 2 3 4 5 6 
#
# 1 55.7208 14.2207 51.6414 2.3354 -6.9087 9.8027
# 2 14.2207 90.0199 12.8634 6.5336 -19.0858 15.1470
# 3 51.6414 12.8634 132.2160 15.5767 -17.7839 15.4473
# 4 2.3354 6.5336 15.5767 52.2227 5.7758 3.9285
# 5 -6.9087 -19.0858 -17.7839 5.7758 35.8731 0.9893
# 6 9.8027 15.1470 15.4473 3.9285 0.9893 27.8987
#
#
#
# Elastic Compliance Matrix: (Units=1/GPa)
#
#
# Indices 1 2 3 4 5 6 
#
# 1 0.029560 -0.003268 -0.011576 0.002974 -0.002193 -0.002543
# 2 -0.003268 0.014778 0.002332 -0.002792 0.009062 -0.008094
# 3 -0.011576 0.002332 0.013779 -0.004285 0.006655 -0.004461
# 4 0.002974 -0.002792 -0.004285 0.021354 -0.006477 0.000066
# 5 -0.002193 0.009062 0.006655 -0.006477 0.036844 -0.008229
# 6 -0.002543 -0.008094 -0.004461 0.000066 -0.008229 0.043885
#
#
# Mechanical properties :
#
#
# Convention : Reuss Voigt Hill
#
# Bulk Modulus (GPa) = 30.21840 48.37863 39.29852
# Shear Modulus (GPa) = 25.47718 36.48099 30.97909
#
# Velocity S-wave (km/s) = 3.41964 4.09202 3.77085
# Velocity P-wave (km/s) = 5.42790 6.67322 6.08251
#
# Compressibility (1/GPa) = 0.03309242
#
# Stress axis : x y z
#
# Youngs Moduli (GPa) = 33.82944 67.67039 72.57457
#
# Poissons Ratio (x) = 0.22118 0.84012
# Poissons Ratio (y) = 0.11057 -0.16927
# Poissons Ratio (z) = 0.39161 -0.15783
#
# Static dielectric constant tensor:
#      x y z
#    x 1.844870 0.014700 0.059210 
#    y 0.014700 1.851710 0.047260 
#    z 0.059210 0.047260 1.861940 
# 
# From -- ./inp_files/544592.got.cif
#   From: 2010.05.17/outbox.cif.g08.bks.cpg/sg2_273_cif.got.tgz:544592.got - 2010.06.03 11:33:40.
