data_PCOD9057008
_publ_section_title
;
Structure prediction by ZEFSAII (Michael W. Deem and Ramdas Pophale) SiO2 
 PCOD9057008
Probable space group: P -1
;
_chemical_formula_sum "Si O2"
_cell_formula_units_Z 14
_cell_length_a 8.847735
_cell_length_b 12.784582
_cell_length_c 9.560170
_cell_angle_alpha 48.785939
_cell_angle_beta 112.498189
_cell_angle_gamma 126.352152
_cell_volume 655.114509
_symmetry_space_group_name_H-M "P -1"
_symmetry_group_IT_number 2
_symmetry_cell_setting 'triclinic'
loop_
_space_group_symop_operation_xyz
x,y,z
-x,-y,-z
loop_
_atom_site_type_symbol
_atom_site_label
_atom_site_fract_x
_atom_site_fract_y
_atom_site_fract_z
Si Si1 0.827947 0.043790 0.240834
Si Si2 0.513801 0.174991 0.365139
Si Si3 0.141990 0.493926 0.172801
Si Si4 0.866511 0.070762 0.923187
Si Si5 0.096097 0.649609 0.506518
Si Si6 0.557162 0.173153 0.066294
Si Si7 0.792762 0.778580 0.620120
O O1 0.646991 0.057248 0.203552
O O2 0.991485 0.137163 0.327853
O O3 0.785243 0.862058 0.399057
O O4 0.903206 0.127612 0.045771
O O5 0.689410 0.288302 0.424912
O O6 0.551793 0.233550 0.166989
O O7 0.331520 0.178907 0.356379
O O8 0.500000 0.000000 0.500000
O O9 0.254007 0.402665 0.244359
O O10 0.022004 0.400086 0.348065
O O11 0.298156 0.674065 0.104265
O O12 0.000000 0.500000 0.000000
O O13 0.896787 0.202423 0.704391
O O14 0.651842 0.930008 0.970498
O O15 0.000000 0.000000 0.000000
O O16 0.000000 0.500000 0.500000
#
# Coordination Sequence:
#
# PCOD9057008 Si02
#       7
#     2   2   2   2   2   2   2
#     4  11  22  41  68 102 136 184 242 289 354 422
#     4  12  23  45  72 105 138 188 244 291 352 426
#     4  12  25  46  69 105 143 186 235 294 354 424
#     4  12  26  43  69 103 142 185 239 293 357 427
#     4  12  27  47  72 103 149 186 233 303 361 412
#     4  12  24  44  72  98 143 188 238 292 353 430
#     4  11  24  40  74 102 138 187 240 292 351 429
#
# _framework density 21.370308999999999
#
# number of rings (size 3 to 8) (size 9 to 14) (size 15 to 20)
#    0.000    0.286    5.714    3.000    2.000    2.857 
#    0.000    2.143    0.000    0.000    0.000    0.000 
#    0.000    0.000    0.000    0.000    0.000    0.000 
#
# Total GULP energy -78243.055854 kJ/mol
# GULP energy per Si atom -5588.789704 kJ/mol
# Density = 2.132167 g / cm^3
# Si number density = 21.370309 Si / 1000 Ang^3
#
#
#
# Elastic Constant Matrix: (Units=GPa)
#
#
# Indices 1 2 3 4 5 6 
#
# 1 122.4231 14.6515 24.3654 -6.2041 13.4111 -0.3252
# 2 14.6515 71.9004 9.2237 -11.9791 14.0217 10.8466
# 3 24.3654 9.2237 119.7430 -7.2738 -8.1174 -3.5168
# 4 -6.2041 -11.9791 -7.2738 36.7157 -6.2304 -4.6319
# 5 13.4111 14.0217 -8.1174 -6.2304 40.8909 1.1733
# 6 -0.3252 10.8466 -3.5168 -4.6319 1.1733 40.3455
#
#
#
# Elastic Compliance Matrix: (Units=1/GPa)
#
#
# Indices 1 2 3 4 5 6 
#
# 1 0.009013 -0.001001 -0.001927 0.000352 -0.002950 0.000300
# 2 -0.001001 0.016435 -0.001293 0.003603 -0.004901 -0.003983
# 3 -0.001927 -0.001293 0.009199 0.001764 0.003134 0.001245
# 4 0.000352 0.003603 0.001764 0.029723 0.003456 0.002500
# 5 -0.002950 -0.004901 0.003134 0.003456 0.028219 0.001143
# 6 0.000300 -0.003983 0.001245 0.002500 0.001143 0.026221
#
#
# Mechanical properties :
#
#
# Convention : Reuss Voigt Hill
#
# Bulk Modulus (GPa) = 38.15804 45.61642 41.88723
# Shear Modulus (GPa) = 36.76828 41.31216 39.04022
#
# Velocity S-wave (km/s) = 4.15243 4.40154 4.27880
# Velocity P-wave (km/s) = 6.39411 6.87193 6.63732
#
# Compressibility (1/GPa) = 0.02620680
#
# Stress axis : x y z
#
# Youngs Moduli (GPa) = 110.94473 60.84692 108.70670
#
# Poissons Ratio (x) = 0.06089 0.20946
# Poissons Ratio (y) = 0.11103 0.14052
# Poissons Ratio (z) = 0.21377 0.07865
#
# Static dielectric constant tensor:
#      x y z
#    x 1.840490 -0.190170 -0.041970 
#    y -0.190170 2.272110 -0.008650 
#    z -0.041970 -0.008650 1.834500 
# 
# From -- ./inp_files/157712.got.cif
#   From: 2010.05.17/outbox.cif.g08.bks.cpg/sg2_79_cif.got.tgz:157712.got - 2010.06.03 11:33:40.
