data_PCOD9057011
_publ_section_title
;
Structure prediction by ZEFSAII (Michael W. Deem and Ramdas Pophale) SiO2 
 PCOD9057011
Probable space group: P -1
;
_chemical_formula_sum "Si O2"
_cell_formula_units_Z 16
_cell_length_a 8.679608
_cell_length_b 18.758687
_cell_length_c 5.611457
_cell_angle_alpha 47.358066
_cell_angle_beta 70.906424
_cell_angle_gamma 67.291647
_cell_volume 617.077255
_symmetry_space_group_name_H-M "P -1"
_symmetry_group_IT_number 2
_symmetry_cell_setting 'triclinic'
loop_
_space_group_symop_operation_xyz
x,y,z
-x,-y,-z
loop_
_atom_site_type_symbol
_atom_site_label
_atom_site_fract_x
_atom_site_fract_y
_atom_site_fract_z
Si Si1 0.684173 0.151336 0.731181
Si Si2 0.725688 0.657963 0.279614
Si Si3 0.090892 0.757749 0.289759
Si Si4 0.235836 0.067221 0.878541
Si Si5 0.437184 0.429794 0.016472
Si Si6 0.878025 0.470687 0.323941
Si Si7 0.643430 0.874421 0.820334
Si Si8 0.595269 0.255822 0.095961
O O1 0.788216 0.233143 0.563099
O O2 0.566515 0.185410 0.483880
O O3 0.547509 0.140282 0.027748
O O4 0.800782 0.042204 0.879731
O O5 0.662636 0.633949 0.625145
O O6 0.853129 0.557719 0.347527
O O7 0.772598 0.764625 0.019798
O O8 0.566673 0.691188 0.102664
O O9 0.071733 0.650550 0.446857
O O10 0.921466 0.838703 0.237249
O O11 0.215648 0.793063 0.963530
O O12 0.328484 0.081791 0.549935
O O13 0.328139 0.067114 0.087934
O O14 0.601799 0.359495 0.985114
O O15 0.500000 0.500000 0.000000
O O16 0.310333 0.499289 0.748553
O O17 0.000000 0.500000 0.000000
#
# Coordination Sequence:
#
# PCOD9057011 Si02
#       8
#     2   2   2   2   2   2   2   2
#     4  12  26  48  80 108 146 204 256 317 375 458
#     4  11  23  43  72 105 143 194 248 308 371 454
#     4  12  27  48  73 109 153 202 252 314 380 457
#     4  12  31  49  78 113 157 200 257 319 388 445
#     4  11  22  41  68 103 140 190 252 307 368 450
#     4  11  26  44  69 105 153 195 248 305 391 452
#     4  12  26  51  77 113 153 201 255 318 382 455
#     4  11  22  42  74 104 146 188 259 309 374 443
#
# _framework density 25.928681000000001
#
# number of rings (size 3 to 8) (size 9 to 14) (size 15 to 20)
#    0.000    0.500    2.500    4.875    7.000    3.000 
#    2.250    0.000    0.000    0.000    0.000    0.000 
#    0.000    0.000    0.000    0.000    0.000    0.000 
#
# Total GULP energy -89201.809724 kJ/mol
# GULP energy per Si atom -5575.113108 kJ/mol
# Density = 2.586967 g / cm^3
# Si number density = 25.928681 Si / 1000 Ang^3
#
#
#
# Elastic Constant Matrix: (Units=GPa)
#
#
# Indices 1 2 3 4 5 6 
#
# 1 38.8591 16.2793 7.3898 -4.4205 4.2799 -11.4868
# 2 16.2793 153.1510 43.3417 -21.2716 1.7350 -15.6478
# 3 7.3898 43.3417 113.6189 -5.0014 8.3539 -15.1144
# 4 -4.4205 -21.2716 -5.0014 50.9068 -6.0944 -3.8740
# 5 4.2799 1.7350 8.3539 -6.0944 32.6924 -6.5817
# 6 -11.4868 -15.6478 -15.1144 -3.8740 -6.5817 46.7684
#
#
#
# Elastic Compliance Matrix: (Units=1/GPa)
#
#
# Indices 1 2 3 4 5 6 
#
# 1 0.028920 -0.002160 0.000007 0.001836 -0.002074 0.006243
# 2 -0.002160 0.008143 -0.002693 0.003269 0.001512 0.001807
# 3 0.000007 -0.002693 0.010252 -0.000208 -0.002093 0.002102
# 4 0.001836 0.003269 -0.000208 0.021991 0.004531 0.003937
# 5 -0.002074 0.001512 -0.002093 0.004531 0.033034 0.004344
# 6 0.006243 0.001807 0.002102 0.003937 0.004344 0.025137
#
#
# Mechanical properties :
#
#
# Convention : Reuss Voigt Hill
#
# Bulk Modulus (GPa) = 26.57855 48.85009 37.71432
# Shear Modulus (GPa) = 33.39820 41.98141 37.68980
#
# Velocity S-wave (km/s) = 3.59288 4.02818 3.81674
# Velocity P-wave (km/s) = 5.24257 6.36522 5.83098
#
# Compressibility (1/GPa) = 0.03762433
#
# Stress axis : x y z
#
# Youngs Moduli (GPa) = 34.57793 122.81107 97.53774
#
# Poissons Ratio (x) = 0.26522 -0.00065
# Poissons Ratio (y) = 0.07467 0.26262
# Poissons Ratio (z) = -0.00023 0.33067
#
# Static dielectric constant tensor:
#      x y z
#    x 2.164180 0.262110 0.118920 
#    y 0.262110 2.385370 0.157480 
#    z 0.118920 0.157480 2.061430 
# 
# From -- ./inp_files/82951.got.cif
#   From: 2010.05.17/outbox.cif.g08.bks.cpg/sg2_42_cif.got.tgz:82951.got - 2010.06.03 11:33:40.
