data_PCOD9057013
_publ_section_title
;
Structure prediction by ZEFSAII (Michael W. Deem and Ramdas Pophale) SiO2 
 PCOD9057013
Probable space group: P -1
;
_chemical_formula_sum "Si O2"
_cell_formula_units_Z 15
_cell_length_a 14.295418
_cell_length_b 14.392703
_cell_length_c 8.648728
_cell_angle_alpha 81.021300
_cell_angle_beta 51.042337
_cell_angle_gamma 40.357336
_cell_volume 687.335368
_symmetry_space_group_name_H-M "P -1"
_symmetry_group_IT_number 2
_symmetry_cell_setting 'triclinic'
loop_
_space_group_symop_operation_xyz
x,y,z
-x,-y,-z
loop_
_atom_site_type_symbol
_atom_site_label
_atom_site_fract_x
_atom_site_fract_y
_atom_site_fract_z
Si Si1 0.989890 0.767595 0.663441
Si Si2 0.749875 0.636740 0.795694
Si Si3 0.899832 0.222558 0.119392
Si Si4 0.717797 0.129747 0.358241
Si Si5 0.529140 0.674622 0.747270
Si Si6 0.500000 0.000000 0.000000
Si Si7 0.394023 0.427472 0.849277
Si Si8 0.201849 0.792549 0.280704
O O1 0.994290 0.816082 0.815087
O O2 0.216320 0.545023 0.489370
O O3 0.069541 0.783866 0.438276
O O4 0.740427 0.889472 0.851294
O O5 0.571971 0.721048 0.824004
O O6 0.000000 0.500000 0.500000
O O7 0.626205 0.810878 0.951731
O O8 0.792464 0.513091 0.883986
O O9 0.809104 0.176904 0.250824
O O10 0.712040 0.426906 0.200534
O O11 0.082470 0.082930 0.823566
O O12 0.556194 0.227386 0.350227
O O13 0.560791 0.235981 0.645342
O O14 0.319737 0.746841 0.010188
O O15 0.568393 0.363186 0.803238
O O16 0.000000 0.000000 0.500000
#
# Coordination Sequence:
#
# PCOD9057013 Si02
#       8
#     2   2   2   2   2   1   2   2
#     4  12  22  43  68 100 139 184 231 285 342 412
#     4  11  25  48  67 100 134 181 234 286 335 412
#     4  11  23  40  68 102 146 177 225 283 350 414
#     4  11  22  41  68 104 142 179 219 283 358 413
#     4  11  23  42  71 100 137 176 230 293 346 406
#     4  12  26  46  72  92 140 188 228 284 340 404
#     4  11  23  43  70 103 139 177 229 285 351 409
#     4  11  23  40  64 106 139 174 231 291 345 411
#
# _framework density 21.823407
#
# number of rings (size 3 to 8) (size 9 to 14) (size 15 to 20)
#    0.000    0.800    4.000    4.800    1.867    2.133 
#    0.000    2.667    0.000    3.200    0.000    0.000 
#    0.000    0.000    0.000    0.000    0.000    0.000 
#
# Total GULP energy -83534.790269 kJ/mol
# GULP energy per Si atom -5568.986018 kJ/mol
# Density = 2.177374 g / cm^3
# Si number density = 21.823407 Si / 1000 Ang^3
#
#
#
# Elastic Constant Matrix: (Units=GPa)
#
#
# Indices 1 2 3 4 5 6 
#
# 1 86.4886 22.3423 27.2316 -9.3674 -26.0561 11.7809
# 2 22.3423 67.1680 16.1280 15.4885 -16.5903 7.7525
# 3 27.2316 16.1280 76.3812 8.1180 -7.8005 5.8846
# 4 -9.3674 15.4885 8.1180 36.3256 3.8315 3.7662
# 5 -26.0561 -16.5903 -7.8005 3.8315 29.4802 6.9912
# 6 11.7809 7.7525 5.8846 3.7662 6.9912 32.6649
#
#
#
# Elastic Compliance Matrix: (Units=1/GPa)
#
#
# Indices 1 2 3 4 5 6 
#
# 1 0.021389 -0.001526 -0.005261 0.006549 0.018436 -0.011105
# 2 -0.001526 0.022151 -0.001159 -0.010372 0.013633 -0.006220
# 3 -0.005261 -0.001159 0.015607 -0.004284 -0.000613 -0.000014
# 4 0.006549 -0.010372 -0.004284 0.035370 -0.005287 -0.002075
# 5 0.018436 0.013633 -0.000613 -0.005287 0.063827 -0.022826
# 6 -0.011105 -0.006220 -0.000014 -0.002075 -0.022826 0.041222
#
#
# Mechanical properties :
#
#
# Convention : Reuss Voigt Hill
#
# Bulk Modulus (GPa) = 23.11929 40.16019 31.63974
# Shear Modulus (GPa) = 21.75074 30.64988 26.20031
#
# Velocity S-wave (km/s) = 3.16043 3.75166 3.46867
# Velocity P-wave (km/s) = 4.89230 6.09991 5.52917
#
# Compressibility (1/GPa) = 0.04325393
#
# Stress axis : x y z
#
# Youngs Moduli (GPa) = 46.75244 45.14444 64.07578
#
# Poissons Ratio (x) = 0.06890 0.33711
# Poissons Ratio (y) = 0.07135 0.07428
# Poissons Ratio (z) = 0.24597 0.05233
#
# Static dielectric constant tensor:
#      x y z
#    x 1.789350 0.010080 0.029880 
#    y 0.010080 1.816710 0.023460 
#    z 0.029880 0.023460 1.884400 
# 
# From -- ./inp_files/315049.got.cif
#   From: 2010.05.17/outbox.cif.g08.bks.cpg/sg2_158_cif.got.tgz:315049.got - 2010.06.03 11:33:40.
