data_PCOD9057983
_publ_section_title
;
Structure prediction by ZEFSAII (Michael W. Deem and Ramdas Pophale) SiO2 
 PCOD9057983
Probable space group: P -1
;
_chemical_formula_sum "Si O2"
_cell_formula_units_Z 16
_cell_length_a 15.945844
_cell_length_b 15.356538
_cell_length_c 8.817280
_cell_angle_alpha 78.987316
_cell_angle_beta 64.280049
_cell_angle_gamma 25.703886
_cell_volume 724.780156
_symmetry_space_group_name_H-M "P -1"
_symmetry_group_IT_number 2
_symmetry_cell_setting 'triclinic'
loop_
_space_group_symop_operation_xyz
x,y,z
-x,-y,-z
loop_
_atom_site_type_symbol
_atom_site_label
_atom_site_fract_x
_atom_site_fract_y
_atom_site_fract_z
Si Si1 0.962603 0.272106 0.125073
Si Si2 0.374392 0.011702 0.703106
Si Si3 0.443823 0.786743 0.372754
Si Si4 0.434327 0.395950 0.329675
Si Si5 0.887663 0.461550 0.422639
Si Si6 0.937132 0.143647 0.584654
Si Si7 0.114278 0.939307 0.083016
Si Si8 0.352281 0.072099 0.368862
O O1 0.687744 0.531179 0.190465
O O2 0.952283 0.348382 0.255788
O O3 0.986688 0.144200 0.171569
O O4 0.189576 0.106647 0.898616
O O5 0.646348 0.737140 0.526362
O O6 0.257343 0.147444 0.592163
O O7 0.439649 0.036269 0.753184
O O8 0.455946 0.743245 0.555726
O O9 0.449188 0.888115 0.317390
O O10 0.184306 0.983052 0.449759
O O11 0.221710 0.519619 0.391120
O O12 0.287723 0.613722 0.405120
O O13 0.624321 0.252442 0.102269
O O14 0.129776 0.290131 0.358573
O O15 0.867777 0.164035 0.794284
O O16 0.000000 0.000000 0.500000
O O17 0.000000 0.000000 0.000000
#
# Coordination Sequence:
#
# PCOD9057983 Si02
#       8
#     2   2   2   2   2   2   2   2
#     4  11  25  45  71  97 139 180 220 284 337 397
#     4  11  24  47  69 101 139 176 225 276 340 406
#     4  11  23  44  66  97 138 174 220 281 335 391
#     4  11  22  44  67  91 138 173 219 279 328 395
#     4  11  22  46  70  98 139 176 222 282 337 396
#     4  12  26  42  68  99 131 180 226 276 337 398
#     4  12  25  43  69  99 135 181 228 274 338 402
#     4  11  23  44  73 100 136 181 220 280 340 401
#
# _framework density 22.075659999999999
#
# number of rings (size 3 to 8) (size 9 to 14) (size 15 to 20)
#    0.000    0.750    6.250    2.250    1.750    2.000 
#    4.500    0.000    0.000    0.000    0.000    0.000 
#    0.000    0.000    0.000    0.000    0.000    0.000 
#
# Total GULP energy -89106.707184 kJ/mol
# GULP energy per Si atom -5569.169199 kJ/mol
# Density = 2.202541 g / cm^3
# Si number density = 22.075660 Si / 1000 Ang^3
#
#
#
# Elastic Constant Matrix: (Units=GPa)
#
#
# Indices 1 2 3 4 5 6 
#
# 1 72.3174 10.5742 16.3304 8.0485 1.2750 18.4262
# 2 10.5742 75.7687 19.7663 19.4060 9.4772 10.9987
# 3 16.3304 19.7663 69.0993 15.1767 -5.9148 0.5235
# 4 8.0485 19.4060 15.1767 28.5091 4.1475 6.7057
# 5 1.2750 9.4772 -5.9148 4.1475 31.2832 -1.0815
# 6 18.4262 10.9987 0.5235 6.7057 -1.0815 37.0106
#
#
#
# Elastic Compliance Matrix: (Units=1/GPa)
#
#
# Indices 1 2 3 4 5 6 
#
# 1 0.016937 0.000280 -0.004039 -0.000591 -0.001751 -0.008402
# 2 0.000280 0.017440 -0.003612 -0.008383 -0.005001 -0.003898
# 3 -0.004039 -0.003612 0.018777 -0.008340 0.006071 0.004507
# 4 -0.000591 -0.008383 -0.008340 0.047575 -0.005524 -0.005878
# 5 -0.001751 -0.005001 0.006071 -0.005524 0.035582 0.004313
# 6 -0.008402 -0.003898 0.004507 -0.005878 0.004313 0.033488
#
#
# Mechanical properties :
#
#
# Convention : Reuss Voigt Hill
#
# Bulk Modulus (GPa) = 26.03454 34.50302 30.26878
# Shear Modulus (GPa) = 25.33627 30.72821 28.03224
#
# Velocity S-wave (km/s) = 3.39145 3.73493 3.56733
# Velocity P-wave (km/s) = 5.21103 5.85346 5.54156
#
# Compressibility (1/GPa) = 0.03841051
#
# Stress axis : x y z
#
# Youngs Moduli (GPa) = 59.04367 57.34007 53.25621
#
# Poissons Ratio (x) = -0.01606 0.21512
# Poissons Ratio (y) = -0.01654 0.19238
# Poissons Ratio (z) = 0.23849 0.20713
#
# Static dielectric constant tensor:
#      x y z
#    x 1.744830 0.158950 0.068750 
#    y 0.158950 1.728870 0.033900 
#    z 0.068750 0.033900 1.736860 
# 
# From -- ./inp_files/315229.got.cif
#   From: 2010.05.17/outbox.cif.g08.bks.cpg/sg2_158_cif.got.tgz:315229.got - 2010.06.03 11:33:40.
