data_PCOD9057172
_publ_section_title
;
Structure prediction by ZEFSAII (Michael W. Deem and Ramdas Pophale) SiO2 
 PCOD9057172
Probable space group: P -1
;
_chemical_formula_sum "Si O2"
_cell_formula_units_Z 14
_cell_length_a 8.690452
_cell_length_b 18.627667
_cell_length_c 12.417214
_cell_angle_alpha 150.821065
_cell_angle_beta 48.321876
_cell_angle_gamma 138.443199
_cell_volume 649.688306
_symmetry_space_group_name_H-M "P -1"
_symmetry_group_IT_number 2
_symmetry_cell_setting 'triclinic'
loop_
_space_group_symop_operation_xyz
x,y,z
-x,-y,-z
loop_
_atom_site_type_symbol
_atom_site_label
_atom_site_fract_x
_atom_site_fract_y
_atom_site_fract_z
Si Si1 0.420432 0.638937 0.192663
Si Si2 0.712813 0.826142 0.098536
Si Si3 0.907063 0.561481 0.357130
Si Si4 0.859911 0.838503 0.632838
Si Si5 0.493848 0.803169 0.936739
Si Si6 0.956188 0.317544 0.313946
Si Si7 0.560037 0.881043 0.648951
O O1 0.530833 0.733941 0.155759
O O2 0.506631 0.774989 0.426072
O O3 0.141975 0.554746 0.208982
O O4 0.500000 0.500000 0.000000
O O5 0.590212 0.805066 0.013451
O O6 0.875722 0.021078 0.297326
O O7 0.889476 0.745664 0.906294
O O8 0.842556 0.658539 0.423501
O O9 0.697734 0.382492 0.243238
O O10 0.968046 0.670969 0.581281
O O11 0.705750 0.859114 0.827338
O O12 0.752074 0.860790 0.601870
O O13 0.386462 0.930760 0.149192
O O14 0.682918 0.199872 0.278133
O O15 0.000000 0.500000 0.500000
#
# Coordination Sequence:
#
# PCOD9057172 Si02
#       7
#     2   2   2   2   2   2   2
#     4  11  28  50  70 101 142 188 235 282 350 419
#     4  12  25  44  72  99 143 186 231 291 342 417
#     4  11  26  45  72 102 143 182 233 286 347 415
#     4  12  25  44  74 110 138 180 237 289 349 409
#     4  12  25  44  74 110 138 180 237 289 349 409
#     4  11  22  41  72 102 137 182 232 291 348 398
#     4  11  26  45  72 102 143 182 233 286 347 415
#
# _framework density 21.548794999999998
#
# number of rings (size 3 to 8) (size 9 to 14) (size 15 to 20)
#    0.000    0.571    2.857    5.571    8.000    3.429 
#    0.000    0.000    0.000    0.000    0.000    0.000 
#    0.000    0.000    0.000    0.000    0.000    0.000 
#
# Total GULP energy -78434.366312 kJ/mol
# GULP energy per Si atom -5602.454737 kJ/mol
# Density = 2.149975 g / cm^3
# Si number density = 21.548795 Si / 1000 Ang^3
#
#
#
# Elastic Constant Matrix: (Units=GPa)
#
#
# Indices 1 2 3 4 5 6 
#
# 1 76.1341 -8.6110 1.7771 -0.6838 -1.8610 -6.6294
# 2 -8.6110 71.9169 -9.8776 5.2901 8.5302 2.2778
# 3 1.7771 -9.8776 41.3815 13.4035 -22.6102 -5.9058
# 4 -0.6838 5.2901 13.4035 35.1435 -6.2900 -4.1805
# 5 -1.8610 8.5302 -22.6102 -6.2900 40.3177 9.4522
# 6 -6.6294 2.2778 -5.9058 -4.1805 9.4522 28.4959
#
#
#
# Elastic Compliance Matrix: (Units=1/GPa)
#
#
# Indices 1 2 3 4 5 6 
#
# 1 0.013584 0.001533 -0.000140 0.000386 -0.000471 0.003221
# 2 0.001533 0.015120 0.004040 -0.004065 -0.001468 -0.000124
# 3 -0.000140 0.004040 0.039794 -0.012325 0.019633 -0.000429
# 4 0.000386 -0.004065 -0.012325 0.033899 -0.001529 0.003341
# 5 -0.000471 -0.001468 0.019633 -0.001529 0.037908 -0.008722
# 6 0.003221 -0.000124 -0.000429 0.003341 -0.008722 0.039147
#
#
# Mechanical properties :
#
#
# Convention : Reuss Voigt Hill
#
# Bulk Modulus (GPa) = 12.60020 17.33440 14.96730
# Shear Modulus (GPa) = 25.63577 34.53434 30.08506
#
# Velocity S-wave (km/s) = 3.45289 4.00761 3.74054
# Velocity P-wave (km/s) = 4.66439 5.42920 5.06127
#
# Compressibility (1/GPa) = 0.07936381
#
# Stress axis : x y z
#
# Youngs Moduli (GPa) = 73.61711 66.13601 25.12956
#
# Poissons Ratio (x) = -0.10136 0.00352
# Poissons Ratio (y) = -0.11283 -0.10153
# Poissons Ratio (z) = 0.01031 -0.26721
#
# Static dielectric constant tensor:
#      x y z
#    x 1.773440 -0.008910 0.000820 
#    y -0.008910 1.743860 -0.002070 
#    z 0.000820 -0.002070 1.775330 
# 
# From -- ./inp_files/156686.got.cif
#   From: 2010.05.17/outbox.cif.g08.bks.cpg/sg2_79_cif.got.tgz:156686.got - 2010.06.03 11:33:40.
