data_PCOD9057426
_publ_section_title
;
Structure prediction by ZEFSAII (Michael W. Deem and Ramdas Pophale) SiO2 
 PCOD9057426
Probable space group: P -1
;
_chemical_formula_sum "Si O2"
_cell_formula_units_Z 14
_cell_length_a 12.805443
_cell_length_b 10.722427
_cell_length_c 8.413283
_cell_angle_alpha 124.824326
_cell_angle_beta 110.340800
_cell_angle_gamma 36.771924
_cell_volume 553.323732
_symmetry_space_group_name_H-M "P -1"
_symmetry_group_IT_number 2
_symmetry_cell_setting 'triclinic'
loop_
_space_group_symop_operation_xyz
x,y,z
-x,-y,-z
loop_
_atom_site_type_symbol
_atom_site_label
_atom_site_fract_x
_atom_site_fract_y
_atom_site_fract_z
Si Si1 0.457045 0.792642 0.909667
Si Si2 0.912660 0.901392 0.191073
Si Si3 0.259380 0.704633 0.109929
Si Si4 0.734555 0.495057 0.323325
Si Si5 0.047891 0.168462 0.471402
Si Si6 0.104968 0.441069 0.790655
Si Si7 0.504479 0.940729 0.736818
O O1 0.602364 0.526245 0.868797
O O2 0.534272 0.803973 0.807836
O O3 0.285595 0.883277 0.826313
O O4 0.409161 0.984427 0.142188
O O5 0.916010 0.923927 0.397246
O O6 0.065187 0.839964 0.146462
O O7 0.978913 0.660189 0.008354
O O8 0.213720 0.928998 0.279403
O O9 0.311921 0.595061 0.881956
O O10 0.852552 0.482069 0.267766
O O11 0.573058 0.768709 0.501098
O O12 0.859499 0.316775 0.406756
O O13 0.032909 0.365218 0.620472
O O14 0.294787 0.197843 0.793654
#
# Coordination Sequence:
#
# PCOD9057426 Si02
#       7
#     2   2   2   2   2   2   2
#     4  11  23  42  73  99 134 169 224 279 329 389
#     4  11  23  44  72 100 129 173 225 276 331 386
#     4  11  26  47  64 100 139 175 219 270 334 401
#     4  11  24  43  68  92 138 179 220 270 329 390
#     4  12  24  43  68  98 136 174 221 273 333 395
#     4  11  23  43  68 102 131 170 229 273 329 390
#     4  11  22  42  70 102 132 169 226 281 323 385
#
# _framework density 25.301644
#
# number of rings (size 3 to 8) (size 9 to 14) (size 15 to 20)
#    0.000    0.857    4.286    3.857    2.000    1.714 
#    2.571    0.714    0.000    0.000    0.000    0.000 
#    0.000    0.000    0.000    0.000    0.000    0.000 
#
# Total GULP energy -78455.728230 kJ/mol
# GULP energy per Si atom -5603.980588 kJ/mol
# Density = 2.524406 g / cm^3
# Si number density = 25.301644 Si / 1000 Ang^3
#
#
#
# Elastic Constant Matrix: (Units=GPa)
#
#
# Indices 1 2 3 4 5 6 
#
# 1 63.8782 8.7325 1.2721 0.1318 5.0923 0.5988
# 2 8.7325 131.8504 35.8973 1.6428 11.8602 -16.4202
# 3 1.2721 35.8973 154.4219 10.4662 -2.0877 -0.7100
# 4 0.1318 1.6428 10.4662 34.1314 3.3854 4.5964
# 5 5.0923 11.8602 -2.0877 3.3854 19.7183 4.3930
# 6 0.5988 -16.4202 -0.7100 4.5964 4.3930 24.1133
#
#
#
# Elastic Compliance Matrix: (Units=1/GPa)
#
#
# Indices 1 2 3 4 5 6 
#
# 1 0.016056 -0.000769 -0.000031 0.000394 -0.003682 -0.000328
# 2 -0.000769 0.010021 -0.002387 -0.000071 -0.007902 0.008226
# 3 -0.000031 -0.002387 0.007211 -0.002180 0.002923 -0.001530
# 4 0.000394 -0.000071 -0.002180 0.031118 -0.004465 -0.005241
# 5 -0.003682 -0.007902 0.002923 -0.004465 0.060937 -0.015454
# 6 -0.000328 0.008226 -0.001530 -0.005241 -0.015454 0.050850
#
#
# Mechanical properties :
#
#
# Convention : Reuss Voigt Hill
#
# Bulk Modulus (GPa) = 37.15743 49.10602 43.13172
# Shear Modulus (GPa) = 26.10404 35.87587 30.98995
#
# Velocity S-wave (km/s) = 3.21551 3.76962 3.50354
# Velocity P-wave (km/s) = 5.33889 6.19654 5.78363
#
# Compressibility (1/GPa) = 0.02691252
#
# Stress axis : x y z
#
# Youngs Moduli (GPa) = 62.28061 99.78549 138.67201
#
# Poissons Ratio (x) = 0.07678 0.00435
# Poissons Ratio (y) = 0.04792 0.33107
# Poissons Ratio (z) = 0.00195 0.23823
#
# Static dielectric constant tensor:
#      x y z
#    x 2.067950 0.026190 0.063950 
#    y 0.026190 1.950310 -0.010730 
#    z 0.063950 -0.010730 2.048410 
# 
# From -- ./inp_files/255947.got.cif
#   From: 2010.05.17/outbox.cif.g08.bks.cpg/sg2_128_cif.got.tgz:255947.got - 2010.06.03 11:33:40.
