data_PCOD9057106
_publ_section_title
;
Structure prediction by ZEFSAII (Michael W. Deem and Ramdas Pophale) SiO2 
 PCOD9057106
Probable space group: P -1
;
_chemical_formula_sum "Si O2"
_cell_formula_units_Z 16
_cell_length_a 9.183337
_cell_length_b 13.103548
_cell_length_c 9.968139
_cell_angle_alpha 87.183001
_cell_angle_beta 56.691636
_cell_angle_gamma 59.550245
_cell_volume 819.318631
_symmetry_space_group_name_H-M "P -1"
_symmetry_group_IT_number 2
_symmetry_cell_setting 'triclinic'
loop_
_space_group_symop_operation_xyz
x,y,z
-x,-y,-z
loop_
_atom_site_type_symbol
_atom_site_label
_atom_site_fract_x
_atom_site_fract_y
_atom_site_fract_z
Si Si1 0.676419 0.447887 0.226200
Si Si2 0.481641 0.323844 0.187029
Si Si3 0.822085 0.437204 0.862654
Si Si4 0.210089 0.866688 0.438965
Si Si5 0.206245 0.651670 0.545313
Si Si6 0.289086 0.032362 0.533136
Si Si7 0.814959 0.196319 0.834698
Si Si8 0.133785 0.300228 0.497568
O O1 0.602929 0.359803 0.222424
O O2 0.451857 0.571554 0.377372
O O3 0.812382 0.392217 0.296342
O O4 0.787673 0.460101 0.038395
O O5 0.344902 0.437321 0.142247
O O6 0.319096 0.307177 0.347079
O O7 0.663225 0.201006 0.023499
O O8 0.788826 0.327485 0.856589
O O9 0.049212 0.373512 0.677555
O O10 0.150104 0.790426 0.565180
O O11 0.275961 0.801903 0.265007
O O12 0.348596 0.906852 0.436747
O O13 0.000000 0.000000 0.500000
O O14 0.064597 0.639171 0.509322
O O15 0.211917 0.156660 0.478658
O O16 0.067186 0.086231 0.723397
O O17 0.500000 0.000000 0.500000
#
# Coordination Sequence:
#
# PCOD9057106 Si02
#       8
#     2   2   2   2   2   2   2   2
#     4  10  22  34  61  89 124 157 193 240 296 364
#     4  11  20  35  61  89 118 158 194 243 292 354
#     4  10  18  36  61  86 118 158 194 231 295 362
#     4  10  17  36  65  81 112 163 195 239 299 349
#     4  11  20  37  57  94 121 154 199 242 296 357
#     4  10  22  38  61  86 114 153 204 250 294 348
#     4   9  18  36  60  86 112 155 202 226 299 357
#     4  11  22  37  60  87 119 153 205 246 293 349
#
# _framework density 19.528421999999999
#
# number of rings (size 3 to 8) (size 9 to 14) (size 15 to 20)
#    0.000    1.750    5.000    2.625    1.750    0.000 
#    0.000    5.625    8.250    0.000    0.000    0.875 
#    0.000    0.000    0.000    0.000    0.000    0.000 
#
# Total GULP energy -89138.032240 kJ/mol
# GULP energy per Si atom -5571.127015 kJ/mol
# Density = 1.948397 g / cm^3
# Si number density = 19.528422 Si / 1000 Ang^3
#
#
#
# Elastic Constant Matrix: (Units=GPa)
#
#
# Indices 1 2 3 4 5 6 
#
# 1 65.6771 6.8493 35.3192 -5.3870 -3.3104 -9.6496
# 2 6.8493 29.6216 33.1081 5.8688 1.2477 -4.2586
# 3 35.3192 33.1081 144.8923 -11.6394 -8.6775 -9.1424
# 4 -5.3870 5.8688 -11.6394 18.0447 -0.1551 4.3861
# 5 -3.3104 1.2477 -8.6775 -0.1551 30.1632 -0.6680
# 6 -9.6496 -4.2586 -9.1424 4.3861 -0.6680 17.1329
#
#
#
# Elastic Compliance Matrix: (Units=1/GPa)
#
#
# Indices 1 2 3 4 5 6 
#
# 1 0.018709 0.001694 -0.004335 0.000145 0.000928 0.008644
# 2 0.001694 0.061106 -0.016521 -0.033910 -0.006920 0.015738
# 3 -0.004335 -0.016521 0.012836 0.013097 0.003904 -0.002899
# 4 0.000145 -0.033910 0.013097 0.080258 0.005118 -0.021705
# 5 0.000928 -0.006920 0.003904 0.005118 0.034711 0.000929
# 6 0.008644 0.015738 -0.002899 -0.021705 0.000929 0.071193
#
#
# Mechanical properties :
#
#
# Convention : Reuss Voigt Hill
#
# Bulk Modulus (GPa) = 18.40685 43.41600 30.91143
# Shear Modulus (GPa) = 14.91438 24.06246 19.48842
#
# Velocity S-wave (km/s) = 2.76656 3.51405 3.16246
# Velocity P-wave (km/s) = 4.43297 6.22456 5.40354
#
# Compressibility (1/GPa) = 0.05432759
#
# Stress axis : x y z
#
# Youngs Moduli (GPa) = 53.44915 16.36508 77.90291
#
# Poissons Ratio (x) = -0.02773 0.33772
# Poissons Ratio (y) = -0.09056 1.28705
# Poissons Ratio (z) = 0.23171 0.27037
#
# Static dielectric constant tensor:
#      x y z
#    x 1.715920 0.005360 0.019210 
#    y 0.005360 1.732570 0.023820 
#    z 0.019210 0.023820 1.785030 
# 
# From -- ./inp_files/207269.got.cif
#   From: 2010.05.17/outbox.cif.g08.bks.cpg/sg2_104_cif.got.tgz:207269.got - 2010.06.03 11:33:40.
