data_PCOD9057933
_publ_section_title
;
Structure prediction by ZEFSAII (Michael W. Deem and Ramdas Pophale) SiO2 
 PCOD9057933
Probable space group: P -1
;
_chemical_formula_sum "Si O2"
_cell_formula_units_Z 16
_cell_length_a 17.361901
_cell_length_b 10.324580
_cell_length_c 23.677211
_cell_angle_alpha 143.140355
_cell_angle_beta 17.212096
_cell_angle_gamma 148.527503
_cell_volume 652.768895
_symmetry_space_group_name_H-M "P -1"
_symmetry_group_IT_number 2
_symmetry_cell_setting 'triclinic'
loop_
_space_group_symop_operation_xyz
x,y,z
-x,-y,-z
loop_
_atom_site_type_symbol
_atom_site_label
_atom_site_fract_x
_atom_site_fract_y
_atom_site_fract_z
Si Si1 0.286895 0.740146 0.415827
Si Si2 0.427862 0.476751 0.792799
Si Si3 0.814095 0.259888 0.875052
Si Si4 0.932448 0.173340 0.568891
Si Si5 0.623403 0.817797 0.569160
Si Si6 0.202944 0.392711 0.796974
Si Si7 0.916209 0.825241 0.793843
Si Si8 0.755152 0.489972 0.883903
O O1 0.564557 0.701959 0.226118
O O2 0.000000 0.500000 0.500000
O O3 0.154065 0.769302 0.578156
O O4 0.410270 0.010635 0.394488
O O5 0.384591 0.401815 0.730698
O O6 0.777224 0.688386 0.625117
O O7 0.222372 0.593816 0.995342
O O8 0.844021 0.437401 0.863548
O O9 0.082646 0.199676 0.659889
O O10 0.500000 0.000000 0.000000
O O11 0.858172 0.347561 0.718445
O O12 0.659547 0.990642 0.657971
O O13 0.000000 0.000000 0.500000
O O14 0.601521 0.450735 0.339340
O O15 0.004553 0.106172 0.819939
O O16 0.000000 0.500000 0.000000
O O17 0.885948 0.760466 0.858951
O O18 0.602923 0.645281 0.919349
#
# Coordination Sequence:
#
# PCOD9057933 Si02
#       8
#     2   2   2   2   2   2   2   2
#     4  12  24  46  75 113 144 185 243 315 369 426
#     4  12  25  45  70 105 150 185 240 304 361 427
#     4  12  23  41  75 111 143 180 247 313 362 418
#     4  12  19  39  72 107 134 183 242 304 357 423
#     4  12  25  43  76 106 147 189 246 299 376 429
#     4  12  30  50  72 103 151 204 245 295 368 451
#     4  11  26  45  73 102 149 190 248 304 368 438
#     4  11  22  43  75 107 134 189 252 309 365 428
#
# _framework density 24.510973
#
# number of rings (size 3 to 8) (size 9 to 14) (size 15 to 20)
#    0.000    0.250    6.250    2.250    3.500    4.000 
#    0.000    1.250    0.000    0.000    0.000    0.000 
#    0.000    0.000    0.000    0.000    0.000    0.000 
#
# Total GULP energy -89434.219021 kJ/mol
# GULP energy per Si atom -5589.638689 kJ/mol
# Density = 2.445519 g / cm^3
# Si number density = 24.510973 Si / 1000 Ang^3
#
#
#
# Elastic Constant Matrix: (Units=GPa)
#
#
# Indices 1 2 3 4 5 6 
#
# 1 119.1270 35.4287 9.0633 -3.1819 -6.8488 -33.5973
# 2 35.4287 95.0206 29.0425 -6.7945 8.6899 -40.2158
# 3 9.0633 29.0425 130.3417 11.7592 -3.4987 -14.5117
# 4 -3.1819 -6.7945 11.7592 25.6751 -5.4133 1.2570
# 5 -6.8488 8.6899 -3.4987 -5.4133 38.2600 8.8003
# 6 -33.5973 -40.2158 -14.5117 1.2570 8.8003 45.3315
#
#
#
# Elastic Compliance Matrix: (Units=1/GPa)
#
#
# Indices 1 2 3 4 5 6 
#
# 1 0.010710 -0.001222 0.000235 0.000726 0.000764 0.006761
# 2 -0.001222 0.020631 -0.003105 0.004002 -0.008761 0.017993
# 3 0.000235 -0.003105 0.008814 -0.004661 0.000846 0.000206
# 4 0.000726 0.004002 -0.004661 0.043222 0.004803 0.000466
# 5 0.000764 -0.008761 0.000846 0.004803 0.032079 -0.013296
# 6 0.006761 0.017993 0.000206 0.000466 -0.013296 0.045667
#
#
# Mechanical properties :
#
#
# Convention : Reuss Voigt Hill
#
# Bulk Modulus (GPa) = 31.27738 54.61759 42.94748
# Shear Modulus (GPa) = 27.78337 39.91697 33.85017
#
# Velocity S-wave (km/s) = 3.37041 4.03989 3.72024
# Velocity P-wave (km/s) = 5.28531 6.64020 6.00111
#
# Compressibility (1/GPa) = 0.03197199
#
# Stress axis : x y z
#
# Youngs Moduli (GPa) = 93.37194 48.46977 113.45827
#
# Poissons Ratio (x) = 0.05922 -0.02668
# Poissons Ratio (y) = 0.11407 0.35229
# Poissons Ratio (z) = -0.02196 0.15050
#
# Static dielectric constant tensor:
#      x y z
#    x 2.054030 -0.015350 -0.045100 
#    y -0.015350 1.955080 0.073160 
#    z -0.045100 0.073160 1.822800 
# 
# From -- ./inp_files/499272.got.cif
#   From: 2010.05.17/outbox.cif.g08.bks.cpg/sg2_250_cif.got.tgz:499272.got - 2010.06.03 11:33:40.
