data_PCOD9057893
_publ_section_title
;
Structure prediction by ZEFSAII (Michael W. Deem and Ramdas Pophale) SiO2 
 PCOD9057893
Probable space group: P -1
;
_chemical_formula_sum "Si O2"
_cell_formula_units_Z 16
_cell_length_a 14.972385
_cell_length_b 9.359383
_cell_length_c 8.694911
_cell_angle_alpha 89.333932
_cell_angle_beta 132.804486
_cell_angle_gamma 68.798366
_cell_volume 772.187126
_symmetry_space_group_name_H-M "P -1"
_symmetry_group_IT_number 2
_symmetry_cell_setting 'triclinic'
loop_
_space_group_symop_operation_xyz
x,y,z
-x,-y,-z
loop_
_atom_site_type_symbol
_atom_site_label
_atom_site_fract_x
_atom_site_fract_y
_atom_site_fract_z
Si Si1 0.454823 0.176529 0.012296
Si Si2 0.447525 0.879453 0.518772
Si Si3 0.674149 0.573340 0.615489
Si Si4 0.496922 0.601620 0.141286
Si Si5 0.147212 0.454307 0.749495
Si Si6 0.219181 0.690289 0.992770
Si Si7 0.123435 0.007352 0.052542
Si Si8 0.882529 0.659518 0.947858
O O1 0.527409 0.234555 0.970991
O O2 0.288786 0.320400 0.827334
O O3 0.509733 0.151421 0.252033
O O4 0.500000 0.000000 0.000000
O O5 0.531784 0.701715 0.535764
O O6 0.500000 0.000000 0.500000
O O7 0.282080 0.939948 0.306131
O O8 0.636439 0.529074 0.408709
O O9 0.760948 0.410433 0.823491
O O10 0.749622 0.683755 0.691412
O O11 0.372595 0.627491 0.105341
O O12 0.500000 0.500000 0.000000
O O13 0.000000 0.500000 0.500000
O O14 0.148847 0.621929 0.791146
O O15 0.152490 0.374552 0.922390
O O16 0.147648 0.885057 0.939229
O O17 0.077984 0.199553 0.986113
O O18 0.000000 0.000000 0.000000
O O19 0.000000 0.500000 0.000000
#
# Coordination Sequence:
#
# PCOD9057893 Si02
#       8
#     2   2   2   2   2   2   2   2
#     4  12  27  42  69 111 140 184 245 296 360 427
#     4  12  22  46  76  98 138 192 243 293 346 434
#     4  11  22  43  73  97 134 193 241 283 343 434
#     4  12  24  40  67 105 145 172 230 298 364 409
#     4  11  25  49  69  97 146 194 237 289 363 441
#     4  11  24  45  70 101 139 184 238 290 358 426
#     4  12  26  43  72 110 140 173 247 304 352 413
#     4  11  25  46  74  98 135 190 247 281 359 438
#
# _framework density 20.720365999999999
#
# number of rings (size 3 to 8) (size 9 to 14) (size 15 to 20)
#    0.000    0.500    6.250    2.625    5.250    1.000 
#    2.250    0.625    0.000    0.000    0.000    0.000 
#    0.000    0.000    0.000    0.000    0.000    0.000 
#
# Total GULP energy -89211.290585 kJ/mol
# GULP energy per Si atom -5575.705662 kJ/mol
# Density = 2.067321 g / cm^3
# Si number density = 20.720366 Si / 1000 Ang^3
#
#
#
# Elastic Constant Matrix: (Units=GPa)
#
#
# Indices 1 2 3 4 5 6 
#
# 1 79.2704 27.2323 19.2961 11.9527 18.2364 12.8222
# 2 27.2323 164.7365 30.1148 27.2961 11.3183 2.6210
# 3 19.2961 30.1148 94.5673 34.7258 12.3021 1.0253
# 4 11.9527 27.2961 34.7258 34.4271 1.1868 2.7727
# 5 18.2364 11.3183 12.3021 1.1868 31.9898 1.0241
# 6 12.8222 2.6210 1.0253 2.7727 1.0241 47.2970
#
#
#
# Elastic Compliance Matrix: (Units=1/GPa)
#
#
# Indices 1 2 3 4 5 6 
#
# 1 0.016293 -0.001395 -0.000480 -0.003461 -0.008356 -0.003946
# 2 -0.001395 0.007277 0.000172 -0.005429 -0.001655 0.000325
# 3 -0.000480 0.000172 0.018006 -0.017997 -0.006074 0.000917
# 4 -0.003461 -0.005429 -0.017997 0.052531 0.008918 -0.001643
# 5 -0.008356 -0.001655 -0.006074 0.008918 0.038577 0.001130
# 6 -0.003946 0.000325 0.000917 -0.001643 0.001130 0.022247
#
#
# Mechanical properties :
#
#
# Convention : Reuss Voigt Hill
#
# Bulk Modulus (GPa) = 26.19732 54.65116 40.42424
# Shear Modulus (GPa) = 29.22926 40.20484 34.71705
#
# Velocity S-wave (km/s) = 3.75994 4.40972 4.09773
# Velocity P-wave (km/s) = 5.61429 7.23605 6.47614
#
# Compressibility (1/GPa) = 0.03817185
#
# Stress axis : x y z
#
# Youngs Moduli (GPa) = 61.37425 137.41030 55.53600
#
# Poissons Ratio (x) = 0.19175 0.02664
# Poissons Ratio (y) = 0.08565 -0.00957
# Poissons Ratio (z) = 0.02944 -0.02369
#
# Static dielectric constant tensor:
#      x y z
#    x 1.740970 -0.010560 0.020070 
#    y -0.010560 1.777560 -0.029870 
#    z 0.020070 -0.029870 1.770130 
# 
# From -- ./inp_files/295648.got.cif
#   From: 2010.05.17/outbox.cif.g08.bks.cpg/sg2_148_cif.got.tgz:295648.got - 2010.06.03 11:33:40.
