data_PCOD9057002
_publ_section_title
;
Structure prediction by ZEFSAII (Michael W. Deem and Ramdas Pophale) SiO2 
 PCOD9057002
Probable space group: P -1
;
_chemical_formula_sum "Si O2"
_cell_formula_units_Z 16
_cell_length_a 22.281673
_cell_length_b 19.455115
_cell_length_c 11.472282
_cell_angle_alpha 37.923087
_cell_angle_beta 29.216443
_cell_angle_gamma 17.617124
_cell_volume 702.847856
_symmetry_space_group_name_H-M "P -1"
_symmetry_group_IT_number 2
_symmetry_cell_setting 'triclinic'
loop_
_space_group_symop_operation_xyz
x,y,z
-x,-y,-z
loop_
_atom_site_type_symbol
_atom_site_label
_atom_site_fract_x
_atom_site_fract_y
_atom_site_fract_z
Si Si1 0.153920 0.671419 0.864672
Si Si2 0.161646 0.401371 0.243463
Si Si3 0.259684 0.008298 0.181237
Si Si4 0.344810 0.809992 0.075490
Si Si5 0.133965 0.548520 0.448172
Si Si6 0.280779 0.935550 0.514664
Si Si7 0.539981 0.441608 0.313456
Si Si8 0.174683 0.470251 0.750342
O O1 0.346364 0.546572 0.598739
O O2 0.276724 0.621151 0.841805
O O3 0.121488 0.564436 0.067423
O O4 0.885756 0.951220 0.925789
O O5 0.000000 0.500000 0.500000
O O6 0.048330 0.411726 0.322431
O O7 0.471301 0.137424 0.089770
O O8 0.279712 0.892928 0.208803
O O9 0.256322 0.967730 0.373275
O O10 0.010003 0.285342 0.209493
O O11 0.379451 0.649258 0.220308
O O12 0.614186 0.651041 0.793280
O O13 0.225942 0.468282 0.533305
O O14 0.957653 0.799713 0.388306
O O15 0.303060 0.786313 0.703685
O O16 0.557244 0.761444 0.324858
O O17 0.000000 0.500000 0.000000
#
# Coordination Sequence:
#
# PCOD9057002 Si02
#       8
#     2   2   2   2   2   2   2   2
#     4  11  24  41  70 102 138 180 228 287 346 402
#     4  12  22  44  69 102 147 179 216 289 354 406
#     4  11  22  41  68 100 134 176 231 276 336 409
#     4  12  25  43  69 107 139 176 232 291 344 404
#     4  11  27  44  66 105 142 177 228 283 351 418
#     4  11  24  47  70  97 137 186 231 280 342 409
#     4  11  22  45  69  98 134 185 234 283 338 407
#     4  11  25  43  68  97 136 186 230 273 337 416
#
# _framework density 22.764527999999999
#
# number of rings (size 3 to 8) (size 9 to 14) (size 15 to 20)
#    0.000    0.750    3.750    3.375    1.750    8.000 
#    0.000    1.250    0.000    0.000    0.000    0.000 
#    0.000    0.000    0.000    0.000    0.000    0.000 
#
# Total GULP energy -89623.506874 kJ/mol
# GULP energy per Si atom -5601.469180 kJ/mol
# Density = 2.271271 g / cm^3
# Si number density = 22.764528 Si / 1000 Ang^3
#
#
#
# Elastic Constant Matrix: (Units=GPa)
#
#
# Indices 1 2 3 4 5 6 
#
# 1 63.6513 42.8104 10.7797 -1.9247 -4.0810 2.0429
# 2 42.8104 153.3436 30.4043 -0.1152 -10.4586 -1.9535
# 3 10.7797 30.4043 61.0439 -13.2739 0.7349 3.4402
# 4 -1.9247 -0.1152 -13.2739 36.4420 8.2565 -9.3878
# 5 -4.0810 -10.4586 0.7349 8.2565 21.8165 -7.5318
# 6 2.0429 -1.9535 3.4402 -9.3878 -7.5318 32.8740
#
#
#
# Elastic Compliance Matrix: (Units=1/GPa)
#
#
# Indices 1 2 3 4 5 6 
#
# 1 0.019459 -0.005273 -0.000680 0.000313 0.000594 -0.001226
# 2 -0.005273 0.009238 -0.004390 -0.002560 0.005177 0.001791
# 3 -0.000680 -0.004390 0.020731 0.008645 -0.006704 -0.001455
# 4 0.000313 -0.002560 0.008645 0.035013 -0.012629 0.006029
# 5 0.000594 0.005177 -0.006704 -0.012629 0.057037 0.010434
# 6 -0.001226 0.001791 -0.001455 0.006029 0.010434 0.034866
#
#
# Mechanical properties :
#
#
# Convention : Reuss Voigt Hill
#
# Bulk Modulus (GPa) = 34.79182 49.55861 42.17521
# Shear Modulus (GPa) = 24.20026 31.16280 27.68153
#
# Velocity S-wave (km/s) = 3.26401 3.70390 3.49089
# Velocity P-wave (km/s) = 5.43337 6.33319 5.90046
#
# Compressibility (1/GPa) = 0.02874239
#
# Stress axis : x y z
#
# Youngs Moduli (GPa) = 51.39052 108.25218 48.23724
#
# Poissons Ratio (x) = 0.57077 0.03281
# Poissons Ratio (y) = 0.27096 0.21175
# Poissons Ratio (z) = 0.03495 0.47521
#
# Static dielectric constant tensor:
#      x y z
#    x 1.882570 0.003410 -0.006460 
#    y 0.003410 1.837920 -0.005210 
#    z -0.006460 -0.005210 1.826620 
# 
# From -- ./inp_files/472382.got.cif
#   From: 2010.05.17/outbox.cif.g08.bks.cpg/sg2_237_cif.got.tgz:472382.got - 2010.06.03 11:33:40.
