data_PCOD9057574
_publ_section_title
;
Structure prediction by ZEFSAII (Michael W. Deem and Ramdas Pophale) SiO2 
 PCOD9057574
Probable space group: P -1
;
_chemical_formula_sum "Si O2"
_cell_formula_units_Z 16
_cell_length_a 23.664401
_cell_length_b 21.141197
_cell_length_c 9.326541
_cell_angle_alpha 31.664915
_cell_angle_beta 28.606605
_cell_angle_gamma 19.272752
_cell_volume 729.935195
_symmetry_space_group_name_H-M "P -1"
_symmetry_group_IT_number 2
_symmetry_cell_setting 'triclinic'
loop_
_space_group_symop_operation_xyz
x,y,z
-x,-y,-z
loop_
_atom_site_type_symbol
_atom_site_label
_atom_site_fract_x
_atom_site_fract_y
_atom_site_fract_z
Si Si1 0.575172 0.134353 0.260576
Si Si2 0.056685 0.541281 0.143692
Si Si3 0.336273 0.958169 0.448942
Si Si4 0.806986 0.136062 0.249872
Si Si5 0.639318 0.470646 0.148883
Si Si6 0.478601 0.101599 0.116615
Si Si7 0.176910 0.055870 0.171198
Si Si8 0.009930 0.657824 0.338176
O O1 0.551025 0.173893 0.407515
O O2 0.549262 0.010975 0.544832
O O3 0.444170 0.334533 0.087515
O O4 0.774424 0.005843 0.984900
O O5 0.279648 0.331992 0.082065
O O6 0.966914 0.644697 0.299050
O O7 0.955385 0.506635 0.361722
O O8 0.993365 0.713095 0.870537
O O9 0.150348 0.160865 0.550636
O O10 0.303401 0.870935 0.587855
O O11 0.423476 0.982244 0.095813
O O12 0.692169 0.347721 0.131507
O O13 0.853255 0.040266 0.486057
O O14 0.000000 0.000000 0.000000
O O15 0.500000 0.500000 0.500000
O O16 0.834655 0.362817 0.989646
O O17 0.626681 0.047316 0.998869
#
# Coordination Sequence:
#
# PCOD9057574 Si02
#       8
#     2   2   2   2   2   2   2   2
#     4  12  22  43  70 101 134 187 233 281 359 420
#     4  11  22  42  75 107 138 179 237 287 359 426
#     4  11  24  44  67 100 147 177 221 304 358 404
#     4  11  25  48  64  96 144 183 237 300 343 407
#     4  12  26  46  73  99 137 194 247 284 345 423
#     4  11  24  42  71 107 149 175 229 302 354 424
#     4  11  23  43  71 104 138 190 235 287 360 416
#     4  11  22  43  69 101 144 175 223 299 349 413
#
# _framework density 21.919754000000001
#
# number of rings (size 3 to 8) (size 9 to 14) (size 15 to 20)
#    0.000    0.750    5.000    3.000    1.750    1.500 
#    2.250    3.750    0.000    0.000    0.000    0.000 
#    0.000    0.000    0.000    0.000    0.000    0.000 
#
# Total GULP energy -89081.656688 kJ/mol
# GULP energy per Si atom -5567.603543 kJ/mol
# Density = 2.186986 g / cm^3
# Si number density = 21.919754 Si / 1000 Ang^3
#
#
#
# Elastic Constant Matrix: (Units=GPa)
#
#
# Indices 1 2 3 4 5 6 
#
# 1 67.4289 27.3197 9.2904 2.2392 2.9513 21.9025
# 2 27.3197 129.2362 44.6605 -4.4826 -4.4904 9.6811
# 3 9.2904 44.6605 99.4498 13.0357 19.8234 -2.4436
# 4 2.2392 -4.4826 13.0357 38.5616 9.0782 4.3507
# 5 2.9513 -4.4904 19.8234 9.0782 33.7270 -2.3034
# 6 21.9025 9.6811 -2.4436 4.3507 -2.3034 33.5526
#
#
#
# Elastic Compliance Matrix: (Units=1/GPa)
#
#
# Indices 1 2 3 4 5 6 
#
# 1 0.020477 -0.003421 -0.000134 0.000646 -0.003210 -0.012694
# 2 -0.003421 0.010788 -0.005755 0.002524 0.004348 -0.001328
# 3 -0.000134 -0.005755 0.014894 -0.004076 -0.008220 0.002797
# 4 0.000646 0.002524 -0.004076 0.029539 -0.005662 -0.005666
# 5 -0.003210 0.004348 -0.008220 -0.005662 0.037106 0.003523
# 6 -0.012694 -0.001328 0.002797 -0.005666 0.003523 0.039654
#
#
# Mechanical properties :
#
#
# Convention : Reuss Voigt Hill
#
# Bulk Modulus (GPa) = 36.31115 50.96179 43.63647
# Shear Modulus (GPa) = 27.73829 35.49121 31.61475
#
# Velocity S-wave (km/s) = 3.56117 4.02822 3.80188
# Velocity P-wave (km/s) = 5.78884 6.70337 6.26282
#
# Compressibility (1/GPa) = 0.02753975
#
# Stress axis : x y z
#
# Youngs Moduli (GPa) = 48.83503 92.69693 67.14121
#
# Poissons Ratio (x) = 0.31710 0.00897
# Poissons Ratio (y) = 0.16705 0.38641
# Poissons Ratio (z) = 0.00652 0.53349
#
# Static dielectric constant tensor:
#      x y z
#    x 1.842020 -0.080750 0.005130 
#    y -0.080750 1.904980 -0.041720 
#    z 0.005130 -0.041720 1.892880 
# 
# From -- ./inp_files/355238.got.cif
#   From: 2010.05.17/outbox.cif.g08.bks.cpg/sg2_178_cif.got.tgz:355238.got - 2010.06.03 11:33:40.
