data_PCOD9057319
_publ_section_title
;
Structure prediction by ZEFSAII (Michael W. Deem and Ramdas Pophale) SiO2 
 PCOD9057319
Probable space group: P -1
;
_chemical_formula_sum "Si O2"
_cell_formula_units_Z 16
_cell_length_a 11.632016
_cell_length_b 9.356812
_cell_length_c 14.021610
_cell_angle_alpha 72.061002
_cell_angle_beta 147.140444
_cell_angle_gamma 96.741618
_cell_volume 757.673284
_symmetry_space_group_name_H-M "P -1"
_symmetry_group_IT_number 2
_symmetry_cell_setting 'triclinic'
loop_
_space_group_symop_operation_xyz
x,y,z
-x,-y,-z
loop_
_atom_site_type_symbol
_atom_site_label
_atom_site_fract_x
_atom_site_fract_y
_atom_site_fract_z
Si Si1 0.017688 0.816150 0.551104
Si Si2 0.339771 0.711139 0.635151
Si Si3 0.586227 0.249590 0.650545
Si Si4 0.645392 0.926939 0.839118
Si Si5 0.338592 0.626012 0.115713
Si Si6 0.081899 0.698347 0.279035
Si Si7 0.453402 0.116490 0.855472
Si Si8 0.930961 0.640373 0.709648
O O1 0.236662 0.727895 0.665414
O O2 0.803792 0.796250 0.350304
O O3 0.996238 0.752695 0.654359
O O4 0.000000 0.000000 0.500000
O O5 0.493967 0.826969 0.709856
O O6 0.487941 0.538356 0.751215
O O7 0.139321 0.751051 0.412033
O O8 0.644805 0.325972 0.773127
O O9 0.702944 0.309212 0.632949
O O10 0.322633 0.292863 0.451053
O O11 0.675010 0.062426 0.762144
O O12 0.517754 0.017858 0.823370
O O13 0.874015 0.816129 0.059589
O O14 0.407612 0.758186 0.074897
O O15 0.097181 0.620576 0.917594
O O16 0.044186 0.527254 0.287814
O O17 0.500000 0.000000 0.000000
#
# Coordination Sequence:
#
# PCOD9057319 Si02
#       8
#     2   2   2   2   2   2   2   2
#     4  12  23  43  69  99 144 180 219 284 340 411
#     4  12  25  43  69 103 140 176 230 279 345 407
#     4  11  25  49  69 100 142 175 236 286 341 407
#     4  11  24  45  66 104 139 174 231 281 339 413
#     4  11  25  43  69 100 134 184 228 281 343 401
#     4  12  26  44  73 102 136 182 229 292 339 400
#     4  11  22  42  67  96 139 182 225 272 341 409
#     4  12  24  44  70 101 136 184 230 278 343 405
#
# _framework density 21.117283
#
# number of rings (size 3 to 8) (size 9 to 14) (size 15 to 20)
#    0.000    0.500    6.250    2.250    0.000    8.500 
#    0.000    0.000    0.000    0.000    0.000    0.000 
#    0.000    0.000    0.000    0.000    0.000    0.000 
#
# Total GULP energy -89561.245142 kJ/mol
# GULP energy per Si atom -5597.577821 kJ/mol
# Density = 2.106922 g / cm^3
# Si number density = 21.117283 Si / 1000 Ang^3
#
#
#
# Elastic Constant Matrix: (Units=GPa)
#
#
# Indices 1 2 3 4 5 6 
#
# 1 72.5322 9.5787 -10.0889 2.5508 10.5520 9.3049
# 2 9.5787 117.7374 13.7851 4.9957 4.6723 5.9782
# 3 -10.0889 13.7851 107.1392 15.6434 15.6764 -3.2718
# 4 2.5508 4.9957 15.6434 40.5507 2.2131 1.1427
# 5 10.5520 4.6723 15.6764 2.2131 18.1079 -6.2971
# 6 9.3049 5.9782 -3.2718 1.1427 -6.2971 18.7406
#
#
#
# Elastic Compliance Matrix: (Units=1/GPa)
#
#
# Indices 1 2 3 4 5 6 
#
# 1 0.019513 -0.000468 0.004625 -0.001398 -0.020483 -0.015529
# 2 -0.000468 0.008933 -0.000870 -0.000501 -0.002457 -0.003564
# 3 0.004625 -0.000870 0.012429 -0.004076 -0.014259 -0.004392
# 4 -0.001398 -0.000501 -0.004076 0.026370 0.000839 -0.001184
# 5 -0.020483 -0.002457 -0.014259 0.000839 0.093940 0.039978
# 6 -0.015529 -0.003564 -0.004392 -0.001184 0.039978 0.074946
#
#
# Mechanical properties :
#
#
# Convention : Reuss Voigt Hill
#
# Bulk Modulus (GPa) = 21.07532 35.99541 28.53537
# Shear Modulus (GPa) = 20.37710 34.42210 27.39960
#
# Velocity S-wave (km/s) = 3.10973 4.04176 3.60599
# Velocity P-wave (km/s) = 4.78495 6.23407 5.55695
#
# Compressibility (1/GPa) = 0.04744885
#
# Stress axis : x y z
#
# Youngs Moduli (GPa) = 51.24679 111.94259 80.46006
#
# Poissons Ratio (x) = 0.05243 -0.37211
# Poissons Ratio (y) = 0.02400 0.06997
# Poissons Ratio (z) = -0.23701 0.09735
#
# Static dielectric constant tensor:
#      x y z
#    x 1.751860 0.013340 0.006090 
#    y 0.013340 1.752720 -0.002570 
#    z 0.006090 -0.002570 1.768210 
# 
# From -- ./inp_files/188154.got.cif
#   From: 2010.05.17/outbox.cif.g08.bks.cpg/sg2_95_cif.got.tgz:188154.got - 2010.06.03 11:33:40.
