data_PCOD9057369
_publ_section_title
;
Structure prediction by ZEFSAII (Michael W. Deem and Ramdas Pophale) SiO2 
 PCOD9057369
Probable space group: P -1
;
_chemical_formula_sum "Si O2"
_cell_formula_units_Z 16
_cell_length_a 6.688122
_cell_length_b 16.842541
_cell_length_c 9.492313
_cell_angle_alpha 84.939924
_cell_angle_beta 107.358532
_cell_angle_gamma 134.549569
_cell_volume 715.678412
_symmetry_space_group_name_H-M "P -1"
_symmetry_group_IT_number 2
_symmetry_cell_setting 'triclinic'
loop_
_space_group_symop_operation_xyz
x,y,z
-x,-y,-z
loop_
_atom_site_type_symbol
_atom_site_label
_atom_site_fract_x
_atom_site_fract_y
_atom_site_fract_z
Si Si1 0.694625 0.391858 0.312841
Si Si2 0.649297 0.842572 0.807574
Si Si3 0.308626 0.892448 0.580561
Si Si4 0.173687 0.417667 0.876062
Si Si5 0.686063 0.474931 0.587372
Si Si6 0.556659 0.223743 0.910948
Si Si7 0.225062 0.281954 0.716159
Si Si8 0.686999 0.001870 0.154815
O O1 0.412753 0.267276 0.223258
O O2 0.789523 0.496401 0.232137
O O3 0.669672 0.407285 0.467914
O O4 0.973319 0.409094 0.343755
O O5 0.491613 0.862152 0.665421
O O6 0.003131 0.945311 0.854250
O O7 0.504162 0.815525 0.934142
O O8 0.257384 0.928390 0.707898
O O9 0.005091 0.790943 0.448895
O O10 0.500000 0.000000 0.500000
O O11 0.119134 0.322912 0.790199
O O12 0.890275 0.346195 0.931963
O O13 0.500000 0.500000 0.000000
O O14 0.500000 0.500000 0.500000
O O15 0.539066 0.398065 0.704131
O O16 0.309304 0.222651 0.818731
O O17 0.496659 0.127284 0.825266
O O18 0.500000 0.000000 0.000000
#
# Coordination Sequence:
#
# PCOD9057369 Si02
#       8
#     2   2   2   2   2   2   2   2
#     4  11  25  42  69 106 145 191 247 291 372 446
#     4  12  28  47  78 108 151 199 252 308 381 448
#     4  12  28  48  79 113 149 193 254 321 380 439
#     4  12  28  45  72 110 154 200 248 303 374 454
#     4  11  22  42  68  99 145 191 234 302 364 433
#     4  12  28  48  77 107 153 198 256 308 375 454
#     4  12  26  45  75 109 148 194 253 313 375 436
#     4  12  28  51  78 109 149 199 255 310 386 452
#
# _framework density 22.356411000000001
#
# number of rings (size 3 to 8) (size 9 to 14) (size 15 to 20)
#    0.000    0.250    3.750    4.125    8.750    6.000 
#    0.000    0.000    0.000    0.000    0.000    0.000 
#    0.000    0.000    0.000    0.000    0.000    0.000 
#
# Total GULP energy -89521.512260 kJ/mol
# GULP energy per Si atom -5595.094516 kJ/mol
# Density = 2.230553 g / cm^3
# Si number density = 22.356411 Si / 1000 Ang^3
#
#
#
# Elastic Constant Matrix: (Units=GPa)
#
#
# Indices 1 2 3 4 5 6 
#
# 1 99.1237 37.7606 43.1323 -10.4444 18.2775 2.5744
# 2 37.7606 106.5945 27.8455 -2.3066 3.9241 3.2111
# 3 43.1323 27.8455 103.0240 1.9451 7.9969 3.4868
# 4 -10.4444 -2.3066 1.9451 42.0590 -4.4492 -2.0092
# 5 18.2775 3.9241 7.9969 -4.4492 46.1265 -7.1289
# 6 2.5744 3.2111 3.4868 -2.0092 -7.1289 48.3145
#
#
#
# Elastic Compliance Matrix: (Units=1/GPa)
#
#
# Indices 1 2 3 4 5 6 
#
# 1 0.014816 -0.003716 -0.004884 0.003189 -0.004512 -0.000723
# 2 -0.003716 0.011063 -0.001475 -0.000188 0.000717 -0.000333
# 3 -0.004884 -0.001475 0.012236 -0.001928 -0.000348 -0.000656
# 4 0.003189 -0.000188 -0.001928 0.024885 0.001682 0.001265
# 5 -0.004512 0.000717 -0.000348 0.001682 0.024226 0.003862
# 6 -0.000723 -0.000333 -0.000656 0.001265 0.003862 0.021428
#
#
# Mechanical properties :
#
#
# Convention : Reuss Voigt Hill
#
# Bulk Modulus (GPa) = 55.66701 58.46877 57.06789
# Shear Modulus (GPa) = 37.09424 40.63356 38.86390
#
# Velocity S-wave (km/s) = 4.07777 4.26788 4.17391
# Velocity P-wave (km/s) = 6.86475 7.10607 6.98645
#
# Compressibility (1/GPa) = 0.01796396
#
# Stress axis : x y z
#
# Youngs Moduli (GPa) = 67.49469 90.39510 81.72858
#
# Poissons Ratio (x) = 0.33588 0.39917
# Poissons Ratio (y) = 0.25079 0.12057
# Poissons Ratio (z) = 0.32965 0.13336
#
# Static dielectric constant tensor:
#      x y z
#    x 1.854090 -0.049470 -0.009580 
#    y -0.049470 1.888460 0.073380 
#    z -0.009580 0.073380 1.850870 
# 
# From -- ./inp_files/139081.got.cif
#   From: 2010.05.17/outbox.cif.g08.bks.cpg/sg2_70_cif.got.tgz:139081.got - 2010.06.03 11:33:40.
