data_PCOD9057968
_publ_section_title
;
Structure prediction by ZEFSAII (Michael W. Deem and Ramdas Pophale) SiO2 
 PCOD9057968
Probable space group: P -1
;
_chemical_formula_sum "Si O2"
_cell_formula_units_Z 16
_cell_length_a 8.442592
_cell_length_b 11.815953
_cell_length_c 15.097491
_cell_angle_alpha 128.676325
_cell_angle_beta 51.863367
_cell_angle_gamma 139.289480
_cell_volume 735.655626
_symmetry_space_group_name_H-M "P -1"
_symmetry_group_IT_number 2
_symmetry_cell_setting 'triclinic'
loop_
_space_group_symop_operation_xyz
x,y,z
-x,-y,-z
loop_
_atom_site_type_symbol
_atom_site_label
_atom_site_fract_x
_atom_site_fract_y
_atom_site_fract_z
Si Si1 0.720410 0.336756 0.986809
Si Si2 0.171562 0.169697 0.590741
Si Si3 0.871622 0.092671 0.835551
Si Si4 0.446446 0.321230 0.237780
Si Si5 0.145789 0.470884 0.663385
Si Si6 0.120662 0.177775 0.977661
Si Si7 0.671363 0.424539 0.849847
Si Si8 0.279802 0.569937 0.467441
O O1 0.692715 0.151836 0.906245
O O2 0.706046 0.394495 0.924103
O O3 0.523203 0.327071 0.113802
O O4 0.000000 0.500000 0.000000
O O5 0.176873 0.318371 0.603771
O O6 0.453590 0.230224 0.542933
O O7 0.069981 0.177965 0.726662
O O8 0.000000 0.000000 0.500000
O O9 0.934673 0.135558 0.939771
O O10 0.756129 0.884105 0.764367
O O11 0.695258 0.390300 0.243512
O O12 0.339443 0.435226 0.343681
O O13 0.272071 0.557474 0.569622
O O14 0.859505 0.402495 0.721549
O O15 0.372342 0.260360 0.868015
O O16 0.216891 0.362404 0.089334
O O17 0.000000 0.000000 0.000000
O O18 0.000000 0.500000 0.500000
#
# Coordination Sequence:
#
# PCOD9057968 Si02
#       8
#     2   2   2   2   2   2   2   2
#     4  12  20  41  68 103 127 174 229 283 343 410
#     4  11  23  46  70  99 133 178 235 292 345 411
#     4  12  23  41  71 101 136 178 233 290 349 416
#     4  11  23  41  68 100 136 174 232 288 345 418
#     4  11  22  44  66  94 133 174 235 281 350 400
#     4  11  26  44  62 103 149 185 224 279 356 427
#     4  11  24  43  70  96 143 184 223 285 353 411
#     4  11  26  44  68  96 136 186 233 284 350 418
#
# _framework density 21.749307999999999
#
# number of rings (size 3 to 8) (size 9 to 14) (size 15 to 20)
#    0.000    0.750    3.750    4.875    1.750    3.000 
#    4.500    1.250    0.000    0.000    0.000    0.000 
#    0.000    0.000    0.000    0.000    0.000    0.000 
#
# Total GULP energy -89122.650915 kJ/mol
# GULP energy per Si atom -5570.165682 kJ/mol
# Density = 2.169981 g / cm^3
# Si number density = 21.749308 Si / 1000 Ang^3
#
#
#
# Elastic Constant Matrix: (Units=GPa)
#
#
# Indices 1 2 3 4 5 6 
#
# 1 74.0290 38.6684 25.4680 2.3802 -8.7671 -2.1987
# 2 38.6684 72.1399 11.9905 3.1256 -5.3474 3.5964
# 3 25.4680 11.9905 93.0153 -22.7350 -10.9449 1.9257
# 4 2.3802 3.1256 -22.7350 31.7263 1.2577 -0.1427
# 5 -8.7671 -5.3474 -10.9449 1.2577 38.9458 -14.8786
# 6 -2.1987 3.5964 1.9257 -0.1427 -14.8786 30.9421
#
#
#
# Elastic Compliance Matrix: (Units=1/GPa)
#
#
# Indices 1 2 3 4 5 6 
#
# 1 0.021535 -0.010421 -0.005293 -0.004517 0.003970 0.004959
# 2 -0.010421 0.019597 0.000015 -0.001116 -0.000943 -0.003478
# 3 -0.005293 0.000015 0.015265 0.011226 0.002757 0.000050
# 4 -0.004517 -0.001116 0.011226 0.039990 0.000519 -0.000456
# 5 0.003970 -0.000943 0.002757 0.000519 0.033424 0.016295
# 6 0.004959 -0.003478 0.000050 -0.000456 0.016295 0.040905
#
#
# Mechanical properties :
#
#
# Convention : Reuss Voigt Hill
#
# Bulk Modulus (GPa) = 39.99848 43.49312 41.74580
# Shear Modulus (GPa) = 23.75911 31.19334 27.47623
#
# Velocity S-wave (km/s) = 3.30874 3.79122 3.55817
# Velocity P-wave (km/s) = 5.74697 6.26142 6.00970
#
# Compressibility (1/GPa) = 0.02500095
#
# Stress axis : x y z
#
# Youngs Moduli (GPa) = 46.43656 51.02845 65.50830
#
# Poissons Ratio (x) = 0.53175 0.34670
# Poissons Ratio (y) = 0.48390 -0.00099
# Poissons Ratio (z) = 0.24577 -0.00077
#
# Static dielectric constant tensor:
#      x y z
#    x 38.201910 -9.735850 2.102220 
#    y -9.735850 4.636780 -0.581620 
#    z 2.102220 -0.581620 1.938680 
# 
# From -- ./inp_files/500799.got.cif
#   From: 2010.05.17/outbox.cif.g08.bks.cpg/sg2_251_cif.got.tgz:500799.got - 2010.06.03 11:33:40.
