data_PCOD9057454
_publ_section_title
;
Structure prediction by ZEFSAII (Michael W. Deem and Ramdas Pophale) SiO2 
 PCOD9057454
Probable space group: P -1
;
_chemical_formula_sum "Si O2"
_cell_formula_units_Z 16
_cell_length_a 14.956651
_cell_length_b 9.041837
_cell_length_c 14.027652
_cell_angle_alpha 139.070251
_cell_angle_beta 148.619555
_cell_angle_gamma 40.722093
_cell_volume 610.700712
_symmetry_space_group_name_H-M "P -1"
_symmetry_group_IT_number 2
_symmetry_cell_setting 'triclinic'
loop_
_space_group_symop_operation_xyz
x,y,z
-x,-y,-z
loop_
_atom_site_type_symbol
_atom_site_label
_atom_site_fract_x
_atom_site_fract_y
_atom_site_fract_z
Si Si1 0.778023 0.564194 0.917837
Si Si2 0.181248 0.607168 0.646403
Si Si3 0.302369 0.679799 0.441857
Si Si4 0.086220 0.514497 0.328433
Si Si5 0.576840 0.542147 0.882330
Si Si6 0.680359 0.791646 0.275250
Si Si7 0.701532 0.995334 0.711678
Si Si8 0.743612 0.013999 0.977966
O O1 0.808093 0.343049 0.765901
O O2 0.585480 0.665166 0.849190
O O3 0.782034 0.776400 0.956877
O O4 0.925065 0.531001 0.118054
O O5 0.048425 0.677701 0.468527
O O6 0.380438 0.562173 0.754801
O O7 0.197015 0.381360 0.617571
O O8 0.156655 0.822489 0.802242
O O9 0.500000 0.500000 0.500000
O O10 0.230557 0.576004 0.418889
O O11 0.295671 0.950318 0.581105
O O12 0.164501 0.255613 0.326349
O O13 0.686747 0.268946 0.817730
O O14 0.675904 0.647606 0.104033
O O15 0.472236 0.843781 0.146013
O O16 0.500000 0.000000 0.500000
O O17 0.769588 0.956915 0.863825
#
# Coordination Sequence:
#
# PCOD9057454 Si02
#       8
#     2   2   2   2   2   2   2   2
#     4  12  28  44  64 102 143 180 221 278 347 402
#     4  11  23  44  72 100 130 180 229 278 335 397
#     4  12  25  44  71 100 132 178 229 280 333 400
#     4  12  27  45  67  99 140 181 223 280 343 404
#     4  11  24  42  70 103 133 175 227 281 335 395
#     4  11  22  43  71 105 127 171 238 285 326 393
#     4  12  22  42  74 100 130 178 230 283 334 393
#     4  11  22  42  70  97 139 172 223 281 337 397
#
# _framework density 26.199411999999999
#
# number of rings (size 3 to 8) (size 9 to 14) (size 15 to 20)
#    0.000    0.500    6.250    1.875    5.250    2.000 
#    0.000    0.625    0.000    0.000    0.000    0.000 
#    0.000    0.000    0.000    0.000    0.000    0.000 
#
# Total GULP energy -89544.600156 kJ/mol
# GULP energy per Si atom -5596.537510 kJ/mol
# Density = 2.613978 g / cm^3
# Si number density = 26.199412 Si / 1000 Ang^3
#
#
#
# Elastic Constant Matrix: (Units=GPa)
#
#
# Indices 1 2 3 4 5 6 
#
# 1 95.0514 15.8291 36.7675 8.6712 -21.9072 8.5036
# 2 15.8291 62.9455 70.5933 13.6216 -10.5854 -1.2572
# 3 36.7675 70.5933 186.6497 6.1626 -31.1594 19.0753
# 4 8.6712 13.6216 6.1626 50.2972 -1.0884 3.5741
# 5 -21.9072 -10.5854 -31.1594 -1.0884 56.0248 -8.8392
# 6 8.5036 -1.2572 19.0753 3.5741 -8.8392 24.8389
#
#
#
# Elastic Compliance Matrix: (Units=1/GPa)
#
#
# Indices 1 2 3 4 5 6 
#
# 1 0.012281 -0.000679 -0.001330 -0.001571 0.003636 -0.001698
# 2 -0.000679 0.033365 -0.013526 -0.008222 0.000514 0.013674
# 3 -0.001330 -0.013526 0.011923 0.003122 0.002187 -0.009056
# 4 -0.001571 -0.008222 0.003122 0.022391 -0.000915 -0.005824
# 5 0.003636 0.000514 0.002187 -0.000915 0.021328 0.004823
# 6 -0.001698 0.013674 -0.009056 -0.005824 0.004823 0.051042
#
#
# Mechanical properties :
#
#
# Convention : Reuss Voigt Hill
#
# Bulk Modulus (GPa) = 37.73638 65.66962 51.70300
# Shear Modulus (GPa) = 26.01001 40.99595 33.50298
#
# Velocity S-wave (km/s) = 3.15424 3.96000 3.57987
# Velocity P-wave (km/s) = 5.26312 6.78443 6.07162
#
# Compressibility (1/GPa) = 0.02649963
#
# Stress axis : x y z
#
# Youngs Moduli (GPa) = 81.42387 29.97108 83.87267
#
# Poissons Ratio (x) = 0.02036 0.11155
# Poissons Ratio (y) = 0.05531 1.13444
# Poissons Ratio (z) = 0.10829 0.40538
#
# Static dielectric constant tensor:
#      x y z
#    x 2.200180 -0.073910 0.080000 
#    y -0.073910 2.050770 -0.003230 
#    z 0.080000 -0.003230 2.172440 
# 
# From -- ./inp_files/298129.got.cif
#   From: 2010.05.17/outbox.cif.g08.bks.cpg/sg2_150_cif.got.tgz:298129.got - 2010.06.03 11:33:40.
