data_PCOD9057241
_publ_section_title
;
Structure prediction by ZEFSAII (Michael W. Deem and Ramdas Pophale) SiO2 
 PCOD9057241
Probable space group: P -1
;
_chemical_formula_sum "Si O2"
_cell_formula_units_Z 14
_cell_length_a 15.541458
_cell_length_b 5.250778
_cell_length_c 11.448608
_cell_angle_alpha 64.206864
_cell_angle_beta 42.437182
_cell_angle_gamma 86.192183
_cell_volume 515.318971
_symmetry_space_group_name_H-M "P -1"
_symmetry_group_IT_number 2
_symmetry_cell_setting 'triclinic'
loop_
_space_group_symop_operation_xyz
x,y,z
-x,-y,-z
loop_
_atom_site_type_symbol
_atom_site_label
_atom_site_fract_x
_atom_site_fract_y
_atom_site_fract_z
Si Si1 0.619304 0.949288 0.823361
Si Si2 0.619492 0.563970 0.227328
Si Si3 0.127813 0.782116 0.750105
Si Si4 0.081115 0.689032 0.560540
Si Si5 0.610383 0.330894 0.063724
Si Si6 0.314503 0.413846 0.577949
Si Si7 0.858347 0.130187 0.793692
O O1 0.655469 0.687563 0.902594
O O2 0.758074 0.264089 0.616970
O O3 0.546557 0.817628 0.800458
O O4 0.500000 0.000000 0.000000
O O5 0.473701 0.587591 0.331361
O O6 0.644251 0.644705 0.320883
O O7 0.596770 0.264418 0.229995
O O8 0.774834 0.774894 0.979896
O O9 0.078749 0.843636 0.656904
O O10 0.234269 0.627102 0.644960
O O11 0.211029 0.098316 0.677820
O O12 0.000000 0.500000 0.000000
O O13 0.068105 0.812610 0.418571
O O14 0.966994 0.338117 0.740145
O O15 0.727099 0.231453 0.913558
#
# Coordination Sequence:
#
# PCOD9057241 Si02
#       7
#     2   2   2   2   2   2   2
#     4  11  22  42  63 106 142 183 232 298 361 451
#     4  11  25  46  73 107 146 188 248 314 363 445
#     4  12  28  52  75 108 149 202 251 310 360 447
#     4  11  25  45  72 104 151 189 247 299 388 436
#     4  11  23  39  74  98 148 186 236 304 372 431
#     4  11  29  48  79 108 145 203 258 297 374 435
#     4  11  25  46  68 111 146 191 236 313 373 450
#
# _framework density 27.167638
#
# number of rings (size 3 to 8) (size 9 to 14) (size 15 to 20)
#    0.000    0.857    2.857    2.143   10.000    2.857 
#    0.000    0.000    0.000    0.000    0.000    0.000 
#    0.000    0.000    0.000    0.000    0.000    0.000 
#
# Total GULP energy -78145.115489 kJ/mol
# GULP energy per Si atom -5581.793963 kJ/mol
# Density = 2.710580 g / cm^3
# Si number density = 27.167638 Si / 1000 Ang^3
#
#
#
# Elastic Constant Matrix: (Units=GPa)
#
#
# Indices 1 2 3 4 5 6 
#
# 1 108.2418 60.3657 35.2095 -7.0409 -12.4199 53.1803
# 2 60.3657 121.6332 24.1358 8.4638 -5.8924 31.0153
# 3 35.2095 24.1358 122.8179 -5.1561 -19.2881 24.8191
# 4 -7.0409 8.4638 -5.1561 45.1158 13.5009 -13.4548
# 5 -12.4199 -5.8924 -19.2881 13.5009 55.4121 10.7833
# 6 53.1803 31.0153 24.8191 -13.4548 10.7833 73.3811
#
#
#
# Elastic Compliance Matrix: (Units=1/GPa)
#
#
# Indices 1 2 3 4 5 6 
#
# 1 0.019712 -0.005945 -0.001008 -0.001573 0.006279 -0.012643
# 2 -0.005945 0.011958 -0.000333 -0.003991 0.001092 -0.001525
# 3 -0.001008 -0.000333 0.009734 -0.001152 0.004035 -0.003225
# 4 -0.001573 -0.003991 -0.001152 0.028503 -0.010053 0.009919
# 5 0.006279 0.001092 0.004035 -0.010053 0.025760 -0.012005
# 6 -0.012643 -0.001525 -0.003225 0.009919 -0.012005 0.028108
#
#
# Mechanical properties :
#
#
# Convention : Reuss Voigt Hill
#
# Bulk Modulus (GPa) = 37.27219 65.79056 51.53138
# Shear Modulus (GPa) = 33.94658 50.31394 42.13026
#
# Velocity S-wave (km/s) = 3.53869 4.30813 3.94223
# Velocity P-wave (km/s) = 5.51775 7.00113 6.30323
#
# Compressibility (1/GPa) = 0.02682966
#
# Stress axis : x y z
#
# Youngs Moduli (GPa) = 50.73146 83.62841 102.73724
#
# Poissons Ratio (x) = 0.49721 0.10353
# Poissons Ratio (y) = 0.30162 0.03425
# Poissons Ratio (z) = 0.05113 0.02788
#
# Static dielectric constant tensor:
#      x y z
#    x 2.320620 0.000210 0.136440 
#    y 0.000210 2.196440 0.006290 
#    z 0.136440 0.006290 2.198720 
# 
# From -- ./inp_files/459109.got.cif
#   From: 2010.05.17/outbox.cif.g08.bks.cpg/sg2_230_cif.got.tgz:459109.got - 2010.06.03 11:33:40.
