data_PCOD9057550
_publ_section_title
;
Structure prediction by ZEFSAII (Michael W. Deem and Ramdas Pophale) SiO2 
 PCOD9057550
Probable space group: P -1
;
_chemical_formula_sum "Si O2"
_cell_formula_units_Z 12
_cell_length_a 10.817019
_cell_length_b 7.954060
_cell_length_c 5.886327
_cell_angle_alpha 95.354090
_cell_angle_beta 89.646371
_cell_angle_gamma 117.143503
_cell_volume 448.332299
_symmetry_space_group_name_H-M "P -1"
_symmetry_group_IT_number 2
_symmetry_cell_setting 'triclinic'
loop_
_space_group_symop_operation_xyz
x,y,z
-x,-y,-z
loop_
_atom_site_type_symbol
_atom_site_label
_atom_site_fract_x
_atom_site_fract_y
_atom_site_fract_z
Si Si1 0.378952 0.232662 0.798124
Si Si2 0.009293 0.217877 0.539164
Si Si3 0.266464 0.525773 0.848481
Si Si4 0.911915 0.096445 0.117291
Si Si5 0.240050 0.772050 0.237125
Si Si6 0.518584 0.828109 0.703619
O O1 0.363095 0.422611 0.840605
O O2 0.442116 0.239433 0.544249
O O3 0.221750 0.063149 0.773147
O O4 0.434057 0.202504 0.042770
O O5 0.125040 0.370870 0.716174
O O6 0.029374 0.264673 0.280627
O O7 0.866976 0.235886 0.572500
O O8 0.000000 0.000000 0.500000
O O9 0.352097 0.714885 0.717851
O O10 0.253253 0.597689 0.105854
O O11 0.840454 0.173046 0.951140
O O12 0.000000 0.000000 0.000000
O O13 0.394156 0.944373 0.289693
#
# Coordination Sequence:
#
# PCOD9057550 Si02
#       6
#     2   2   2   2   2   2
#     4  11  24  47  75 100 138 188 237 279 341 421
#     4  12  22  44  70  96 138 181 239 277 349 416
#     4  12  25  43  69 107 136 179 232 297 345 406
#     4  11  22  42  73  98 133 191 230 283 344 421
#     4  11  24  45  67 101 143 176 233 291 352 403
#     4  11  25  50  72 100 141 189 232 280 347 422
#
# _framework density 26.76586
#
# number of rings (size 3 to 8) (size 9 to 14) (size 15 to 20)
#    0.000    0.667    5.000    2.000    2.333    0.667 
#    9.000    2.500    0.000    0.000    0.000    0.000 
#    0.000    0.000    0.000    0.000    0.000    0.000 
#
# Total GULP energy -66914.838038 kJ/mol
# GULP energy per Si atom -5576.236503 kJ/mol
# Density = 2.670494 g / cm^3
# Si number density = 26.765860 Si / 1000 Ang^3
#
#
#
# Elastic Constant Matrix: (Units=GPa)
#
#
# Indices 1 2 3 4 5 6 
#
# 1 117.6758 51.0801 68.4571 17.1114 -3.6065 13.7678
# 2 51.0801 127.8221 80.4389 25.4700 -15.2429 36.6725
# 3 68.4571 80.4389 183.6964 39.7586 -31.3567 1.4328
# 4 17.1114 25.4700 39.7586 62.9778 1.7787 -5.1852
# 5 -3.6065 -15.2429 -31.3567 1.7787 54.4383 1.5978
# 6 13.7678 36.6725 1.4328 -5.1852 1.5978 44.1101
#
#
#
# Elastic Compliance Matrix: (Units=1/GPa)
#
#
# Indices 1 2 3 4 5 6 
#
# 1 0.011737 -0.001987 -0.003797 -0.000085 -0.001910 -0.001829
# 2 -0.001987 0.017098 -0.005369 -0.004197 0.002111 -0.013990
# 3 -0.003797 -0.005369 0.010608 -0.003223 0.004321 0.004769
# 4 -0.000085 -0.004197 -0.003223 0.020249 -0.003879 0.006142
# 5 -0.001910 0.002111 0.004321 -0.003879 0.021524 -0.002535
# 6 -0.001829 -0.013990 0.004769 0.006142 -0.002535 0.035532
#
#
# Mechanical properties :
#
#
# Convention : Reuss Voigt Hill
#
# Bulk Modulus (GPa) = 58.35239 92.12738 75.23988
# Shear Modulus (GPa) = 34.53868 47.58646 41.06257
#
# Velocity S-wave (km/s) = 3.59611 4.22106 3.92106
# Velocity P-wave (km/s) = 6.25229 7.63223 6.97646
#
# Compressibility (1/GPa) = 0.01713726
#
# Stress axis : x y z
#
# Youngs Moduli (GPa) = 85.19886 58.48742 94.27075
#
# Poissons Ratio (x) = 0.11620 0.35799
# Poissons Ratio (y) = 0.16926 0.50610
# Poissons Ratio (z) = 0.32354 0.31400
#
# Static dielectric constant tensor:
#      x y z
#    x 2.106070 -0.027250 0.096320 
#    y -0.027250 2.169090 -0.071540 
#    z 0.096320 -0.071540 2.173260 
# 
# From -- ./inp_files/61173.got.cif
#   From: 2010.05.17/outbox.cif.g08.bks.cpg/sg2_31_cif.got.tgz:61173.got - 2010.06.03 11:33:40.
