data_PCOD9057293
_publ_section_title
;
Structure prediction by ZEFSAII (Michael W. Deem and Ramdas Pophale) SiO2 
 PCOD9057293
Probable space group: P -1
;
_chemical_formula_sum "Si O2"
_cell_formula_units_Z 16
_cell_length_a 11.877110
_cell_length_b 12.290051
_cell_length_c 9.774051
_cell_angle_alpha 155.162759
_cell_angle_beta 77.966398
_cell_angle_gamma 104.284455
_cell_volume 580.337269
_symmetry_space_group_name_H-M "P -1"
_symmetry_group_IT_number 2
_symmetry_cell_setting 'triclinic'
loop_
_space_group_symop_operation_xyz
x,y,z
-x,-y,-z
loop_
_atom_site_type_symbol
_atom_site_label
_atom_site_fract_x
_atom_site_fract_y
_atom_site_fract_z
Si Si1 0.215080 0.693557 0.400101
Si Si2 0.453898 0.407840 0.257866
Si Si3 0.474903 0.855674 0.531703
Si Si4 0.183522 0.364328 0.613379
Si Si5 0.287321 0.217394 0.674438
Si Si6 0.022279 0.065872 0.870146
Si Si7 0.075146 0.781621 0.187834
Si Si8 0.800855 0.553101 0.592027
O O1 0.343288 0.833106 0.484675
O O2 0.114509 0.865778 0.579428
O O3 0.201527 0.659857 0.529873
O O4 0.227263 0.406057 0.005800
O O5 0.500000 0.500000 0.500000
O O6 0.464930 0.648044 0.422664
O O7 0.314812 0.316071 0.202368
O O8 0.509574 0.154198 0.910463
O O9 0.578329 0.788922 0.331731
O O10 0.287883 0.323929 0.638678
O O11 0.212305 0.528462 0.656035
O O12 0.104535 0.103743 0.285383
O O13 0.099808 0.493589 0.887261
O O14 0.204892 0.942293 0.359893
O O15 0.991640 0.275430 0.005796
O O16 0.083401 0.242582 0.176763
O O17 0.000000 0.000000 0.500000
#
# Coordination Sequence:
#
# PCOD9057293 Si02
#       8
#     2   2   2   2   2   2   2   2
#     4  11  24  45  68  99 141 186 231 293 356 428
#     4  11  24  45  72 105 149 191 236 297 366 429
#     4  11  25  46  71 109 141 192 241 299 356 434
#     4  11  25  42  67 101 136 179 236 296 350 426
#     4  11  25  43  70 100 139 184 238 290 355 423
#     4  11  22  42  66  96 137 179 234 285 361 418
#     4  11  24  43  68 100 136 184 232 290 358 420
#     4  11  24  42  67 101 137 183 230 292 361 424
#
# _framework density 27.570174999999999
#
# number of rings (size 3 to 8) (size 9 to 14) (size 15 to 20)
#    0.000    1.000    1.250    4.875    3.500    6.000 
#    0.000    1.875    0.000    0.000    0.000    0.000 
#    0.000    0.000    0.000    0.000    0.000    0.000 
#
# Total GULP energy -89409.141267 kJ/mol
# GULP energy per Si atom -5588.071329 kJ/mol
# Density = 2.750742 g / cm^3
# Si number density = 27.570175 Si / 1000 Ang^3
#
#
#
# Elastic Constant Matrix: (Units=GPa)
#
#
# Indices 1 2 3 4 5 6 
#
# 1 123.9092 -2.6342 4.5524 1.1049 -3.3196 7.0643
# 2 -2.6342 88.5646 10.6141 -0.3054 -2.9543 -8.4015
# 3 4.5524 10.6141 94.1165 9.1302 -1.7610 1.4633
# 4 1.1049 -0.3054 9.1302 30.7661 1.3414 -0.2683
# 5 -3.3196 -2.9543 -1.7610 1.3414 50.1996 -8.2714
# 6 7.0643 -8.4015 1.4633 -0.2683 -8.2714 25.1236
#
#
#
# Elastic Compliance Matrix: (Units=1/GPa)
#
#
# Indices 1 2 3 4 5 6 
#
# 1 0.008217 0.000082 -0.000348 -0.000218 0.000178 -0.002207
# 2 0.000082 0.011944 -0.001446 0.000524 0.001388 0.004518
# 3 -0.000348 -0.001446 0.011147 -0.003328 0.000207 -0.001003
# 4 -0.000218 0.000524 -0.003328 0.033548 -0.000917 0.000487
# 5 0.000178 0.001388 0.000207 -0.000917 0.021264 0.007393
# 6 -0.002207 0.004518 -0.001003 0.000487 0.007393 0.044432
#
#
# Mechanical properties :
#
#
# Convention : Reuss Voigt Hill
#
# Bulk Modulus (GPa) = 35.86219 36.85055 36.35637
# Shear Modulus (GPa) = 34.89891 40.82173 37.86032
#
# Velocity S-wave (km/s) = 3.56170 3.85209 3.70974
# Velocity P-wave (km/s) = 5.47267 5.76020 5.61828
#
# Compressibility (1/GPa) = 0.02788452
#
# Stress axis : x y z
#
# Youngs Moduli (GPa) = 121.69188 83.72687 89.70779
#
# Poissons Ratio (x) = -0.00686 0.03121
# Poissons Ratio (y) = -0.00998 0.12972
# Poissons Ratio (z) = 0.04234 0.12107
#
# Static dielectric constant tensor:
#      x y z
#    x 2.125090 0.097180 -0.012950 
#    y 0.097180 2.323670 -0.038420 
#    z -0.012950 -0.038420 2.116860 
# 
# From -- ./inp_files/93440.got.cif
#   From: 2010.05.17/outbox.cif.g08.bks.cpg/sg2_47_cif.got.tgz:93440.got - 2010.06.03 11:33:40.
