data_PCOD9057267
_publ_section_title
;
Structure prediction by ZEFSAII (Michael W. Deem and Ramdas Pophale) SiO2 
 PCOD9057267
Probable space group: P -1
;
_chemical_formula_sum "Si O2"
_cell_formula_units_Z 14
_cell_length_a 10.086062
_cell_length_b 9.286934
_cell_length_c 17.415788
_cell_angle_alpha 47.629066
_cell_angle_beta 67.749180
_cell_angle_gamma 106.617413
_cell_volume 681.829353
_symmetry_space_group_name_H-M "P -1"
_symmetry_group_IT_number 2
_symmetry_cell_setting 'triclinic'
loop_
_space_group_symop_operation_xyz
x,y,z
-x,-y,-z
loop_
_atom_site_type_symbol
_atom_site_label
_atom_site_fract_x
_atom_site_fract_y
_atom_site_fract_z
Si Si1 0.357268 0.072452 0.732610
Si Si2 0.258344 0.207198 0.391252
Si Si3 0.986049 0.215600 0.945678
Si Si4 0.730059 0.775966 0.900706
Si Si5 0.397531 0.698831 0.786449
Si Si6 0.365463 0.057704 0.005992
Si Si7 0.217521 0.195773 0.580835
O O1 0.257782 0.070542 0.679306
O O2 0.597032 0.436778 0.571730
O O3 0.180159 0.917263 0.897392
O O4 0.398048 0.892953 0.766678
O O5 0.351149 0.118898 0.356747
O O6 0.449732 0.581729 0.195787
O O7 0.260399 0.171384 0.494262
O O8 0.000000 0.000000 0.500000
O O9 0.860761 0.184000 0.912778
O O10 0.242928 0.557653 0.793946
O O11 0.000000 0.000000 0.000000
O O12 0.500000 0.500000 0.000000
O O13 0.730138 0.606023 0.025916
O O14 0.712758 0.955741 0.887920
O O15 0.957745 0.998957 0.719047
O O16 0.500000 0.000000 0.000000
#
# Coordination Sequence:
#
# PCOD9057267 Si02
#       7
#     2   2   2   2   2   2   2
#     4  11  24  39  68  99 129 167 223 280 328 387
#     4  11  24  45  63  93 135 175 214 276 339 390
#     4  12  20  44  70  95 133 170 223 274 325 395
#     4  11  24  41  65  94 130 175 222 270 329 391
#     4  11  24  42  68  96 127 179 228 271 325 396
#     4  11  25  43  67  97 129 176 221 266 333 397
#     4  11  22  42  65  94 133 170 215 274 340 386
#
# _framework density 20.532997000000002
#
# number of rings (size 3 to 8) (size 9 to 14) (size 15 to 20)
#    0.000    0.857    5.714    2.143    2.000    4.000 
#    0.000    2.143    0.000    0.000    0.000    0.000 
#    0.000    0.000    0.000    0.000    0.000    0.000 
#
# Total GULP energy -78296.268586 kJ/mol
# GULP energy per Si atom -5592.590613 kJ/mol
# Density = 2.048626 g / cm^3
# Si number density = 20.532997 Si / 1000 Ang^3
#
#
#
# Elastic Constant Matrix: (Units=GPa)
#
#
# Indices 1 2 3 4 5 6 
#
# 1 93.9933 52.1435 14.2883 2.3846 -29.2608 -12.3536
# 2 52.1435 109.8088 15.6752 32.9031 -7.4893 -24.4010
# 3 14.2883 15.6752 70.4761 25.5072 -31.9104 -9.8562
# 4 2.3846 32.9031 25.5072 29.9985 2.6321 -14.0093
# 5 -29.2608 -7.4893 -31.9104 2.6321 32.5651 1.1005
# 6 -12.3536 -24.4010 -9.8562 -14.0093 1.1005 52.4821
#
#
#
# Elastic Compliance Matrix: (Units=1/GPa)
#
#
# Indices 1 2 3 4 5 6 
#
# 1 0.026506 -0.005313 0.029069 -0.024974 0.053048 0.001449
# 2 -0.005313 0.036949 0.059765 -0.097200 0.070153 -0.000265
# 3 0.029069 0.059765 0.233220 -0.294812 0.292440 -0.006399
# 4 -0.024974 -0.097200 -0.294812 0.432872 -0.369235 0.016854
# 5 0.053048 0.070153 0.292440 -0.369235 0.411152 -0.007159
# 6 0.001449 -0.000265 -0.006399 0.016854 -0.007159 0.022720
#
#
# Mechanical properties :
#
#
# Convention : Reuss Voigt Hill
#
# Bulk Modulus (GPa) = 2.15648 48.72135 25.43892
# Shear Modulus (GPa) = 4.34424 35.82056 20.08240
#
# Velocity S-wave (km/s) = 1.45614 4.18130 3.13078
# Velocity P-wave (km/s) = 1.96968 6.86227 5.04829
#
# Compressibility (1/GPa) = 0.46371778
#
# Stress axis : x y z
#
# Youngs Moduli (GPa) = 37.72754 27.06444 4.28779
#
# Poissons Ratio (x) = 0.14378 -0.12464
# Poissons Ratio (y) = 0.20043 -0.25626
# Poissons Ratio (z) = -1.09669 -1.61751
#
# Static dielectric constant tensor:
#      x y z
#    x 1.740760 0.012940 0.002540 
#    y 0.012940 1.722530 0.004230 
#    z 0.002540 0.004230 1.726440 
# 
# From -- ./inp_files/151453.got.cif
#   From: 2010.05.17/outbox.cif.g08.bks.cpg/sg2_76_cif.got.tgz:151453.got - 2010.06.03 11:33:40.
