data_PCOD9057143
_publ_section_title
;
Structure prediction by ZEFSAII (Michael W. Deem and Ramdas Pophale) SiO2 
 PCOD9057143
Probable space group: P -1
;
_chemical_formula_sum "Si O2"
_cell_formula_units_Z 14
_cell_length_a 7.528326
_cell_length_b 11.184071
_cell_length_c 7.453096
_cell_angle_alpha 56.232054
_cell_angle_beta 77.737714
_cell_angle_gamma 79.883349
_cell_volume 508.478941
_symmetry_space_group_name_H-M "P -1"
_symmetry_group_IT_number 2
_symmetry_cell_setting 'triclinic'
loop_
_space_group_symop_operation_xyz
x,y,z
-x,-y,-z
loop_
_atom_site_type_symbol
_atom_site_label
_atom_site_fract_x
_atom_site_fract_y
_atom_site_fract_z
Si Si1 0.446400 0.833479 0.297207
Si Si2 0.382496 0.412093 0.790146
Si Si3 0.746939 0.524243 0.613441
Si Si4 0.154472 0.281696 0.258546
Si Si5 0.807010 0.935420 0.057843
Si Si6 0.703427 0.044708 0.440363
Si Si7 0.082855 0.736120 0.979119
O O1 0.493522 0.711503 0.241641
O O2 0.650685 0.878275 0.266198
O O3 0.326963 0.832219 0.502108
O O4 0.320246 0.955905 0.122080
O O5 0.529968 0.529274 0.699061
O O6 0.246336 0.470236 0.609688
O O7 0.307239 0.350761 0.042370
O O8 0.833379 0.377897 0.804375
O O9 0.836517 0.647390 0.606816
O O10 0.969404 0.324936 0.152563
O O11 0.179516 0.105537 0.411412
O O12 0.886421 0.799313 0.038947
O O13 0.789444 0.132244 0.189110
O O14 0.000000 0.000000 0.000000
O O15 0.500000 0.000000 0.500000
#
# Coordination Sequence:
#
# PCOD9057143 Si02
#       7
#     2   2   2   2   2   2   2
#     4  11  22  44  69 107 150 191 255 321 378 457
#     4  11  24  49  76 111 151 206 268 314 387 470
#     4  11  27  46  77 111 154 210 255 321 385 474
#     4  12  24  48  75 112 160 196 260 320 393 467
#     4  11  22  41  71 105 148 196 252 319 388 455
#     4  12  25  44  78 112 152 200 256 324 396 459
#     4  12  25  47  73 117 155 201 260 321 394 471
#
# _framework density 27.533097999999999
#
# number of rings (size 3 to 8) (size 9 to 14) (size 15 to 20)
#    0.000    0.571    2.857    5.571    0.000    2.857 
#    0.000    0.000    0.000    2.571    0.000    0.000 
#    0.000    0.000    0.000    0.000    0.000    0.000 
#
# Total GULP energy -78280.531953 kJ/mol
# GULP energy per Si atom -5591.466568 kJ/mol
# Density = 2.747043 g / cm^3
# Si number density = 27.533098 Si / 1000 Ang^3
#
#
#
# Elastic Constant Matrix: (Units=GPa)
#
#
# Indices 1 2 3 4 5 6 
#
# 1 133.3213 29.2487 57.4587 1.9449 7.9733 7.3253
# 2 29.2487 82.7956 34.8075 6.7560 12.5847 0.4220
# 3 57.4587 34.8075 151.5184 -18.4421 27.2764 -33.7483
# 4 1.9449 6.7560 -18.4421 48.2462 -6.2765 2.5532
# 5 7.9733 12.5847 27.2764 -6.2765 65.3047 3.7890
# 6 7.3253 0.4220 -33.7483 2.5532 3.7890 49.8617
#
#
#
# Elastic Compliance Matrix: (Units=1/GPa)
#
#
# Indices 1 2 3 4 5 6 
#
# 1 0.010239 -0.001514 -0.005073 -0.001712 0.001283 -0.004935
# 2 -0.001514 0.014509 -0.003322 -0.003328 -0.001435 -0.001869
# 3 -0.005073 -0.003322 0.012684 0.004478 -0.004156 0.009445
# 4 -0.001712 -0.003328 0.004478 0.023005 0.001072 0.002051
# 5 0.001283 -0.001435 -0.004156 0.001072 0.017525 -0.004376
# 6 -0.004935 -0.001869 0.009445 0.002051 -0.004376 0.027416
#
#
# Mechanical properties :
#
#
# Convention : Reuss Voigt Hill
#
# Bulk Modulus (GPa) = 56.77892 67.85169 62.31530
# Shear Modulus (GPa) = 38.14839 49.09055 43.61947
#
# Velocity S-wave (km/s) = 3.72633 4.22710 3.98459
# Velocity P-wave (km/s) = 6.25946 6.96575 6.62203
#
# Compressibility (1/GPa) = 0.01761217
#
# Stress axis : x y z
#
# Youngs Moduli (GPa) = 97.66757 68.92469 78.84153
#
# Poissons Ratio (x) = 0.10437 0.39999
# Poissons Ratio (y) = 0.14789 0.26190
# Poissons Ratio (z) = 0.49550 0.22896
#
# Static dielectric constant tensor:
#      x y z
#    x 2.097030 0.125200 0.020460 
#    y 0.125200 2.376450 -0.011520 
#    z 0.020460 -0.011520 2.060290 
# 
# From -- ./inp_files/175295.got.cif
#   From: 2010.05.17/outbox.cif.g08.bks.cpg/sg2_88_cif.got.tgz:175295.got - 2010.06.03 11:33:40.
