data_PCOD9057535
_publ_section_title
;
Structure prediction by ZEFSAII (Michael W. Deem and Ramdas Pophale) SiO2 
 PCOD9057535
Probable space group: P -1
;
_chemical_formula_sum "Si O2"
_cell_formula_units_Z 14
_cell_length_a 9.932466
_cell_length_b 21.585768
_cell_length_c 12.158165
_cell_angle_alpha 138.697499
_cell_angle_beta 121.069982
_cell_angle_gamma 27.634310
_cell_volume 696.465166
_symmetry_space_group_name_H-M "P -1"
_symmetry_group_IT_number 2
_symmetry_cell_setting 'triclinic'
loop_
_space_group_symop_operation_xyz
x,y,z
-x,-y,-z
loop_
_atom_site_type_symbol
_atom_site_label
_atom_site_fract_x
_atom_site_fract_y
_atom_site_fract_z
Si Si1 0.087685 0.414002 0.106782
Si Si2 0.087782 0.805993 0.005703
Si Si3 0.155050 0.130386 0.552363
Si Si4 0.894163 0.308480 0.921243
Si Si5 0.310153 0.840788 0.830697
Si Si6 0.515617 0.761127 0.180100
Si Si7 0.450834 0.560314 0.435840
O O1 0.352197 0.321916 0.175515
O O2 0.747705 0.641078 0.225517
O O3 0.280883 0.305235 0.926337
O O4 0.984039 0.369784 0.055749
O O5 0.981898 0.817988 0.093021
O O6 0.379428 0.729517 0.051648
O O7 0.244774 0.640489 0.776105
O O8 0.799594 0.015088 0.100843
O O9 0.045692 0.203585 0.727902
O O10 0.875059 0.310027 0.588325
O O11 0.500000 0.000000 0.500000
O O12 0.211530 0.990159 0.374530
O O13 0.500000 0.500000 0.000000
O O14 0.379820 0.708679 0.616597
O O15 0.000000 0.000000 0.000000
O O16 0.500000 0.500000 0.500000
#
# Coordination Sequence:
#
# PCOD9057535 Si02
#       7
#     2   2   2   2   2   2   2
#     4  11  23  43  69 101 139 184 229 293 347 417
#     4  12  25  46  71 101 142 190 228 293 357 411
#     4  12  25  42  73 108 135 183 246 284 345 422
#     4  12  25  46  70 101 148 180 231 301 355 402
#     4  12  24  44  69 103 143 183 235 288 350 426
#     4  11  22  42  73 102 134 180 246 288 336 415
#     4  12  24  41  70 104 139 181 232 287 351 415
#
# _framework density 20.101507999999999
#
# number of rings (size 3 to 8) (size 9 to 14) (size 15 to 20)
#    0.000    0.286    8.571    0.000    4.000    1.143 
#    2.571    0.714    0.000    0.000    0.000    0.000 
#    0.000    0.000    0.000    0.000    0.000    0.000 
#
# Total GULP energy -78188.022909 kJ/mol
# GULP energy per Si atom -5584.858779 kJ/mol
# Density = 2.005576 g / cm^3
# Si number density = 20.101508 Si / 1000 Ang^3
#
#
#
# Elastic Constant Matrix: (Units=GPa)
#
#
# Indices 1 2 3 4 5 6 
#
# 1 113.5123 43.0555 30.8052 -8.7887 -7.0260 17.9795
# 2 43.0555 157.6825 36.1377 -5.5494 1.4657 30.7591
# 3 30.8052 36.1377 114.3163 -1.8139 4.5581 5.7350
# 4 -8.7887 -5.5494 -1.8139 21.8061 5.4970 3.0644
# 5 -7.0260 1.4657 4.5581 5.4970 32.7755 -4.7406
# 6 17.9795 30.7591 5.7350 3.0644 -4.7406 43.1328
#
#
#
# Elastic Compliance Matrix: (Units=1/GPa)
#
#
# Indices 1 2 3 4 5 6 
#
# 1 0.010977 -0.001755 -0.002253 0.003810 0.001656 -0.003113
# 2 -0.001755 0.008383 -0.001802 0.002456 -0.001689 -0.005367
# 3 -0.002253 -0.001802 0.009949 -0.000229 -0.001641 0.000737
# 4 0.003810 0.002456 -0.000229 0.051395 -0.009031 -0.007953
# 5 0.001656 -0.001689 -0.001641 -0.009031 0.033414 0.005047
# 6 -0.003113 -0.005367 0.000737 -0.007953 0.005047 0.029331
#
#
# Mechanical properties :
#
#
# Convention : Reuss Voigt Hill
#
# Bulk Modulus (GPa) = 56.52621 67.27866 61.90244
# Shear Modulus (GPa) = 31.06268 37.91040 34.48654
#
# Velocity S-wave (km/s) = 3.93528 4.34746 4.14650
# Velocity P-wave (km/s) = 6.98785 7.66438 7.33392
#
# Compressibility (1/GPa) = 0.01769091
#
# Stress axis : x y z
#
# Youngs Moduli (GPa) = 91.09726 119.28802 100.51234
#
# Poissons Ratio (x) = 0.20936 0.22642
# Poissons Ratio (y) = 0.15988 0.18108
# Poissons Ratio (z) = 0.20521 0.21490
#
# Static dielectric constant tensor:
#      x y z
#    x 1.708350 -0.007480 0.056820 
#    y -0.007480 1.732320 -0.006230 
#    z 0.056820 -0.006230 1.746540 
# 
# From -- ./inp_files/319549.got.cif
#   From: 2010.05.17/outbox.cif.g08.bks.cpg/sg2_160_cif.got.tgz:319549.got - 2010.06.03 11:33:40.
