data_PCOD9057647
_publ_section_title
;
Structure prediction by ZEFSAII (Michael W. Deem and Ramdas Pophale) SiO2 
 PCOD9057647
Probable space group: P -1
;
_chemical_formula_sum "Si O2"
_cell_formula_units_Z 16
_cell_length_a 9.188448
_cell_length_b 11.734291
_cell_length_c 12.746624
_cell_angle_alpha 108.038956
_cell_angle_beta 45.337494
_cell_angle_gamma 129.040154
_cell_volume 736.877467
_symmetry_space_group_name_H-M "P -1"
_symmetry_group_IT_number 2
_symmetry_cell_setting 'triclinic'
loop_
_space_group_symop_operation_xyz
x,y,z
-x,-y,-z
loop_
_atom_site_type_symbol
_atom_site_label
_atom_site_fract_x
_atom_site_fract_y
_atom_site_fract_z
Si Si1 0.562307 0.664991 0.501243
Si Si2 0.468263 0.432732 0.171446
Si Si3 0.209450 0.911612 0.916166
Si Si4 0.484873 0.775485 0.787070
Si Si5 0.270431 0.285327 0.028867
Si Si6 0.676714 0.219012 0.796634
Si Si7 0.130432 0.911175 0.196793
Si Si8 0.155416 0.482026 0.502307
O O1 0.500000 0.500000 0.500000
O O2 0.566549 0.736730 0.628707
O O3 0.327727 0.622690 0.533410
O O4 0.834271 0.787178 0.342915
O O5 0.594593 0.358349 0.131771
O O6 0.654796 0.579662 0.048108
O O7 0.350812 0.467031 0.335267
O O8 0.241275 0.316979 0.171904
O O9 0.263806 0.790729 0.873164
O O10 0.481423 0.064777 0.787080
O O11 0.152092 0.941068 0.070480
O O12 0.984642 0.858515 0.934083
O O13 0.719025 0.933726 0.768209
O O14 0.515790 0.283693 0.906586
O O15 0.731775 0.164847 0.860022
O O16 0.944814 0.336022 0.635958
O O17 0.000000 0.500000 0.500000
#
# Coordination Sequence:
#
# PCOD9057647 Si02
#       8
#     2   2   2   2   2   2   2   2
#     4  12  24  43  71 100 128 177 227 272 329 400
#     4  11  23  42  63  97 132 177 217 279 331 386
#     4  11  25  42  68 100 132 181 225 265 339 396
#     4  11  24  43  68 101 137 171 223 275 334 390
#     4  11  24  40  65  95 137 176 224 270 326 400
#     4  11  22  43  67  93 134 174 217 277 326 392
#     4  11  23  45  71 100 137 174 219 279 333 392
#     4  12  25  43  66  94 133 173 218 272 334 389
#
# _framework density 21.713244
#
# number of rings (size 3 to 8) (size 9 to 14) (size 15 to 20)
#    0.000    0.750    3.750    4.500    1.750    1.500 
#    0.000    0.625    0.000    0.000    0.000    0.000 
#    0.000    0.000    0.000    0.000    0.000    0.000 
#
# Total GULP energy -89451.987181 kJ/mol
# GULP energy per Si atom -5590.749199 kJ/mol
# Density = 2.166382 g / cm^3
# Si number density = 21.713244 Si / 1000 Ang^3
#
#
#
# Elastic Constant Matrix: (Units=GPa)
#
#
# Indices 1 2 3 4 5 6 
#
# 1 74.7755 29.2685 6.3475 -9.2484 -1.1294 10.0210
# 2 29.2685 74.6306 21.8213 3.7991 -0.6488 1.2390
# 3 6.3475 21.8213 60.5910 3.1403 9.0813 11.5397
# 4 -9.2484 3.7991 3.1403 28.1473 -0.4971 0.0134
# 5 -1.1294 -0.6488 9.0813 -0.4971 19.9905 3.6799
# 6 10.0210 1.2390 11.5397 0.0134 3.6799 49.6694
#
#
#
# Elastic Compliance Matrix: (Units=1/GPa)
#
#
# Indices 1 2 3 4 5 6 
#
# 1 0.017536 -0.007448 0.001031 0.006674 0.001123 -0.003677
# 2 -0.007448 0.018407 -0.006468 -0.004166 0.002578 0.002356
# 3 0.001031 -0.006468 0.020937 -0.001279 -0.008912 -0.004250
# 4 0.006674 -0.004166 -0.001279 0.038461 0.001982 -0.001103
# 5 0.001123 0.002578 -0.008912 0.001982 0.054687 -0.002273
# 6 -0.003677 0.002356 -0.004250 -0.001103 -0.002273 0.021972
#
#
# Mechanical properties :
#
#
# Convention : Reuss Voigt Hill
#
# Bulk Modulus (GPa) = 32.14324 36.09687 34.12006
# Shear Modulus (GPa) = 24.02236 29.73209 26.87722
#
# Velocity S-wave (km/s) = 3.32979 3.70443 3.52209
# Velocity P-wave (km/s) = 5.44233 5.91249 5.68227
#
# Compressibility (1/GPa) = 0.03111074
#
# Stress axis : x y z
#
# Youngs Moduli (GPa) = 57.02515 54.32811 47.76224
#
# Poissons Ratio (x) = 0.40462 -0.04925
# Poissons Ratio (y) = 0.42471 0.30893
# Poissons Ratio (z) = -0.05880 0.35139
#
# Static dielectric constant tensor:
#      x y z
#    x 1.816100 -0.016340 -0.006280 
#    y -0.016340 1.845540 0.026710 
#    z -0.006280 0.026710 1.764100 
# 
# From -- ./inp_files/186611.got.cif
#   From: 2010.05.17/outbox.cif.g08.bks.cpg/sg2_94_cif.got.tgz:186611.got - 2010.06.03 11:33:40.
