data_PCOD9057865
_publ_section_title
;
Structure prediction by ZEFSAII (Michael W. Deem and Ramdas Pophale) SiO2 
 PCOD9057865
Probable space group: P -1
;
_chemical_formula_sum "Si O2"
_cell_formula_units_Z 16
_cell_length_a 15.943823
_cell_length_b 18.640508
_cell_length_c 8.588349
_cell_angle_alpha 133.072271
_cell_angle_beta 43.381845
_cell_angle_gamma 156.986878
_cell_volume 684.463253
_symmetry_space_group_name_H-M "P -1"
_symmetry_group_IT_number 2
_symmetry_cell_setting 'triclinic'
loop_
_space_group_symop_operation_xyz
x,y,z
-x,-y,-z
loop_
_atom_site_type_symbol
_atom_site_label
_atom_site_fract_x
_atom_site_fract_y
_atom_site_fract_z
Si Si1 0.417864 0.043532 0.256312
Si Si2 0.159950 0.070753 0.251406
Si Si3 0.946821 0.697448 0.467584
Si Si4 0.369376 0.757218 0.434511
Si Si5 0.179516 0.273274 0.005123
Si Si6 0.589332 0.692499 0.015587
Si Si7 0.622100 0.349778 0.226993
Si Si8 0.096935 0.601100 0.281280
O O1 0.474156 0.076618 0.412331
O O2 0.553640 0.226822 0.271659
O O3 0.147779 0.878489 0.360512
O O4 0.500000 0.000000 0.000000
O O5 0.400535 0.208809 0.210047
O O6 0.228672 0.191418 0.197301
O O7 0.000000 0.000000 0.500000
O O8 0.022425 0.890782 0.082157
O O9 0.046700 0.659104 0.326859
O O10 0.903786 0.725771 0.727217
O O11 0.715420 0.514021 0.417023
O O12 0.491001 0.735345 0.211300
O O13 0.296107 0.754532 0.366669
O O14 0.132878 0.577714 0.579290
O O15 0.378636 0.474380 0.959608
O O16 0.292978 0.252863 0.897101
O O17 0.822393 0.436640 0.984140
#
# Coordination Sequence:
#
# PCOD9057865 Si02
#       8
#     2   2   2   2   2   2   2   2
#     4  12  25  40  69 104 141 185 236 276 349 427
#     4  12  30  47  71 104 143 184 237 299 354 410
#     4  12  25  44  75 103 142 187 233 287 352 418
#     4  11  23  43  73 104 139 188 227 294 346 416
#     4  11  27  47  78 103 133 190 244 288 349 426
#     4  11  24  50  75 101 141 182 240 293 353 417
#     4  12  26  48  66 104 149 185 225 293 354 412
#     4  11  22  43  72  99 142 185 226 279 359 410
#
# _framework density 23.375979999999998
#
# number of rings (size 3 to 8) (size 9 to 14) (size 15 to 20)
#    0.000    0.500    5.000    2.250    7.000    3.000 
#    0.000    0.000    0.000    0.000    0.000    0.000 
#    0.000    0.000    0.000    0.000    0.000    0.000 
#
# Total GULP energy -89610.375766 kJ/mol
# GULP energy per Si atom -5600.648485 kJ/mol
# Density = 2.332278 g / cm^3
# Si number density = 23.375980 Si / 1000 Ang^3
#
#
#
# Elastic Constant Matrix: (Units=GPa)
#
#
# Indices 1 2 3 4 5 6 
#
# 1 66.2392 12.6040 19.0391 17.2793 10.2408 25.2012
# 2 12.6040 125.2993 61.8308 5.8166 17.7708 13.7048
# 3 19.0391 61.8308 139.1288 -8.5377 14.4121 11.7564
# 4 17.2793 5.8166 -8.5377 44.8009 13.9591 18.2935
# 5 10.2408 17.7708 14.4121 13.9591 32.4234 -2.1378
# 6 25.2012 13.7048 11.7564 18.2935 -2.1378 43.8331
#
#
#
# Elastic Compliance Matrix: (Units=1/GPa)
#
#
# Indices 1 2 3 4 5 6 
#
# 1 0.021349 0.001038 -0.001868 -0.002014 -0.006377 -0.011568
# 2 0.001038 0.010990 -0.004261 0.000128 -0.004721 -0.003173
# 3 -0.001868 -0.004261 0.010418 0.005896 -0.004446 -0.003066
# 4 -0.002014 0.000128 0.005896 0.037043 -0.019114 -0.016855
# 5 -0.006377 -0.004721 -0.004446 -0.019114 0.046743 0.016592
# 6 -0.011568 -0.003173 -0.003066 -0.016855 0.016592 0.039123
#
#
# Mechanical properties :
#
#
# Convention : Reuss Voigt Hill
#
# Bulk Modulus (GPa) = 30.69956 57.51277 44.10617
# Shear Modulus (GPa) = 26.77997 40.02437 33.40217
#
# Velocity S-wave (km/s) = 3.38837 4.14236 3.78419
# Velocity P-wave (km/s) = 5.33569 6.89461 6.16463
#
# Compressibility (1/GPa) = 0.03257376
#
# Stress axis : x y z
#
# Youngs Moduli (GPa) = 46.84119 90.99213 95.98497
#
# Poissons Ratio (x) = -0.09441 0.17931
# Poissons Ratio (y) = -0.04860 0.40899
# Poissons Ratio (z) = 0.08751 0.38772
#
# Static dielectric constant tensor:
#      x y z
#    x 1.908760 0.027480 -0.006580 
#    y 0.027480 1.914130 -0.011270 
#    z -0.006580 -0.011270 1.874260 
# 
# From -- ./inp_files/338181.got.cif
#   From: 2010.05.17/outbox.cif.g08.bks.cpg/sg2_170_cif.got.tgz:338181.got - 2010.06.03 11:33:40.
