data_PCOD9057282
_publ_section_title
;
Structure prediction by ZEFSAII (Michael W. Deem and Ramdas Pophale) SiO2 
 PCOD9057282
Probable space group: P -1
;
_chemical_formula_sum "Si O2"
_cell_formula_units_Z 16
_cell_length_a 13.553608
_cell_length_b 22.473917
_cell_length_c 8.401704
_cell_angle_alpha 44.896051
_cell_angle_beta 129.023745
_cell_angle_gamma 160.550669
_cell_volume 593.408777
_symmetry_space_group_name_H-M "P -1"
_symmetry_group_IT_number 2
_symmetry_cell_setting 'triclinic'
loop_
_space_group_symop_operation_xyz
x,y,z
-x,-y,-z
loop_
_atom_site_type_symbol
_atom_site_label
_atom_site_fract_x
_atom_site_fract_y
_atom_site_fract_z
Si Si1 0.108652 0.703049 0.795717
Si Si2 0.556060 0.112856 0.528753
Si Si3 0.902410 0.369395 0.767098
Si Si4 0.773776 0.988688 0.226966
Si Si5 0.265591 0.110441 0.290294
Si Si6 0.000747 0.902827 0.076741
Si Si7 0.679131 0.547593 0.471527
Si Si8 0.117542 0.359296 0.809503
O O1 0.353430 0.830450 0.670825
O O2 0.801692 0.542958 0.702023
O O3 0.258537 0.876763 0.701392
O O4 0.062972 0.601393 0.064890
O O5 0.503210 0.178569 0.387696
O O6 0.831184 0.233373 0.670075
O O7 0.538316 0.147566 0.806157
O O8 0.122144 0.424242 0.840694
O O9 0.000000 0.500000 0.500000
O O10 0.821269 0.956191 0.487482
O O11 0.769897 0.945144 0.127343
O O12 0.031556 0.214810 0.054241
O O13 0.048818 0.956173 0.209994
O O14 0.287121 0.221365 0.054401
O O15 0.958484 0.777604 0.279621
O O16 0.500000 0.500000 0.500000
O O17 0.611897 0.479046 0.351419
#
# Coordination Sequence:
#
# PCOD9057282 Si02
#       8
#     2   2   2   2   2   2   2   2
#     4  10  20  36  63  89 117 158 208 257 308 364
#     4  10  17  36  66  91 110 153 217 263 292 359
#     4  12  24  38  56  98 133 152 193 266 332 370
#     4  11  21  40  68  86 125 165 211 260 302 373
#     4  11  20  35  61  93 122 155 208 258 318 349
#     4  10  23  38  59  94 120 161 216 255 299 377
#     4  10  22  42  61  82 123 165 206 255 304 372
#     4  10  21  40  65  92 112 161 217 248 304 380
#
# _framework density 26.962864
#
# number of rings (size 3 to 8) (size 9 to 14) (size 15 to 20)
#    0.000    1.500    3.750    2.250    0.000    1.000 
#    6.750    1.875    0.000    0.000    0.000    0.000 
#    0.000    0.000    0.000    0.000    0.000    0.000 
#
# Total GULP energy -89225.845011 kJ/mol
# GULP energy per Si atom -5576.615313 kJ/mol
# Density = 2.690149 g / cm^3
# Si number density = 26.962864 Si / 1000 Ang^3
#
#
#
# Elastic Constant Matrix: (Units=GPa)
#
#
# Indices 1 2 3 4 5 6 
#
# 1 122.9348 20.1591 26.0258 0.3752 -33.8314 33.0032
# 2 20.1591 69.6584 36.5670 20.6796 -7.5171 8.7330
# 3 26.0258 36.5670 170.1582 28.2470 -33.2432 7.9310
# 4 0.3752 20.6796 28.2470 42.0612 4.5675 -2.4635
# 5 -33.8314 -7.5171 -33.2432 4.5675 55.5913 -1.1958
# 6 33.0032 8.7330 7.9310 -2.4635 -1.1958 29.1659
#
#
#
# Elastic Compliance Matrix: (Units=1/GPa)
#
#
# Indices 1 2 3 4 5 6 
#
# 1 0.015341 -0.001078 0.000927 -0.002268 0.009564 -0.017088
# 2 -0.001078 0.018922 -0.002067 -0.008307 0.001252 -0.004534
# 3 0.000927 -0.002067 0.008302 -0.005349 0.005626 -0.002908
# 4 -0.002268 -0.008307 -0.005349 0.032887 -0.008212 0.008950
# 5 0.009564 0.001252 0.005626 -0.008212 0.027753 -0.012282
# 6 -0.017088 -0.004534 -0.002908 0.008950 -0.012282 0.056024
#
#
# Mechanical properties :
#
#
# Convention : Reuss Voigt Hill
#
# Bulk Modulus (GPa) = 26.22680 58.69503 42.46092
# Shear Modulus (GPa) = 28.34850 44.03029 36.18940
#
# Velocity S-wave (km/s) = 3.24603 4.04542 3.66757
# Velocity P-wave (km/s) = 4.87823 6.60581 5.80662
#
# Compressibility (1/GPa) = 0.03812893
#
# Stress axis : x y z
#
# Youngs Moduli (GPa) = 65.18304 52.84740 120.45525
#
# Poissons Ratio (x) = 0.05700 -0.11163
# Poissons Ratio (y) = 0.07030 0.24893
# Poissons Ratio (z) = -0.06041 0.10921
#
# Static dielectric constant tensor:
#      x y z
#    x 2.308050 -0.084360 -0.059330 
#    y -0.084360 2.249680 -0.026960 
#    z -0.059330 -0.026960 2.041280 
# 
# From -- ./inp_files/189391.got.cif
#   From: 2010.05.17/outbox.cif.g08.bks.cpg/sg2_95_cif.got.tgz:189391.got - 2010.06.03 11:33:40.
