data_PCOD9057322
_publ_section_title
;
Structure prediction by ZEFSAII (Michael W. Deem and Ramdas Pophale) SiO2 
 PCOD9057322
Probable space group: P -1
;
_chemical_formula_sum "Si O2"
_cell_formula_units_Z 16
_cell_length_a 6.386718
_cell_length_b 20.116087
_cell_length_c 9.743431
_cell_angle_alpha 124.388020
_cell_angle_beta 99.451709
_cell_angle_gamma 50.346227
_cell_volume 756.464377
_symmetry_space_group_name_H-M "P -1"
_symmetry_group_IT_number 2
_symmetry_cell_setting 'triclinic'
loop_
_space_group_symop_operation_xyz
x,y,z
-x,-y,-z
loop_
_atom_site_type_symbol
_atom_site_label
_atom_site_fract_x
_atom_site_fract_y
_atom_site_fract_z
Si Si1 0.245702 0.695701 0.110271
Si Si2 0.203434 0.399850 0.802286
Si Si3 0.855913 0.484666 0.582097
Si Si4 0.745899 0.138387 0.852183
Si Si5 0.420875 0.955806 0.750587
Si Si6 0.775474 0.353153 0.225154
Si Si7 0.418561 0.137196 0.051931
Si Si8 0.322476 0.185655 0.652326
O O1 0.488752 0.635960 0.182969
O O2 0.295427 0.761469 0.096267
O O3 0.940640 0.780281 0.247957
O O4 0.249181 0.621726 0.913169
O O5 0.240569 0.297776 0.733215
O O6 0.056629 0.435154 0.679284
O O7 0.000000 0.500000 0.000000
O O8 0.820436 0.408376 0.412564
O O9 0.541245 0.597688 0.716824
O O10 0.000000 0.500000 0.500000
O O11 0.599396 0.118388 0.700562
O O12 0.573751 0.163205 0.002794
O O13 0.081385 0.037877 0.785478
O O14 0.488882 0.882898 0.803869
O O15 0.599543 0.882683 0.554065
O O16 0.500423 0.027523 0.879267
O O17 0.074753 0.229590 0.117766
#
# Coordination Sequence:
#
# PCOD9057322 Si02
#       8
#     2   2   2   2   2   2   2   2
#     4  11  24  43  73  96 134 181 221 276 334 395
#     4  11  25  44  67 100 131 172 224 270 335 396
#     4  11  27  43  71 100 134 174 221 280 329 403
#     4  11  22  42  67  98 127 181 221 268 332 392
#     4  11  24  42  63 102 133 173 225 272 335 391
#     4  11  23  45  65 100 132 176 222 268 341 389
#     4  11  24  41  70  93 138 176 219 277 331 399
#     4  11  25  43  67  96 136 173 222 280 324 395
#
# _framework density 21.151029999999999
#
# number of rings (size 3 to 8) (size 9 to 14) (size 15 to 20)
#    0.000    1.000    3.750    1.500    3.500    7.500 
#    0.000    1.250    0.000    0.000    0.000    0.000 
#    0.000    0.000    0.000    0.000    0.000    0.000 
#
# Total GULP energy -89343.463889 kJ/mol
# GULP energy per Si atom -5583.966493 kJ/mol
# Density = 2.110289 g / cm^3
# Si number density = 21.151030 Si / 1000 Ang^3
#
#
#
# Elastic Constant Matrix: (Units=GPa)
#
#
# Indices 1 2 3 4 5 6 
#
# 1 59.2402 42.7363 47.8884 -21.9593 -13.4517 -25.8887
# 2 42.7363 90.2657 38.6528 -28.7204 -5.1912 -17.5258
# 3 47.8884 38.6528 164.9483 -18.8913 -11.9111 -12.9006
# 4 -21.9593 -28.7204 -18.8913 44.2735 -4.5031 1.9572
# 5 -13.4517 -5.1912 -11.9111 -4.5031 32.8973 -3.9229
# 6 -25.8887 -17.5258 -12.9006 1.9572 -3.9229 32.7740
#
#
#
# Elastic Compliance Matrix: (Units=1/GPa)
#
#
# Indices 1 2 3 4 5 6 
#
# 1 0.068432 -0.009457 -0.008651 0.025305 0.032542 0.047978
# 2 -0.009457 0.018325 -0.000640 0.006843 -0.000072 0.001660
# 3 -0.008651 -0.000640 0.008178 -0.001172 -0.001320 -0.004045
# 4 0.025305 0.006843 -0.001172 0.040012 0.019234 0.023100
# 5 0.032542 -0.000072 -0.001320 0.019234 0.049415 0.029914
# 6 0.047978 0.001660 -0.004045 0.023100 0.029914 0.069907
#
#
# Mechanical properties :
#
#
# Convention : Reuss Voigt Hill
#
# Bulk Modulus (GPa) = 17.40956 63.66767 40.53862
# Shear Modulus (GPa) = 16.08168 34.33406 25.20787
#
# Velocity S-wave (km/s) = 2.76039 4.03337 3.45600
# Velocity P-wave (km/s) = 4.29053 7.20122 5.92732
#
# Compressibility (1/GPa) = 0.05743972
#
# Stress axis : x y z
#
# Youngs Moduli (GPa) = 14.61300 54.56894 122.27546
#
# Poissons Ratio (x) = 0.51604 1.05782
# Poissons Ratio (y) = 0.13819 0.07830
# Poissons Ratio (z) = 0.12642 0.03495
#
# Static dielectric constant tensor:
#      x y z
#    x 1.762930 0.016690 0.037210 
#    y 0.016690 1.774540 0.000840 
#    z 0.037210 0.000840 1.752010 
# 
# From -- ./inp_files/106840.got.cif
#   From: 2010.05.17/outbox.cif.g08.bks.cpg/sg2_54_cif.got.tgz:106840.got - 2010.06.03 11:33:40.
