data_PCOD9057703
_publ_section_title
;
Structure prediction by ZEFSAII (Michael W. Deem and Ramdas Pophale) SiO2 
 PCOD9057703
Probable space group: P -1
;
_chemical_formula_sum "Si O2"
_cell_formula_units_Z 14
_cell_length_a 15.411393
_cell_length_b 21.212439
_cell_length_c 12.360444
_cell_angle_alpha 20.668858
_cell_angle_beta 28.930728
_cell_angle_gamma 26.267664
_cell_volume 614.044962
_symmetry_space_group_name_H-M "P -1"
_symmetry_group_IT_number 2
_symmetry_cell_setting 'triclinic'
loop_
_space_group_symop_operation_xyz
x,y,z
-x,-y,-z
loop_
_atom_site_type_symbol
_atom_site_label
_atom_site_fract_x
_atom_site_fract_y
_atom_site_fract_z
Si Si1 0.605509 0.635098 0.631042
Si Si2 0.255696 0.199460 0.384930
Si Si3 0.767560 0.964627 0.691525
Si Si4 0.811975 0.527714 0.356830
Si Si5 0.177909 0.925973 0.304766
Si Si6 0.457657 0.485599 0.695105
Si Si7 0.382292 0.088101 0.658083
O O1 0.437940 0.843959 0.424513
O O2 0.775126 0.534601 0.515456
O O3 0.678789 0.704043 0.547443
O O4 0.500000 0.500000 0.000000
O O5 0.268291 0.114274 0.627689
O O6 0.030741 0.363231 0.344300
O O7 0.377745 0.022075 0.452152
O O8 0.395351 0.311808 0.059068
O O9 0.810062 0.966787 0.770435
O O10 0.955828 0.991139 0.396548
O O11 0.772913 0.751114 0.004304
O O12 0.647214 0.471390 0.576409
O O13 0.269466 0.691215 0.607283
O O14 0.320567 0.956882 0.014436
O O15 0.500000 0.500000 0.500000
#
# Coordination Sequence:
#
# PCOD9057703 Si02
#       7
#     2   2   2   2   2   2   2
#     4  12  26  44  71 104 137 182 238 289 348 422
#     4  11  27  47  67 106 143 188 232 284 352 427
#     4  11  24  42  72 107 136 180 238 295 347 415
#     4  12  25  46  74 102 140 185 236 292 349 414
#     4  11  22  43  69 101 142 181 231 294 349 405
#     4  12  24  43  69 100 140 179 236 291 341 418
#     4  11  25  47  68  97 150 183 227 293 353 412
#
# _framework density 22.799633
#
# number of rings (size 3 to 8) (size 9 to 14) (size 15 to 20)
#    0.000    0.571    5.714    2.143    2.000    2.286 
#    0.000    2.143    0.000    0.000    0.000    0.000 
#    0.000    0.000    0.000    0.000    0.000    0.000 
#
# Total GULP energy -78360.402315 kJ/mol
# GULP energy per Si atom -5597.171594 kJ/mol
# Density = 2.274774 g / cm^3
# Si number density = 22.799633 Si / 1000 Ang^3
#
#
#
# Elastic Constant Matrix: (Units=GPa)
#
#
# Indices 1 2 3 4 5 6 
#
# 1 37.1083 10.0639 -5.4686 13.1466 -5.5798 14.0324
# 2 10.0639 87.2598 -12.1170 12.1802 0.3850 -0.5184
# 3 -5.4686 -12.1170 49.6971 0.8091 5.2829 6.1348
# 4 13.1466 12.1802 0.8091 27.3677 1.8557 1.8952
# 5 -5.5798 0.3850 5.2829 1.8557 29.9982 2.0824
# 6 14.0324 -0.5184 6.1348 1.8952 2.0824 37.6152
#
#
#
# Elastic Compliance Matrix: (Units=1/GPa)
#
#
# Indices 1 2 3 4 5 6 
#
# 1 0.042720 -0.001557 0.005675 -0.019491 0.009312 -0.016417
# 2 -0.001557 0.012767 0.003031 -0.005013 -0.000716 0.000555
# 3 0.005675 0.003031 0.022465 -0.004209 -0.002304 -0.005400
# 4 -0.019491 -0.005013 -0.004209 0.048277 -0.006209 0.005800
# 5 0.009312 -0.000716 -0.002304 -0.006209 0.036200 -0.004799
# 6 -0.016417 0.000555 -0.005400 0.005800 -0.004799 0.033571
#
#
# Mechanical properties :
#
#
# Convention : Reuss Voigt Hill
#
# Bulk Modulus (GPa) = 10.84005 17.66910 14.25457
# Shear Modulus (GPa) = 23.53462 31.10199 27.31831
#
# Velocity S-wave (km/s) = 3.21633 3.69744 3.46524
# Velocity P-wave (km/s) = 4.30788 5.09849 4.71977
#
# Compressibility (1/GPa) = 0.09225052
#
# Stress axis : x y z
#
# Youngs Moduli (GPa) = 23.40803 78.32882 44.51292
#
# Poissons Ratio (x) = 0.12196 -0.25263
# Poissons Ratio (y) = 0.03645 -0.13490
# Poissons Ratio (z) = -0.13285 -0.23739
#
# Static dielectric constant tensor:
#      x y z
#    x 1.860570 0.022490 0.008490 
#    y 0.022490 1.894580 -0.010190 
#    z 0.008490 -0.010190 1.836260 
# 
# From -- ./inp_files/400169.got.cif
#   From: 2010.05.17/outbox.cif.g08.bks.cpg/sg2_201_cif.got.tgz:400169.got - 2010.06.03 11:33:40.
