data_PCOD9057906
_publ_section_title
;
Structure prediction by ZEFSAII (Michael W. Deem and Ramdas Pophale) SiO2 
 PCOD9057906
Probable space group: P -1
;
_chemical_formula_sum "Si O2"
_cell_formula_units_Z 16
_cell_length_a 9.535732
_cell_length_b 8.400836
_cell_length_c 22.468464
_cell_angle_alpha 33.400155
_cell_angle_beta 122.222428
_cell_angle_gamma 130.286641
_cell_volume 755.721059
_symmetry_space_group_name_H-M "P -1"
_symmetry_group_IT_number 2
_symmetry_cell_setting 'triclinic'
loop_
_space_group_symop_operation_xyz
x,y,z
-x,-y,-z
loop_
_atom_site_type_symbol
_atom_site_label
_atom_site_fract_x
_atom_site_fract_y
_atom_site_fract_z
Si Si1 0.313154 0.535370 0.937700
Si Si2 0.928591 0.633081 0.616695
Si Si3 0.515032 0.188341 0.352818
Si Si4 0.041732 0.206170 0.082815
Si Si5 0.223734 0.482858 0.795225
Si Si6 0.534096 0.539083 0.565736
Si Si7 0.115427 0.928228 0.301242
Si Si8 0.281433 0.174146 0.722599
O O1 0.257964 0.484665 0.871942
O O2 0.326490 0.887431 0.845343
O O3 0.500000 0.500000 0.000000
O O4 0.159526 0.289169 0.023496
O O5 0.720913 0.509760 0.631071
O O6 0.926651 0.423543 0.623756
O O7 0.063378 0.588040 0.708728
O O8 0.000000 0.000000 0.500000
O O9 0.599691 0.289796 0.274056
O O10 0.615075 0.504020 0.316066
O O11 0.556538 0.894578 0.475319
O O12 0.296545 0.062804 0.339769
O O13 0.147713 0.136710 0.183245
O O14 0.856333 0.881815 0.133104
O O15 0.000000 0.500000 0.000000
O O16 0.500000 0.500000 0.500000
O O17 0.363945 0.273770 0.644582
O O18 0.935006 0.924574 0.291931
#
# Coordination Sequence:
#
# PCOD9057906 Si02
#       8
#     2   2   2   2   2   2   2   2
#     4  12  27  45  70 102 139 185 242 295 352 418
#     4  11  22  43  74 102 144 186 231 287 354 418
#     4  12  23  46  72 105 143 185 232 287 358 418
#     4  11  22  47  70  96 141 179 232 293 351 413
#     4  11  24  43  74 103 141 183 238 291 351 422
#     4  12  25  44  71 103 143 186 228 288 352 418
#     4  11  24  44  73  99 141 188 231 292 351 417
#     4  12  27  47  67 105 144 179 241 291 346 434
#
# _framework density 21.171832999999999
#
# number of rings (size 3 to 8) (size 9 to 14) (size 15 to 20)
#    0.000    0.500    6.250    2.250    3.500    2.500 
#    0.000    2.500    0.000    0.000    0.000    0.000 
#    0.000    0.000    0.000    0.000    0.000    0.000 
#
# Total GULP energy -89575.837377 kJ/mol
# GULP energy per Si atom -5598.489836 kJ/mol
# Density = 2.112364 g / cm^3
# Si number density = 21.171833 Si / 1000 Ang^3
#
#
#
# Elastic Constant Matrix: (Units=GPa)
#
#
# Indices 1 2 3 4 5 6 
#
# 1 144.7508 40.6038 52.9030 12.3928 1.2282 31.5983
# 2 40.6038 79.5805 19.5113 12.4877 18.1157 21.0971
# 3 52.9030 19.5113 101.4215 -12.9285 4.3940 10.0470
# 4 12.3928 12.4877 -12.9285 34.7397 -11.4710 4.1054
# 5 1.2282 18.1157 4.3940 -11.4710 53.3067 1.1955
# 6 31.5983 21.0971 10.0470 4.1054 1.1955 33.6467
#
#
#
# Elastic Compliance Matrix: (Units=1/GPa)
#
#
# Indices 1 2 3 4 5 6 
#
# 1 0.011418 -0.001798 -0.005461 -0.004592 -0.000024 -0.007404
# 2 -0.001798 0.019734 -0.002845 -0.009234 -0.008229 -0.008417
# 3 -0.005461 -0.002845 0.014122 0.008616 0.001747 0.001582
# 4 -0.004592 -0.009234 0.008616 0.040378 0.011173 0.002206
# 5 -0.000024 -0.008229 0.001747 0.011173 0.023762 0.002453
# 6 -0.007404 -0.008417 0.001582 0.002206 0.002453 0.041122
#
#
# Mechanical properties :
#
#
# Convention : Reuss Voigt Hill
#
# Bulk Modulus (GPa) = 39.89549 61.30991 50.60270
# Shear Modulus (GPa) = 27.91737 38.52094 33.21915
#
# Velocity S-wave (km/s) = 3.63521 4.27012 3.96539
# Velocity P-wave (km/s) = 6.04187 7.30295 6.70213
#
# Compressibility (1/GPa) = 0.02506549
#
# Stress axis : x y z
#
# Youngs Moduli (GPa) = 87.57939 50.67308 70.81356
#
# Poissons Ratio (x) = 0.09111 0.38671
# Poissons Ratio (y) = 0.15747 0.20149
# Poissons Ratio (z) = 0.47826 0.14418
#
# Static dielectric constant tensor:
#      x y z
#    x 1.796820 -0.043910 -0.004000 
#    y -0.043910 1.774690 -0.013210 
#    z -0.004000 -0.013210 1.756240 
# 
# From -- ./inp_files/606569.got.cif
#   From: 2010.05.17/outbox.cif.g08.bks.cpg/sg2_304_cif.got.tgz:606569.got - 2010.06.03 11:33:40.
