data_PCOD9057792
_publ_section_title
;
Structure prediction by ZEFSAII (Michael W. Deem and Ramdas Pophale) SiO2 
 PCOD9057792
Probable space group: P -1
;
_chemical_formula_sum "Si O2"
_cell_formula_units_Z 16
_cell_length_a 20.246355
_cell_length_b 12.134546
_cell_length_c 16.121965
_cell_angle_alpha 137.162723
_cell_angle_beta 32.848893
_cell_angle_gamma 157.621353
_cell_volume 799.584368
_symmetry_space_group_name_H-M "P -1"
_symmetry_group_IT_number 2
_symmetry_cell_setting 'triclinic'
loop_
_space_group_symop_operation_xyz
x,y,z
-x,-y,-z
loop_
_atom_site_type_symbol
_atom_site_label
_atom_site_fract_x
_atom_site_fract_y
_atom_site_fract_z
Si Si1 0.651294 0.444584 0.274902
Si Si2 0.723722 0.298051 0.969691
Si Si3 0.542626 0.613474 0.925406
Si Si4 0.829394 0.375974 0.307076
Si Si5 0.355353 0.214369 0.610225
Si Si6 0.481211 0.719915 0.344709
Si Si7 0.105148 0.249877 0.089617
Si Si8 0.010823 0.696429 0.132951
O O1 0.470478 0.248540 0.431183
O O2 0.612196 0.560021 0.323743
O O3 0.899340 0.707771 0.197509
O O4 0.657790 0.296744 0.127360
O O5 0.822731 0.539550 0.936888
O O6 0.912703 0.373618 0.814397
O O7 0.500000 0.000000 0.000000
O O8 0.597334 0.517502 0.758379
O O9 0.744998 0.968277 0.913928
O O10 0.500000 0.500000 0.000000
O O11 0.317322 0.430289 0.019051
O O12 0.706885 0.351398 0.489153
O O13 0.838110 0.487611 0.275491
O O14 0.695057 0.056151 0.268079
O O15 0.454400 0.273928 0.628078
O O16 0.090441 0.902042 0.728716
O O17 0.000000 0.000000 0.000000
O O18 0.000000 0.500000 0.000000
#
# Coordination Sequence:
#
# PCOD9057792 Si02
#       8
#     2   2   2   2   2   2   2   2
#     4  11  24  42  69 100 140 181 223 291 353 410
#     4  12  24  43  67  99 136 180 231 275 345 420
#     4  12  26  43  69 106 136 183 239 287 345 420
#     4  11  23  42  70  96 135 182 225 282 354 404
#     4  11  22  43  71 101 133 181 233 281 352 411
#     4  11  23  45  69 100 135 180 235 288 341 422
#     4  12  22  43  73  94 134 182 229 280 343 418
#     4  12  24  42  69  98 139 178 227 288 351 410
#
# _framework density 20.010396
#
# number of rings (size 3 to 8) (size 9 to 14) (size 15 to 20)
#    0.000    0.500    6.250    2.250    0.000    0.500 
#    6.750    0.625    0.000    0.000    0.000    0.000 
#    0.000    0.000    0.000    0.000    0.000    0.000 
#
# Total GULP energy -89252.059773 kJ/mol
# GULP energy per Si atom -5578.253736 kJ/mol
# Density = 1.996485 g / cm^3
# Si number density = 20.010396 Si / 1000 Ang^3
#
#
#
# Elastic Constant Matrix: (Units=GPa)
#
#
# Indices 1 2 3 4 5 6 
#
# 1 95.1063 35.7613 25.2915 2.9567 -4.4794 3.8919
# 2 35.7613 119.5253 50.2979 -11.2120 0.2252 6.8861
# 3 25.2915 50.2979 130.4166 -11.3657 -6.5283 22.0190
# 4 2.9567 -11.2120 -11.3657 17.6710 -6.7029 -1.6578
# 5 -4.4794 0.2252 -6.5283 -6.7029 37.1522 -6.9911
# 6 3.8919 6.8861 22.0190 -1.6578 -6.9911 35.8251
#
#
#
# Elastic Compliance Matrix: (Units=1/GPa)
#
#
# Indices 1 2 3 4 5 6 
#
# 1 0.012429 -0.003589 -0.001471 -0.005166 0.000343 0.000072
# 2 -0.003589 0.011319 -0.003247 0.005762 0.000060 0.000488
# 3 -0.001471 -0.003247 0.010612 0.005157 0.001664 -0.005175
# 4 -0.005166 0.005762 0.005157 0.069631 0.013203 0.002083
# 5 0.000343 0.000060 0.001664 0.013203 0.030671 0.005525
# 6 0.000072 0.000488 -0.005175 0.002083 0.005525 0.032167
#
#
# Mechanical properties :
#
#
# Convention : Reuss Voigt Hill
#
# Bulk Modulus (GPa) = 56.35152 63.08329 59.71741
# Shear Modulus (GPa) = 26.40505 33.70949 30.05727
#
# Velocity S-wave (km/s) = 3.63652 4.10884 3.87988
# Velocity P-wave (km/s) = 6.77161 7.35553 7.06960
#
# Compressibility (1/GPa) = 0.01774575
#
# Stress axis : x y z
#
# Youngs Moduli (GPa) = 80.45586 88.34930 94.23643
#
# Poissons Ratio (x) = 0.31708 0.13866
# Poissons Ratio (y) = 0.28875 0.30594
# Poissons Ratio (z) = 0.11838 0.28683
#
# Static dielectric constant tensor:
#      x y z
#    x 1.745870 -0.010130 -0.009730 
#    y -0.010130 1.678240 0.009630 
#    z -0.009730 0.009630 1.748690 
# 
# From -- ./inp_files/577990.got.cif
#   From: 2010.05.17/outbox.cif.g08.bks.cpg/sg2_289_cif.got.tgz:577990.got - 2010.06.03 11:33:40.
