data_PCOD9057641
_publ_section_title
;
Structure prediction by ZEFSAII (Michael W. Deem and Ramdas Pophale) SiO2 
 PCOD9057641
Probable space group: P -1
;
_chemical_formula_sum "Si O2"
_cell_formula_units_Z 12
_cell_length_a 11.497645
_cell_length_b 13.972161
_cell_length_c 7.143941
_cell_angle_alpha 80.839419
_cell_angle_beta 94.377020
_cell_angle_gamma 30.499802
_cell_volume 520.235204
_symmetry_space_group_name_H-M "P -1"
_symmetry_group_IT_number 2
_symmetry_cell_setting 'triclinic'
loop_
_space_group_symop_operation_xyz
x,y,z
-x,-y,-z
loop_
_atom_site_type_symbol
_atom_site_label
_atom_site_fract_x
_atom_site_fract_y
_atom_site_fract_z
Si Si1 0.785810 0.609431 0.566516
Si Si2 0.721592 0.128020 0.090132
Si Si3 0.280842 0.701957 0.267869
Si Si4 0.542418 0.840458 0.129152
Si Si5 0.759732 0.772624 0.848089
Si Si6 0.212715 0.555165 0.101838
O O1 0.584333 0.738622 0.339697
O O2 0.707193 0.746272 0.670449
O O3 0.846653 0.463849 0.715515
O O4 0.000000 0.500000 0.500000
O O5 0.492652 0.319393 0.142638
O O6 0.675755 0.236125 0.877611
O O7 0.676726 0.049290 0.048695
O O8 0.008460 0.924204 0.262307
O O9 0.500000 0.500000 0.500000
O O10 0.223173 0.659145 0.123316
O O11 0.471717 0.990784 0.182024
O O12 0.768589 0.692119 0.053421
O O13 0.996341 0.672389 0.899022
#
# Coordination Sequence:
#
# PCOD9057641 Si02
#       6
#     2   2   2   2   2   2
#     4  12  23  38  65 103 144 186 228 272 349 431
#     4  11  24  47  74  98 143 185 232 301 355 407
#     4  11  26  48  72 101 133 186 245 295 354 418
#     4  11  22  43  67 100 143 183 230 285 351 425
#     4  11  23  41  67 101 145 183 224 285 354 419
#     4  12  23  45  69 101 141 183 230 292 352 415
#
# _framework density 23.066492
#
# number of rings (size 3 to 8) (size 9 to 14) (size 15 to 20)
#    0.000    0.667    5.000    3.500    0.000    0.667 
#    6.000    0.000    0.000    0.000    0.000    0.000 
#    0.000    0.000    0.000    0.000    0.000    0.000 
#
# Total GULP energy -66904.422530 kJ/mol
# GULP energy per Si atom -5575.368544 kJ/mol
# Density = 2.301399 g / cm^3
# Si number density = 23.066492 Si / 1000 Ang^3
#
#
#
# Elastic Constant Matrix: (Units=GPa)
#
#
# Indices 1 2 3 4 5 6 
#
# 1 129.0735 30.7191 25.3266 9.1635 4.2110 8.1120
# 2 30.7191 105.3303 24.2352 9.8910 8.1366 -13.3179
# 3 25.3266 24.2352 80.1725 1.3722 -4.0349 -14.4643
# 4 9.1635 9.8910 1.3722 35.2877 1.7413 8.6739
# 5 4.2110 8.1366 -4.0349 1.7413 30.6012 4.1185
# 6 8.1120 -13.3179 -14.4643 8.6739 4.1185 34.1839
#
#
#
# Elastic Compliance Matrix: (Units=1/GPa)
#
#
# Indices 1 2 3 4 5 6 
#
# 1 0.009227 -0.002465 -0.002940 -0.000536 -0.000405 -0.004209
# 2 -0.002465 0.012057 -0.001917 -0.003936 -0.003691 0.005915
# 3 -0.002940 -0.001917 0.015259 -0.000970 0.002120 0.006398
# 4 -0.000536 -0.003936 -0.000970 0.032054 0.000516 -0.010013
# 5 -0.000405 -0.003691 0.002120 0.000516 0.034604 -0.004745
# 6 -0.004209 0.005915 0.006398 -0.010013 -0.004745 0.038376
#
#
# Mechanical properties :
#
#
# Convention : Reuss Voigt Hill
#
# Bulk Modulus (GPa) = 45.66706 52.79313 49.23009
# Shear Modulus (GPa) = 30.57691 35.63426 33.10558
#
# Velocity S-wave (km/s) = 3.64483 3.93472 3.79255
# Velocity P-wave (km/s) = 6.12813 6.60150 6.36921
#
# Compressibility (1/GPa) = 0.02189762
#
# Stress axis : x y z
#
# Youngs Moduli (GPa) = 108.37813 82.94190 65.53475
#
# Poissons Ratio (x) = 0.20446 0.19269
# Poissons Ratio (y) = 0.26716 0.12564
# Poissons Ratio (z) = 0.31866 0.15902
#
# Static dielectric constant tensor:
#      x y z
#    x 1.868020 -0.018990 0.000240 
#    y -0.018990 1.999080 -0.162580 
#    z 0.000240 -0.162580 2.082740 
# 
# From -- ./inp_files/77618.got.cif
#   From: 2010.05.17/outbox.cif.g08.bks.cpg/sg2_39_cif.got.tgz:77618.got - 2010.06.03 11:33:40.
