data_PCOD9057919
_publ_section_title
;
Structure prediction by ZEFSAII (Michael W. Deem and Ramdas Pophale) SiO2 
 PCOD9057919
Probable space group: P -1
;
_chemical_formula_sum "Si O2"
_cell_formula_units_Z 12
_cell_length_a 22.194236
_cell_length_b 14.490491
_cell_length_c 18.813270
_cell_angle_alpha 161.220144
_cell_angle_beta 15.570584
_cell_angle_gamma 156.862813
_cell_volume 520.849746
_symmetry_space_group_name_H-M "P -1"
_symmetry_group_IT_number 2
_symmetry_cell_setting 'triclinic'
loop_
_space_group_symop_operation_xyz
x,y,z
-x,-y,-z
loop_
_atom_site_type_symbol
_atom_site_label
_atom_site_fract_x
_atom_site_fract_y
_atom_site_fract_z
Si Si1 0.308970 0.282095 0.021916
Si Si2 0.817082 0.376364 0.714437
Si Si3 0.357383 0.033193 0.981630
Si Si4 0.293351 0.046533 0.219609
Si Si5 0.018213 0.604329 0.303612
Si Si6 0.225153 0.708264 0.756507
O O1 0.261895 0.363601 0.053669
O O2 0.065422 0.311390 0.358051
O O3 0.500000 0.500000 0.000000
O O4 0.370488 0.958474 0.730820
O O5 0.835923 0.428918 0.816201
O O6 0.622063 0.120071 0.734109
O O7 0.229893 0.836693 0.923775
O O8 0.327446 0.905513 0.001430
O O9 0.230810 0.328138 0.338574
O O10 0.293489 0.386985 0.455739
O O11 0.095613 0.885745 0.373703
O O12 0.500000 0.000000 0.000000
O O13 0.993865 0.349827 0.088112
#
# Coordination Sequence:
#
# PCOD9057919 Si02
#       6
#     2   2   2   2   2   2
#     4  11  23  45  70 102 137 173 230 282 330 401
#     4  11  22  43  74  93 140 179 216 288 328 392
#     4  11  22  45  67 102 139 173 223 280 329 401
#     4  11  25  44  69 102 139 174 229 279 328 409
#     4  11  24  45  66 102 141 173 225 283 326 402
#     4  11  24  42  72  98 135 186 217 275 352 385
#
# _framework density 23.039273000000001
#
# number of rings (size 3 to 8) (size 9 to 14) (size 15 to 20)
#    0.000    1.000    5.000    2.000    0.000    5.333 
#    0.000    7.500    0.000    0.000    0.000    0.000 
#    0.000    0.000    0.000    0.000    0.000    0.000 
#
# Total GULP energy -66906.545366 kJ/mol
# GULP energy per Si atom -5575.545447 kJ/mol
# Density = 2.298683 g / cm^3
# Si number density = 23.039273 Si / 1000 Ang^3
#
#
#
# Elastic Constant Matrix: (Units=GPa)
#
#
# Indices 1 2 3 4 5 6 
#
# 1 245.5603 58.1884 36.9577 29.8637 11.6394 5.4767
# 2 58.1884 133.6948 52.2883 6.4465 -4.1975 -0.1789
# 3 36.9577 52.2883 55.4406 -5.6339 1.1747 4.7398
# 4 29.8637 6.4465 -5.6339 45.0156 0.7804 -1.5748
# 5 11.6394 -4.1975 1.1747 0.7804 31.0006 7.1752
# 6 5.4767 -0.1789 4.7398 -1.5748 7.1752 47.1965
#
#
#
# Elastic Compliance Matrix: (Units=1/GPa)
#
#
# Indices 1 2 3 4 5 6 
#
# 1 0.005296 -0.001079 -0.002833 -0.003687 -0.001895 -0.000169
# 2 -0.001079 0.012710 -0.011657 -0.002574 0.002427 0.000889
# 3 -0.002833 -0.011657 0.031919 0.007480 -0.001341 -0.002467
# 4 -0.003687 -0.002574 0.007480 0.025984 -0.000026 0.000538
# 5 -0.001895 0.002427 -0.001341 -0.000026 0.034478 -0.004879
# 6 -0.000169 0.000889 -0.002467 0.000538 -0.004879 0.022218
#
#
# Mechanical properties :
#
#
# Convention : Reuss Voigt Hill
#
# Bulk Modulus (GPa) = 53.22597 81.06272 67.14434
# Shear Modulus (GPa) = 29.41050 43.79330 36.60190
#
# Velocity S-wave (km/s) = 3.57674 4.36456 3.99014
# Velocity P-wave (km/s) = 6.34113 7.78846 7.10176
#
# Compressibility (1/GPa) = 0.01878782
#
# Stress axis : x y z
#
# Youngs Moduli (GPa) = 188.80855 78.67857 31.32898
#
# Poissons Ratio (x) = 0.08491 0.08875
# Poissons Ratio (y) = 0.20376 0.36520
# Poissons Ratio (z) = 0.53487 0.91715
#
# Static dielectric constant tensor:
#      x y z
#    x 1.919870 0.019580 0.011010 
#    y 0.019580 1.943860 -0.075810 
#    z 0.011010 -0.075810 1.955730 
# 
# From -- ./inp_files/578245.got.cif
#   From: 2010.05.17/outbox.cif.g08.bks.cpg/sg2_290_cif.got.tgz:578245.got - 2010.06.03 11:33:40.
