data_PCOD9057318
_publ_section_title
;
Structure prediction by ZEFSAII (Michael W. Deem and Ramdas Pophale) SiO2 
 PCOD9057318
Probable space group: P -1
;
_chemical_formula_sum "Si O2"
_cell_formula_units_Z 14
_cell_length_a 16.211619
_cell_length_b 8.831390
_cell_length_c 12.166635
_cell_angle_alpha 142.533772
_cell_angle_beta 47.011573
_cell_angle_gamma 140.596583
_cell_volume 661.920091
_symmetry_space_group_name_H-M "P -1"
_symmetry_group_IT_number 2
_symmetry_cell_setting 'triclinic'
loop_
_space_group_symop_operation_xyz
x,y,z
-x,-y,-z
loop_
_atom_site_type_symbol
_atom_site_label
_atom_site_fract_x
_atom_site_fract_y
_atom_site_fract_z
Si Si1 0.926855 0.662938 0.904816
Si Si2 0.825620 0.306759 0.200996
Si Si3 0.507853 0.116489 0.181719
Si Si4 0.378561 0.255081 0.038976
Si Si5 0.778439 0.639704 0.242721
Si Si6 0.242431 0.836090 0.395196
Si Si7 0.646052 0.277974 0.547931
O O1 0.033327 0.595865 0.820601
O O2 0.855243 0.461921 0.749670
O O3 0.823323 0.603123 0.061051
O O4 0.000000 0.000000 0.000000
O O5 0.830429 0.505464 0.209595
O O6 0.733886 0.316496 0.384957
O O7 0.755783 0.966718 0.030666
O O8 0.618460 0.455664 0.283186
O O9 0.368033 0.015486 0.303590
O O10 0.500000 0.000000 0.000000
O O11 0.571285 0.957931 0.096455
O O12 0.357750 0.431300 0.255554
O O13 0.500000 0.500000 0.000000
O O14 0.823355 0.971758 0.414949
O O15 0.293845 0.782431 0.432480
O O16 0.500000 0.000000 0.500000
#
# Coordination Sequence:
#
# PCOD9057318 Si02
#       7
#     2   2   2   2   2   2   2
#     4  12  27  47  71  97 139 185 231 278 336 415
#     4  11  26  44  68 103 134 180 231 277 339 407
#     4  11  23  41  70  99 134 176 219 283 342 390
#     4  11  22  42  67  96 136 177 219 276 342 393
#     4  11  26  46  70 100 139 177 231 285 339 406
#     4  12  26  44  70 103 139 180 228 281 345 403
#     4  12  24  40  69 100 135 175 227 282 336 403
#
# _framework density 21.150587999999999
#
# number of rings (size 3 to 8) (size 9 to 14) (size 15 to 20)
#    0.000    0.571    4.286    3.429    4.000    4.000 
#    0.000    0.000    0.000    0.000    0.000    0.000 
#    0.000    0.000    0.000    0.000    0.000    0.000 
#
# Total GULP energy -78324.889093 kJ/mol
# GULP energy per Si atom -5594.634935 kJ/mol
# Density = 2.110245 g / cm^3
# Si number density = 21.150588 Si / 1000 Ang^3
#
#
#
# Elastic Constant Matrix: (Units=GPa)
#
#
# Indices 1 2 3 4 5 6 
#
# 1 101.2316 27.2254 8.4298 20.0289 24.6586 10.8206
# 2 27.2254 70.5476 21.7265 20.4911 17.1005 7.4344
# 3 8.4298 21.7265 106.6963 35.8586 18.5443 10.5399
# 4 20.0289 20.4911 35.8586 28.7915 3.0169 7.9949
# 5 24.6586 17.1005 18.5443 3.0169 35.7268 -2.8605
# 6 10.8206 7.4344 10.5399 7.9949 -2.8605 27.9697
#
#
#
# Elastic Compliance Matrix: (Units=1/GPa)
#
#
# Indices 1 2 3 4 5 6 
#
# 1 0.017293 0.000904 0.008420 -0.019861 -0.015543 -0.006016
# 2 0.000904 0.021186 0.004356 -0.018963 -0.011696 -0.003398
# 3 0.008420 0.004356 0.022785 -0.034139 -0.017241 -0.005007
# 4 -0.019861 -0.018963 -0.034139 0.101238 0.031949 -0.000082
# 5 -0.015543 -0.011696 -0.017241 0.031949 0.051509 0.011755
# 6 -0.006016 -0.003398 -0.005007 -0.000082 0.011755 0.042096
#
#
# Mechanical properties :
#
#
# Convention : Reuss Voigt Hill
#
# Bulk Modulus (GPa) = 11.28369 43.69321 27.48845
# Shear Modulus (GPa) = 19.35832 33.23718 26.29775
#
# Velocity S-wave (km/s) = 3.02861 3.96846 3.52995
# Velocity P-wave (km/s) = 4.19243 6.45765 5.44416
#
# Compressibility (1/GPa) = 0.08862349
#
# Stress axis : x y z
#
# Youngs Moduli (GPa) = 57.82719 47.20187 43.88927
#
# Poissons Ratio (x) = -0.04265 -0.36957
# Poissons Ratio (y) = -0.05225 -0.19119
# Poissons Ratio (z) = -0.48693 -0.20562
#
# Static dielectric constant tensor:
#      x y z
#    x 1.772490 0.048520 0.012510 
#    y 0.048520 1.775350 0.008650 
#    z 0.012510 0.008650 1.736960 
# 
# From -- ./inp_files/255763.got.cif
#   From: 2010.05.17/outbox.cif.g08.bks.cpg/sg2_128_cif.got.tgz:255763.got - 2010.06.03 11:33:40.
