data_PCOD9057271
_publ_section_title
;
Structure prediction by ZEFSAII (Michael W. Deem and Ramdas Pophale) SiO2 
 PCOD9057271
Probable space group: P -1
;
_chemical_formula_sum "Si O2"
_cell_formula_units_Z 14
_cell_length_a 13.274263
_cell_length_b 13.966920
_cell_length_c 13.525117
_cell_angle_alpha 148.290712
_cell_angle_beta 148.009950
_cell_angle_gamma 32.065282
_cell_volume 622.780880
_symmetry_space_group_name_H-M "P -1"
_symmetry_group_IT_number 2
_symmetry_cell_setting 'triclinic'
loop_
_space_group_symop_operation_xyz
x,y,z
-x,-y,-z
loop_
_atom_site_type_symbol
_atom_site_label
_atom_site_fract_x
_atom_site_fract_y
_atom_site_fract_z
Si Si1 0.010335 0.181378 0.608686
Si Si2 0.541742 0.892645 0.046875
Si Si3 0.345474 0.549408 0.321243
Si Si4 0.183796 0.841527 0.779450
Si Si5 0.072584 0.296733 0.311036
Si Si6 0.214618 0.882821 0.176977
Si Si7 0.574741 0.620175 0.395299
O O1 0.886899 0.357351 0.740442
O O2 0.881422 0.215684 0.430793
O O3 0.256629 0.112855 0.735175
O O4 0.000000 0.000000 0.500000
O O5 0.613041 0.657187 0.877914
O O6 0.323997 0.961006 0.984170
O O7 0.500000 0.000000 0.000000
O O8 0.500000 0.500000 0.500000
O O9 0.423131 0.662637 0.403315
O O10 0.322639 0.623528 0.754567
O O11 0.972562 0.985996 0.786856
O O12 0.223471 0.331486 0.386771
O O13 0.000000 0.500000 0.500000
O O14 0.214017 0.068144 0.273863
O O15 0.870226 0.265890 0.077270
O O16 0.429820 0.748894 0.297013
#
# Coordination Sequence:
#
# PCOD9057271 Si02
#       7
#     2   2   2   2   2   2   2
#     4  12  22  41  64  91 138 188 230 281 333 398
#     4  11  23  39  61  93 134 187 236 281 331 397
#     4  11  22  42  65  97 141 185 232 279 334 403
#     4  11  24  45  65 103 143 179 240 286 342 417
#     4  11  25  51  77 103 141 177 230 298 360 427
#     4  11  26  47  76 107 137 183 231 290 363 419
#     4  11  24  45  71 104 142 183 233 290 348 417
#
# _framework density 22.479817000000001
#
# number of rings (size 3 to 8) (size 9 to 14) (size 15 to 20)
#    0.000    0.857    5.714    1.714    0.000    6.286 
#    2.571    0.000    0.000    0.000    0.000    0.000 
#    0.000    0.000    0.000    0.000    0.000    0.000 
#
# Total GULP energy -78136.577053 kJ/mol
# GULP energy per Si atom -5581.184075 kJ/mol
# Density = 2.242865 g / cm^3
# Si number density = 22.479817 Si / 1000 Ang^3
#
#
#
# Elastic Constant Matrix: (Units=GPa)
#
#
# Indices 1 2 3 4 5 6 
#
# 1 85.0442 1.0640 26.2827 8.9218 20.8979 1.4906
# 2 1.0640 81.9682 24.6815 -1.5259 2.8512 8.0041
# 3 26.2827 24.6815 103.7335 8.8864 13.2431 -0.2139
# 4 8.9218 -1.5259 8.8864 39.2789 -5.4983 -2.2446
# 5 20.8979 2.8512 13.2431 -5.4983 41.5688 6.4040
# 6 1.4906 8.0041 -0.2139 -2.2446 6.4040 35.9611
#
#
#
# Elastic Compliance Matrix: (Units=1/GPa)
#
#
# Indices 1 2 3 4 5 6 
#
# 1 0.014711 0.000773 -0.002686 -0.003686 -0.007117 0.000239
# 2 0.000773 0.013572 -0.003577 0.001045 0.000433 -0.003086
# 3 -0.002686 -0.003577 0.011728 -0.002481 -0.002669 0.001297
# 4 -0.003686 0.001045 -0.002481 0.027792 0.006164 0.000542
# 5 -0.007117 0.000433 -0.002669 0.006164 0.030006 -0.004776
# 6 0.000239 -0.003086 0.001297 0.000542 -0.004776 0.029377
#
#
# Mechanical properties :
#
#
# Convention : Reuss Voigt Hill
#
# Bulk Modulus (GPa) = 34.44488 41.64469 38.04478
# Shear Modulus (GPa) = 33.81998 37.94293 35.88145
#
# Velocity S-wave (km/s) = 3.88294 4.11282 3.99954
# Velocity P-wave (km/s) = 5.95473 6.41244 6.18782
#
# Compressibility (1/GPa) = 0.02903189
#
# Stress axis : x y z
#
# Youngs Moduli (GPa) = 67.97864 73.67849 85.26893
#
# Poissons Ratio (x) = -0.05699 0.22906
# Poissons Ratio (y) = -0.05258 0.30496
# Poissons Ratio (z) = 0.18261 0.26351
#
# Static dielectric constant tensor:
#      x y z
#    x -0.726570 0.693850 0.645980 
#    y 0.693850 1.653850 -0.155260 
#    z 0.645980 -0.155260 1.684260 
# 
# From -- ./inp_files/534622.got.cif
#   From: 2010.05.17/outbox.cif.g08.bks.cpg/sg2_268_cif.got.tgz:534622.got - 2010.06.03 11:33:40.
