data_PCOD9057284
_publ_section_title
;
Structure prediction by ZEFSAII (Michael W. Deem and Ramdas Pophale) SiO2 
 PCOD9057284
Probable space group: P -1
;
_chemical_formula_sum "Si O2"
_cell_formula_units_Z 12
_cell_length_a 5.401069
_cell_length_b 14.569265
_cell_length_c 8.023077
_cell_angle_alpha 77.830301
_cell_angle_beta 120.468079
_cell_angle_gamma 111.099812
_cell_volume 507.356422
_symmetry_space_group_name_H-M "P -1"
_symmetry_group_IT_number 2
_symmetry_cell_setting 'triclinic'
loop_
_space_group_symop_operation_xyz
x,y,z
-x,-y,-z
loop_
_atom_site_type_symbol
_atom_site_label
_atom_site_fract_x
_atom_site_fract_y
_atom_site_fract_z
Si Si1 0.628916 0.390920 0.247164
Si Si2 0.049574 0.197969 0.787455
Si Si3 0.096371 0.773878 0.631289
Si Si4 0.085670 0.396498 0.893195
Si Si5 0.371026 0.882791 0.004672
Si Si6 0.533752 0.392101 0.566456
O O1 0.688711 0.294291 0.236925
O O2 0.791807 0.491379 0.170460
O O3 0.735744 0.393286 0.471602
O O4 0.278264 0.385811 0.122553
O O5 0.140273 0.314733 0.818526
O O6 0.864087 0.177486 0.557480
O O7 0.340163 0.159182 0.885243
O O8 0.832847 0.150992 0.886972
O O9 0.161217 0.845144 0.784264
O O10 0.762349 0.697599 0.525879
O O11 0.731191 0.377927 0.794721
O O12 0.500000 0.000000 0.000000
O O13 0.500000 0.500000 0.500000
#
# Coordination Sequence:
#
# PCOD9057284 Si02
#       6
#     2   2   2   2   2   2
#     4  11  23  41  64 107 154 201 249 298 367 452
#     4  12  26  48  80 113 149 198 255 314 390 461
#     4  12  26  46  76 109 154 200 254 306 383 454
#     4  11  22  42  66 105 154 196 250 298 368 450
#     4  12  30  54  79 112 150 194 260 334 391 448
#     4  12  23  39  65 103 154 204 244 303 364 446
#
# _framework density 23.652010000000001
#
# number of rings (size 3 to 8) (size 9 to 14) (size 15 to 20)
#    0.000    0.333    5.000    4.000    0.000    2.000 
#    0.000    0.000    0.000    0.000    0.000    0.000 
#    0.000    0.000    0.000    0.000    0.000    0.000 
#
# Total GULP energy -67119.763755 kJ/mol
# GULP energy per Si atom -5593.313646 kJ/mol
# Density = 2.359818 g / cm^3
# Si number density = 23.652010 Si / 1000 Ang^3
#
#
#
# Elastic Constant Matrix: (Units=GPa)
#
#
# Indices 1 2 3 4 5 6 
#
# 1 117.4259 44.9504 65.1011 -4.8441 -4.3742 5.7087
# 2 44.9504 118.2951 61.3518 14.7439 -7.3186 -11.8561
# 3 65.1011 61.3518 180.1947 4.4872 2.8090 6.6449
# 4 -4.8441 14.7439 4.4872 30.0868 -4.2274 7.5040
# 5 -4.3742 -7.3186 2.8090 -4.2274 57.0416 -10.6939
# 6 5.7087 -11.8561 6.6449 7.5040 -10.6939 26.2476
#
#
#
# Elastic Compliance Matrix: (Units=1/GPa)
#
#
# Indices 1 2 3 4 5 6 
#
# 1 0.012378 -0.004582 -0.002846 0.006100 -0.000142 -0.005843
# 2 -0.004582 0.014901 -0.003695 -0.010247 0.003417 0.012985
# 3 -0.002846 -0.003695 0.007990 0.000924 -0.001779 -0.004062
# 4 0.006100 -0.010247 0.000924 0.043715 -0.001252 -0.019197
# 5 -0.000142 0.003417 -0.001779 -0.001252 0.019922 0.010499
# 6 -0.005843 0.012985 -0.004062 -0.019197 0.010499 0.056029
#
#
# Mechanical properties :
#
#
# Convention : Reuss Voigt Hill
#
# Bulk Modulus (GPa) = 76.78657 84.30246 80.54452
# Shear Modulus (GPa) = 27.54472 38.97604 33.26038
#
# Velocity S-wave (km/s) = 3.41630 4.06383 3.75405
# Velocity P-wave (km/s) = 6.93521 7.59867 7.27451
#
# Compressibility (1/GPa) = 0.01302311
#
# Stress axis : x y z
#
# Youngs Moduli (GPa) = 80.78535 67.11038 125.15158
#
# Poissons Ratio (x) = 0.30752 0.35620
# Poissons Ratio (y) = 0.37018 0.46241
# Poissons Ratio (z) = 0.22993 0.24796
#
# Static dielectric constant tensor:
#      x y z
#    x 1.968690 0.021920 0.015710 
#    y 0.021920 1.896010 0.025950 
#    z 0.015710 0.025950 1.892160 
# 
# From -- ./inp_files/96782.got.cif
#   From: 2010.05.17/outbox.cif.g08.bks.cpg/sg2_49_cif.got.tgz:96782.got - 2010.06.03 11:33:40.
