data_PCOD9057558
_publ_section_title
;
Structure prediction by ZEFSAII (Michael W. Deem and Ramdas Pophale) SiO2 
 PCOD9057558
Probable space group: P -1
;
_chemical_formula_sum "Si O2"
_cell_formula_units_Z 16
_cell_length_a 18.213163
_cell_length_b 8.905842
_cell_length_c 5.152352
_cell_angle_alpha 95.818720
_cell_angle_beta 64.069496
_cell_angle_gamma 120.525872
_cell_volume 639.512000
_symmetry_space_group_name_H-M "P -1"
_symmetry_group_IT_number 2
_symmetry_cell_setting 'triclinic'
loop_
_space_group_symop_operation_xyz
x,y,z
-x,-y,-z
loop_
_atom_site_type_symbol
_atom_site_label
_atom_site_fract_x
_atom_site_fract_y
_atom_site_fract_z
Si Si1 0.576511 0.703223 0.466009
Si Si2 0.742707 0.031892 0.072587
Si Si3 0.269448 0.656505 0.888472
Si Si4 0.867091 0.770773 0.543947
Si Si5 0.551746 0.201690 0.034963
Si Si6 0.137732 0.897761 0.596311
Si Si7 0.928145 0.660082 0.918338
Si Si8 0.337277 0.460606 0.368175
O O1 0.500000 0.500000 0.500000
O O2 0.515061 0.790553 0.642317
O O3 0.638595 0.682116 0.591362
O O4 0.654717 0.832553 0.162629
O O5 0.709598 0.164287 0.249459
O O6 0.817256 0.049255 0.178119
O O7 0.790489 0.098109 0.730023
O O8 0.340372 0.730500 0.034241
O O9 0.299690 0.535290 0.666188
O O10 0.155278 0.535945 0.066271
O O11 0.909178 0.776092 0.760624
O O12 0.752493 0.636449 0.703429
O O13 0.882938 0.953750 0.449385
O O14 0.909759 0.700029 0.246448
O O15 0.569697 0.362431 0.847616
O O16 0.500000 0.000000 0.000000
O O17 0.037160 0.714450 0.732224
#
# Coordination Sequence:
#
# PCOD9057558 Si02
#       8
#     2   2   2   2   2   2   2   2
#     4  12  27  47  74 109 145 197 251 308 368 438
#     4  12  30  46  72 108 153 191 242 309 366 441
#     4  11  27  47  69 106 149 191 244 302 372 444
#     4  11  22  42  74 107 148 182 242 303 372 424
#     4  12  27  45  76 106 147 196 248 303 379 442
#     4  12  26  46  74 107 148 191 245 302 375 434
#     4  11  24  45  76 108 143 194 241 304 368 446
#     4  11  24  45  74 101 145 191 248 306 361 437
#
# _framework density 25.019072999999999
#
# number of rings (size 3 to 8) (size 9 to 14) (size 15 to 20)
#    0.000    0.500    3.750    3.375    8.750    2.000 
#    0.000    0.000    0.000    0.000    0.000    0.000 
#    0.000    0.000    0.000    0.000    0.000    0.000 
#
# Total GULP energy -89544.336702 kJ/mol
# GULP energy per Si atom -5596.521044 kJ/mol
# Density = 2.496213 g / cm^3
# Si number density = 25.019073 Si / 1000 Ang^3
#
#
#
# Elastic Constant Matrix: (Units=GPa)
#
#
# Indices 1 2 3 4 5 6 
#
# 1 45.7393 22.8145 15.1776 -10.0753 -16.9988 18.1958
# 2 22.8145 128.0337 24.6940 -9.7279 -28.1408 23.3587
# 3 15.1776 24.6940 101.7634 -8.0063 -19.4752 20.2988
# 4 -10.0753 -9.7279 -8.0063 34.1269 5.0722 -3.3635
# 5 -16.9988 -28.1408 -19.4752 5.0722 27.0586 -13.4196
# 6 18.1958 23.3587 20.2988 -3.3635 -13.4196 38.7641
#
#
#
# Elastic Compliance Matrix: (Units=1/GPa)
#
#
# Indices 1 2 3 4 5 6 
#
# 1 0.032544 -0.000493 0.000436 0.006500 0.014204 -0.009726
# 2 -0.000493 0.010482 -0.000108 0.001217 0.008871 -0.002852
# 3 0.000436 -0.000108 0.011951 0.001542 0.006481 -0.004021
# 4 0.006500 0.001217 0.001542 0.031807 -0.000497 -0.002005
# 5 0.014204 0.008871 0.006481 -0.000497 0.063022 0.006368
# 6 -0.009726 -0.002852 -0.004021 -0.002005 0.006368 0.036217
#
#
# Mechanical properties :
#
#
# Convention : Reuss Voigt Hill
#
# Bulk Modulus (GPa) = 18.29919 44.54540 31.42229
# Shear Modulus (GPa) = 24.44179 34.17994 29.31086
#
# Velocity S-wave (km/s) = 3.12897 3.70016 3.42649
# Velocity P-wave (km/s) = 4.51486 6.00818 5.31423
#
# Compressibility (1/GPa) = 0.05464723
#
# Stress axis : x y z
#
# Youngs Moduli (GPa) = 30.72751 95.40507 83.67195
#
# Poissons Ratio (x) = 0.04702 -0.03644
# Poissons Ratio (y) = 0.01515 0.00900
# Poissons Ratio (z) = -0.01338 0.01027
#
# Static dielectric constant tensor:
#      x y z
#    x 2.025530 -0.010080 0.010460 
#    y -0.010080 1.979840 -0.032700 
#    z 0.010460 -0.032700 2.056900 
# 
# From -- ./inp_files/107103.got.cif
#   From: 2010.05.17/outbox.cif.g08.bks.cpg/sg2_54_cif.got.tgz:107103.got - 2010.06.03 11:33:40.
