data_PCOD9057382
_publ_section_title
;
Structure prediction by ZEFSAII (Michael W. Deem and Ramdas Pophale) SiO2 
 PCOD9057382
Probable space group: P -1
;
_chemical_formula_sum "Si O2"
_cell_formula_units_Z 12
_cell_length_a 9.307106
_cell_length_b 9.117731
_cell_length_c 11.652624
_cell_angle_alpha 124.327576
_cell_angle_beta 114.470048
_cell_angle_gamma 43.805781
_cell_volume 565.224577
_symmetry_space_group_name_H-M "P -1"
_symmetry_group_IT_number 2
_symmetry_cell_setting 'triclinic'
loop_
_space_group_symop_operation_xyz
x,y,z
-x,-y,-z
loop_
_atom_site_type_symbol
_atom_site_label
_atom_site_fract_x
_atom_site_fract_y
_atom_site_fract_z
Si Si1 0.059927 0.679454 0.038783
Si Si2 0.491313 0.018852 0.642755
Si Si3 0.615737 0.582263 0.627386
Si Si4 0.675836 0.218887 0.923551
Si Si5 0.497923 0.210025 0.075163
Si Si6 0.952450 0.662126 0.239545
O O1 0.125157 0.821539 0.073859
O O2 0.280806 0.429100 0.042180
O O3 0.932174 0.770899 0.155715
O O4 0.984269 0.588371 0.881627
O O5 0.601540 0.117159 0.769203
O O6 0.257255 0.189240 0.691479
O O7 0.500000 0.000000 0.500000
O O8 0.595601 0.769069 0.622721
O O9 0.500000 0.500000 0.500000
O O10 0.502179 0.700698 0.762586
O O11 0.858522 0.383862 0.651282
O O12 0.500000 0.500000 0.000000
O O13 0.677879 0.134084 0.013740
O O14 0.500000 0.000000 0.000000
#
# Coordination Sequence:
#
# PCOD9057382 Si02
#       6
#     2   2   2   2   2   2
#     4   9  19  36  70  97 125 169 219 276 322 381
#     4  12  26  43  68  96 138 176 215 272 335 392
#     4  11  26  42  65  98 132 178 218 267 330 392
#     4  10  19  38  68  98 123 173 221 264 328 384
#     4  10  17  36  67  94 128 166 218 267 321 385
#     4  10  21  43  69  94 134 171 226 266 328 390
#
# _framework density 21.230501
#
# number of rings (size 3 to 8) (size 9 to 14) (size 15 to 20)
#    0.000    1.667    5.000    0.000    7.000    1.333 
#    0.000    0.833    0.000    0.000    0.000    0.000 
#    0.000    0.000    0.000    0.000    0.000    0.000 
#
# Total GULP energy -67074.370756 kJ/mol
# GULP energy per Si atom -5589.530896 kJ/mol
# Density = 2.118218 g / cm^3
# Si number density = 21.230501 Si / 1000 Ang^3
#
#
#
# Elastic Constant Matrix: (Units=GPa)
#
#
# Indices 1 2 3 4 5 6 
#
# 1 192.0226 28.4523 66.9927 -9.1555 -4.2606 16.3376
# 2 28.4523 46.7215 11.2015 -2.3926 3.6577 5.3814
# 3 66.9927 11.2015 138.9537 -13.1934 10.9215 13.8448
# 4 -9.1555 -2.3926 -13.1934 26.6087 4.6820 0.5373
# 5 -4.2606 3.6577 10.9215 4.6820 54.3264 -1.3672
# 6 16.3376 5.3814 13.8448 0.5373 -1.3672 49.4164
#
#
#
# Elastic Compliance Matrix: (Units=1/GPa)
#
#
# Indices 1 2 3 4 5 6 
#
# 1 0.006906 -0.003449 -0.003019 0.000357 0.001324 -0.001029
# 2 -0.003449 0.023877 0.000198 0.001457 -0.002084 -0.001589
# 3 -0.003019 0.000198 0.009404 0.004125 -0.002541 -0.001773
# 4 0.000357 0.001457 0.004125 0.040705 -0.004458 -0.001998
# 5 0.001324 -0.002084 -0.002541 -0.004458 0.019574 0.001091
# 6 -0.001029 -0.001589 -0.001773 -0.001998 0.001091 0.021298
#
#
# Mechanical properties :
#
#
# Convention : Reuss Voigt Hill
#
# Bulk Modulus (GPa) = 36.16878 65.66563 50.91721
# Shear Modulus (GPa) = 34.83847 44.14037 39.48942
#
# Velocity S-wave (km/s) = 4.05528 4.56466 4.31749
# Velocity P-wave (km/s) = 6.24502 7.66672 6.99209
#
# Compressibility (1/GPa) = 0.02764815
#
# Stress axis : x y z
#
# Youngs Moduli (GPa) = 144.80193 41.88172 106.33423
#
# Poissons Ratio (x) = 0.14443 0.32104
# Poissons Ratio (y) = 0.49936 -0.02109
# Poissons Ratio (z) = 0.43718 -0.00831
#
# Static dielectric constant tensor:
#      x y z
#    x 1.767140 0.043140 0.073830 
#    y 0.043140 1.603370 -0.233930 
#    z 0.073830 -0.233930 1.503340 
# 
# From -- ./inp_files/380721.got.cif
#   From: 2010.05.17/outbox.cif.g08.bks.cpg/sg2_191_cif.got.tgz:380721.got - 2010.06.03 11:33:40.
