data_PCOD9057846
_publ_section_title
;
Structure prediction by ZEFSAII (Michael W. Deem and Ramdas Pophale) SiO2 
 PCOD9057846
Probable space group: P -1
;
_chemical_formula_sum "Si O2"
_cell_formula_units_Z 14
_cell_length_a 12.462367
_cell_length_b 9.382352
_cell_length_c 9.522771
_cell_angle_alpha 105.937958
_cell_angle_beta 143.166146
_cell_angle_gamma 72.914607
_cell_volume 636.544448
_symmetry_space_group_name_H-M "P -1"
_symmetry_group_IT_number 2
_symmetry_cell_setting 'triclinic'
loop_
_space_group_symop_operation_xyz
x,y,z
-x,-y,-z
loop_
_atom_site_type_symbol
_atom_site_label
_atom_site_fract_x
_atom_site_fract_y
_atom_site_fract_z
Si Si1 0.830702 0.063214 0.240349
Si Si2 0.479712 0.670263 0.960015
Si Si3 0.336474 0.737241 0.329283
Si Si4 0.600944 0.796659 0.837105
Si Si5 0.999836 0.867405 0.858760
Si Si6 0.790987 0.547182 0.764596
Si Si7 0.648111 0.730328 0.430430
O O1 0.710973 0.218455 0.207649
O O2 0.922896 0.100349 0.201670
O O3 0.000000 0.000000 0.500000
O O4 0.696759 0.936605 0.032370
O O5 0.562525 0.691040 0.899235
O O6 0.500000 0.500000 0.000000
O O7 0.599128 0.739550 0.220393
O O8 0.413333 0.834542 0.561678
O O9 0.330276 0.577676 0.350445
O O10 0.469333 0.757806 0.344467
O O11 0.142737 0.750043 0.055445
O O12 0.727318 0.696958 0.829607
O O13 0.797351 0.836073 0.636807
O O14 0.000000 0.000000 0.000000
O O15 0.748188 0.577342 0.562939
O O16 0.000000 0.500000 0.000000
#
# Coordination Sequence:
#
# PCOD9057846 Si02
#       7
#     2   2   2   2   2   2   2
#     4  12  29  50  69 106 153 194 248 304 368 439
#     4  12  26  48  75 104 146 196 248 302 362 437
#     4  11  23  44  70 104 145 183 243 297 360 440
#     4  11  26  44  75 102 147 200 237 299 376 432
#     4  12  26  42  73 106 141 186 244 302 365 431
#     4  11  22  43  72 109 147 187 239 300 371 433
#     4  11  23  44  69 103 141 186 236 302 356 432
#
# _framework density 21.993749999999999
#
# number of rings (size 3 to 8) (size 9 to 14) (size 15 to 20)
#    0.000    0.571    2.857    6.429    4.000    2.286 
#    0.000    2.143    0.000    0.000    0.000    0.000 
#    0.000    0.000    0.000    0.000    0.000    0.000 
#
# Total GULP energy -78033.902464 kJ/mol
# GULP energy per Si atom -5573.850176 kJ/mol
# Density = 2.194369 g / cm^3
# Si number density = 21.993750 Si / 1000 Ang^3
#
#
#
# Elastic Constant Matrix: (Units=GPa)
#
#
# Indices 1 2 3 4 5 6 
#
# 1 74.1062 21.3550 10.0611 -5.8926 0.2141 5.5642
# 2 21.3550 92.5122 34.1159 -3.0722 15.4387 6.9192
# 3 10.0611 34.1159 134.9386 -8.6985 -2.2147 -0.6907
# 4 -5.8926 -3.0722 -8.6985 48.3277 13.6127 4.6392
# 5 0.2141 15.4387 -2.2147 13.6127 40.1116 -4.5191
# 6 5.5642 6.9192 -0.6907 4.6392 -4.5191 30.2054
#
#
#
# Elastic Compliance Matrix: (Units=1/GPa)
#
#
# Indices 1 2 3 4 5 6 
#
# 1 0.014730 -0.003157 -0.000198 0.001686 0.000305 -0.002208
# 2 -0.003157 0.014324 -0.003375 0.002267 -0.006921 -0.004161
# 3 -0.000198 -0.003375 0.008356 0.000689 0.001656 0.001143
# 4 0.001686 0.002267 0.000689 0.024521 -0.009847 -0.006053
# 5 0.000305 -0.006921 0.001656 -0.009847 0.031911 0.007854
# 6 -0.002208 -0.004161 0.001143 -0.006053 0.007854 0.036597
#
#
# Mechanical properties :
#
#
# Convention : Reuss Voigt Hill
#
# Bulk Modulus (GPa) = 41.75188 48.06899 44.91043
# Shear Modulus (GPa) = 32.92046 39.46394 36.19220
#
# Velocity S-wave (km/s) = 3.87306 4.24054 4.06096
# Velocity P-wave (km/s) = 6.24704 6.77344 6.51556
#
# Compressibility (1/GPa) = 0.02395102
#
# Stress axis : x y z
#
# Youngs Moduli (GPa) = 67.89020 69.81250 119.67122
#
# Poissons Ratio (x) = 0.22039 0.02366
# Poissons Ratio (y) = 0.21432 0.40387
# Poissons Ratio (z) = 0.01342 0.23561
#
# Static dielectric constant tensor:
#      x y z
#    x 1.764400 -0.010810 0.004850 
#    y -0.010810 1.910330 0.001760 
#    z 0.004850 0.001760 1.804470 
# 
# From -- ./inp_files/244825.got.cif
#   From: 2010.05.17/outbox.cif.g08.bks.cpg/sg2_123_cif.got.tgz:244825.got - 2010.06.03 11:33:40.
