data_PCOD9057198
_publ_section_title
;
Structure prediction by ZEFSAII (Michael W. Deem and Ramdas Pophale) SiO2 
 PCOD9057198
Probable space group: P -1
;
_chemical_formula_sum "Si O2"
_cell_formula_units_Z 12
_cell_length_a 19.666615
_cell_length_b 10.822006
_cell_length_c 8.286402
_cell_angle_alpha 42.375085
_cell_angle_beta 31.579189
_cell_angle_gamma 30.145741
_cell_volume 463.800319
_symmetry_space_group_name_H-M "P -1"
_symmetry_group_IT_number 2
_symmetry_cell_setting 'triclinic'
loop_
_space_group_symop_operation_xyz
x,y,z
-x,-y,-z
loop_
_atom_site_type_symbol
_atom_site_label
_atom_site_fract_x
_atom_site_fract_y
_atom_site_fract_z
Si Si1 0.056962 0.080672 0.141365
Si Si2 0.686227 0.572778 0.418102
Si Si3 0.918225 0.710946 0.795569
Si Si4 0.888511 0.909582 0.315986
Si Si5 0.726067 0.506402 0.741147
Si Si6 0.512319 0.703711 0.297461
O O1 0.068289 0.196098 0.848651
O O2 0.117078 0.117034 0.150408
O O3 0.843678 0.271734 0.391775
O O4 0.178485 0.785107 0.156281
O O5 0.603665 0.624414 0.714422
O O6 0.569818 0.675325 0.393708
O O7 0.781202 0.678628 0.105364
O O8 0.932074 0.778875 0.522275
O O9 0.125413 0.489614 0.616241
O O10 0.682412 0.064226 0.577944
O O11 0.000000 0.000000 0.000000
O O12 0.641563 0.641192 0.952055
O O13 0.500000 0.500000 0.500000
#
# Coordination Sequence:
#
# PCOD9057198 Si02
#       6
#     2   2   2   2   2   2
#     4  11  22  41  73 100 135 183 230 273 333 406
#     4  11  26  43  69 104 142 182 226 282 342 402
#     4  11  24  44  70 101 140 187 226 276 340 410
#     4  12  25  45  72 100 131 181 233 284 344 413
#     4  11  23  42  74 103 136 182 231 280 334 405
#     4  12  26  43  68 104 137 176 233 291 340 399
#
# _framework density 25.873201999999999
#
# number of rings (size 3 to 8) (size 9 to 14) (size 15 to 20)
#    0.000    0.667    3.333    6.000    2.333    6.667 
#    0.000    1.667    0.000    0.000    0.000    0.000 
#    0.000    0.000    0.000    0.000    0.000    0.000 
#
# Total GULP energy -66839.070493 kJ/mol
# GULP energy per Si atom -5569.922541 kJ/mol
# Density = 2.581431 g / cm^3
# Si number density = 25.873202 Si / 1000 Ang^3
#
#
#
# Elastic Constant Matrix: (Units=GPa)
#
#
# Indices 1 2 3 4 5 6 
#
# 1 12.0181 3.8763 193.6793 27.8547 27.3079 7.3284
# 2 3.8763 34.7338 37.4729 8.8132 -0.4009 -6.6965
# 3 193.6793 37.4729 -54.1577 -56.7502 9.0160 -43.6802
# 4 27.8547 8.8132 -56.7502 26.3422 -10.0071 -5.5480
# 5 27.3079 -0.4009 9.0160 -10.0071 66.5117 -6.9530
# 6 7.3284 -6.6965 -43.6802 -5.5480 -6.9530 23.4508
#
#
#
# Elastic Compliance Matrix: (Units=1/GPa)
#
#
# Indices 1 2 3 4 5 6 
#
# 1 0.005182 -0.005428 0.004088 0.005808 -0.001272 0.005443
# 2 -0.005428 0.032913 -0.000642 -0.003391 0.003049 0.010000
# 3 0.004088 -0.000642 0.000738 -0.003853 -0.002545 -0.001752
# 4 0.005808 -0.003391 -0.003853 0.024387 0.001392 -0.003778
# 5 -0.001272 0.003049 -0.002545 0.001392 0.016307 0.001691
# 6 0.005443 0.010000 -0.001752 -0.003778 0.001691 0.040142
#
#
# Mechanical properties :
#
#
# Convention : Reuss Voigt Hill
#
# Bulk Modulus (GPa) = 28.67877 51.40571 40.04224
# Shear Modulus (GPa) = 36.96690 7.09866 22.03278
#
# Velocity S-wave (km/s) = 3.78401 1.65819 2.92133
# Velocity P-wave (km/s) = 5.49546 4.85567 5.18544
#
# Compressibility (1/GPa) = 0.03486900
#
# Stress axis : x y z
#
# Youngs Moduli (GPa) = 192.98190 30.38324 1354.10903
#
# Poissons Ratio (x) = 0.16492 -5.53611
# Poissons Ratio (y) = 1.04751 0.86993
# Poissons Ratio (z) = -0.78898 0.01952
#
# Static dielectric constant tensor:
#      x y z
#    x 2.123530 0.102200 0.028840 
#    y 0.102200 2.084040 -0.048780 
#    z 0.028840 -0.048780 2.136610 
# 
# From -- ./inp_files/344901.got.cif
#   From: 2010.05.17/outbox.cif.g08.bks.cpg/sg2_173_cif.got.tgz:344901.got - 2010.06.03 11:33:40.
