data_PCOD9057499
_publ_section_title
;
Structure prediction by ZEFSAII (Michael W. Deem and Ramdas Pophale) SiO2 
 PCOD9057499
Probable space group: P -1
;
_chemical_formula_sum "Si O2"
_cell_formula_units_Z 16
_cell_length_a 10.956638
_cell_length_b 16.579866
_cell_length_c 8.149061
_cell_angle_alpha 122.795217
_cell_angle_beta 93.200003
_cell_angle_gamma 132.560274
_cell_volume 670.491471
_symmetry_space_group_name_H-M "P -1"
_symmetry_group_IT_number 2
_symmetry_cell_setting 'triclinic'
loop_
_space_group_symop_operation_xyz
x,y,z
-x,-y,-z
loop_
_atom_site_type_symbol
_atom_site_label
_atom_site_fract_x
_atom_site_fract_y
_atom_site_fract_z
Si Si1 0.430504 0.865977 0.674176
Si Si2 0.638011 0.310310 0.849050
Si Si3 0.302039 0.448203 0.439089
Si Si4 0.017091 0.148686 0.348325
Si Si5 0.820525 0.914104 0.528234
Si Si6 0.517841 0.224216 0.102928
Si Si7 0.062744 0.727336 0.332791
Si Si8 0.108541 0.817741 0.086385
O O1 0.381223 0.770147 0.400303
O O2 0.398839 0.782687 0.743237
O O3 0.251811 0.832910 0.601039
O O4 0.690061 0.071471 0.903406
O O5 0.430730 0.248110 0.742248
O O6 0.592035 0.234375 0.940838
O O7 0.875063 0.521465 0.101156
O O8 0.500000 0.500000 0.500000
O O9 0.390249 0.606230 0.692282
O O10 0.113684 0.271829 0.341199
O O11 0.151832 0.376459 0.190354
O O12 0.043861 0.239237 0.602514
O O13 0.157517 0.145399 0.386952
O O14 0.753780 0.949880 0.097462
O O15 0.877384 0.058583 0.748968
O O16 0.000000 0.000000 0.500000
O O17 0.166433 0.803135 0.243998
#
# Coordination Sequence:
#
# PCOD9057499 Si02
#       8
#     2   2   2   2   2   2   2   2
#     4  11  26  48  73 101 146 194 238 303 355 417
#     4  11  25  45  71 109 142 187 241 297 358 429
#     4  12  28  43  71 110 144 187 236 298 359 434
#     4  12  25  46  70 105 145 186 239 291 363 432
#     4  11  22  42  71  98 140 188 223 295 361 421
#     4  12  25  49  72 106 148 184 244 294 357 423
#     4  12  25  46  72 104 141 190 246 297 355 426
#     4  11  24  45  70 104 142 189 241 290 363 429
#
# _framework density 23.863094
#
# number of rings (size 3 to 8) (size 9 to 14) (size 15 to 20)
#    0.000    0.500    5.000    3.000    5.250    2.500 
#    2.250    0.000    0.000    0.000    0.000    0.000 
#    0.000    0.000    0.000    0.000    0.000    0.000 
#
# Total GULP energy -89622.323698 kJ/mol
# GULP energy per Si atom -5601.395231 kJ/mol
# Density = 2.380878 g / cm^3
# Si number density = 23.863094 Si / 1000 Ang^3
#
#
#
# Elastic Constant Matrix: (Units=GPa)
#
#
# Indices 1 2 3 4 5 6 
#
# 1 86.9637 29.7104 34.2023 -3.7968 7.9463 -7.2819
# 2 29.7104 141.2435 36.5059 -15.9127 0.3978 -18.3180
# 3 34.2023 36.5059 116.0280 0.7153 4.8559 -0.6225
# 4 -3.7968 -15.9127 0.7153 44.9047 2.0533 8.9526
# 5 7.9463 0.3978 4.8559 2.0533 23.3113 -7.9858
# 6 -7.2819 -18.3180 -0.6225 8.9526 -7.9858 28.7432
#
#
#
# Elastic Compliance Matrix: (Units=1/GPa)
#
#
# Indices 1 2 3 4 5 6 
#
# 1 0.013901 -0.001845 -0.003361 0.000527 -0.003681 0.001086
# 2 -0.001845 0.008980 -0.002375 0.001876 0.002639 0.005353
# 3 -0.003361 -0.002375 0.010421 -0.000735 -0.001740 -0.002394
# 4 0.000527 0.001876 -0.000735 0.024762 -0.004898 -0.007760
# 5 -0.003681 0.002639 -0.001740 -0.004898 0.050472 0.016260
# 6 0.001086 0.005353 -0.002394 -0.007760 0.016260 0.045360
#
#
# Mechanical properties :
#
#
# Convention : Reuss Voigt Hill
#
# Bulk Modulus (GPa) = 55.12213 60.56360 57.84287
# Shear Modulus (GPa) = 28.55452 35.64627 32.10040
#
# Velocity S-wave (km/s) = 3.46294 3.86914 3.67166
# Velocity P-wave (km/s) = 6.25610 6.73758 6.50130
#
# Compressibility (1/GPa) = 0.01814153
#
# Stress axis : x y z
#
# Youngs Moduli (GPa) = 71.93486 111.35850 95.96040
#
# Poissons Ratio (x) = 0.20545 0.32249
# Poissons Ratio (y) = 0.13271 0.22789
# Poissons Ratio (z) = 0.24175 0.26446
#
# Static dielectric constant tensor:
#      x y z
#    x 1.913590 0.017210 0.001860 
#    y 0.017210 1.939870 -0.071260 
#    z 0.001860 -0.071260 1.939870 
# 
# From -- ./inp_files/273553.got.cif
#   From: 2010.05.17/outbox.cif.g08.bks.cpg/sg2_137_cif.got.tgz:273553.got - 2010.06.03 11:33:40.
