data_PCOD9057624
_publ_section_title
;
Structure prediction by ZEFSAII (Michael W. Deem and Ramdas Pophale) SiO2 
 PCOD9057624
Probable space group: P -1
;
_chemical_formula_sum "Si O2"
_cell_formula_units_Z 16
_cell_length_a 13.869308
_cell_length_b 8.903444
_cell_length_c 14.519640
_cell_angle_alpha 47.374665
_cell_angle_beta 49.252213
_cell_angle_gamma 87.510861
_cell_volume 698.675816
_symmetry_space_group_name_H-M "P -1"
_symmetry_group_IT_number 2
_symmetry_cell_setting 'triclinic'
loop_
_space_group_symop_operation_xyz
x,y,z
-x,-y,-z
loop_
_atom_site_type_symbol
_atom_site_label
_atom_site_fract_x
_atom_site_fract_y
_atom_site_fract_z
Si Si1 0.988265 0.205485 0.378616
Si Si2 0.399855 0.986625 0.951600
Si Si3 0.765715 0.485454 0.601523
Si Si4 0.080564 0.910237 0.724116
Si Si5 0.082154 0.282753 0.894187
Si Si6 0.382091 0.912446 0.518756
Si Si7 0.922646 0.299576 0.821621
Si Si8 0.440194 0.202209 0.185343
O O1 0.095778 0.478336 0.264855
O O2 0.048065 0.271952 0.207528
O O3 0.779079 0.041108 0.579277
O O4 0.000000 0.000000 0.500000
O O5 0.485120 0.881641 0.896019
O O6 0.574570 0.307675 0.744768
O O7 0.276767 0.758735 0.206701
O O8 0.277174 0.994605 0.961997
O O9 0.820242 0.762102 0.498420
O O10 0.921953 0.605243 0.381486
O O11 0.215155 0.872031 0.666344
O O12 0.986772 0.831046 0.913085
O O13 0.287149 0.608990 0.649673
O O14 0.980863 0.337711 0.874564
O O15 0.000000 0.000000 0.000000
O O16 0.500000 0.000000 0.500000
O O17 0.489854 0.169739 0.268466
O O18 0.500000 0.500000 0.000000
#
# Coordination Sequence:
#
# PCOD9057624 Si02
#       8
#     2   2   2   2   2   2   2   2
#     4  11  23  42  71 102 138 180 233 296 363 428
#     4  11  24  39  73  97 138 186 230 293 368 424
#     4  11  23  46  64 102 143 180 236 302 349 441
#     4  11  24  44  69  98 142 182 241 293 358 429
#     4  12  25  46  72  99 143 193 242 297 359 436
#     4  11  26  46  72 104 147 189 241 310 365 434
#     4  12  23  45  68  99 140 186 232 294 363 427
#     4  11  22  43  66 104 143 178 240 298 358 433
#
# _framework density 22.900463999999999
#
# number of rings (size 3 to 8) (size 9 to 14) (size 15 to 20)
#    0.000    0.750    5.000    3.750    1.750    2.000 
#    0.000    1.250    0.000    0.000    0.000    0.000 
#    0.000    0.000    0.000    0.000    0.000    0.000 
#
# Total GULP energy -89264.189840 kJ/mol
# GULP energy per Si atom -5579.011865 kJ/mol
# Density = 2.284834 g / cm^3
# Si number density = 22.900464 Si / 1000 Ang^3
#
#
#
# Elastic Constant Matrix: (Units=GPa)
#
#
# Indices 1 2 3 4 5 6 
#
# 1 123.4844 23.7539 26.1435 -1.4794 -6.3331 31.2241
# 2 23.7539 101.1429 32.6956 -11.6207 10.5753 12.5336
# 3 26.1435 32.6956 65.9343 -4.0267 3.1216 8.3587
# 4 -1.4794 -11.6207 -4.0267 41.3991 9.2217 7.4932
# 5 -6.3331 10.5753 3.1216 9.2217 29.7059 -11.9595
# 6 31.2241 12.5336 8.3587 7.4932 -11.9595 34.2961
#
#
#
# Elastic Compliance Matrix: (Units=1/GPa)
#
#
# Indices 1 2 3 4 5 6 
#
# 1 0.011444 0.000321 -0.002925 0.002937 -0.002899 -0.011476
# 2 0.000321 0.014832 -0.005180 0.008001 -0.011222 -0.010111
# 3 -0.002925 -0.005180 0.019089 0.000712 -0.001288 -0.000701
# 4 0.002937 0.008001 0.000712 0.035214 -0.021696 -0.021031
# 5 -0.002899 -0.011222 -0.001288 -0.021696 0.056606 0.031534
# 6 -0.011476 -0.010111 -0.000701 -0.021031 0.031534 0.059063
#
#
# Mechanical properties :
#
#
# Convention : Reuss Voigt Hill
#
# Bulk Modulus (GPa) = 33.56295 50.63861 42.10078
# Shear Modulus (GPa) = 22.54799 34.94478 28.74639
#
# Velocity S-wave (km/s) = 3.14125 3.91057 3.54683
# Velocity P-wave (km/s) = 5.27678 6.52308 5.93275
#
# Compressibility (1/GPa) = 0.02979476
#
# Stress axis : x y z
#
# Youngs Moduli (GPa) = 87.38107 67.42301 52.38731
#
# Poissons Ratio (x) = -0.02161 0.15324
# Poissons Ratio (y) = -0.02801 0.27138
# Poissons Ratio (z) = 0.25561 0.34927
#
# Static dielectric constant tensor:
#      x y z
#    x 1.963040 -0.021890 0.045860 
#    y -0.021890 1.923800 -0.057450 
#    z 0.045860 -0.057450 1.940310 
# 
# From -- ./inp_files/529402.got.cif
#   From: 2010.05.17/outbox.cif.g08.bks.cpg/sg2_265_cif.got.tgz:529402.got - 2010.06.03 11:33:40.
