data_PCOD9057421
_publ_section_title
;
Structure prediction by ZEFSAII (Michael W. Deem and Ramdas Pophale) SiO2 
 PCOD9057421
Probable space group: P -1
;
_chemical_formula_sum "Si O2"
_cell_formula_units_Z 14
_cell_length_a 11.301597
_cell_length_b 8.919723
_cell_length_c 12.353297
_cell_angle_alpha 58.726511
_cell_angle_beta 141.631735
_cell_angle_gamma 128.513647
_cell_volume 603.596218
_symmetry_space_group_name_H-M "P -1"
_symmetry_group_IT_number 2
_symmetry_cell_setting 'triclinic'
loop_
_space_group_symop_operation_xyz
x,y,z
-x,-y,-z
loop_
_atom_site_type_symbol
_atom_site_label
_atom_site_fract_x
_atom_site_fract_y
_atom_site_fract_z
Si Si1 0.286927 0.833306 0.862552
Si Si2 0.883412 0.269043 0.998700
Si Si3 0.531945 0.305772 0.586980
Si Si4 0.652048 0.552891 0.985968
Si Si5 0.974222 0.066196 0.812073
Si Si6 0.507983 0.789081 0.645068
Si Si7 0.789276 0.086420 0.464746
O O1 0.130947 0.795482 0.863388
O O2 0.314627 0.636071 0.944678
O O3 0.204823 0.867540 0.674589
O O4 0.500000 0.000000 0.000000
O O5 0.956132 0.111254 0.058488
O O6 0.674802 0.255024 0.793496
O O7 0.000000 0.500000 0.000000
O O8 0.500000 0.500000 0.500000
O O9 0.597246 0.280089 0.521115
O O10 0.306229 0.141131 0.507023
O O11 0.500000 0.500000 0.000000
O O12 0.548555 0.613467 0.788752
O O13 0.864245 0.742064 0.087190
O O14 0.731893 0.967075 0.715157
O O15 0.980337 0.144136 0.663370
O O16 0.373373 0.841986 0.618213
#
# Coordination Sequence:
#
# PCOD9057421 Si02
#       7
#     2   2   2   2   2   2   2
#     4  12  25  46  72  97 147 186 233 294 360 430
#     4  12  25  45  70 106 143 188 239 290 356 426
#     4  11  22  42  70 100 139 184 235 288 349 422
#     4  12  24  45  70 105 140 183 233 292 364 424
#     4  11  25  45  72 105 142 184 241 293 354 429
#     4  11  24  45  74 103 138 183 239 299 348 423
#     4  11  24  46  71 104 140 187 236 297 359 413
#
# _framework density 23.194313000000001
#
# number of rings (size 3 to 8) (size 9 to 14) (size 15 to 20)
#    0.000    0.571    2.857    7.286    0.000    4.571 
#    2.571    0.000    0.000    0.000    0.000    0.000 
#    0.000    0.000    0.000    0.000    0.000    0.000 
#
# Total GULP energy -78184.869777 kJ/mol
# GULP energy per Si atom -5584.633555 kJ/mol
# Density = 2.314152 g / cm^3
# Si number density = 23.194313 Si / 1000 Ang^3
#
#
#
# Elastic Constant Matrix: (Units=GPa)
#
#
# Indices 1 2 3 4 5 6 
#
# 1 89.2349 29.5462 38.6508 -1.9346 -27.8836 -7.1007
# 2 29.5462 142.9346 23.0103 -13.6338 -1.3133 -31.6343
# 3 38.6508 23.0103 138.3247 -23.2354 -35.9899 -10.4334
# 4 -1.9346 -13.6338 -23.2354 40.1819 6.2960 -1.1299
# 5 -27.8836 -1.3133 -35.9899 6.2960 48.7323 -17.3797
# 6 -7.1007 -31.6343 -10.4334 -1.1299 -17.3797 36.5679
#
#
#
# Elastic Compliance Matrix: (Units=1/GPa)
#
#
# Indices 1 2 3 4 5 6 
#
# 1 0.016191 -0.001871 -0.001313 -0.002121 0.010722 0.006181
# 2 -0.001871 0.009798 0.001054 0.003645 0.003061 0.009981
# 3 -0.001313 0.001054 0.011830 0.005740 0.010564 0.009231
# 4 -0.002121 0.003645 0.005740 0.029278 0.001475 0.005985
# 5 0.010722 0.003061 0.010564 0.001475 0.044705 0.029036
# 6 0.006181 0.009981 0.009231 0.005985 0.029036 0.053800
#
#
# Mechanical properties :
#
#
# Convention : Reuss Voigt Hill
#
# Bulk Modulus (GPa) = 29.79814 61.43431 45.61623
# Shear Modulus (GPa) = 27.61712 43.71555 35.66633
#
# Velocity S-wave (km/s) = 3.45437 4.34608 3.92563
# Velocity P-wave (km/s) = 5.36520 7.19228 6.34485
#
# Compressibility (1/GPa) = 0.03355914
#
# Stress axis : x y z
#
# Youngs Moduli (GPa) = 61.76257 102.06087 84.53193
#
# Poissons Ratio (x) = 0.19099 0.11100
# Poissons Ratio (y) = 0.11558 -0.08914
# Poissons Ratio (z) = 0.08110 -0.10762
#
# Static dielectric constant tensor:
#      x y z
#    x 1.934300 0.018460 -0.040870 
#    y 0.018460 1.838080 0.062240 
#    z -0.040870 0.062240 1.552970 
# 
# From -- ./inp_files/419260.got.cif
#   From: 2010.05.17/outbox.cif.g08.bks.cpg/sg2_210_cif.got.tgz:419260.got - 2010.06.03 11:33:40.
