data_PCOD9057698
_publ_section_title
;
Structure prediction by ZEFSAII (Michael W. Deem and Ramdas Pophale) SiO2 
 PCOD9057698
Probable space group: P -1
;
_chemical_formula_sum "Si O2"
_cell_formula_units_Z 14
_cell_length_a 9.732488
_cell_length_b 9.771669
_cell_length_c 8.327113
_cell_angle_alpha 86.480906
_cell_angle_beta 113.928919
_cell_angle_gamma 116.033304
_cell_volume 643.827719
_symmetry_space_group_name_H-M "P -1"
_symmetry_group_IT_number 2
_symmetry_cell_setting 'triclinic'
loop_
_space_group_symop_operation_xyz
x,y,z
-x,-y,-z
loop_
_atom_site_type_symbol
_atom_site_label
_atom_site_fract_x
_atom_site_fract_y
_atom_site_fract_z
Si Si1 0.040777 0.875297 0.785659
Si Si2 0.332771 0.639398 0.283568
Si Si3 0.078656 0.408190 0.442350
Si Si4 0.780359 0.097717 0.792093
Si Si5 0.358724 0.225824 0.366921
Si Si6 0.364496 0.421591 0.077311
Si Si7 0.897801 0.803515 0.268777
O O1 0.057137 0.736863 0.714207
O O2 0.838409 0.815783 0.706471
O O3 0.112725 0.038194 0.714790
O O4 0.123981 0.906298 0.998570
O O5 0.215252 0.525466 0.375214
O O6 0.286056 0.777414 0.228285
O O7 0.526895 0.713000 0.427085
O O8 0.304969 0.538853 0.118567
O O9 0.147827 0.321022 0.603994
O O10 0.000000 0.500000 0.500000
O O11 0.912688 0.149211 0.703917
O O12 0.640982 0.927453 0.692566
O O13 0.432160 0.359441 0.260312
O O14 0.500000 0.500000 0.000000
O O15 0.214698 0.277584 0.932633
#
# Coordination Sequence:
#
# PCOD9057698 Si02
#       7
#     2   2   2   2   2   2   2
#     4  11  23  44  71  93 132 178 224 267 323 393
#     4  12  26  43  66 100 140 170 211 281 338 374
#     4  12  25  41  67 103 138 167 220 276 330 387
#     4  11  22  45  70  96 134 175 221 270 329 392
#     4  11  22  45  67  97 132 179 219 264 330 397
#     4  12  25  43  70  97 132 174 226 269 326 395
#     4  11  22  43  68  99 127 177 226 266 318 400
#
# _framework density 21.744947
#
# number of rings (size 3 to 8) (size 9 to 14) (size 15 to 20)
#    0.000    0.571    5.714    3.000    4.000    1.143 
#    0.000    0.714    0.000    0.000    0.000    0.000 
#    0.000    0.000    0.000    0.000    0.000    0.000 
#
# Total GULP energy -78311.592547 kJ/mol
# GULP energy per Si atom -5593.685182 kJ/mol
# Density = 2.169545 g / cm^3
# Si number density = 21.744947 Si / 1000 Ang^3
#
#
#
# Elastic Constant Matrix: (Units=GPa)
#
#
# Indices 1 2 3 4 5 6 
#
# 1 64.3275 43.5205 5.1174 -2.8026 -19.9521 -6.6242
# 2 43.5205 153.1946 17.7807 7.2217 -8.9173 -31.5733
# 3 5.1174 17.7807 62.5265 6.7367 -1.4755 -6.6350
# 4 -2.8026 7.2217 6.7367 47.3493 -5.2941 -2.3196
# 5 -19.9521 -8.9173 -1.4755 -5.2941 30.5265 10.0330
# 6 -6.6242 -31.5733 -6.6350 -2.3196 10.0330 21.3927
#
#
#
# Elastic Compliance Matrix: (Units=1/GPa)
#
#
# Indices 1 2 3 4 5 6 
#
# 1 0.027480 -0.009952 -0.001133 0.004883 0.021065 -0.015880
# 2 -0.009952 0.013224 -0.000716 -0.002602 -0.009888 0.020569
# 3 -0.001133 -0.000716 0.016981 -0.002379 -0.002039 0.004557
# 4 0.004883 -0.002602 -0.002379 0.022794 0.007643 -0.004179
# 5 0.021065 -0.009888 -0.002039 0.007643 0.056100 -0.034185
# 6 -0.015880 0.020569 0.004557 -0.004179 -0.034185 0.089178
#
#
# Mechanical properties :
#
#
# Convention : Reuss Voigt Hill
#
# Bulk Modulus (GPa) = 29.34070 45.87619 37.60844
# Shear Modulus (GPa) = 19.17752 34.09569 26.63661
#
# Velocity S-wave (km/s) = 2.97295 3.96407 3.50373
# Velocity P-wave (km/s) = 5.03061 6.48807 5.80526
#
# Compressibility (1/GPa) = 0.03408235
#
# Stress axis : x y z
#
# Youngs Moduli (GPa) = 36.39063 75.61771 58.88788
#
# Poissons Ratio (x) = 0.75255 0.06673
# Poissons Ratio (y) = 0.36216 0.04219
# Poissons Ratio (z) = 0.04123 0.05417
#
# Static dielectric constant tensor:
#      x y z
#    x 1.821220 0.010380 0.002370 
#    y 0.010380 1.822180 0.018450 
#    z 0.002370 0.018450 1.809690 
# 
# From -- ./inp_files/158890.got.cif
#   From: 2010.05.17/outbox.cif.g08.bks.cpg/sg2_80_cif.got.tgz:158890.got - 2010.06.03 11:33:40.
