data_PCOD9057588
_publ_section_title
;
Structure prediction by ZEFSAII (Michael W. Deem and Ramdas Pophale) SiO2 
 PCOD9057588
Probable space group: P -1
;
_chemical_formula_sum "Si O2"
_cell_formula_units_Z 12
_cell_length_a 5.704658
_cell_length_b 22.813901
_cell_length_c 14.773139
_cell_angle_alpha 21.204592
_cell_angle_beta 46.800022
_cell_angle_gamma 57.550506
_cell_volume 467.759973
_symmetry_space_group_name_H-M "P -1"
_symmetry_group_IT_number 2
_symmetry_cell_setting 'triclinic'
loop_
_space_group_symop_operation_xyz
x,y,z
-x,-y,-z
loop_
_atom_site_type_symbol
_atom_site_label
_atom_site_fract_x
_atom_site_fract_y
_atom_site_fract_z
Si Si1 0.189701 0.535189 0.302276
Si Si2 0.906092 0.857468 0.653964
Si Si3 0.045018 0.856269 0.125643
Si Si4 0.795183 0.380301 0.011261
Si Si5 0.985786 0.641489 0.728794
Si Si6 0.206799 0.020810 0.167010
O O1 0.000000 0.500000 0.500000
O O2 0.183424 0.354677 0.517827
O O3 0.562405 0.686349 0.005681
O O4 0.066837 0.620063 0.126288
O O5 0.196265 0.774303 0.704232
O O6 0.000000 0.000000 0.500000
O O7 0.917188 0.952793 0.419926
O O8 0.433698 0.868507 0.034605
O O9 0.955262 0.910779 0.971264
O O10 0.000000 0.000000 0.000000
O O11 0.399347 0.362861 0.146446
O O12 0.014913 0.565023 0.734142
O O13 0.243926 0.841502 0.381222
O O14 0.000000 0.500000 0.000000
#
# Coordination Sequence:
#
# PCOD9057588 Si02
#       6
#     2   2   2   2   2   2
#     4  12  29  50  74 110 159 214 256 333 404 475
#     4  12  28  48  80 112 150 213 274 327 386 481
#     4  12  30  50  77 117 164 207 258 327 409 476
#     4  11  24  44  77 111 154 194 267 322 403 457
#     4  11  22  42  77 118 145 191 260 337 389 455
#     4  12  26  49  79 115 155 205 266 326 393 477
#
# _framework density 25.654184999999998
#
# number of rings (size 3 to 8) (size 9 to 14) (size 15 to 20)
#    0.000    0.333    3.333    3.500   11.667    1.333 
#    0.000    0.000    0.000    0.000    0.000    0.000 
#    0.000    0.000    0.000    0.000    0.000    0.000 
#
# Total GULP energy -67089.750980 kJ/mol
# GULP energy per Si atom -5590.812582 kJ/mol
# Density = 2.559580 g / cm^3
# Si number density = 25.654185 Si / 1000 Ang^3
#
#
#
# Elastic Constant Matrix: (Units=GPa)
#
#
# Indices 1 2 3 4 5 6 
#
# 1 168.1040 31.3721 80.6806 10.8992 1.9418 32.9997
# 2 31.3721 92.0965 36.3883 -4.6830 -6.4590 40.8250
# 3 80.6806 36.3883 143.2071 -13.0298 -12.3323 13.9078
# 4 10.8992 -4.6830 -13.0298 55.6071 19.5574 -4.8983
# 5 1.9418 -6.4590 -12.3323 19.5574 62.8783 6.1914
# 6 32.9997 40.8250 13.9078 -4.8983 6.1914 41.7209
#
#
#
# Elastic Compliance Matrix: (Units=1/GPa)
#
#
# Indices 1 2 3 4 5 6 
#
# 1 0.010532 0.003132 -0.006058 -0.004535 0.001212 -0.010089
# 2 0.003132 0.022605 -0.005102 -0.003689 0.004739 -0.024033
# 3 -0.006058 -0.005102 0.011433 0.003993 0.000029 0.006438
# 4 -0.004535 -0.003689 0.003993 0.023013 -0.007568 0.009691
# 5 0.001212 0.004739 0.000029 -0.007568 0.019639 -0.009408
# 6 -0.010089 -0.024033 0.006438 0.009691 -0.009408 0.055853
#
#
# Mechanical properties :
#
#
# Convention : Reuss Voigt Hill
#
# Bulk Modulus (GPa) = 35.06961 77.80993 56.43977
# Shear Modulus (GPa) = 29.64964 49.03905 39.34434
#
# Velocity S-wave (km/s) = 3.40331 4.37686 3.92042
# Velocity P-wave (km/s) = 5.39844 7.47922 6.52234
#
# Compressibility (1/GPa) = 0.02851472
#
# Stress axis : x y z
#
# Youngs Moduli (GPa) = 94.94784 44.23733 87.46602
#
# Poissons Ratio (x) = -0.13857 0.52987
# Poissons Ratio (y) = -0.29742 0.44628
# Poissons Ratio (z) = 0.57520 0.22571
#
# Static dielectric constant tensor:
#      x y z
#    x 2.145490 0.009970 -0.071420 
#    y 0.009970 2.089120 -0.023580 
#    z -0.071420 -0.023580 2.133020 
# 
# From -- ./inp_files/485878.got.cif
#   From: 2010.05.17/outbox.cif.g08.bks.cpg/sg2_243_cif.got.tgz:485878.got - 2010.06.03 11:33:40.
