data_PCOD9057573
_publ_section_title
;
Structure prediction by ZEFSAII (Michael W. Deem and Ramdas Pophale) SiO2 
 PCOD9057573
Probable space group: P -1
;
_chemical_formula_sum "Si O2"
_cell_formula_units_Z 13
_cell_length_a 8.039685
_cell_length_b 14.126769
_cell_length_c 11.167956
_cell_angle_alpha 49.610154
_cell_angle_beta 41.981534
_cell_angle_gamma 41.819366
_cell_volume 553.007583
_symmetry_space_group_name_H-M "P -1"
_symmetry_group_IT_number 2
_symmetry_cell_setting 'triclinic'
loop_
_space_group_symop_operation_xyz
x,y,z
-x,-y,-z
loop_
_atom_site_type_symbol
_atom_site_label
_atom_site_fract_x
_atom_site_fract_y
_atom_site_fract_z
Si Si1 0.355061 0.935067 0.006896
Si Si2 0.921359 0.058194 0.629715
Si Si3 0.540926 0.504462 0.832564
Si Si4 0.000000 0.500000 0.000000
Si Si5 0.151402 0.252218 0.282058
Si Si6 0.499065 0.198292 0.373615
Si Si7 0.962304 0.813778 0.209936
O O1 0.173763 0.862548 0.113580
O O2 0.675125 0.839031 0.855256
O O3 0.353435 0.917516 0.166244
O O4 0.183103 0.094177 0.908239
O O5 0.177268 0.931684 0.674444
O O6 0.948969 0.199321 0.490775
O O7 0.000000 0.000000 0.500000
O O8 0.535381 0.652244 0.685245
O O9 0.845273 0.358684 0.763869
O O10 0.500000 0.500000 0.000000
O O11 0.284574 0.500384 0.904028
O O12 0.984837 0.416695 0.196833
O O13 0.398573 0.218109 0.274488
O O14 0.302485 0.153275 0.589464
#
# Coordination Sequence:
#
# PCOD9057573 Si02
#       7
#     2   2   2   1   2   2   2
#     4  11  22  43  74 104 138 189 248 294 367 432
#     4  12  26  45  70 108 149 186 241 306 367 435
#     4  12  24  45  70 105 146 193 245 297 366 436
#     4  12  26  46  72 104 146 194 240 302 362 430
#     4  12  24  47  74 104 144 189 246 304 360 432
#     4  12  23  46  72 106 146 191 246 301 367 433
#     4  11  22  42  75 106 137 193 248 298 363 437
#
# _framework density 23.507815000000001
#
# number of rings (size 3 to 8) (size 9 to 14) (size 15 to 20)
#    0.000    0.308    6.154    4.615    0.000    0.615 
#    2.769    3.077    0.000    0.000    0.000    0.000 
#    0.000    0.000    0.000    0.000    0.000    0.000 
#
# Total GULP energy -72518.118157 kJ/mol
# GULP energy per Si atom -5578.316781 kJ/mol
# Density = 2.345431 g / cm^3
# Si number density = 23.507815 Si / 1000 Ang^3
#
#
#
# Elastic Constant Matrix: (Units=GPa)
#
#
# Indices 1 2 3 4 5 6 
#
# 1 86.7584 -17.7758 23.7425 2.1196 19.7900 -3.6715
# 2 -17.7758 42.9773 20.8302 -17.9718 -4.6846 10.8952
# 3 23.7425 20.8302 149.6030 -9.4830 10.4889 -2.9997
# 4 2.1196 -17.9718 -9.4830 47.5275 4.3003 3.5686
# 5 19.7900 -4.6846 10.4889 4.3003 40.6533 -5.0655
# 6 -3.6715 10.8952 -2.9997 3.5686 -5.0655 19.0066
#
#
#
# Elastic Compliance Matrix: (Units=1/GPa)
#
#
# Indices 1 2 3 4 5 6 
#
# 1 0.015792 0.010468 -0.003380 0.003637 -0.006736 -0.005962
# 2 0.010468 0.045732 -0.007238 0.017929 -0.003549 -0.029648
# 3 -0.003380 -0.007238 0.008289 -0.001246 -0.000587 0.004882
# 4 0.003637 0.017929 -0.001246 0.029050 -0.004503 -0.016426
# 5 -0.006736 -0.003549 -0.000587 -0.004503 0.029253 0.009282
# 6 -0.005962 -0.029648 0.004882 -0.016426 0.009282 0.074785
#
#
# Mechanical properties :
#
#
# Convention : Reuss Voigt Hill
#
# Bulk Modulus (GPa) = 14.38618 36.99250 25.68934
# Shear Modulus (GPa) = 22.08748 38.27359 30.18053
#
# Velocity S-wave (km/s) = 3.06858 4.03938 3.58697
# Velocity P-wave (km/s) = 4.32296 6.12583 5.30159
#
# Compressibility (1/GPa) = 0.06951115
#
# Stress axis : x y z
#
# Youngs Moduli (GPa) = 63.32516 21.86636 120.64622
#
# Poissons Ratio (x) = -0.22889 0.40783
# Poissons Ratio (y) = -0.66287 0.87324
# Poissons Ratio (z) = 0.21406 0.15827
#
# Static dielectric constant tensor:
#      x y z
#    x 1.909520 0.076530 -0.011070 
#    y 0.076530 1.978870 0.056210 
#    z -0.011070 0.056210 1.934250 
# 
# From -- ./inp_files/395393.got.cif
#   From: 2010.05.17/outbox.cif.g08.bks.cpg/sg2_198_cif.got.tgz:395393.got - 2010.06.03 11:33:40.
