data_PCOD9057089
_publ_section_title
;
Structure prediction by ZEFSAII (Michael W. Deem and Ramdas Pophale) SiO2 
 PCOD9057089
Probable space group: P -1
;
_chemical_formula_sum "Si O2"
_cell_formula_units_Z 16
_cell_length_a 15.181375
_cell_length_b 27.430136
_cell_length_c 8.888601
_cell_angle_alpha 146.924841
_cell_angle_beta 44.585170
_cell_angle_gamma 160.199277
_cell_volume 623.443409
_symmetry_space_group_name_H-M "P -1"
_symmetry_group_IT_number 2
_symmetry_cell_setting 'triclinic'
loop_
_space_group_symop_operation_xyz
x,y,z
-x,-y,-z
loop_
_atom_site_type_symbol
_atom_site_label
_atom_site_fract_x
_atom_site_fract_y
_atom_site_fract_z
Si Si1 0.164070 0.806289 0.427709
Si Si2 0.296091 0.633507 0.786783
Si Si3 0.254767 0.176994 0.807541
Si Si4 0.807581 0.077038 0.779668
Si Si5 0.298529 0.248147 0.271139
Si Si6 0.721869 0.249250 0.609938
Si Si7 0.254008 0.016825 0.065852
Si Si8 0.245913 0.414001 0.895800
O O1 0.093177 0.698252 0.374251
O O2 0.981914 0.679193 0.172620
O O3 0.500000 0.000000 0.500000
O O4 0.128907 0.883372 0.731075
O O5 0.463710 0.649514 0.654207
O O6 0.433320 0.759508 0.793721
O O7 0.955806 0.424051 0.653548
O O8 0.369490 0.736493 0.116953
O O9 0.221905 0.049613 0.534420
O O10 0.382209 0.296344 0.118235
O O11 0.463430 0.346047 0.860090
O O12 0.950574 0.030334 0.780072
O O13 0.559438 0.959614 0.674599
O O14 0.757730 0.053234 0.955588
O O15 0.103660 0.306112 0.951766
O O16 0.275310 0.333221 0.582001
O O17 0.000000 0.000000 0.000000
#
# Coordination Sequence:
#
# PCOD9057089 Si02
#       8
#     2   2   2   2   2   2   2   2
#     4  12  23  44  69  99 132 170 226 286 326 388
#     4  11  22  41  69  99 128 172 224 281 326 392
#     4  12  25  43  72 103 132 176 227 280 334 390
#     4  12  26  48  66  97 144 181 215 275 335 408
#     4  12  19  40  74 101 133 167 222 288 336 379
#     4  11  24  42  69  96 132 175 223 275 336 386
#     4  12  26  44  67  99 138 178 221 269 341 402
#     4  12  25  44  73 101 132 173 230 282 331 390
#
# _framework density 25.663914999999999
#
# number of rings (size 3 to 8) (size 9 to 14) (size 15 to 20)
#    0.000    0.250    7.500    1.500    3.500    1.500 
#    2.250    0.000    0.000    0.000    0.000    0.000 
#    0.000    0.000    0.000    0.000    0.000    0.000 
#
# Total GULP energy -89583.537032 kJ/mol
# GULP energy per Si atom -5598.971064 kJ/mol
# Density = 2.560550 g / cm^3
# Si number density = 25.663915 Si / 1000 Ang^3
#
#
#
# Elastic Constant Matrix: (Units=GPa)
#
#
# Indices 1 2 3 4 5 6 
#
# 1 93.6073 53.3463 24.5505 -2.3513 -15.1506 -10.7028
# 2 53.3463 188.6445 37.1621 17.0602 -3.8525 -38.9549
# 3 24.5505 37.1621 61.8693 7.2874 1.1619 6.3784
# 4 -2.3513 17.0602 7.2874 24.3208 -4.2061 -11.4125
# 5 -15.1506 -3.8525 1.1619 -4.2061 30.4783 -6.1516
# 6 -10.7028 -38.9549 6.3784 -11.4125 -6.1516 53.1282
#
#
#
# Elastic Compliance Matrix: (Units=1/GPa)
#
#
# Indices 1 2 3 4 5 6 
#
# 1 0.016787 -0.002977 -0.006835 0.010171 0.010732 0.005447
# 2 -0.002977 0.008325 -0.004154 -0.002154 0.000565 0.005606
# 3 -0.006835 -0.004154 0.023993 -0.011472 -0.008593 -0.010763
# 4 0.010171 -0.002154 -0.011472 0.057430 0.016392 0.016081
# 5 0.010732 0.000565 -0.008593 0.016392 0.043256 0.012138
# 6 0.005447 0.005606 -0.010763 0.016081 0.012138 0.030182
#
#
# Mechanical properties :
#
#
# Convention : Reuss Voigt Hill
#
# Bulk Modulus (GPa) = 47.22741 63.80431 55.51586
# Shear Modulus (GPa) = 23.25994 36.85627 30.05811
#
# Velocity S-wave (km/s) = 3.01380 3.79372 3.42602
# Velocity P-wave (km/s) = 5.52746 6.64117 6.10975
#
# Compressibility (1/GPa) = 0.02117414
#
# Stress axis : x y z
#
# Youngs Moduli (GPa) = 59.56936 120.11955 41.67958
#
# Poissons Ratio (x) = 0.35755 0.28486
# Poissons Ratio (y) = 0.17731 0.17314
# Poissons Ratio (z) = 0.40713 0.49899
#
# Static dielectric constant tensor:
#      x y z
#    x 2.056710 -0.068180 -0.058360 
#    y -0.068180 2.051960 0.018690 
#    z -0.058360 0.018690 2.084220 
# 
# From -- ./inp_files/226260.got.cif
#   From: 2010.05.17/outbox.cif.g08.bks.cpg/sg2_114_cif.got.tgz:226260.got - 2010.06.03 11:33:40.
