data_PCOD9057066
_publ_section_title
;
Structure prediction by ZEFSAII (Michael W. Deem and Ramdas Pophale) SiO2 
 PCOD9057066
Probable space group: P -1
;
_chemical_formula_sum "Si O2"
_cell_formula_units_Z 14
_cell_length_a 11.339198
_cell_length_b 10.986660
_cell_length_c 9.622821
_cell_angle_alpha 45.247606
_cell_angle_beta 117.974154
_cell_angle_gamma 136.422205
_cell_volume 584.804982
_symmetry_space_group_name_H-M "P -1"
_symmetry_group_IT_number 2
_symmetry_cell_setting 'triclinic'
loop_
_space_group_symop_operation_xyz
x,y,z
-x,-y,-z
loop_
_atom_site_type_symbol
_atom_site_label
_atom_site_fract_x
_atom_site_fract_y
_atom_site_fract_z
Si Si1 0.158834 0.498420 0.066204
Si Si2 0.807165 0.969735 0.687657
Si Si3 0.831636 0.612621 0.528866
Si Si4 0.162693 0.769479 0.284588
Si Si5 0.181611 0.353880 0.904474
Si Si6 0.492663 0.031488 0.132928
Si Si7 0.462929 0.665811 0.595680
O O1 0.193725 0.435945 0.282538
O O2 0.127689 0.357639 0.028678
O O3 0.333153 0.732552 0.929661
O O4 0.000000 0.500000 0.000000
O O5 0.772528 0.131771 0.603216
O O6 0.997394 0.137687 0.595618
O O7 0.657961 0.785425 0.650356
O O8 0.799324 0.833594 0.922245
O O9 0.860506 0.444136 0.612456
O O10 0.660892 0.540889 0.412053
O O11 0.978995 0.709968 0.220127
O O12 0.308797 0.968564 0.107877
O O13 0.351953 0.569902 0.754209
O O14 0.481808 0.859228 0.367108
O O15 0.500000 0.000000 0.000000
#
# Coordination Sequence:
#
# PCOD9057066 Si02
#       7
#     2   2   2   2   2   2   2
#     4  12  23  44  69 103 139 175 232 288 339 410
#     4  12  26  45  70 103 143 183 228 282 349 407
#     4  11  24  44  73 101 138 178 236 283 343 400
#     4  11  23  42  71 101 136 179 235 286 334 404
#     4  12  26  45  69 102 142 184 226 283 348 411
#     4  11  22  41  69 106 130 175 231 289 344 393
#     4  11  25  43  72 100 139 181 233 278 345 411
#
# _framework density 23.939603000000002
#
# number of rings (size 3 to 8) (size 9 to 14) (size 15 to 20)
#    0.000    0.571    5.714    3.000    2.000    3.429 
#    0.000    0.714    0.000    0.000    0.000    0.000 
#    0.000    0.000    0.000    0.000    0.000    0.000 
#
# Total GULP energy -78145.600303 kJ/mol
# GULP energy per Si atom -5581.828593 kJ/mol
# Density = 2.388512 g / cm^3
# Si number density = 23.939603 Si / 1000 Ang^3
#
#
#
# Elastic Constant Matrix: (Units=GPa)
#
#
# Indices 1 2 3 4 5 6 
#
# 1 62.2634 50.1417 37.5367 -6.2979 -20.3432 6.8803
# 2 50.1417 143.3576 46.8059 0.2293 -13.6872 45.3679
# 3 37.5367 46.8059 131.3365 -10.6055 -29.1024 8.9673
# 4 -6.2979 0.2293 -10.6055 47.9594 6.0387 -13.3007
# 5 -20.3432 -13.6872 -29.1024 6.0387 37.3645 -0.1044
# 6 6.8803 45.3679 8.9673 -13.3007 -0.1044 49.8418
#
#
#
# Elastic Compliance Matrix: (Units=1/GPa)
#
#
# Indices 1 2 3 4 5 6 
#
# 1 0.028816 -0.010706 -0.002567 0.004160 0.009116 0.007358
# 2 -0.010706 0.015846 -0.002296 -0.005778 -0.000918 -0.014076
# 3 -0.002567 -0.002296 0.010482 0.001550 0.005678 0.000984
# 4 0.004160 -0.005778 0.001550 0.025190 -0.002684 0.011123
# 5 0.009116 -0.000918 0.005678 -0.002684 0.036241 -0.002085
# 6 0.007358 -0.014076 0.000984 0.011123 -0.002085 0.034647
#
#
# Mechanical properties :
#
#
# Convention : Reuss Voigt Hill
#
# Bulk Modulus (GPa) = 41.65571 67.32514 54.49042
# Shear Modulus (GPa) = 26.26567 40.53134 33.39850
#
# Velocity S-wave (km/s) = 3.31594 4.11915 3.73918
# Velocity P-wave (km/s) = 5.66557 7.12792 6.43840
#
# Compressibility (1/GPa) = 0.02400631
#
# Stress axis : x y z
#
# Youngs Moduli (GPa) = 34.70305 63.10693 95.40020
#
# Poissons Ratio (x) = 0.67560 0.24488
# Poissons Ratio (y) = 0.37152 0.21908
# Poissons Ratio (z) = 0.08908 0.14492
#
# Static dielectric constant tensor:
#      x y z
#    x 1.946800 0.011100 0.068520 
#    y 0.011100 2.064250 0.038770 
#    z 0.068520 0.038770 1.949250 
# 
# From -- ./inp_files/261785.got.cif
#   From: 2010.05.17/outbox.cif.g08.bks.cpg/sg2_131_cif.got.tgz:261785.got - 2010.06.03 11:33:40.
