data_PCOD9057314
_publ_section_title
;
Structure prediction by ZEFSAII (Michael W. Deem and Ramdas Pophale) SiO2 
 PCOD9057314
Probable space group: P -1
;
_chemical_formula_sum "Si O2"
_cell_formula_units_Z 16
_cell_length_a 14.583696
_cell_length_b 14.010991
_cell_length_c 6.520937
_cell_angle_alpha 86.491145
_cell_angle_beta 72.440001
_cell_angle_gamma 141.394359
_cell_volume 686.807200
_symmetry_space_group_name_H-M "P -1"
_symmetry_group_IT_number 2
_symmetry_cell_setting 'triclinic'
loop_
_space_group_symop_operation_xyz
x,y,z
-x,-y,-z
loop_
_atom_site_type_symbol
_atom_site_label
_atom_site_fract_x
_atom_site_fract_y
_atom_site_fract_z
Si Si1 0.856604 0.266606 0.967709
Si Si2 0.242453 0.364989 0.161926
Si Si3 0.375648 0.779304 0.044768
Si Si4 0.512236 0.776124 0.343146
Si Si5 0.315471 0.933632 0.503410
Si Si6 0.905734 0.144530 0.633385
Si Si7 0.206839 0.493683 0.877962
Si Si8 0.349130 0.239705 0.066198
O O1 0.787353 0.282999 0.844084
O O2 0.859823 0.164353 0.869695
O O3 0.052455 0.432296 0.904689
O O4 0.732579 0.177759 0.265255
O O5 0.447625 0.571439 0.021780
O O6 0.107164 0.278762 0.448529
O O7 0.162725 0.354010 0.021250
O O8 0.251788 0.259286 0.140942
O O9 0.447591 0.795475 0.205354
O O10 0.539885 0.964056 0.784391
O O11 0.303515 0.631612 0.977057
O O12 0.611785 0.917149 0.433013
O O13 0.339226 0.589457 0.589608
O O14 0.624967 0.784620 0.171751
O O15 0.138886 0.816912 0.520187
O O16 0.768127 0.941490 0.724353
#
# Coordination Sequence:
#
# PCOD9057314 Si02
#       8
#     2   2   2   2   2   2   2   2
#     4  12  25  40  68  99 134 182 226 271 347 405
#     4  11  24  44  73 100 135 181 224 282 346 397
#     4  11  24  43  67  97 136 180 223 282 339 400
#     4  11  22  43  67  95 134 177 227 278 340 400
#     4  11  22  42  67  92 137 172 225 277 337 394
#     4  12  24  46  69 100 144 177 224 287 332 405
#     4  11  24  43  65  98 139 173 228 285 331 407
#     4  11  22  45  73 100 133 182 223 279 348 403
#
# _framework density 23.296202000000001
#
# number of rings (size 3 to 8) (size 9 to 14) (size 15 to 20)
#    0.000    0.750    5.000    2.625    0.000    5.000 
#    0.000    3.750    0.000    0.000    0.000    0.000 
#    0.000    0.000    0.000    0.000    0.000    0.000 
#
# Total GULP energy -89385.594990 kJ/mol
# GULP energy per Si atom -5586.599687 kJ/mol
# Density = 2.324318 g / cm^3
# Si number density = 23.296202 Si / 1000 Ang^3
#
#
#
# Elastic Constant Matrix: (Units=GPa)
#
#
# Indices 1 2 3 4 5 6 
#
# 1 116.4500 18.2311 32.6889 4.8836 -13.3794 -9.8092
# 2 18.2311 57.3253 8.6118 12.8973 10.2527 -0.8632
# 3 32.6889 8.6118 102.0525 3.5565 -4.0393 -1.0220
# 4 4.8836 12.8973 3.5565 27.8984 1.7926 0.4768
# 5 -13.3794 10.2527 -4.0393 1.7926 22.1919 -3.5389
# 6 -9.8092 -0.8632 -1.0220 0.4768 -3.5389 34.9140
#
#
#
# Elastic Compliance Matrix: (Units=1/GPa)
#
#
# Indices 1 2 3 4 5 6 
#
# 1 0.011565 -0.004832 -0.002884 -0.000090 0.009323 0.003992
# 2 -0.004832 0.023495 -0.000675 -0.009028 -0.013487 -0.002040
# 3 -0.002884 -0.000675 0.010816 -0.000588 0.000517 -0.000450
# 4 -0.000090 -0.009028 -0.000588 0.040080 0.000653 -0.000747
# 5 0.009323 -0.013487 0.000517 0.000653 0.058262 0.008198
# 6 0.003992 -0.002040 -0.000450 -0.000747 0.008198 0.030541
#
#
# Mechanical properties :
#
#
# Convention : Reuss Voigt Hill
#
# Bulk Modulus (GPa) = 34.37095 43.87679 39.12387
# Shear Modulus (GPa) = 24.84626 31.42060 28.13343
#
# Velocity S-wave (km/s) = 3.26933 3.67651 3.47888
# Velocity P-wave (km/s) = 5.38862 6.07433 5.74172
#
# Compressibility (1/GPa) = 0.02909434
#
# Stress axis : x y z
#
# Youngs Moduli (GPa) = 86.46989 42.56248 92.45409
#
# Poissons Ratio (x) = 0.20565 0.26668
# Poissons Ratio (y) = 0.41779 0.06237
# Poissons Ratio (z) = 0.24942 0.02871
#
# Static dielectric constant tensor:
#      x y z
#    x 1.860470 0.003660 -0.018610 
#    y 0.003660 1.930470 -0.045350 
#    z -0.018610 -0.045350 1.894550 
# 
# From -- ./inp_files/39709.got.cif
#   From: 2010.05.17/outbox.cif.g08.bks.cpg/sg2_20_cif.got.tgz:39709.got - 2010.06.03 11:33:40.
