data_PCOD9057416
_publ_section_title
;
Structure prediction by ZEFSAII (Michael W. Deem and Ramdas Pophale) SiO2 
 PCOD9057416
Probable space group: P -1
;
_chemical_formula_sum "Si O2"
_cell_formula_units_Z 14
_cell_length_a 8.768214
_cell_length_b 8.302879
_cell_length_c 19.968748
_cell_angle_alpha 43.719871
_cell_angle_beta 143.176059
_cell_angle_gamma 118.329309
_cell_volume 582.912478
_symmetry_space_group_name_H-M "P -1"
_symmetry_group_IT_number 2
_symmetry_cell_setting 'triclinic'
loop_
_space_group_symop_operation_xyz
x,y,z
-x,-y,-z
loop_
_atom_site_type_symbol
_atom_site_label
_atom_site_fract_x
_atom_site_fract_y
_atom_site_fract_z
Si Si1 0.347002 0.288027 0.514499
Si Si2 0.585616 0.533239 0.302387
Si Si3 0.164421 0.079808 0.194102
Si Si4 0.837742 0.390618 0.209831
Si Si5 0.887671 0.842179 0.386284
Si Si6 0.683571 0.457585 0.939148
Si Si7 0.090468 0.756817 0.146073
O O1 0.500000 0.500000 0.500000
O O2 0.082770 0.353840 0.358739
O O3 0.253333 0.217089 0.576559
O O4 0.564107 0.052820 0.635480
O O5 0.801727 0.280303 0.460345
O O6 0.426521 0.565452 0.167883
O O7 0.369469 0.599021 0.265112
O O8 0.767512 0.718732 0.320916
O O9 0.222331 0.295879 0.104809
O O10 0.096745 0.871445 0.187568
O O11 0.918776 0.224933 0.106498
O O12 0.562801 0.513939 0.109074
O O13 0.899187 0.582620 0.122821
O O14 0.832927 0.122998 0.269889
O O15 0.000000 0.000000 0.000000
#
# Coordination Sequence:
#
# PCOD9057416 Si02
#       7
#     2   2   2   2   2   2   2
#     4  12  21  40  70 102 135 178 220 277 338 401
#     4  11  22  42  69  99 143 176 223 286 342 398
#     4  11  23  43  69 101 141 171 231 274 346 401
#     4  12  24  45  74 100 133 185 232 278 338 410
#     4  11  23  41  70 104 137 177 232 284 334 408
#     4  11  23  42  74 101 130 186 226 284 332 410
#     4  12  25  46  68  94 141 183 220 283 347 403
#
# _framework density 24.017326000000001
#
# number of rings (size 3 to 8) (size 9 to 14) (size 15 to 20)
#    0.000    0.571    7.143    1.286    0.000    1.143 
#    2.571    7.143    0.000    0.000    0.000    0.000 
#    0.000    0.000    0.000    0.000    0.000    0.000 
#
# Total GULP energy -78344.573671 kJ/mol
# GULP energy per Si atom -5596.040976 kJ/mol
# Density = 2.396266 g / cm^3
# Si number density = 24.017326 Si / 1000 Ang^3
#
#
#
# Elastic Constant Matrix: (Units=GPa)
#
#
# Indices 1 2 3 4 5 6 
#
# 1 67.7302 47.0727 65.1162 -21.1514 26.8227 13.3937
# 2 47.0727 120.2835 44.1272 -18.1185 1.9633 8.2564
# 3 65.1162 44.1272 155.1924 -23.4681 52.3495 8.2895
# 4 -21.1514 -18.1185 -23.4681 41.2655 -6.2133 -3.2403
# 5 26.8227 1.9633 52.3495 -6.2133 60.2003 2.2323
# 6 13.3937 8.2564 8.2895 -3.2403 2.2323 27.4170
#
#
#
# Elastic Compliance Matrix: (Units=1/GPa)
#
#
# Indices 1 2 3 4 5 6 
#
# 1 0.037248 -0.009305 -0.008613 0.008090 -0.007552 -0.011219
# 2 -0.009305 0.012360 -0.001155 0.000791 0.004797 0.000876
# 3 -0.008613 -0.001155 0.013011 0.001482 -0.007337 0.001394
# 4 0.008090 0.000791 0.001482 0.029208 -0.001866 -0.001035
# 5 -0.007552 0.004797 -0.007337 -0.001866 0.025929 0.002132
# 6 -0.011219 0.000876 0.001394 -0.001035 0.002132 0.040973
#
#
# Mechanical properties :
#
#
# Convention : Reuss Voigt Hill
#
# Bulk Modulus (GPa) = 40.86285 72.87093 56.86689
# Shear Modulus (GPa) = 24.38652 38.23588 31.31120
#
# Velocity S-wave (km/s) = 3.18995 3.99433 3.61458
# Velocity P-wave (km/s) = 5.53340 7.18886 6.41476
#
# Compressibility (1/GPa) = 0.02447210
#
# Stress axis : x y z
#
# Youngs Moduli (GPa) = 26.84737 80.90716 76.86094
#
# Poissons Ratio (x) = 0.75286 0.66197
# Poissons Ratio (y) = 0.24982 0.08879
# Poissons Ratio (z) = 0.23122 0.09347
#
# Static dielectric constant tensor:
#      x y z
#    x 1.942420 -0.003370 -0.037580 
#    y -0.003370 1.900650 0.036180 
#    z -0.037580 0.036180 1.951880 
# 
# From -- ./inp_files/211250.got.cif
#   From: 2010.05.17/outbox.cif.g08.bks.cpg/sg2_106_cif.got.tgz:211250.got - 2010.06.03 11:33:40.
