data_PCOD9057831
_publ_section_title
;
Structure prediction by ZEFSAII (Michael W. Deem and Ramdas Pophale) SiO2 
 PCOD9057831
Probable space group: P -1
;
_chemical_formula_sum "Si O2"
_cell_formula_units_Z 12
_cell_length_a 9.889179
_cell_length_b 11.791558
_cell_length_c 8.930934
_cell_angle_alpha 44.197810
_cell_angle_beta 133.137628
_cell_angle_gamma 115.299549
_cell_volume 525.724614
_symmetry_space_group_name_H-M "P -1"
_symmetry_group_IT_number 2
_symmetry_cell_setting 'triclinic'
loop_
_space_group_symop_operation_xyz
x,y,z
-x,-y,-z
loop_
_atom_site_type_symbol
_atom_site_label
_atom_site_fract_x
_atom_site_fract_y
_atom_site_fract_z
Si Si1 0.546099 0.040091 0.327807
Si Si2 0.902015 0.318289 0.746983
Si Si3 0.129020 0.121372 0.899149
Si Si4 0.328430 0.631348 0.779412
Si Si5 0.972751 0.627345 0.664547
Si Si6 0.930495 0.855229 0.682442
O O1 0.613003 0.217872 0.223794
O O2 0.500000 0.000000 0.500000
O O3 0.718313 0.917376 0.512384
O O4 0.340690 0.049931 0.092308
O O5 0.761212 0.312190 0.505301
O O6 0.858248 0.494291 0.627402
O O7 0.101098 0.275342 0.849618
O O8 0.932105 0.190963 0.028575
O O9 0.050345 0.204791 0.609030
O O10 0.000000 0.000000 0.000000
O O11 0.182205 0.556065 0.847334
O O12 0.500000 0.500000 0.000000
O O13 0.936562 0.689719 0.744887
O O14 0.000000 0.000000 0.500000
#
# Coordination Sequence:
#
# PCOD9057831 Si02
#       6
#     2   2   2   2   2   2
#     4  12  23  41  72 102 132 180 241 279 340 421
#     4  11  23  42  69  96 140 188 229 281 348 408
#     4  11  22  43  72 102 134 179 238 291 342 412
#     4  11  23  42  71 101 135 180 239 282 336 418
#     4  11  23  43  66  97 144 184 225 291 351 402
#     4  12  25  44  68 102 147 184 224 293 352 405
#
# _framework density 22.82564
#
# number of rings (size 3 to 8) (size 9 to 14) (size 15 to 20)
#    0.000    0.667    3.333    7.500    0.000    0.667 
#    0.000    0.833    0.000    0.000    0.000    0.000 
#    0.000    0.000    0.000    0.000    0.000    0.000 
#
# Total GULP energy -66950.484217 kJ/mol
# GULP energy per Si atom -5579.207018 kJ/mol
# Density = 2.277369 g / cm^3
# Si number density = 22.825640 Si / 1000 Ang^3
#
#
#
# Elastic Constant Matrix: (Units=GPa)
#
#
# Indices 1 2 3 4 5 6 
#
# 1 116.4702 37.0475 61.5128 4.8700 21.8202 -22.1066
# 2 37.0475 122.4793 25.3471 0.2297 14.1762 -27.6027
# 3 61.5128 25.3471 127.7703 1.2982 15.7010 -7.7001
# 4 4.8700 0.2297 1.2982 28.6171 -3.6979 4.4392
# 5 21.8202 14.1762 15.7010 -3.6979 52.7202 -6.4154
# 6 -22.1066 -27.6027 -7.7001 4.4392 -6.4154 42.3834
#
#
#
# Elastic Compliance Matrix: (Units=1/GPa)
#
#
# Indices 1 2 3 4 5 6 
#
# 1 0.013689 -0.001478 -0.005565 -0.003261 -0.003229 0.005019
# 2 -0.001478 0.010192 -0.000808 -0.000828 -0.001263 0.005616
# 3 -0.005565 -0.000808 0.010658 0.000626 -0.000814 -0.001681
# 4 -0.003261 -0.000828 0.000626 0.036753 0.003298 -0.005477
# 5 -0.003229 -0.001263 -0.000814 0.003298 0.021142 0.000200
# 6 0.005019 0.005616 -0.001681 -0.005477 0.000200 0.030168
#
#
# Mechanical properties :
#
#
# Convention : Reuss Voigt Hill
#
# Bulk Modulus (GPa) = 53.08571 68.28163 60.68367
# Shear Modulus (GPa) = 34.58199 40.93163 37.75681
#
# Velocity S-wave (km/s) = 3.89659 4.23925 4.07152
# Velocity P-wave (km/s) = 6.59940 7.34446 6.98187
#
# Compressibility (1/GPa) = 0.01883746
#
# Stress axis : x y z
#
# Youngs Moduli (GPa) = 73.05185 98.11316 93.82345
#
# Poissons Ratio (x) = 0.14501 0.52210
# Poissons Ratio (y) = 0.10797 0.07584
# Poissons Ratio (z) = 0.40651 0.07931
#
# Static dielectric constant tensor:
#      x y z
#    x 1.967460 0.161700 0.008710 
#    y 0.161700 2.215240 0.057630 
#    z 0.008710 0.057630 2.100370 
# 
# From -- ./inp_files/174635.got.cif
#   From: 2010.05.17/outbox.cif.g08.bks.cpg/sg2_88_cif.got.tgz:174635.got - 2010.06.03 11:33:40.
