data_PCOD9057168
_publ_section_title
;
Structure prediction by ZEFSAII (Michael W. Deem and Ramdas Pophale) SiO2 
 PCOD9057168
Probable space group: P -1
;
_chemical_formula_sum "Si O2"
_cell_formula_units_Z 14
_cell_length_a 9.127061
_cell_length_b 9.498376
_cell_length_c 9.190039
_cell_angle_alpha 90.342244
_cell_angle_beta 112.564679
_cell_angle_gamma 110.297464
_cell_volume 681.074781
_symmetry_space_group_name_H-M "P -1"
_symmetry_group_IT_number 2
_symmetry_cell_setting 'triclinic'
loop_
_space_group_symop_operation_xyz
x,y,z
-x,-y,-z
loop_
_atom_site_type_symbol
_atom_site_label
_atom_site_fract_x
_atom_site_fract_y
_atom_site_fract_z
Si Si1 0.727191 0.799532 0.917644
Si Si2 0.326673 0.348314 0.418285
Si Si3 0.670363 0.329666 0.193131
Si Si4 0.090246 0.339281 0.803927
Si Si5 0.843607 0.432672 0.552136
Si Si6 0.179944 0.127686 0.614861
Si Si7 0.700880 0.041870 0.095466
O O1 0.704992 0.745917 0.743053
O O2 0.533557 0.719829 0.910135
O O3 0.864273 0.738921 0.039896
O O4 0.771913 0.975142 0.985080
O O5 0.500000 0.500000 0.500000
O O6 0.189708 0.427031 0.390255
O O7 0.301094 0.224063 0.533603
O O8 0.771088 0.490510 0.157971
O O9 0.696583 0.338691 0.379891
O O10 0.756592 0.217877 0.159131
O O11 0.130548 0.248490 0.686974
O O12 0.904353 0.344031 0.698903
O O13 0.000000 0.500000 0.500000
O O14 0.268064 0.046627 0.754675
O O15 0.000000 0.000000 0.500000
O O16 0.500000 0.000000 0.000000
#
# Coordination Sequence:
#
# PCOD9057168 Si02
#       7
#     2   2   2   2   2   2   2
#     4  10  21  37  58  93 128 157 205 270 322 352
#     4  12  23  41  67  98 129 162 210 271 316 366
#     4  10  17  36  65  87 122 169 217 248 300 391
#     4  10  20  36  63  92 118 167 216 252 304 384
#     4  10  19  35  64  92 119 160 219 249 302 370
#     4  11  22  40  68  92 123 173 215 248 313 387
#     4   9  21  37  61  90 128 168 210 253 312 382
#
# _framework density 20.555745999999999
#
# number of rings (size 3 to 8) (size 9 to 14) (size 15 to 20)
#    0.000    1.714    4.286    1.286    2.000    2.857 
#    0.000    5.714    9.429    0.000    0.000    0.000 
#    0.000    0.000    0.000    0.000    0.000    0.000 
#
# Total GULP energy -78004.322477 kJ/mol
# GULP energy per Si atom -5571.737320 kJ/mol
# Density = 2.050896 g / cm^3
# Si number density = 20.555746 Si / 1000 Ang^3
#
#
#
# Elastic Constant Matrix: (Units=GPa)
#
#
# Indices 1 2 3 4 5 6 
#
# 1 60.5487 34.3213 32.4807 -3.8778 2.6999 -21.6298
# 2 34.3213 124.4781 36.5535 16.7620 -13.0839 -27.9200
# 3 32.4807 36.5535 107.3181 9.9371 -0.4951 -12.3382
# 4 -3.8778 16.7620 9.9371 23.3418 -18.4529 -1.3302
# 5 2.6999 -13.0839 -0.4951 -18.4529 44.0918 4.3587
# 6 -21.6298 -27.9200 -12.3382 -1.3302 4.3587 42.4402
#
#
#
# Elastic Compliance Matrix: (Units=1/GPa)
#
#
# Indices 1 2 3 4 5 6 
#
# 1 0.026668 -0.005027 -0.006476 0.012084 0.001002 0.008678
# 2 -0.005027 0.012003 -0.001193 -0.008964 -0.000364 0.004744
# 3 -0.006476 -0.001193 0.012359 -0.007963 -0.003109 -0.000423
# 4 0.012084 -0.008964 -0.007963 0.077671 0.029276 -0.002626
# 5 0.001002 -0.000364 -0.003109 0.029276 0.035056 -0.003316
# 6 0.008678 0.004744 -0.000423 -0.002626 -0.003316 0.031241
#
#
# Mechanical properties :
#
#
# Convention : Reuss Voigt Hill
#
# Bulk Modulus (GPa) = 39.00411 55.45065 47.22738
# Shear Modulus (GPa) = 21.84022 34.57405 28.20714
#
# Velocity S-wave (km/s) = 3.26312 4.10563 3.70838
# Velocity P-wave (km/s) = 5.76309 7.03628 6.43127
#
# Compressibility (1/GPa) = 0.02563833
#
# Stress axis : x y z
#
# Youngs Moduli (GPa) = 37.49812 83.31437 80.91408
#
# Poissons Ratio (x) = 0.41880 0.52398
# Poissons Ratio (y) = 0.18850 0.09654
# Poissons Ratio (z) = 0.24283 0.09940
#
# Static dielectric constant tensor:
#      x y z
#    x 2.799760 0.661800 -0.058120 
#    y 0.661800 2.173070 -0.028110 
#    z -0.058120 -0.028110 1.829010 
# 
# From -- ./inp_files/158888.got.cif
#   From: 2010.05.17/outbox.cif.g08.bks.cpg/sg2_80_cif.got.tgz:158888.got - 2010.06.03 11:33:40.
