data_PCOD9057422
_publ_section_title
;
Structure prediction by ZEFSAII (Michael W. Deem and Ramdas Pophale) SiO2 
 PCOD9057422
Probable space group: P -1
;
_chemical_formula_sum "Si O2"
_cell_formula_units_Z 15
_cell_length_a 13.206496
_cell_length_b 8.366936
_cell_length_c 19.421461
_cell_angle_alpha 143.862372
_cell_angle_beta 143.693361
_cell_angle_gamma 62.635722
_cell_volume 627.074970
_symmetry_space_group_name_H-M "P -1"
_symmetry_group_IT_number 2
_symmetry_cell_setting 'triclinic'
loop_
_space_group_symop_operation_xyz
x,y,z
-x,-y,-z
loop_
_atom_site_type_symbol
_atom_site_label
_atom_site_fract_x
_atom_site_fract_y
_atom_site_fract_z
Si Si1 0.378910 0.653809 0.351605
Si Si2 0.555349 0.233094 0.929798
Si Si3 0.228530 0.275898 0.960205
Si Si4 0.932393 0.865577 0.550331
Si Si5 0.000000 0.500000 0.000000
Si Si6 0.403349 0.023207 0.623513
Si Si7 0.906528 0.351044 0.250933
Si Si8 0.311399 0.543778 0.589427
O O1 0.158207 0.469528 0.130527
O O2 0.514161 0.507102 0.359678
O O3 0.500000 0.000000 0.500000
O O4 0.383541 0.749678 0.467259
O O5 0.501829 0.073730 0.769544
O O6 0.411236 0.920417 0.789504
O O7 0.500000 0.500000 0.000000
O O8 0.783527 0.358390 0.121744
O O9 0.223600 0.998040 0.904613
O O10 0.057972 0.335155 0.915067
O O11 0.439385 0.619794 0.198925
O O12 0.153495 0.139741 0.795164
O O13 0.811447 0.010150 0.501341
O O14 0.932960 0.620722 0.412501
O O15 0.806683 0.664629 0.480071
O O16 0.132345 0.422264 0.391717
#
# Coordination Sequence:
#
# PCOD9057422 Si02
#       8
#     2   2   2   2   1   2   2   2
#     4  12  22  43  71 103 132 173 224 285 338 392
#     4  12  28  44  65  97 143 187 223 270 340 410
#     4  11  23  38  70 103 132 168 229 284 335 396
#     4  11  22  42  70 101 131 172 233 286 333 385
#     4  12  20  38  70 102 130 166 218 280 334 402
#     4  12  25  42  66 103 137 176 223 275 340 401
#     4  11  25  44  69  99 135 180 231 278 338 392
#     4  11  25  45  69  99 138 177 225 285 332 404
#
# _framework density 23.920586
#
# number of rings (size 3 to 8) (size 9 to 14) (size 15 to 20)
#    0.000    0.533    5.333    4.000    3.733    3.200 
#    0.000    0.667    0.000    0.000    0.000    0.000 
#    0.000    0.000    0.000    0.000    0.000    0.000 
#
# Total GULP energy -83717.330318 kJ/mol
# GULP energy per Si atom -5581.155355 kJ/mol
# Density = 2.386614 g / cm^3
# Si number density = 23.920586 Si / 1000 Ang^3
#
#
#
# Elastic Constant Matrix: (Units=GPa)
#
#
# Indices 1 2 3 4 5 6 
#
# 1 81.0513 39.4606 45.9143 -17.7274 -24.5128 -24.3668
# 2 39.4606 133.7230 61.1876 -47.8336 -0.4240 -26.3806
# 3 45.9143 61.1876 137.1024 -32.3524 -18.1223 -8.7637
# 4 -17.7274 -47.8336 -32.3524 54.4400 11.7679 3.0398
# 5 -24.5128 -0.4240 -18.1223 11.7679 36.7242 3.0944
# 6 -24.3668 -26.3806 -8.7637 3.0398 3.0944 31.7464
#
#
#
# Elastic Compliance Matrix: (Units=1/GPa)
#
#
# Indices 1 2 3 4 5 6 
#
# 1 0.024020 -0.002407 -0.004509 -0.000514 0.012766 0.013997
# 2 -0.002407 0.016575 -0.004056 0.012588 -0.008328 0.010413
# 3 -0.004509 -0.004056 0.010937 0.001201 0.002305 -0.004152
# 4 -0.000514 0.012588 0.001201 0.031776 -0.010493 0.008378
# 5 0.012766 -0.008328 0.002305 -0.010493 0.040103 0.000610
# 6 0.013997 0.010413 -0.004152 0.008378 0.000610 0.048888
#
#
# Mechanical properties :
#
#
# Convention : Reuss Voigt Hill
#
# Bulk Modulus (GPa) = 33.79772 71.66685 52.73228
# Shear Modulus (GPa) = 24.49706 38.26973 31.38339
#
# Velocity S-wave (km/s) = 3.20363 4.00417 3.62606
# Velocity P-wave (km/s) = 5.27675 7.16960 6.29473
#
# Compressibility (1/GPa) = 0.02958779
#
# Stress axis : x y z
#
# Youngs Moduli (GPa) = 41.63135 60.33198 91.43518
#
# Poissons Ratio (x) = 0.14522 0.41229
# Poissons Ratio (y) = 0.10021 0.37085
# Poissons Ratio (z) = 0.18772 0.24470
#
# Static dielectric constant tensor:
#      x y z
#    x 1.982920 0.051940 0.054960 
#    y 0.051940 1.950540 -0.032830 
#    z 0.054960 -0.032830 1.960590 
# 
# From -- ./inp_files/597474.got.cif
#   From: 2010.05.17/outbox.cif.g08.bks.cpg/sg2_299_cif.got.tgz:597474.got - 2010.06.03 11:33:40.
