data_PCOD9057082
_publ_section_title
;
Structure prediction by ZEFSAII (Michael W. Deem and Ramdas Pophale) SiO2 
 PCOD9057082
Probable space group: P -1
;
_chemical_formula_sum "Si O2"
_cell_formula_units_Z 16
_cell_length_a 12.420911
_cell_length_b 8.034749
_cell_length_c 12.221391
_cell_angle_alpha 130.324176
_cell_angle_beta 47.260902
_cell_angle_gamma 113.344421
_cell_volume 680.943005
_symmetry_space_group_name_H-M "P -1"
_symmetry_group_IT_number 2
_symmetry_cell_setting 'triclinic'
loop_
_space_group_symop_operation_xyz
x,y,z
-x,-y,-z
loop_
_atom_site_type_symbol
_atom_site_label
_atom_site_fract_x
_atom_site_fract_y
_atom_site_fract_z
Si Si1 0.313010 0.318439 0.795743
Si Si2 0.599369 0.468639 0.583439
Si Si3 0.145439 0.758709 0.993947
Si Si4 0.887796 0.359923 0.453804
Si Si5 0.950552 0.681244 0.881514
Si Si6 0.031323 0.184501 0.641881
Si Si7 0.305207 0.990353 0.467766
Si Si8 0.423455 0.857146 0.740195
O O1 0.477556 0.393024 0.721086
O O2 0.220163 0.519350 0.880456
O O3 0.321540 0.106554 0.622654
O O4 0.218520 0.268237 0.945991
O O5 0.754454 0.499223 0.544076
O O6 0.522673 0.678814 0.666522
O O7 0.618323 0.277446 0.396951
O O8 0.277030 0.903926 0.930928
O O9 0.045883 0.728842 0.943422
O O10 0.051489 0.845211 0.198684
O O11 0.000000 0.500000 0.500000
O O12 0.979643 0.227347 0.237374
O O13 0.796025 0.208273 0.530438
O O14 0.973067 0.420222 0.738925
O O15 0.203259 0.164967 0.542005
O O16 0.000000 0.000000 0.500000
O O17 0.466059 0.962646 0.291993
#
# Coordination Sequence:
#
# PCOD9057082 Si02
#       8
#     2   2   2   2   2   2   2   2
#     4   9  18  34  64  94 112 144 207 266 299 339
#     4   9  18  36  59  89 121 152 199 252 311 351
#     4  10  17  36  64  96 118 149 204 257 302 345
#     4  12  26  39  54  83 130 172 198 238 307 370
#     4  11  19  39  63  86 120 161 205 253 295 350
#     4  11  21  36  61  90 125 158 199 250 303 364
#     4  11  21  36  55  91 120 157 206 245 301 356
#     4   9  18  34  66  90 112 149 207 263 296 341
#
# _framework density 23.496829000000002
#
# number of rings (size 3 to 8) (size 9 to 14) (size 15 to 20)
#    0.000    1.750    3.750    3.000    0.000    2.500 
#    0.000    1.250    0.000    3.000    0.000    0.000 
#    0.000    0.000    0.000    0.000    0.000    0.000 
#
# Total GULP energy -89526.287271 kJ/mol
# GULP energy per Si atom -5595.392954 kJ/mol
# Density = 2.344335 g / cm^3
# Si number density = 23.496829 Si / 1000 Ang^3
#
#
#
# Elastic Constant Matrix: (Units=GPa)
#
#
# Indices 1 2 3 4 5 6 
#
# 1 127.3542 39.3757 49.1143 -15.1799 -9.0653 22.9607
# 2 39.3757 121.1231 28.0709 -30.8459 -3.7307 20.7803
# 3 49.1143 28.0709 84.3394 -29.8426 -11.8112 28.4768
# 4 -15.1799 -30.8459 -29.8426 50.5614 13.9543 -13.6556
# 5 -9.0653 -3.7307 -11.8112 13.9543 32.0071 -7.5055
# 6 22.9607 20.7803 28.4768 -13.6556 -7.5055 44.6529
#
#
#
# Elastic Compliance Matrix: (Units=1/GPa)
#
#
# Indices 1 2 3 4 5 6 
#
# 1 0.010892 -0.002569 -0.005714 -0.002404 0.001430 -0.001256
# 2 -0.002569 0.010918 0.000613 0.006239 -0.002577 -0.002675
# 3 -0.005714 0.000613 0.020767 0.008654 0.000500 -0.007860
# 4 -0.002404 0.006239 0.008654 0.030913 -0.010104 0.000568
# 5 0.001430 -0.002577 0.000500 -0.010104 0.036693 0.003222
# 6 -0.001256 -0.002675 -0.007860 0.000568 0.003222 0.030014
#
#
# Mechanical properties :
#
#
# Convention : Reuss Voigt Hill
#
# Bulk Modulus (GPa) = 36.71710 62.88205 49.79958
# Shear Modulus (GPa) = 30.37387 39.86134 35.11760
#
# Velocity S-wave (km/s) = 3.59929 4.12327 3.87016
# Velocity P-wave (km/s) = 5.73877 7.03481 6.41958
#
# Compressibility (1/GPa) = 0.02723527
#
# Stress axis : x y z
#
# Youngs Moduli (GPa) = 91.81296 91.59241 48.15439
#
# Poissons Ratio (x) = 0.23532 0.27515
# Poissons Ratio (y) = 0.23589 -0.02950
# Poissons Ratio (z) = 0.52460 -0.05611
#
# Static dielectric constant tensor:
#      x y z
#    x 1.878390 -0.076200 -0.035640 
#    y -0.076200 2.011300 -0.024210 
#    z -0.035640 -0.024210 1.857500 
# 
# From -- ./inp_files/419908.got.cif
#   From: 2010.05.17/outbox.cif.g08.bks.cpg/sg2_210_cif.got.tgz:419908.got - 2010.06.03 11:33:40.
