data_PCOD9057540
_publ_section_title
;
Structure prediction by ZEFSAII (Michael W. Deem and Ramdas Pophale) SiO2 
 PCOD9057540
Probable space group: P -1
;
_chemical_formula_sum "Si O2"
_cell_formula_units_Z 16
_cell_length_a 9.050047
_cell_length_b 8.153504
_cell_length_c 17.196989
_cell_angle_alpha 60.969841
_cell_angle_beta 44.620204
_cell_angle_gamma 87.818501
_cell_volume 674.737048
_symmetry_space_group_name_H-M "P -1"
_symmetry_group_IT_number 2
_symmetry_cell_setting 'triclinic'
loop_
_space_group_symop_operation_xyz
x,y,z
-x,-y,-z
loop_
_atom_site_type_symbol
_atom_site_label
_atom_site_fract_x
_atom_site_fract_y
_atom_site_fract_z
Si Si1 0.061413 0.782730 0.101506
Si Si2 0.355647 0.141359 0.790363
Si Si3 0.654774 0.466903 0.720322
Si Si4 0.376393 0.012193 0.372618
Si Si5 0.821489 0.138546 0.784651
Si Si6 0.011556 0.066018 0.581693
Si Si7 0.904717 0.378227 0.145764
Si Si8 0.368517 0.343357 0.012863
O O1 0.893828 0.894180 0.142650
O O2 0.941050 0.552017 0.157819
O O3 0.110338 0.767464 0.176388
O O4 0.281388 0.945570 0.924793
O O5 0.464208 0.361810 0.746508
O O6 0.541974 0.151201 0.654100
O O7 0.753141 0.299416 0.730006
O O8 0.853336 0.704762 0.566673
O O9 0.514281 0.452073 0.854816
O O10 0.254486 0.054547 0.331273
O O11 0.166448 0.950702 0.529339
O O12 0.625282 0.201799 0.272981
O O13 0.007460 0.120204 0.660254
O O14 0.633010 0.882793 0.925411
O O15 0.093514 0.296993 0.116561
O O16 0.000000 0.500000 0.000000
O O17 0.500000 0.500000 0.000000
#
# Coordination Sequence:
#
# PCOD9057540 Si02
#       8
#     2   2   2   2   2   2   2   2
#     4  11  24  43  70 109 147 179 233 311 369 421
#     4  11  22  42  73 105 139 187 236 301 363 431
#     4  12  25  45  74 105 143 194 247 288 366 438
#     4  11  24  44  73 100 145 186 252 288 350 433
#     4  12  26  47  69 111 146 188 239 305 360 425
#     4  11  27  47  73 106 144 203 242 294 357 442
#     4  12  24  44  74 108 141 193 242 298 363 432
#     4  12  28  43  75 112 149 182 240 311 371 418
#
# _framework density 23.71294
#
# number of rings (size 3 to 8) (size 9 to 14) (size 15 to 20)
#    0.000    0.500    3.750    4.500    7.000    0.000 
#    0.000    5.000    2.750    0.000    0.000    0.000 
#    0.000    0.000    0.000    0.000    0.000    0.000 
#
# Total GULP energy -89469.396484 kJ/mol
# GULP energy per Si atom -5591.837280 kJ/mol
# Density = 2.365897 g / cm^3
# Si number density = 23.712940 Si / 1000 Ang^3
#
#
#
# Elastic Constant Matrix: (Units=GPa)
#
#
# Indices 1 2 3 4 5 6 
#
# 1 82.3373 40.8170 33.8949 8.9501 -13.6250 5.1891
# 2 40.8170 142.8141 48.1095 22.7802 3.1807 30.4918
# 3 33.8949 48.1095 93.0388 15.6635 -4.0097 4.4201
# 4 8.9501 22.7802 15.6635 56.5162 -3.3338 -3.9786
# 5 -13.6250 3.1807 -4.0097 -3.3338 31.5656 -1.7637
# 6 5.1891 30.4918 4.4201 -3.9786 -1.7637 54.3361
#
#
#
# Elastic Compliance Matrix: (Units=1/GPa)
#
#
# Indices 1 2 3 4 5 6 
#
# 1 0.016799 -0.004006 -0.003885 0.000548 0.007288 0.001237
# 2 -0.004006 0.011352 -0.003693 -0.003585 -0.004061 -0.006082
# 3 -0.003885 -0.003693 0.014332 -0.001763 0.000394 0.001161
# 4 0.000548 -0.003585 -0.001763 0.019957 0.002686 0.003652
# 5 0.007288 -0.004061 0.000394 0.002686 0.035731 0.002907
# 6 0.001237 -0.006082 0.001161 0.003652 0.002907 0.021966
#
#
# Mechanical properties :
#
#
# Convention : Reuss Voigt Hill
#
# Bulk Modulus (GPa) = 51.77628 62.64811 57.21220
# Shear Modulus (GPa) = 33.39026 41.50816 37.44921
#
# Velocity S-wave (km/s) = 3.75654 4.18837 3.97832
# Velocity P-wave (km/s) = 6.37946 7.06163 6.72919
#
# Compressibility (1/GPa) = 0.01931386
#
# Stress axis : x y z
#
# Youngs Moduli (GPa) = 59.52679 88.09033 69.77402
#
# Poissons Ratio (x) = 0.35291 0.27110
# Poissons Ratio (y) = 0.23848 0.25767
# Poissons Ratio (z) = 0.23129 0.32531
#
# Static dielectric constant tensor:
#      x y z
#    x 1.940680 -0.023050 -0.026990 
#    y -0.023050 1.899930 0.004700 
#    z -0.026990 0.004700 1.905150 
# 
# From -- ./inp_files/556967.got.cif
#   From: 2010.05.17/outbox.cif.g08.bks.cpg/sg2_279_cif.got.tgz:556967.got - 2010.06.03 11:33:40.
