data_PCOD9057501
_publ_section_title
;
Structure prediction by ZEFSAII (Michael W. Deem and Ramdas Pophale) SiO2 
 PCOD9057501
Probable space group: P -1
;
_chemical_formula_sum "Si O2"
_cell_formula_units_Z 12
_cell_length_a 9.205849
_cell_length_b 14.206236
_cell_length_c 5.280395
_cell_angle_alpha 125.119782
_cell_angle_beta 73.868852
_cell_angle_gamma 103.383145
_cell_volume 540.356147
_symmetry_space_group_name_H-M "P -1"
_symmetry_group_IT_number 2
_symmetry_cell_setting 'triclinic'
loop_
_space_group_symop_operation_xyz
x,y,z
-x,-y,-z
loop_
_atom_site_type_symbol
_atom_site_label
_atom_site_fract_x
_atom_site_fract_y
_atom_site_fract_z
Si Si1 0.211814 0.787357 0.165615
Si Si2 0.440035 0.607419 0.843027
Si Si3 0.234673 0.279288 0.009337
Si Si4 0.108231 0.016946 0.717425
Si Si5 0.941055 0.313742 0.404574
Si Si6 0.151301 0.479987 0.055001
O O1 0.127424 0.729795 0.363746
O O2 0.225307 0.919359 0.460374
O O3 0.355473 0.713954 0.931572
O O4 0.114420 0.771649 0.929822
O O5 0.500000 0.500000 0.500000
O O6 0.591040 0.673299 0.991037
O O7 0.309235 0.538767 0.965535
O O8 0.168394 0.348810 0.915829
O O9 0.122950 0.323864 0.346464
O O10 0.200505 0.142418 0.841744
O O11 0.000000 0.000000 0.500000
O O12 0.000000 0.000000 0.000000
O O13 0.874239 0.434861 0.562790
O O14 0.000000 0.500000 0.000000
#
# Coordination Sequence:
#
# PCOD9057501 Si02
#       6
#     2   2   2   2   2   2
#     4  11  23  46  69 102 141 189 236 293 344 425
#     4  11  25  42  68 108 151 180 237 298 369 429
#     4  12  23  41  71 103 144 188 237 296 367 410
#     4  12  25  46  74 104 141 189 251 296 340 429
#     4  11  22  42  71  99 137 183 240 290 351 416
#     4  11  24  43  71 105 143 188 243 294 362 434
#
# _framework density 22.207577000000001
#
# number of rings (size 3 to 8) (size 9 to 14) (size 15 to 20)
#    0.000    0.667    3.333    5.000    0.000    3.333 
#    0.000    0.000    0.000    8.000    0.000    0.000 
#    0.000    0.000    0.000    0.000    0.000    0.000 
#
# Total GULP energy -66840.612322 kJ/mol
# GULP energy per Si atom -5570.051027 kJ/mol
# Density = 2.215703 g / cm^3
# Si number density = 22.207577 Si / 1000 Ang^3
#
#
#
# Elastic Constant Matrix: (Units=GPa)
#
#
# Indices 1 2 3 4 5 6 
#
# 1 131.1372 58.9858 45.1357 10.9807 -5.2511 11.8920
# 2 58.9858 158.1100 63.6372 36.9881 2.6792 13.9782
# 3 45.1357 63.6372 129.4520 15.7918 -13.1339 2.2921
# 4 10.9807 36.9881 15.7918 48.4255 -16.1862 -2.8800
# 5 -5.2511 2.6792 -13.1339 -16.1862 41.2467 1.1674
# 6 11.8920 13.9782 2.2921 -2.8800 1.1674 36.4195
#
#
#
# Elastic Compliance Matrix: (Units=1/GPa)
#
#
# Indices 1 2 3 4 5 6 
#
# 1 0.009750 -0.002953 -0.001905 0.000975 0.001263 -0.001894
# 2 -0.002953 0.011639 -0.004117 -0.009074 -0.005897 -0.003773
# 3 -0.001905 -0.004117 0.010600 0.001534 0.003959 0.001529
# 4 0.000975 -0.009074 0.001534 0.031673 0.013486 0.005140
# 5 0.001263 -0.005897 0.003959 0.013486 0.031294 0.001665
# 6 -0.001894 -0.003773 0.001529 0.005140 0.001665 0.029781
#
#
# Mechanical properties :
#
#
# Convention : Reuss Voigt Hill
#
# Bulk Modulus (GPa) = 71.22424 83.80184 77.51304
# Shear Modulus (GPa) = 33.92884 41.94770 37.93827
#
# Velocity S-wave (km/s) = 3.91295 4.35085 4.13770
# Velocity P-wave (km/s) = 7.24959 7.94088 7.60310
#
# Compressibility (1/GPa) = 0.01404016
#
# Stress axis : x y z
#
# Youngs Moduli (GPa) = 102.56227 85.91544 94.33536
#
# Poissons Ratio (x) = 0.25368 0.17975
# Poissons Ratio (y) = 0.30283 0.38837
# Poissons Ratio (z) = 0.19542 0.35370
#
# Static dielectric constant tensor:
#      x y z
#    x 1.864820 -0.043500 -0.002500 
#    y -0.043500 1.926700 0.047020 
#    z -0.002500 0.047020 1.986730 
# 
# From -- ./inp_files/36656.got.cif
#   From: 2010.05.17/outbox.cif.g08.bks.cpg/sg2_19_cif.got.tgz:36656.got - 2010.06.03 11:33:40.
