data_PCOD9057034
_publ_section_title
;
Structure prediction by ZEFSAII (Michael W. Deem and Ramdas Pophale) SiO2 
 PCOD9057034
Probable space group: P -1
;
_chemical_formula_sum "Si O2"
_cell_formula_units_Z 16
_cell_length_a 12.506139
_cell_length_b 9.678994
_cell_length_c 10.799252
_cell_angle_alpha 95.430137
_cell_angle_beta 80.997239
_cell_angle_gamma 145.824442
_cell_volume 723.826255
_symmetry_space_group_name_H-M "P -1"
_symmetry_group_IT_number 2
_symmetry_cell_setting 'triclinic'
loop_
_space_group_symop_operation_xyz
x,y,z
-x,-y,-z
loop_
_atom_site_type_symbol
_atom_site_label
_atom_site_fract_x
_atom_site_fract_y
_atom_site_fract_z
Si Si1 0.616701 0.042911 0.085173
Si Si2 0.281054 0.077721 0.448286
Si Si3 0.568059 0.682108 0.103141
Si Si4 0.146793 0.983947 0.719087
Si Si5 0.671004 0.146168 0.691374
Si Si6 0.162459 0.490454 0.528002
Si Si7 0.744343 0.658820 0.656711
Si Si8 0.933826 0.422627 0.225035
O O1 0.614729 0.877738 0.046677
O O2 0.495649 0.941556 0.224457
O O3 0.827547 0.321311 0.104724
O O4 0.500000 0.000000 0.000000
O O5 0.398079 0.074224 0.369119
O O6 0.063234 0.785836 0.463782
O O7 0.302332 0.141509 0.593005
O O8 0.286708 0.219026 0.375210
O O9 0.755083 0.842721 0.164930
O O10 0.399998 0.526043 0.221371
O O11 0.500000 0.500000 0.000000
O O12 0.095384 0.769708 0.745071
O O13 0.958624 0.862351 0.692030
O O14 0.768014 0.332022 0.576823
O O15 0.840436 0.306670 0.776476
O O16 0.264602 0.454751 0.469379
O O17 0.171576 0.583988 0.661515
#
# Coordination Sequence:
#
# PCOD9057034 Si02
#       8
#     2   2   2   2   2   2   2   2
#     4  11  26  43  60  87 116 156 212 251 281 343
#     4  10  20  35  63  97 125 148 189 241 299 366
#     4  11  26  44  60  82 119 164 207 243 287 346
#     4  10  19  39  64  88 121 156 192 240 300 355
#     4  11  19  39  65  90 120 154 190 245 302 353
#     4  10  17  36  64  93 120 149 189 238 302 368
#     4  11  22  39  61  92 125 155 190 243 298 353
#     4  10  19  37  66  90 119 153 191 244 304 352
#
# _framework density 22.104751
#
# number of rings (size 3 to 8) (size 9 to 14) (size 15 to 20)
#    0.000    1.500    5.000    2.250    1.750    3.000 
#    6.750    0.000    0.000    0.000    0.000    0.000 
#    0.000    0.000    0.000    0.000    0.000    0.000 
#
# Total GULP energy -89392.010753 kJ/mol
# GULP energy per Si atom -5587.000672 kJ/mol
# Density = 2.205444 g / cm^3
# Si number density = 22.104751 Si / 1000 Ang^3
#
#
#
# Elastic Constant Matrix: (Units=GPa)
#
#
# Indices 1 2 3 4 5 6 
#
# 1 53.8040 25.7889 5.8676 9.3486 -4.1915 -14.9536
# 2 25.7889 66.1919 40.1549 26.7629 -2.3922 -1.1623
# 3 5.8676 40.1549 70.8945 30.7154 -1.6059 -3.5298
# 4 9.3486 26.7629 30.7154 43.3677 3.7666 -4.3549
# 5 -4.1915 -2.3922 -1.6059 3.7666 40.6136 1.1167
# 6 -14.9536 -1.1623 -3.5298 -4.3549 1.1167 40.4877
#
#
#
# Elastic Compliance Matrix: (Units=1/GPa)
#
#
# Indices 1 2 3 4 5 6 
#
# 1 0.027941 -0.014311 0.006882 -0.001216 0.002142 0.010319
# 2 -0.014311 0.032180 -0.014097 -0.007498 0.000733 -0.006417
# 3 0.006882 -0.014097 0.026733 -0.011567 0.001923 0.003171
# 4 -0.001216 -0.007498 -0.011567 0.036772 -0.004501 0.002407
# 5 0.002142 0.000733 0.001923 -0.004501 0.025386 -0.000205
# 6 0.010319 -0.006417 0.003171 0.002407 -0.000205 0.028867
#
#
# Mechanical properties :
#
#
# Convention : Reuss Voigt Hill
#
# Bulk Modulus (GPa) = 22.82943 37.16814 29.99879
# Shear Modulus (GPa) = 21.22856 32.83241 27.03049
#
# Velocity S-wave (km/s) = 3.10233 3.85815 3.50070
# Velocity P-wave (km/s) = 4.81486 6.05790 5.47179
#
# Compressibility (1/GPa) = 0.04380310
#
# Stress axis : x y z
#
# Youngs Moduli (GPa) = 35.78991 31.07472 37.40662
#
# Poissons Ratio (x) = 0.44471 -0.25744
# Poissons Ratio (y) = 0.51218 0.52733
# Poissons Ratio (z) = -0.24632 0.43806
#
# Static dielectric constant tensor:
#      x y z
#    x 1.820770 0.044150 -0.001380 
#    y 0.044150 1.828510 0.025510 
#    z -0.001380 0.025510 1.829730 
# 
# From -- ./inp_files/222756.got.cif
#   From: 2010.05.17/outbox.cif.g08.bks.cpg/sg2_112_cif.got.tgz:222756.got - 2010.06.03 11:33:40.
