data_PCOD9057228
_publ_section_title
;
Structure prediction by ZEFSAII (Michael W. Deem and Ramdas Pophale) SiO2 
 PCOD9057228
Probable space group: P -1
;
_chemical_formula_sum "Si O2"
_cell_formula_units_Z 16
_cell_length_a 11.164473
_cell_length_b 16.939364
_cell_length_c 19.499645
_cell_angle_alpha 22.653086
_cell_angle_beta 136.561345
_cell_angle_gamma 146.164449
_cell_volume 776.667938
_symmetry_space_group_name_H-M "P -1"
_symmetry_group_IT_number 2
_symmetry_cell_setting 'triclinic'
loop_
_space_group_symop_operation_xyz
x,y,z
-x,-y,-z
loop_
_atom_site_type_symbol
_atom_site_label
_atom_site_fract_x
_atom_site_fract_y
_atom_site_fract_z
Si Si1 0.260055 0.923662 0.454723
Si Si2 0.553578 0.364449 0.728059
Si Si3 0.010088 0.553911 0.179329
Si Si4 0.873638 0.216055 0.644050
Si Si5 0.831997 0.672258 0.882698
Si Si6 0.821948 0.953289 0.062124
Si Si7 0.323625 0.100943 0.698949
Si Si8 0.463338 0.122383 0.115173
O O1 0.158664 0.793674 0.443024
O O2 0.114733 0.722476 0.615832
O O3 0.500000 0.000000 0.500000
O O4 0.258161 0.167559 0.264784
O O5 0.763140 0.368785 0.819043
O O6 0.390035 0.228793 0.831825
O O7 0.424443 0.205405 0.733017
O O8 0.632936 0.653904 0.518162
O O9 0.877100 0.575179 0.048243
O O10 0.064463 0.757071 0.097941
O O11 0.000000 0.500000 0.500000
O O12 0.017573 0.119185 0.798438
O O13 0.640825 0.025056 0.738332
O O14 0.657832 0.421435 0.967544
O O15 0.066713 0.869863 0.785207
O O16 0.732314 0.913464 0.980475
O O17 0.447361 0.006816 0.787031
#
# Coordination Sequence:
#
# PCOD9057228 Si02
#       8
#     2   2   2   2   2   2   2   2
#     4  12  28  47  73 102 140 187 232 283 348 418
#     4  11  22  41  77 104 135 176 240 290 339 406
#     4  12  23  45  76 103 132 182 239 284 341 408
#     4  12  27  47  69 104 142 183 237 288 341 410
#     4  12  26  48  70 104 142 183 231 285 350 421
#     4  12  24  44  72 104 137 182 236 287 342 409
#     4  11  22  44  70 105 139 181 227 291 349 406
#     4  12  27  43  69 101 148 185 223 289 352 409
#
# _framework density 20.600825
#
# number of rings (size 3 to 8) (size 9 to 14) (size 15 to 20)
#    0.000    0.250    5.000    4.125    5.250    1.000 
#    2.250    1.250    0.000    0.000    0.000    0.000 
#    0.000    0.000    0.000    0.000    0.000    0.000 
#
# Total GULP energy -89626.390632 kJ/mol
# GULP energy per Si atom -5601.649414 kJ/mol
# Density = 2.055394 g / cm^3
# Si number density = 20.600825 Si / 1000 Ang^3
#
#
#
# Elastic Constant Matrix: (Units=GPa)
#
#
# Indices 1 2 3 4 5 6 
#
# 1 73.4358 2.7915 25.9102 0.2623 10.8326 20.1559
# 2 2.7915 78.7978 25.9160 4.1926 29.5962 7.5011
# 3 25.9102 25.9160 102.8037 2.3612 21.3944 -8.2647
# 4 0.2623 4.1926 2.3612 38.9772 -0.4114 3.7277
# 5 10.8326 29.5962 21.3944 -0.4114 29.5890 2.2055
# 6 20.1559 7.5011 -8.2647 3.7277 2.2055 27.1998
#
#
#
# Elastic Compliance Matrix: (Units=1/GPa)
#
#
# Indices 1 2 3 4 5 6 
#
# 1 0.022757 0.006464 -0.007399 0.001473 -0.007902 -0.020456
# 2 0.006464 0.022964 -0.003634 -0.001547 -0.021968 -0.010234
# 3 -0.007399 -0.003634 0.014519 -0.001594 -0.005036 0.011523
# 4 0.001473 -0.001547 -0.001594 0.026418 0.002901 -0.005005
# 5 -0.007902 -0.021968 -0.005036 0.002901 0.061974 0.004961
# 6 -0.020456 -0.010234 0.011523 -0.005005 0.004961 0.058531
#
#
# Mechanical properties :
#
#
# Convention : Reuss Voigt Hill
#
# Bulk Modulus (GPa) = 19.56830 40.47476 30.02153
# Shear Modulus (GPa) = 21.42842 32.51450 26.97146
#
# Velocity S-wave (km/s) = 3.22867 3.97711 3.62227
# Velocity P-wave (km/s) = 4.83927 6.38589 5.66560
#
# Compressibility (1/GPa) = 0.05110307
#
# Stress axis : x y z
#
# Youngs Moduli (GPa) = 43.94262 43.54574 68.87470
#
# Poissons Ratio (x) = -0.28148 0.50960
# Poissons Ratio (y) = -0.28405 0.25028
# Poissons Ratio (z) = 0.32513 0.15824
#
# Static dielectric constant tensor:
#      x y z
#    x 1.710180 0.008520 -0.013540 
#    y 0.008520 1.706480 0.003450 
#    z -0.013540 0.003450 1.715230 
# 
# From -- ./inp_files/272852.got.cif
#   From: 2010.05.17/outbox.cif.g08.bks.cpg/sg2_137_cif.got.tgz:272852.got - 2010.06.03 11:33:40.
