data_PCOD9057055
_publ_section_title
;
Structure prediction by ZEFSAII (Michael W. Deem and Ramdas Pophale) SiO2 
 PCOD9057055
Probable space group: P -1
;
_chemical_formula_sum "Si O2"
_cell_formula_units_Z 16
_cell_length_a 15.971889
_cell_length_b 14.874071
_cell_length_c 9.042104
_cell_angle_alpha 139.080411
_cell_angle_beta 147.332483
_cell_angle_gamma 40.491030
_cell_volume 710.879669
_symmetry_space_group_name_H-M "P -1"
_symmetry_group_IT_number 2
_symmetry_cell_setting 'triclinic'
loop_
_space_group_symop_operation_xyz
x,y,z
-x,-y,-z
loop_
_atom_site_type_symbol
_atom_site_label
_atom_site_fract_x
_atom_site_fract_y
_atom_site_fract_z
Si Si1 0.629382 0.350343 0.282078
Si Si2 0.800079 0.576587 0.814319
Si Si3 0.728209 0.595196 0.208099
Si Si4 0.161155 0.983880 0.816296
Si Si5 0.260684 0.963075 0.274844
Si Si6 0.230531 0.675067 0.855934
Si Si7 0.350076 0.200757 0.380504
Si Si8 0.132787 0.261387 0.634864
O O1 0.724785 0.456161 0.606452
O O2 0.719767 0.181378 0.243745
O O3 0.635949 0.359560 0.121468
O O4 0.442815 0.392163 0.109954
O O5 0.703794 0.653806 0.620166
O O6 0.767745 0.710667 0.045418
O O7 0.000000 0.500000 0.000000
O O8 0.762672 0.450793 0.176778
O O9 0.690624 0.734462 0.434864
O O10 0.862329 0.612281 0.315868
O O11 0.159564 0.992797 0.005728
O O12 0.000000 0.000000 0.500000
O O13 0.239343 0.106872 0.048069
O O14 0.458516 0.904263 0.468870
O O15 0.205369 0.104429 0.470843
O O16 0.231614 0.820471 0.120589
O O17 0.053157 0.713893 0.561844
#
# Coordination Sequence:
#
# PCOD9057055 Si02
#       8
#     2   2   2   2   2   2   2   2
#     4  11  22  42  71  96 132 180 234 278 339 414
#     4  12  25  44  69 100 143 185 232 284 348 411
#     4  12  22  43  73 103 130 180 237 284 340 407
#     4  11  23  39  68 105 137 174 227 287 337 405
#     4  11  24  44  71 102 136 185 233 281 344 415
#     4  11  22  41  69 101 130 178 232 282 335 411
#     4  12  22  43  75 100 136 189 234 273 344 428
#     4  12  26  43  66 101 149 177 227 293 343 404
#
# _framework density 22.507324000000001
#
# number of rings (size 3 to 8) (size 9 to 14) (size 15 to 20)
#    0.000    0.500    6.250    3.750    1.750    1.000 
#    2.250    0.000    0.000    0.000    0.000    0.000 
#    0.000    0.000    0.000    0.000    0.000    0.000 
#
# Total GULP energy -89416.685071 kJ/mol
# GULP energy per Si atom -5588.542817 kJ/mol
# Density = 2.245610 g / cm^3
# Si number density = 22.507324 Si / 1000 Ang^3
#
#
#
# Elastic Constant Matrix: (Units=GPa)
#
#
# Indices 1 2 3 4 5 6 
#
# 1 48.4535 5.0082 12.0135 2.7298 7.2853 3.3472
# 2 5.0082 83.8167 28.0319 17.2525 1.4416 12.4043
# 3 12.0135 28.0319 137.9154 23.4787 5.8345 -6.5090
# 4 2.7298 17.2525 23.4787 49.7055 6.1496 7.7579
# 5 7.2853 1.4416 5.8345 6.1496 32.3928 10.8445
# 6 3.3472 12.4043 -6.5090 7.7579 10.8445 18.2511
#
#
#
# Elastic Compliance Matrix: (Units=1/GPa)
#
#
# Indices 1 2 3 4 5 6 
#
# 1 0.021859 -0.000393 -0.001889 0.000683 -0.003886 -0.002397
# 2 -0.000393 0.015592 -0.003651 -0.002119 0.005133 -0.013976
# 3 -0.001889 -0.003651 0.009528 -0.004268 -0.003758 0.010273
# 4 0.000683 -0.002119 -0.004268 0.024506 -0.000482 -0.010337
# 5 -0.003886 0.005133 -0.003758 -0.000482 0.041936 -0.028829
# 6 -0.002397 -0.013976 0.010273 -0.010337 -0.028829 0.089917
#
#
# Mechanical properties :
#
#
# Convention : Reuss Voigt Hill
#
# Bulk Modulus (GPa) = 28.48070 40.03255 34.25663
# Shear Modulus (GPa) = 22.03539 35.07867 28.55703
#
# Velocity S-wave (km/s) = 3.13234 3.95212 3.56587
# Velocity P-wave (km/s) = 5.07578 6.21697 5.67514
#
# Compressibility (1/GPa) = 0.03511149
#
# Stress axis : x y z
#
# Youngs Moduli (GPa) = 45.74834 64.13723 104.95618
#
# Poissons Ratio (x) = 0.02523 0.19828
# Poissons Ratio (y) = 0.01800 0.38317
# Poissons Ratio (z) = 0.08643 0.23415
#
# Static dielectric constant tensor:
#      x y z
#    x 1.828680 0.022870 -0.020460 
#    y 0.022870 1.836390 -0.009110 
#    z -0.020460 -0.009110 1.854990 
# 
# From -- ./inp_files/189923.got.cif
#   From: 2010.05.17/outbox.cif.g08.bks.cpg/sg2_95_cif.got.tgz:189923.got - 2010.06.03 11:33:40.
