data_PCOD9057852
_publ_section_title
;
Structure prediction by ZEFSAII (Michael W. Deem and Ramdas Pophale) SiO2 
 PCOD9057852
Probable space group: P -1
;
_chemical_formula_sum "Si O2"
_cell_formula_units_Z 16
_cell_length_a 14.235489
_cell_length_b 21.352256
_cell_length_c 17.312598
_cell_angle_alpha 21.624754
_cell_angle_beta 150.093991
_cell_angle_gamma 159.384881
_cell_volume 682.594577
_symmetry_space_group_name_H-M "P -1"
_symmetry_group_IT_number 2
_symmetry_cell_setting 'triclinic'
loop_
_space_group_symop_operation_xyz
x,y,z
-x,-y,-z
loop_
_atom_site_type_symbol
_atom_site_label
_atom_site_fract_x
_atom_site_fract_y
_atom_site_fract_z
Si Si1 0.451078 0.031654 0.047067
Si Si2 0.991717 0.642972 0.005717
Si Si3 0.649507 0.718928 0.415934
Si Si4 0.538819 0.506926 0.927979
Si Si5 0.756848 0.982203 0.528278
Si Si6 0.803330 0.469806 0.591870
Si Si7 0.264465 0.990448 0.337096
Si Si8 0.712577 0.317756 0.046575
O O1 0.496566 0.180928 0.982039
O O2 0.738777 0.143411 0.094413
O O3 0.266678 0.749394 0.250727
O O4 0.356438 0.097578 0.837048
O O5 0.840143 0.648040 0.958412
O O6 0.761821 0.479955 0.964012
O O7 0.074853 0.522417 0.247845
O O8 0.500000 0.500000 0.500000
O O9 0.469953 0.611851 0.487004
O O10 0.953218 0.860214 0.484235
O O11 0.537723 0.698994 0.675804
O O12 0.500000 0.500000 0.000000
O O13 0.358797 0.230240 0.094014
O O14 0.808705 0.012279 0.622907
O O15 0.663258 0.106722 0.294401
O O16 0.021878 0.741090 0.407475
O O17 0.500000 0.000000 0.500000
O O18 0.000000 0.500000 0.000000
#
# Coordination Sequence:
#
# PCOD9057852 Si02
#       8
#     2   2   2   2   2   2   2   2
#     4  10  22  34  58  90 121 156 190 232 301 366
#     4  10  17  37  57  83 118 154 193 233 285 361
#     4  11  19  33  56  88 122 146 182 251 311 333
#     4  10  21  32  56  89 109 144 203 257 280 316
#     4  11  20  37  58  88 120 146 195 251 287 344
#     4  11  19  34  56  85 117 151 194 244 290 349
#     4  11  20  34  58  86 110 158 203 246 281 341
#     4  10  20  37  59  85 123 163 191 219 297 380
#
# _framework density 23.439973999999999
#
# number of rings (size 3 to 8) (size 9 to 14) (size 15 to 20)
#    0.000    1.500    3.750    4.500    0.000    0.000 
#    0.000    6.875    0.000    3.750    0.000    0.000 
#    0.000    0.000    0.000    0.000    0.000    0.000 
#
# Total GULP energy -89234.124115 kJ/mol
# GULP energy per Si atom -5577.132757 kJ/mol
# Density = 2.338662 g / cm^3
# Si number density = 23.439974 Si / 1000 Ang^3
#
#
#
# Elastic Constant Matrix: (Units=GPa)
#
#
# Indices 1 2 3 4 5 6 
#
# 1 66.4409 22.7036 -12.3745 -0.9358 10.3637 6.4995
# 2 22.7036 67.6266 26.5654 -31.0001 4.5965 -5.7678
# 3 -12.3745 26.5654 103.6422 -47.6896 5.7022 -2.5744
# 4 -0.9358 -31.0001 -47.6896 46.2965 -4.2523 3.5138
# 5 10.3637 4.5965 5.7022 -4.2523 26.6337 -1.4873
# 6 6.4995 -5.7678 -2.5744 3.5138 -1.4873 30.5066
#
#
#
# Elastic Compliance Matrix: (Units=1/GPa)
#
#
# Indices 1 2 3 4 5 6 
#
# 1 0.020973 -0.009506 0.004508 -0.001576 -0.008078 -0.006097
# 2 -0.009506 0.026113 0.000094 0.017206 0.002204 0.005096
# 3 0.004508 0.000094 0.019557 0.020173 -0.002835 -0.001754
# 4 -0.001576 0.017206 0.020173 0.054110 0.001917 -0.000848
# 5 -0.008078 0.002204 -0.002835 0.001917 0.041429 0.003697
# 6 -0.006097 0.005096 -0.001754 -0.000848 0.003697 0.035172
#
#
# Mechanical properties :
#
#
# Convention : Reuss Voigt Hill
#
# Bulk Modulus (GPa) = 17.59396 34.61097 26.10246
# Shear Modulus (GPa) = 22.11346 34.07504 28.09425
#
# Velocity S-wave (km/s) = 3.07483 3.81690 3.46578
# Velocity P-wave (km/s) = 4.48646 5.85002 5.21302
#
# Compressibility (1/GPa) = 0.05683769
#
# Stress axis : x y z
#
# Youngs Moduli (GPa) = 47.68015 38.29442 51.13157
#
# Poissons Ratio (x) = 0.36401 -0.23051
# Poissons Ratio (y) = 0.45323 -0.00482
# Poissons Ratio (z) = -0.21495 -0.00361
#
# Static dielectric constant tensor:
#      x y z
#    x 1.965620 -0.057690 0.065260 
#    y -0.057690 1.940170 -0.049890 
#    z 0.065260 -0.049890 1.981000 
# 
# From -- ./inp_files/598517.got.cif
#   From: 2010.05.17/outbox.cif.g08.bks.cpg/sg2_300_cif.got.tgz:598517.got - 2010.06.03 11:33:40.
