data_PCOD9057021
_publ_section_title
;
Structure prediction by ZEFSAII (Michael W. Deem and Ramdas Pophale) SiO2 
 PCOD9057021
Probable space group: P -1
;
_chemical_formula_sum "Si O2"
_cell_formula_units_Z 16
_cell_length_a 14.703380
_cell_length_b 15.103388
_cell_length_c 11.293377
_cell_angle_alpha 66.111498
_cell_angle_beta 135.492091
_cell_angle_gamma 148.331856
_cell_volume 771.517207
_symmetry_space_group_name_H-M "P -1"
_symmetry_group_IT_number 2
_symmetry_cell_setting 'triclinic'
loop_
_space_group_symop_operation_xyz
x,y,z
-x,-y,-z
loop_
_atom_site_type_symbol
_atom_site_label
_atom_site_fract_x
_atom_site_fract_y
_atom_site_fract_z
Si Si1 0.132090 0.672657 0.675877
Si Si2 0.626087 0.503475 0.524721
Si Si3 0.075130 0.646788 0.920089
Si Si4 0.691611 0.716957 0.066502
Si Si5 0.426237 0.737242 0.738845
Si Si6 0.015673 0.116422 0.503806
Si Si7 0.632255 0.981734 0.349496
Si Si8 0.269458 0.095279 0.301273
O O1 0.131031 0.670723 0.818243
O O2 0.372868 0.774606 0.777207
O O3 0.850935 0.444203 0.494795
O O4 0.139963 0.786989 0.570951
O O5 0.500000 0.500000 0.500000
O O6 0.807116 0.689026 0.506585
O O7 0.419179 0.294745 0.374254
O O8 0.835362 0.567700 0.749249
O O9 0.358471 0.857123 0.130241
O O10 0.000000 0.500000 0.000000
O O11 0.845490 0.809805 0.282028
O O12 0.500000 0.500000 0.000000
O O13 0.502378 0.685343 0.895341
O O14 0.944609 0.889353 0.117962
O O15 0.646909 0.890523 0.756954
O O16 0.000000 0.000000 0.500000
O O17 0.717281 0.963167 0.334784
O O18 0.632332 0.920526 0.502528
#
# Coordination Sequence:
#
# PCOD9057021 Si02
#       8
#     2   2   2   2   2   2   2   2
#     4  11  24  41  66  96 135 182 231 285 345 416
#     4  12  24  42  68 101 141 179 231 294 359 413
#     4  12  24  43  69  97 138 179 228 288 348 413
#     4  11  24  42  70  96 135 184 235 284 355 424
#     4  11  23  42  65  95 135 180 231 281 343 420
#     4  11  25  42  68 101 139 180 231 294 353 418
#     4  11  22  41  68  94 135 178 227 284 354 411
#     4  11  22  44  66 100 141 177 233 297 350 404
#
# _framework density 20.738357000000001
#
# number of rings (size 3 to 8) (size 9 to 14) (size 15 to 20)
#    0.000    0.750    3.750    4.500    1.750    1.500 
#    0.000    1.250    0.000    0.000    0.000    0.000 
#    0.000    0.000    0.000    0.000    0.000    0.000 
#
# Total GULP energy -89280.589365 kJ/mol
# GULP energy per Si atom -5580.036835 kJ/mol
# Density = 2.069116 g / cm^3
# Si number density = 20.738357 Si / 1000 Ang^3
#
#
#
# Elastic Constant Matrix: (Units=GPa)
#
#
# Indices 1 2 3 4 5 6 
#
# 1 125.8449 48.5532 41.7746 -12.7903 36.6441 1.2075
# 2 48.5532 121.5402 16.4276 -17.4797 5.4398 2.3625
# 3 41.7746 16.4276 71.3492 -8.1253 16.1936 0.7019
# 4 -12.7903 -17.4797 -8.1253 42.5430 -1.5202 -2.5978
# 5 36.6441 5.4398 16.1936 -1.5202 29.1183 -3.1755
# 6 1.2075 2.3625 0.7019 -2.5978 -3.1755 25.6236
#
#
#
# Elastic Compliance Matrix: (Units=1/GPa)
#
#
# Indices 1 2 3 4 5 6 
#
# 1 0.016689 -0.005041 -0.004399 0.001332 -0.017793 -0.002271
# 2 -0.005041 0.010476 -0.000186 0.002929 0.004659 0.000151
# 3 -0.004399 -0.000186 0.017826 0.001814 -0.004316 -0.000615
# 4 0.001332 0.002929 0.001814 0.025518 -0.001682 0.001996
# 5 -0.017793 0.004659 -0.004316 -0.001682 0.059013 0.007670
# 6 -0.002271 0.000151 -0.000615 0.001996 0.007670 0.040289
#
#
# Mechanical properties :
#
#
# Convention : Reuss Voigt Hill
#
# Bulk Modulus (GPa) = 38.84864 59.13833 48.99348
# Shear Modulus (GPa) = 25.29820 33.58892 29.44356
#
# Velocity S-wave (km/s) = 3.49646 4.02886 3.77206
# Velocity P-wave (km/s) = 5.92231 7.08665 6.53048
#
# Compressibility (1/GPa) = 0.02574093
#
# Stress axis : x y z
#
# Youngs Moduli (GPa) = 59.91830 95.45356 56.09811
#
# Poissons Ratio (x) = 0.48113 0.24675
# Poissons Ratio (y) = 0.30202 0.01045
# Poissons Ratio (z) = 0.26356 0.01778
#
# Static dielectric constant tensor:
#      x y z
#    x 1.792760 0.026560 0.024530 
#    y 0.026560 1.795400 0.045570 
#    z 0.024530 0.045570 1.746440 
# 
# From -- ./inp_files/455649.got.cif
#   From: 2010.05.17/outbox.cif.g08.bks.cpg/sg2_228_cif.got.tgz:455649.got - 2010.06.03 11:33:40.
