data_PCOD9057432
_publ_section_title
;
Structure prediction by ZEFSAII (Michael W. Deem and Ramdas Pophale) SiO2 
 PCOD9057432
Probable space group: P -1
;
_chemical_formula_sum "Si O2"
_cell_formula_units_Z 14
_cell_length_a 21.288056
_cell_length_b 8.593354
_cell_length_c 12.859924
_cell_angle_alpha 120.516755
_cell_angle_beta 36.769717
_cell_angle_gamma 146.502217
_cell_volume 679.707325
_symmetry_space_group_name_H-M "P -1"
_symmetry_group_IT_number 2
_symmetry_cell_setting 'triclinic'
loop_
_space_group_symop_operation_xyz
x,y,z
-x,-y,-z
loop_
_atom_site_type_symbol
_atom_site_label
_atom_site_fract_x
_atom_site_fract_y
_atom_site_fract_z
Si Si1 0.212528 0.287550 0.022513
Si Si2 0.595535 0.946015 0.818975
Si Si3 0.661634 0.880952 0.924174
Si Si4 0.964602 0.293531 0.061195
Si Si5 0.005059 0.881757 0.353789
Si Si6 0.322245 0.721093 0.857390
Si Si7 0.723207 0.177033 0.497215
O O1 0.067463 0.084022 0.240199
O O2 0.419442 0.568815 0.893030
O O3 0.220758 0.476595 0.005167
O O4 0.153883 0.035168 0.944661
O O5 0.699491 0.006749 0.799669
O O6 0.712325 0.140664 0.624581
O O7 0.500000 0.000000 0.000000
O O8 0.837408 0.042941 0.803440
O O9 0.500000 0.500000 0.000000
O O10 0.611578 0.987784 0.092664
O O11 0.849857 0.211071 0.282624
O O12 0.000000 0.500000 0.000000
O O13 0.168236 0.516787 0.903537
O O14 0.815948 0.502114 0.459549
O O15 0.000000 0.000000 0.500000
O O16 0.509041 0.873348 0.638679
#
# Coordination Sequence:
#
# PCOD9057432 Si02
#       7
#     2   2   2   2   2   2   2
#     4  11  23  45  69  95 143 182 219 296 334 398
#     4  11  22  42  70 103 140 174 226 288 341 408
#     4  12  22  40  70 100 141 179 219 284 349 401
#     4  12  25  48  68  99 141 178 237 283 335 411
#     4  12  24  41  66 104 138 176 232 279 347 417
#     4  11  25  45  71  98 136 181 231 282 347 404
#     4  11  24  43  71 100 135 181 230 276 346 404
#
# _framework density 20.597099
#
# number of rings (size 3 to 8) (size 9 to 14) (size 15 to 20)
#    0.000    0.571    7.143    2.143    0.000    4.571 
#    0.000    0.000    0.000    0.000    0.000    0.000 
#    0.000    0.000    0.000    0.000    0.000    0.000 
#
# Total GULP energy -78253.514647 kJ/mol
# GULP energy per Si atom -5589.536761 kJ/mol
# Density = 2.055022 g / cm^3
# Si number density = 20.597099 Si / 1000 Ang^3
#
#
#
# Elastic Constant Matrix: (Units=GPa)
#
#
# Indices 1 2 3 4 5 6 
#
# 1 91.5663 -2.1814 13.8495 -22.1402 -0.1976 1.8262
# 2 -2.1814 122.1078 14.9748 -4.3753 4.3439 -2.2980
# 3 13.8495 14.9748 81.3315 -5.4652 15.8787 -3.4727
# 4 -22.1402 -4.3753 -5.4652 36.8952 -1.4169 0.1801
# 5 -0.1976 4.3439 15.8787 -1.4169 33.4508 -7.9169
# 6 1.8262 -2.2980 -3.4727 0.1801 -7.9169 33.3996
#
#
#
# Elastic Compliance Matrix: (Units=1/GPa)
#
#
# Indices 1 2 3 4 5 6 
#
# 1 0.013134 0.000715 -0.002104 0.007702 0.001155 -0.000656
# 2 0.000715 0.008448 -0.001537 0.001193 -0.000237 0.000320
# 3 -0.002104 -0.001537 0.014245 0.000413 -0.006574 -0.000070
# 4 0.007702 0.001193 0.000413 0.031968 0.000993 -0.000233
# 5 0.001155 -0.000237 -0.006574 0.000993 0.034869 0.007497
# 6 -0.000656 0.000320 -0.000070 -0.000233 0.007497 0.031769
#
#
# Mechanical properties :
#
#
# Convention : Reuss Voigt Hill
#
# Bulk Modulus (GPa) = 33.36106 38.69905 36.03005
# Shear Modulus (GPa) = 33.27189 38.63997 35.95593
#
# Velocity S-wave (km/s) = 4.02352 4.33597 4.18267
# Velocity P-wave (km/s) = 6.14956 6.62547 6.39195
#
# Compressibility (1/GPa) = 0.02997507
#
# Stress axis : x y z
#
# Youngs Moduli (GPa) = 76.13663 118.37179 70.20069
#
# Poissons Ratio (x) = -0.08467 0.14771
# Poissons Ratio (y) = -0.05446 0.10791
# Poissons Ratio (z) = 0.16020 0.18196
#
# Static dielectric constant tensor:
#      x y z
#    x 1.748580 -0.005380 -0.012570 
#    y -0.005380 1.742230 0.004190 
#    z -0.012570 0.004190 1.756330 
# 
# From -- ./inp_files/177261.got.cif
#   From: 2010.05.17/outbox.cif.g08.bks.cpg/sg2_89_cif.got.tgz:177261.got - 2010.06.03 11:33:40.
