data_PCOD9057115
_publ_section_title
;
Structure prediction by ZEFSAII (Michael W. Deem and Ramdas Pophale) SiO2 
 PCOD9057115
Probable space group: P -1
;
_chemical_formula_sum "Si O2"
_cell_formula_units_Z 16
_cell_length_a 8.361313
_cell_length_b 14.627071
_cell_length_c 14.673554
_cell_angle_alpha 29.044537
_cell_angle_beta 71.203090
_cell_angle_gamma 87.854039
_cell_volume 698.676631
_symmetry_space_group_name_H-M "P -1"
_symmetry_group_IT_number 2
_symmetry_cell_setting 'triclinic'
loop_
_space_group_symop_operation_xyz
x,y,z
-x,-y,-z
loop_
_atom_site_type_symbol
_atom_site_label
_atom_site_fract_x
_atom_site_fract_y
_atom_site_fract_z
Si Si1 0.474818 0.086270 0.026322
Si Si2 0.075026 0.438763 0.804970
Si Si3 0.130437 0.878531 0.395944
Si Si4 0.146511 0.297795 0.095114
Si Si5 0.507999 0.741470 0.667233
Si Si6 0.497974 0.473271 0.415915
Si Si7 0.703562 0.976492 0.231992
Si Si8 0.769624 0.088919 0.451205
O O1 0.588427 0.046917 0.121428
O O2 0.246791 0.943080 0.224227
O O3 0.521292 0.334342 0.793552
O O4 0.500000 0.000000 0.000000
O O5 0.006228 0.612122 0.647866
O O6 0.297957 0.515953 0.661426
O O7 0.085048 0.420156 0.927727
O O8 0.918754 0.195969 0.009314
O O9 0.263776 0.928743 0.419584
O O10 0.078009 0.063481 0.262897
O O11 0.005331 0.225903 0.270758
O O12 0.382720 0.473975 0.912111
O O13 0.334467 0.790747 0.677998
O O14 0.611473 0.876462 0.436943
O O15 0.665049 0.853398 0.622819
O O16 0.500000 0.500000 0.500000
O O17 0.313535 0.235130 0.628443
#
# Coordination Sequence:
#
# PCOD9057115 Si02
#       8
#     2   2   2   2   2   2   2   2
#     4  12  23  46  74  99 135 178 223 284 347 401
#     4  12  25  44  71 100 139 181 228 279 343 404
#     4  12  24  44  66  99 140 177 228 284 337 399
#     4  12  23  42  66  97 140 181 225 284 335 400
#     4  11  22  41  70  96 133 186 227 270 342 403
#     4  12  24  48  74  97 137 178 224 285 345 403
#     4  12  24  45  71 103 137 179 228 281 340 404
#     4  11  23  40  65 100 136 179 232 273 337 405
#
# _framework density 22.900435999999999
#
# number of rings (size 3 to 8) (size 9 to 14) (size 15 to 20)
#    0.000    0.250    8.750    0.750    0.000    2.000 
#    2.250    1.250    0.000    0.000    0.000    0.000 
#    0.000    0.000    0.000    0.000    0.000    0.000 
#
# Total GULP energy -89299.991891 kJ/mol
# GULP energy per Si atom -5581.249493 kJ/mol
# Density = 2.284831 g / cm^3
# Si number density = 22.900436 Si / 1000 Ang^3
#
#
#
# Elastic Constant Matrix: (Units=GPa)
#
#
# Indices 1 2 3 4 5 6 
#
# 1 40.7187 9.9761 34.8534 -5.0583 7.4663 -0.9675
# 2 9.9761 125.8141 56.8585 -0.3871 -14.0406 0.3688
# 3 34.8534 56.8585 148.8489 -31.3508 13.3568 2.0296
# 4 -5.0583 -0.3871 -31.3508 52.4175 1.0090 0.1051
# 5 7.4663 -14.0406 13.3568 1.0090 41.2215 -7.2142
# 6 -0.9675 0.3688 2.0296 0.1051 -7.2142 31.2247
#
#
#
# Elastic Compliance Matrix: (Units=1/GPa)
#
#
# Indices 1 2 3 4 5 6 
#
# 1 0.031295 0.000663 -0.007660 -0.001505 -0.002780 0.000823
# 2 0.000663 0.011082 -0.005639 -0.003343 0.005847 0.001618
# 3 -0.007660 -0.005639 0.012605 0.006862 -0.005172 -0.002208
# 4 -0.001505 -0.003343 0.006862 0.023090 -0.003906 -0.001433
# 5 -0.002780 0.005847 -0.005172 -0.003906 0.029763 0.007071
# 6 0.000823 0.001618 -0.002208 -0.001433 0.007071 0.033814
#
#
# Mechanical properties :
#
#
# Convention : Reuss Voigt Hill
#
# Bulk Modulus (GPa) = 33.65820 57.63972 45.64896
# Shear Modulus (GPa) = 28.27661 39.21900 33.74780
#
# Velocity S-wave (km/s) = 3.51773 4.14283 3.84301
# Velocity P-wave (km/s) = 5.58827 6.93602 6.29830
#
# Compressibility (1/GPa) = 0.02971044
#
# Stress axis : x y z
#
# Youngs Moduli (GPa) = 31.95389 90.24049 79.33116
#
# Poissons Ratio (x) = -0.05982 0.60765
# Poissons Ratio (y) = -0.02118 0.44734
# Poissons Ratio (z) = 0.24476 0.50886
#
# Static dielectric constant tensor:
#      x y z
#    x 1.924220 -0.030860 0.027860 
#    y -0.030860 1.855970 -0.048630 
#    z 0.027860 -0.048630 1.907410 
# 
# From -- ./inp_files/504970.got.cif
#   From: 2010.05.17/outbox.cif.g08.bks.cpg/sg2_253_cif.got.tgz:504970.got - 2010.06.03 11:33:40.
