data_PCOD9057140
_publ_section_title
;
Structure prediction by ZEFSAII (Michael W. Deem and Ramdas Pophale) SiO2 
 PCOD9057140
Probable space group: P -1
;
_chemical_formula_sum "Si O2"
_cell_formula_units_Z 16
_cell_length_a 8.977942
_cell_length_b 18.495600
_cell_length_c 7.285520
_cell_angle_alpha 58.437693
_cell_angle_beta 103.322178
_cell_angle_gamma 61.100475
_cell_volume 687.339273
_symmetry_space_group_name_H-M "P -1"
_symmetry_group_IT_number 2
_symmetry_cell_setting 'triclinic'
loop_
_space_group_symop_operation_xyz
x,y,z
-x,-y,-z
loop_
_atom_site_type_symbol
_atom_site_label
_atom_site_fract_x
_atom_site_fract_y
_atom_site_fract_z
Si Si1 0.391229 0.192930 0.755960
Si Si2 0.017108 0.225170 0.684689
Si Si3 0.770909 0.400183 0.710030
Si Si4 0.559704 0.376473 0.181640
Si Si5 0.182144 0.791938 0.819494
Si Si6 0.268117 0.937115 0.688156
Si Si7 0.197526 0.976179 0.182603
Si Si8 0.203222 0.442936 0.265416
O O1 0.202765 0.199207 0.657100
O O2 0.582921 0.119016 0.755071
O O3 0.275808 0.331021 0.546109
O O4 0.506914 0.122044 0.076356
O O5 0.887009 0.343948 0.621025
O O6 0.818728 0.267170 0.453286
O O7 0.121561 0.104741 0.983528
O O8 0.500000 0.500000 0.500000
O O9 0.840090 0.458584 0.750297
O O10 0.853908 0.283462 0.996150
O O11 0.582411 0.319600 0.071446
O O12 0.405668 0.391208 0.260858
O O13 0.500000 0.500000 0.000000
O O14 0.234458 0.855458 0.868261
O O15 0.940821 0.920200 0.503787
O O16 0.259251 0.930693 0.472939
O O17 0.000000 0.000000 0.000000
O O18 0.000000 0.500000 0.000000
#
# Coordination Sequence:
#
# PCOD9057140 Si02
#       8
#     2   2   2   2   2   2   2   2
#     4  12  28  46  72 111 154 191 252 314 383 448
#     4  12  26  46  71 107 145 195 251 307 376 452
#     4  12  24  45  75 102 147 196 251 308 369 455
#     4  12  23  43  72 102 140 194 247 300 372 447
#     4  11  22  41  71 105 137 186 250 298 369 441
#     4  11  24  44  73 108 148 191 244 315 376 446
#     4  12  25  48  77 109 150 198 252 312 380 453
#     4  12  27  48  75 110 152 196 251 315 380 452
#
# _framework density 23.278169999999999
#
# number of rings (size 3 to 8) (size 9 to 14) (size 15 to 20)
#    0.000    0.250    3.750    6.375    0.000    3.000 
#    0.000    0.000    0.000    0.000    0.000    0.000 
#    0.000    0.000    0.000    0.000    0.000    0.000 
#
# Total GULP energy -89472.818588 kJ/mol
# GULP energy per Si atom -5592.051162 kJ/mol
# Density = 2.322519 g / cm^3
# Si number density = 23.278170 Si / 1000 Ang^3
#
#
#
# Elastic Constant Matrix: (Units=GPa)
#
#
# Indices 1 2 3 4 5 6 
#
# 1 122.0543 25.2470 29.9647 -8.2346 7.2895 3.8488
# 2 25.2470 130.3987 26.4157 -21.2894 -1.8476 3.9264
# 3 29.9647 26.4157 109.4149 -16.0844 -6.2120 16.4727
# 4 -8.2346 -21.2894 -16.0844 37.6724 6.4875 -7.6582
# 5 7.2895 -1.8476 -6.2120 6.4875 36.8487 -3.3948
# 6 3.8488 3.9264 16.4727 -7.6582 -3.3948 35.8386
#
#
#
# Elastic Compliance Matrix: (Units=1/GPa)
#
#
# Indices 1 2 3 4 5 6 
#
# 1 0.009194 -0.001232 -0.002260 0.000786 -0.002388 0.000128
# 2 -0.001232 0.008854 -0.001271 0.004366 -0.000235 0.000657
# 3 -0.002260 -0.001271 0.011121 0.002460 0.001450 -0.004067
# 4 0.000786 0.004366 0.002460 0.032002 -0.004723 0.004698
# 5 -0.002388 -0.000235 0.001450 -0.004723 0.028798 0.001334
# 6 0.000128 0.000657 -0.004067 0.004698 0.001334 0.030817
#
#
# Mechanical properties :
#
#
# Convention : Reuss Voigt Hill
#
# Bulk Modulus (GPa) = 50.90270 58.34695 54.62482
# Shear Modulus (GPa) = 36.53369 40.75465 38.64417
#
# Velocity S-wave (km/s) = 3.96591 4.18876 4.07886
# Velocity P-wave (km/s) = 6.54873 6.96518 6.76016
#
# Compressibility (1/GPa) = 0.01964532
#
# Stress axis : x y z
#
# Youngs Moduli (GPa) = 108.76313 112.93835 89.91623
#
# Poissons Ratio (x) = 0.13911 0.20320
# Poissons Ratio (y) = 0.13396 0.11427
# Poissons Ratio (z) = 0.24580 0.14352
#
# Static dielectric constant tensor:
#      x y z
#    x 1.875860 -0.028640 0.005930 
#    y -0.028640 4.207570 1.295940 
#    z 0.005930 1.295940 2.587710 
# 
# From -- ./inp_files/223235.got.cif
#   From: 2010.05.17/outbox.cif.g08.bks.cpg/sg2_112_cif.got.tgz:223235.got - 2010.06.03 11:33:40.
