data_PCOD9057495
_publ_section_title
;
Structure prediction by ZEFSAII (Michael W. Deem and Ramdas Pophale) SiO2 
 PCOD9057495
Probable space group: P -1
;
_chemical_formula_sum "Si O2"
_cell_formula_units_Z 16
_cell_length_a 10.002215
_cell_length_b 11.916647
_cell_length_c 11.487728
_cell_angle_alpha 55.706181
_cell_angle_beta 96.836569
_cell_angle_gamma 55.660662
_cell_volume 717.390581
_symmetry_space_group_name_H-M "P -1"
_symmetry_group_IT_number 2
_symmetry_cell_setting 'triclinic'
loop_
_space_group_symop_operation_xyz
x,y,z
-x,-y,-z
loop_
_atom_site_type_symbol
_atom_site_label
_atom_site_fract_x
_atom_site_fract_y
_atom_site_fract_z
Si Si1 0.282730 0.752715 0.323841
Si Si2 0.729729 0.812299 0.293111
Si Si3 0.332369 0.294161 0.863879
Si Si4 0.564566 0.098916 0.635238
Si Si5 0.228350 0.356881 0.063089
Si Si6 0.611727 0.327839 0.864857
Si Si7 0.889244 0.968111 0.300805
Si Si8 0.428270 0.749635 0.693311
O O1 0.500000 0.500000 0.500000
O O2 0.320388 0.881804 0.281090
O O3 0.233492 0.768376 0.172764
O O4 0.120191 0.830021 0.360731
O O5 0.801714 0.676987 0.265033
O O6 0.662044 0.754939 0.415849
O O7 0.862827 0.829228 0.351776
O O8 0.520729 0.052257 0.077676
O O9 0.446977 0.339117 0.803044
O O10 0.203841 0.427165 0.887691
O O11 0.574687 0.150767 0.477293
O O12 0.661748 0.874644 0.778040
O O13 0.379199 0.346035 0.150525
O O14 0.000000 0.500000 0.000000
O O15 0.489589 0.554699 0.764357
O O16 0.739397 0.167000 0.079873
O O17 0.786174 0.077514 0.352842
#
# Coordination Sequence:
#
# PCOD9057495 Si02
#       8
#     2   2   2   2   2   2   2   2
#     4  12  26  47  64 101 136 177 228 276 339 394
#     4   9  18  39  68  91 123 171 219 264 327 387
#     4   9  18  37  65  93 125 165 218 273 316 383
#     4  11  23  44  70  90 142 177 216 278 334 397
#     4  11  25  41  68 102 132 174 227 273 335 400
#     4  11  22  42  71  97 134 174 226 280 327 401
#     4  11  25  42  71  97 132 179 226 277 331 396
#     4  12  24  43  67  99 140 173 223 272 344 402
#
# _framework density 22.303052000000001
#
# number of rings (size 3 to 8) (size 9 to 14) (size 15 to 20)
#    0.000    1.250    6.250    1.125    3.500    1.500 
#    2.250    0.625    0.000    0.000    0.000    0.000 
#    0.000    0.000    0.000    0.000    0.000    0.000 
#
# Total GULP energy -89317.936010 kJ/mol
# GULP energy per Si atom -5582.371001 kJ/mol
# Density = 2.225229 g / cm^3
# Si number density = 22.303052 Si / 1000 Ang^3
#
#
#
# Elastic Constant Matrix: (Units=GPa)
#
#
# Indices 1 2 3 4 5 6 
#
# 1 103.5770 60.0299 15.4441 14.9803 -6.7278 -20.5334
# 2 60.0299 134.4853 39.0611 40.0461 0.2612 -13.6432
# 3 15.4441 39.0611 53.9533 14.3623 -24.9441 -5.4607
# 4 14.9803 40.0461 14.3623 20.8632 -11.3369 -3.6547
# 5 -6.7278 0.2612 -24.9441 -11.3369 21.7553 4.3239
# 6 -20.5334 -13.6432 -5.4607 -3.6547 4.3239 37.7368
#
#
#
# Elastic Compliance Matrix: (Units=1/GPa)
#
#
# Indices 1 2 3 4 5 6 
#
# 1 0.011007 0.006345 -0.011790 -0.023760 -0.023967 0.007022
# 2 0.006345 -0.034233 0.046672 0.082324 0.099908 -0.005645
# 3 -0.011790 0.046672 -0.023179 -0.113625 -0.091298 0.006561
# 4 -0.023760 0.082324 -0.113625 -0.124616 -0.205923 0.011919
# 5 -0.023967 0.099908 -0.091298 -0.205923 -0.176654 0.010167
# 6 0.007022 -0.005645 0.006561 0.011919 0.010167 0.029218
#
#
# Mechanical properties :
#
#
# Convention : Reuss Voigt Hill
#
# Bulk Modulus (GPa) = 27.73913 57.89843 42.81878
# Shear Modulus (GPa) = -12.85692 27.90311 7.52310
#
# Velocity S-wave (km/s) = -2.40357 3.54091 1.83860
# Velocity P-wave (km/s) = 2.18208 6.53710 4.87315
#
# Compressibility (1/GPa) = 0.03605015
#
# Stress axis : x y z
#
# Youngs Moduli (GPa) = 90.85283 -29.21157 -43.14197
#
# Poissons Ratio (x) = 0.18535 -0.50862
# Poissons Ratio (y) = -0.57647 2.01353
# Poissons Ratio (z) = 1.07111 1.36337
#
# Static dielectric constant tensor:
#      x y z
#    x 1.776160 0.045850 -0.001840 
#    y 0.045850 1.772970 0.041230 
#    z -0.001840 0.041230 1.864440 
# 
# From -- ./inp_files/392096.got.cif
#   From: 2010.05.17/outbox.cif.g08.bks.cpg/sg2_197_cif.got.tgz:392096.got - 2010.06.03 11:33:40.
