data_PCOD9057655
_publ_section_title
;
Structure prediction by ZEFSAII (Michael W. Deem and Ramdas Pophale) SiO2 
 PCOD9057655
Probable space group: P -1
;
_chemical_formula_sum "Si O2"
_cell_formula_units_Z 16
_cell_length_a 14.492592
_cell_length_b 13.995254
_cell_length_c 8.806145
_cell_angle_alpha 50.808032
_cell_angle_beta 148.798402
_cell_angle_gamma 127.219417
_cell_volume 707.870094
_symmetry_space_group_name_H-M "P -1"
_symmetry_group_IT_number 2
_symmetry_cell_setting 'triclinic'
loop_
_space_group_symop_operation_xyz
x,y,z
-x,-y,-z
loop_
_atom_site_type_symbol
_atom_site_label
_atom_site_fract_x
_atom_site_fract_y
_atom_site_fract_z
Si Si1 0.898536 0.834607 0.680517
Si Si2 0.503999 0.111185 0.513700
Si Si3 0.683330 0.061123 0.118984
Si Si4 0.861881 0.988815 0.948606
Si Si5 0.445534 0.611863 0.712899
Si Si6 0.986280 0.774642 0.525098
Si Si7 0.031475 0.503576 0.222428
Si Si8 0.662346 0.591889 0.722884
O O1 0.811579 0.956501 0.394578
O O2 0.738945 0.731283 0.627818
O O3 0.958816 0.779642 0.662853
O O4 0.069571 0.885743 0.980456
O O5 0.511501 0.245398 0.314599
O O6 0.500000 0.000000 0.500000
O O7 0.308592 0.057775 0.352473
O O8 0.639094 0.109649 0.842836
O O9 0.802924 0.174820 0.260876
O O10 0.500000 0.000000 0.000000
O O11 0.874871 0.872353 0.194285
O O12 0.000000 0.000000 0.000000
O O13 0.226954 0.588500 0.424218
O O14 0.563725 0.608397 0.728182
O O15 0.500000 0.500000 0.000000
O O16 0.938924 0.634002 0.545186
O O17 0.000000 0.500000 0.000000
O O18 0.853054 0.536461 0.025101
O O19 0.500000 0.500000 0.500000
#
# Coordination Sequence:
#
# PCOD9057655 Si02
#       8
#     2   2   2   2   2   2   2   2
#     4  11  23  42  70  96 136 181 233 292 361 415
#     4  12  25  43  69  99 142 183 235 288 355 428
#     4  11  23  39  66 102 132 174 229 294 347 424
#     4  11  23  42  63  97 136 184 224 288 358 425
#     4  12  28  51  71 109 153 192 240 302 366 438
#     4  11  22  43  67  97 134 177 235 286 354 426
#     4  12  24  45  78 105 139 189 244 299 358 430
#     4  12  26  46  78 107 141 191 247 300 363 431
#
# _framework density 22.603017999999999
#
# number of rings (size 3 to 8) (size 9 to 14) (size 15 to 20)
#    0.000    0.500    2.500    7.500    3.500    1.500 
#    2.250    0.000    0.000    0.000    0.000    0.000 
#    0.000    0.000    0.000    0.000    0.000    0.000 
#
# Total GULP energy -89177.607889 kJ/mol
# GULP energy per Si atom -5573.600493 kJ/mol
# Density = 2.255157 g / cm^3
# Si number density = 22.603018 Si / 1000 Ang^3
#
#
#
# Elastic Constant Matrix: (Units=GPa)
#
#
# Indices 1 2 3 4 5 6 
#
# 1 99.6499 41.0542 16.4067 0.9553 18.6382 17.2159
# 2 41.0542 151.6694 32.4682 2.3529 11.4148 12.5479
# 3 16.4067 32.4682 62.6926 14.7891 10.4027 1.4273
# 4 0.9553 2.3529 14.7891 44.3693 11.5096 11.7601
# 5 18.6382 11.4148 10.4027 11.5096 39.6584 4.4034
# 6 17.2159 12.5479 1.4273 11.7601 4.4034 40.5807
#
#
#
# Elastic Compliance Matrix: (Units=1/GPa)
#
#
# Indices 1 2 3 4 5 6 
#
# 1 0.013205 -0.002367 -0.001991 0.003268 -0.005377 -0.005164
# 2 -0.002367 0.008224 -0.003875 0.001503 -0.000476 -0.001786
# 3 -0.001991 -0.003875 0.020330 -0.007045 -0.001631 0.003546
# 4 0.003268 0.001503 -0.007045 0.029142 -0.007554 -0.009229
# 5 -0.005377 -0.000476 -0.001631 -0.007554 0.030346 0.001382
# 6 -0.005164 -0.001786 0.003546 -0.009229 0.001382 0.029785
#
#
# Mechanical properties :
#
#
# Convention : Reuss Voigt Hill
#
# Bulk Modulus (GPa) = 39.53542 54.87444 47.20493
# Shear Modulus (GPa) = 32.06609 39.86053 35.96331
#
# Velocity S-wave (km/s) = 3.77060 4.20397 3.99317
# Velocity P-wave (km/s) = 6.04035 6.92059 6.49540
#
# Compressibility (1/GPa) = 0.02529377
#
# Stress axis : x y z
#
# Youngs Moduli (GPa) = 75.73132 121.59979 49.18758
#
# Poissons Ratio (x) = 0.28780 0.09793
# Poissons Ratio (y) = 0.17924 0.19058
# Poissons Ratio (z) = 0.15078 0.47115
#
# Static dielectric constant tensor:
#      x y z
#    x 1.818570 -0.051230 0.021400 
#    y -0.051230 2.177620 -0.066940 
#    z 0.021400 -0.066940 1.858810 
# 
# From -- ./inp_files/314763.got.cif
#   From: 2010.05.17/outbox.cif.g08.bks.cpg/sg2_158_cif.got.tgz:314763.got - 2010.06.03 11:33:40.
