data_PCOD9057945
_publ_section_title
;
Structure prediction by ZEFSAII (Michael W. Deem and Ramdas Pophale) SiO2 
 PCOD9057945
Probable space group: P -1
;
_chemical_formula_sum "Si O2"
_cell_formula_units_Z 15
_cell_length_a 9.328392
_cell_length_b 11.291834
_cell_length_c 12.831176
_cell_angle_alpha 33.646032
_cell_angle_beta 49.278632
_cell_angle_gamma 61.915698
_cell_volume 559.066093
_symmetry_space_group_name_H-M "P -1"
_symmetry_group_IT_number 2
_symmetry_cell_setting 'triclinic'
loop_
_space_group_symop_operation_xyz
x,y,z
-x,-y,-z
loop_
_atom_site_type_symbol
_atom_site_label
_atom_site_fract_x
_atom_site_fract_y
_atom_site_fract_z
Si Si1 0.098663 0.596762 0.684691
Si Si2 0.638280 0.939798 0.265373
Si Si3 0.000000 0.000000 0.000000
Si Si4 0.269244 0.844526 0.627429
Si Si5 0.195926 0.512449 0.465705
Si Si6 0.544453 0.861792 0.956512
Si Si7 0.087637 0.105707 0.112874
Si Si8 0.325317 0.448775 0.041337
O O1 0.182452 0.761986 0.616042
O O2 0.177638 0.589557 0.536142
O O3 0.877635 0.612753 0.762739
O O4 0.116942 0.365046 0.896216
O O5 0.487876 0.955925 0.415055
O O6 0.755805 0.736340 0.363757
O O7 0.821426 0.128736 0.033529
O O8 0.531787 0.938264 0.207486
O O9 0.075888 0.000862 0.082664
O O10 0.109984 0.954351 0.682947
O O11 0.302380 0.641671 0.831341
O O12 0.378704 0.669786 0.215860
O O13 0.000000 0.500000 0.500000
O O14 0.717641 0.938149 0.895527
O O15 0.639330 0.751078 0.898114
O O16 0.500000 0.500000 0.000000
#
# Coordination Sequence:
#
# PCOD9057945 Si02
#       8
#     2   2   1   2   2   2   2   2
#     4  11  22  46  80 108 150 200 258 313 380 462
#     4  12  28  49  74 117 149 199 257 310 382 464
#     4  12  28  48  70 106 162 196 252 324 376 448
#     4  11  24  49  77 108 149 198 258 313 383 460
#     4  12  26  49  79 114 156 204 252 317 387 453
#     4  12  26  49  80 109 155 201 254 316 385 455
#     4  11  24  49  74 110 156 202 252 322 383 452
#     4  11  22  43  77 114 144 197 253 315 382 451
#
# _framework density 26.830459999999999
#
# number of rings (size 3 to 8) (size 9 to 14) (size 15 to 20)
#    0.000    0.533    5.333    2.400    5.600    2.667 
#    2.400    0.000    0.000    0.000    0.000    0.000 
#    0.000    0.000    0.000    0.000    0.000    0.000 
#
# Total GULP energy -83889.038788 kJ/mol
# GULP energy per Si atom -5592.602586 kJ/mol
# Density = 2.676939 g / cm^3
# Si number density = 26.830460 Si / 1000 Ang^3
#
#
#
# Elastic Constant Matrix: (Units=GPa)
#
#
# Indices 1 2 3 4 5 6 
#
# 1 235.7004 57.9864 54.3737 -2.7082 14.5946 -17.3765
# 2 57.9864 111.1708 66.2434 13.4290 2.2659 1.7332
# 3 54.3737 66.2434 96.6402 17.2661 7.5286 -22.3571
# 4 -2.7082 13.4290 17.2661 42.7395 -10.4387 -1.5570
# 5 14.5946 2.2659 7.5286 -10.4387 42.4189 5.8029
# 6 -17.3765 1.7332 -22.3571 -1.5570 5.8029 53.8486
#
#
#
# Elastic Compliance Matrix: (Units=1/GPa)
#
#
# Indices 1 2 3 4 5 6 
#
# 1 0.005266 -0.002113 -0.001306 0.001246 -0.001353 0.001407
# 2 -0.002113 0.017795 -0.012826 -0.000067 0.002981 -0.006903
# 3 -0.001306 -0.012826 0.024007 -0.006898 -0.006251 0.010433
# 4 0.001246 -0.000067 -0.006898 0.028165 0.008074 -0.002515
# 5 -0.001353 0.002981 -0.006251 0.008074 0.027783 -0.005888
# 6 0.001407 -0.006903 0.010433 -0.002515 -0.005888 0.024140
#
#
# Mechanical properties :
#
#
# Convention : Reuss Voigt Hill
#
# Bulk Modulus (GPa) = 68.59864 88.96873 78.78368
# Shear Modulus (GPa) = 30.39418 45.46192 37.92805
#
# Velocity S-wave (km/s) = 3.36940 4.12079 3.76389
# Velocity P-wave (km/s) = 6.38436 7.47481 6.95100
#
# Compressibility (1/GPa) = 0.01457755
#
# Stress axis : x y z
#
# Youngs Moduli (GPa) = 189.91083 56.19510 41.65414
#
# Poissons Ratio (x) = 0.11876 0.05439
# Poissons Ratio (y) = 0.40134 0.53426
# Poissons Ratio (z) = 0.24799 0.72076
#
# Static dielectric constant tensor:
#      x y z
#    x 1.977860 -0.091810 0.191410 
#    y -0.091810 2.049060 0.012400 
#    z 0.191410 0.012400 1.951950 
# 
# From -- ./inp_files/391819.got.cif
#   From: 2010.05.17/outbox.cif.g08.bks.cpg/sg2_196_cif.got.tgz:391819.got - 2010.06.03 11:33:40.
