data_PCOD9057261
_publ_section_title
;
Structure prediction by ZEFSAII (Michael W. Deem and Ramdas Pophale) SiO2 
 PCOD9057261
Probable space group: P -1
;
_chemical_formula_sum "Si O2"
_cell_formula_units_Z 16
_cell_length_a 15.064264
_cell_length_b 8.884792
_cell_length_c 9.585136
_cell_angle_alpha 133.313087
_cell_angle_beta 62.868950
_cell_angle_gamma 89.674017
_cell_volume 723.302234
_symmetry_space_group_name_H-M "P -1"
_symmetry_group_IT_number 2
_symmetry_cell_setting 'triclinic'
loop_
_space_group_symop_operation_xyz
x,y,z
-x,-y,-z
loop_
_atom_site_type_symbol
_atom_site_label
_atom_site_fract_x
_atom_site_fract_y
_atom_site_fract_z
Si Si1 0.304352 0.984758 0.756660
Si Si2 0.063402 0.886744 0.527559
Si Si3 0.214495 0.101656 0.593423
Si Si4 0.090220 0.994753 0.041052
Si Si5 0.597410 0.552536 0.644204
Si Si6 0.638998 0.302087 0.974296
Si Si7 0.739299 0.496820 0.262946
Si Si8 0.689398 0.558368 0.880198
O O1 0.293873 0.987772 0.599019
O O2 0.381838 0.712349 0.573867
O O3 0.177419 0.072204 0.964856
O O4 0.340829 0.174153 0.897919
O O5 0.181348 0.633603 0.283316
O O6 0.976429 0.869941 0.686470
O O7 0.103427 0.071592 0.673691
O O8 0.000000 0.000000 0.500000
O O9 0.204307 0.355211 0.743652
O O10 0.273937 0.949051 0.315680
O O11 0.168711 0.722013 0.853917
O O12 0.000000 0.000000 0.000000
O O13 0.635507 0.640998 0.537716
O O14 0.675596 0.526001 0.705849
O O15 0.468336 0.701990 0.883641
O O16 0.610480 0.487973 0.985525
O O17 0.696529 0.388850 0.103894
#
# Coordination Sequence:
#
# PCOD9057261 Si02
#       8
#     2   2   2   2   2   2   2   2
#     4  11  23  41  67  93 129 168 214 260 313 375
#     4  11  23  40  64  93 128 164 211 262 318 374
#     4  11  23  42  65  94 130 166 213 262 312 376
#     4  11  22  42  65  91 127 167 208 262 315 369
#     4  11  24  43  65  96 130 164 210 268 313 378
#     4  11  23  42  68  93 130 168 210 260 321 375
#     4  11  25  42  66  95 130 166 210 264 320 376
#     4  11  23  41  64  95 126 164 215 260 311 377
#
# _framework density 22.120767000000001
#
# number of rings (size 3 to 8) (size 9 to 14) (size 15 to 20)
#    0.000    1.000    5.000    3.000    0.000    7.000 
#    0.000    0.000    0.000    0.000    0.000    0.000 
#    0.000    0.000    0.000    0.000    0.000    0.000 
#
# Total GULP energy -89449.166160 kJ/mol
# GULP energy per Si atom -5590.572885 kJ/mol
# Density = 2.207042 g / cm^3
# Si number density = 22.120767 Si / 1000 Ang^3
#
#
#
# Elastic Constant Matrix: (Units=GPa)
#
#
# Indices 1 2 3 4 5 6 
#
# 1 51.5191 6.4915 19.9738 4.2907 9.9405 -5.3772
# 2 6.4915 43.3534 -2.8431 -8.1272 12.2154 -2.9766
# 3 19.9738 -2.8431 64.4248 -25.0861 3.1029 -6.9914
# 4 4.2907 -8.1272 -25.0861 37.3294 7.7959 7.1313
# 5 9.9405 12.2154 3.1029 7.7959 36.0848 -6.7522
# 6 -5.3772 -2.9766 -6.9914 7.1313 -6.7522 22.4714
#
#
#
# Elastic Compliance Matrix: (Units=1/GPa)
#
#
# Indices 1 2 3 4 5 6 
#
# 1 0.027982 -0.008064 -0.014735 -0.016342 0.001044 0.006543
# 2 -0.008064 0.032816 0.012048 0.020268 -0.015207 -0.004836
# 3 -0.014735 0.012048 0.031711 0.028395 -0.009623 -0.003966
# 4 -0.016342 0.020268 0.028395 0.059954 -0.021075 -0.017750
# 5 0.001044 -0.015207 -0.009623 -0.021075 0.040597 0.014128
# 6 0.006543 -0.004836 -0.003966 -0.017750 0.014128 0.054070
#
#
# Mechanical properties :
#
#
# Convention : Reuss Voigt Hill
#
# Bulk Modulus (GPa) = 14.08314 22.94909 18.51612
# Shear Modulus (GPa) = 17.10565 28.22213 22.66389
#
# Velocity S-wave (km/s) = 2.78382 3.57574 3.20434
# Velocity P-wave (km/s) = 4.08817 5.23878 4.69883
#
# Compressibility (1/GPa) = 0.07100689
#
# Stress axis : x y z
#
# Youngs Moduli (GPa) = 35.73783 30.47290 31.53441
#
# Poissons Ratio (x) = 0.24575 0.46465
# Poissons Ratio (y) = 0.28821 -0.37993
# Poissons Ratio (z) = 0.52658 -0.36714
#
# Static dielectric constant tensor:
#      x y z
#    x 1.801800 0.002180 -0.035410 
#    y 0.002180 1.809390 -0.033690 
#    z -0.035410 -0.033690 1.878880 
# 
# From -- ./inp_files/216044.got.cif
#   From: 2010.05.17/outbox.cif.g08.bks.cpg/sg2_109_cif.got.tgz:216044.got - 2010.06.03 11:33:40.
