data_PCOD9057687
_publ_section_title
;
Structure prediction by ZEFSAII (Michael W. Deem and Ramdas Pophale) SiO2 
 PCOD9057687
Probable space group: P -1
;
_chemical_formula_sum "Si O2"
_cell_formula_units_Z 16
_cell_length_a 8.170106
_cell_length_b 13.340627
_cell_length_c 14.528718
_cell_angle_alpha 131.123165
_cell_angle_beta 133.810922
_cell_angle_gamma 47.181464
_cell_volume 784.065231
_symmetry_space_group_name_H-M "P -1"
_symmetry_group_IT_number 2
_symmetry_cell_setting 'triclinic'
loop_
_space_group_symop_operation_xyz
x,y,z
-x,-y,-z
loop_
_atom_site_type_symbol
_atom_site_label
_atom_site_fract_x
_atom_site_fract_y
_atom_site_fract_z
Si Si1 0.743698 0.854530 0.491556
Si Si2 0.905148 0.677671 0.108705
Si Si3 0.699068 0.808685 0.720172
Si Si4 0.711784 0.604559 0.447401
Si Si5 0.575382 0.587545 0.841866
Si Si6 0.762717 0.872693 0.990538
Si Si7 0.099646 0.866389 0.788489
Si Si8 0.184480 0.077374 0.636631
O O1 0.685751 0.729959 0.441282
O O2 0.802442 0.836252 0.396873
O O3 0.969391 0.869363 0.642408
O O4 0.500000 0.000000 0.500000
O O5 0.881689 0.746234 0.037302
O O6 0.908033 0.807952 0.249042
O O7 0.141611 0.530870 0.140661
O O8 0.654590 0.648111 0.002685
O O9 0.649660 0.680819 0.570321
O O10 0.939228 0.818432 0.770270
O O11 0.457609 0.955965 0.692823
O O12 0.735425 0.803595 0.840858
O O13 0.567714 0.514163 0.295889
O O14 0.000000 0.500000 0.500000
O O15 0.380594 0.741151 0.816450
O O16 0.914832 0.974025 0.097554
O O17 0.500000 0.000000 0.000000
O O18 0.000000 0.000000 0.500000
#
# Coordination Sequence:
#
# PCOD9057687 Si02
#       8
#     2   2   2   2   2   2   2   2
#     4  11  23  41  69 103 126 169 228 273 337 394
#     4  11  26  43  65  96 140 177 224 272 337 401
#     4  11  23  41  68  99 130 169 226 275 338 390
#     4  11  22  45  67  95 137 172 219 278 336 396
#     4  11  23  47  63  91 142 183 206 279 339 397
#     4  12  23  42  69  97 129 174 228 274 333 397
#     4  11  22  43  68  95 133 173 218 281 337 393
#     4  12  23  42  69 104 133 169 226 286 333 394
#
# _framework density 20.406465000000001
#
# number of rings (size 3 to 8) (size 9 to 14) (size 15 to 20)
#    0.000    0.750    7.500    1.875    1.750    0.000 
#    4.500    2.500    0.000    0.000    0.000    0.000 
#    0.000    0.000    0.000    0.000    0.000    0.000 
#
# Total GULP energy -89142.897381 kJ/mol
# GULP energy per Si atom -5571.431086 kJ/mol
# Density = 2.036002 g / cm^3
# Si number density = 20.406465 Si / 1000 Ang^3
#
#
#
# Elastic Constant Matrix: (Units=GPa)
#
#
# Indices 1 2 3 4 5 6 
#
# 1 56.2048 27.5700 48.7463 -5.7181 -12.4706 11.1542
# 2 27.5700 155.5150 53.9394 -3.9114 -0.4827 -0.2559
# 3 48.7463 53.9394 157.7944 0.8108 7.7268 17.9807
# 4 -5.7181 -3.9114 0.8108 42.6580 5.2951 11.5769
# 5 -12.4706 -0.4827 7.7268 5.2951 47.0624 -5.2647
# 6 11.1542 -0.2559 17.9807 11.5769 -5.2647 25.7605
#
#
#
# Elastic Compliance Matrix: (Units=1/GPa)
#
#
# Indices 1 2 3 4 5 6 
#
# 1 0.029538 -0.002401 -0.007773 0.005159 0.007586 -0.008156
# 2 -0.002401 0.007611 -0.002190 -0.000375 0.000162 0.002845
# 3 -0.007773 -0.002190 0.010257 0.000435 -0.004364 -0.004903
# 4 0.005159 -0.000375 0.000435 0.029000 -0.003800 -0.016350
# 5 0.007586 0.000162 -0.004364 -0.003800 0.025143 0.006609
# 6 -0.008156 0.002845 -0.004903 -0.016350 0.006609 0.054500
#
#
# Mechanical properties :
#
#
# Convention : Reuss Voigt Hill
#
# Bulk Modulus (GPa) = 44.09439 70.00285 57.04862
# Shear Modulus (GPa) = 26.54817 39.04674 32.79746
#
# Velocity S-wave (km/s) = 3.61081 4.37904 4.01335
# Velocity P-wave (km/s) = 6.24811 7.74253 7.03511
#
# Compressibility (1/GPa) = 0.02267862
#
# Stress axis : x y z
#
# Youngs Moduli (GPa) = 33.85524 131.38275 97.49039
#
# Poissons Ratio (x) = 0.31541 0.75777
# Poissons Ratio (y) = 0.08128 0.21355
# Poissons Ratio (z) = 0.26315 0.28779
#
# Static dielectric constant tensor:
#      x y z
#    x 1.779020 0.015360 0.018190 
#    y 0.015360 1.718760 0.021980 
#    z 0.018190 0.021980 1.782760 
# 
# From -- ./inp_files/306598.got.cif
#   From: 2010.05.17/outbox.cif.g08.bks.cpg/sg2_154_cif.got.tgz:306598.got - 2010.06.03 11:33:40.
