data_PCOD9057484
_publ_section_title
;
Structure prediction by ZEFSAII (Michael W. Deem and Ramdas Pophale) SiO2 
 PCOD9057484
Probable space group: P -1
;
_chemical_formula_sum "Si O2"
_cell_formula_units_Z 16
_cell_length_a 7.729899
_cell_length_b 11.523880
_cell_length_c 12.013032
_cell_angle_alpha 49.207325
_cell_angle_beta 49.290331
_cell_angle_gamma 72.080001
_cell_volume 600.896356
_symmetry_space_group_name_H-M "P -1"
_symmetry_group_IT_number 2
_symmetry_cell_setting 'triclinic'
loop_
_space_group_symop_operation_xyz
x,y,z
-x,-y,-z
loop_
_atom_site_type_symbol
_atom_site_label
_atom_site_fract_x
_atom_site_fract_y
_atom_site_fract_z
Si Si1 0.420950 0.380844 0.706662
Si Si2 0.054818 0.614419 0.510541
Si Si3 0.204203 0.917880 0.506564
Si Si4 0.752096 0.872194 0.438033
Si Si5 0.164239 0.074360 0.047034
Si Si6 0.500450 0.895618 0.906285
Si Si7 0.278443 0.634478 0.759450
Si Si8 0.284962 0.589750 0.043858
O O1 0.500000 0.500000 0.500000
O O2 0.224167 0.231604 0.852405
O O3 0.323842 0.475628 0.786193
O O4 0.666826 0.329089 0.653782
O O5 0.931903 0.762453 0.465623
O O6 0.000000 0.500000 0.500000
O O7 0.931250 0.509689 0.732211
O O8 0.125604 0.738497 0.691075
O O9 0.306962 0.028231 0.496500
O O10 0.389773 0.953383 0.308600
O O11 0.000000 0.000000 0.500000
O O12 0.527982 0.752528 0.567050
O O13 0.893891 0.001867 0.215657
O O14 0.289707 0.942747 0.030588
O O15 0.294457 0.124154 0.080242
O O16 0.400536 0.746424 0.965278
O O17 0.218619 0.617887 0.925550
O O18 0.500000 0.500000 0.000000
#
# Coordination Sequence:
#
# PCOD9057484 Si02
#       8
#     2   2   2   2   2   2   2   2
#     4  12  28  50  72 109 156 198 257 319 384 462
#     4  12  23  46  78 111 147 201 248 309 385 451
#     4  12  26  48  73 106 152 201 253 320 386 450
#     4  12  24  45  78 109 147 193 253 315 385 455
#     4  11  24  44  74 109 148 200 250 313 379 462
#     4  11  22  42  71 107 150 197 254 306 376 457
#     4  12  27  49  76 114 153 200 259 320 383 464
#     4  12  23  44  76 115 158 203 251 319 386 461
#
# _framework density 26.626888999999998
#
# number of rings (size 3 to 8) (size 9 to 14) (size 15 to 20)
#    0.000    0.250    5.000    4.875    1.750    1.000 
#    0.000    2.500    0.000    0.000    0.000    0.000 
#    0.000    0.000    0.000    0.000    0.000    0.000 
#
# Total GULP energy -89764.100871 kJ/mol
# GULP energy per Si atom -5610.256304 kJ/mol
# Density = 2.656629 g / cm^3
# Si number density = 26.626889 Si / 1000 Ang^3
#
#
#
# Elastic Constant Matrix: (Units=GPa)
#
#
# Indices 1 2 3 4 5 6 
#
# 1 78.0659 41.2890 31.3124 5.9986 -2.0872 -8.9893
# 2 41.2890 179.3877 41.1617 -4.2922 9.0186 14.1304
# 3 31.3124 41.1617 193.9671 -1.1694 -2.8722 -0.7696
# 4 5.9986 -4.2922 -1.1694 44.8393 -2.3499 1.5894
# 5 -2.0872 9.0186 -2.8722 -2.3499 47.2898 -6.4384
# 6 -8.9893 14.1304 -0.7696 1.5894 -6.4384 40.1838
#
#
#
# Elastic Compliance Matrix: (Units=1/GPa)
#
#
# Indices 1 2 3 4 5 6 
#
# 1 0.016535 -0.003995 -0.001787 -0.002731 0.001996 0.005497
# 2 -0.003995 0.007133 -0.000907 0.001221 -0.002048 -0.003796
# 3 -0.001787 -0.000907 0.005646 0.000321 0.000465 0.000089
# 4 -0.002731 0.001221 0.000321 0.022887 0.000551 -0.001851
# 5 0.001996 -0.002048 0.000465 0.000551 0.022325 0.004731
# 6 0.005497 -0.003796 0.000089 -0.001851 0.004731 0.028283
#
#
# Mechanical properties :
#
#
# Convention : Reuss Voigt Hill
#
# Bulk Modulus (GPa) = 62.74463 75.43855 69.09159
# Shear Modulus (GPa) = 41.15301 48.97308 45.06304
#
# Velocity S-wave (km/s) = 3.93560 4.29328 4.11833
# Velocity P-wave (km/s) = 6.65338 7.27802 6.97270
#
# Compressibility (1/GPa) = 0.01593762
#
# Stress axis : x y z
#
# Youngs Moduli (GPa) = 60.47649 140.18967 177.12991
#
# Poissons Ratio (x) = 0.56000 0.31648
# Poissons Ratio (y) = 0.24158 0.16064
# Poissons Ratio (z) = 0.10806 0.12714
#
# Static dielectric constant tensor:
#      x y z
#    x 2.264450 -0.059510 0.078690 
#    y -0.059510 2.000010 -0.015950 
#    z 0.078690 -0.015950 2.103480 
# 
# From -- ./inp_files/391958.got.cif
#   From: 2010.05.17/outbox.cif.g08.bks.cpg/sg2_196_cif.got.tgz:391958.got - 2010.06.03 11:33:40.
