data_PCOD9057157
_publ_section_title
;
Structure prediction by ZEFSAII (Michael W. Deem and Ramdas Pophale) SiO2 
 PCOD9057157
Probable space group: P -1
;
_chemical_formula_sum "Si O2"
_cell_formula_units_Z 16
_cell_length_a 9.239346
_cell_length_b 15.260345
_cell_length_c 10.861347
_cell_angle_alpha 56.739634
_cell_angle_beta 82.679438
_cell_angle_gamma 128.247780
_cell_volume 707.117894
_symmetry_space_group_name_H-M "P -1"
_symmetry_group_IT_number 2
_symmetry_cell_setting 'triclinic'
loop_
_space_group_symop_operation_xyz
x,y,z
-x,-y,-z
loop_
_atom_site_type_symbol
_atom_site_label
_atom_site_fract_x
_atom_site_fract_y
_atom_site_fract_z
Si Si1 0.032826 0.058016 0.660123
Si Si2 0.431128 0.117521 0.642896
Si Si3 0.397944 0.307705 0.893233
Si Si4 0.837640 0.443589 0.176887
Si Si5 0.447664 0.401469 0.201665
Si Si6 0.193795 0.283505 0.709500
Si Si7 0.301555 0.671255 0.301255
Si Si8 0.187601 0.781643 0.068580
O O1 0.201506 0.052380 0.663455
O O2 0.152993 0.187242 0.428457
O O3 0.092751 0.170228 0.682931
O O4 0.735317 0.841561 0.870853
O O5 0.661746 0.252264 0.413602
O O6 0.538071 0.240425 0.658373
O O7 0.334468 0.949245 0.833431
O O8 0.469705 0.466173 0.804951
O O9 0.192503 0.200170 0.886901
O O10 0.639917 0.390606 0.745630
O O11 0.638456 0.416186 0.177469
O O12 0.000000 0.500000 0.000000
O O13 0.023572 0.605743 0.134982
O O14 0.500000 0.500000 0.000000
O O15 0.500000 0.500000 0.500000
O O16 0.010850 0.269819 0.784560
O O17 0.000000 0.500000 0.500000
O O18 0.369686 0.817641 0.106505
#
# Coordination Sequence:
#
# PCOD9057157 Si02
#       8
#     2   2   2   2   2   2   2   2
#     4  11  22  41  71  98 126 170 215 264 321 384
#     4  11  22  43  68  96 132 170 211 263 322 389
#     4  12  23  43  67  96 132 169 215 264 320 387
#     4  11  25  46  67  91 128 174 219 266 320 383
#     4  11  26  44  68  95 123 170 226 271 315 371
#     4  12  19  38  69  97 126 166 209 255 324 395
#     4  12  25  40  64 103 141 167 203 265 328 388
#     4  12  24  42  64  98 134 167 213 261 325 388
#
# _framework density 22.627061000000001
#
# number of rings (size 3 to 8) (size 9 to 14) (size 15 to 20)
#    0.000    0.500    6.250    3.000    1.750    1.000 
#    2.250    0.000    0.000    0.000    0.000    0.000 
#    0.000    0.000    0.000    0.000    0.000    0.000 
#
# Total GULP energy -89551.101322 kJ/mol
# GULP energy per Si atom -5596.943833 kJ/mol
# Density = 2.257556 g / cm^3
# Si number density = 22.627061 Si / 1000 Ang^3
#
#
#
# Elastic Constant Matrix: (Units=GPa)
#
#
# Indices 1 2 3 4 5 6 
#
# 1 73.1545 10.3657 29.5078 17.5127 -0.0913 -22.7170
# 2 10.3657 38.0509 22.1171 5.0693 -8.6459 -19.8675
# 3 29.5078 22.1171 182.7441 9.4909 7.1568 -19.2207
# 4 17.5127 5.0693 9.4909 36.8505 -1.2085 -1.6752
# 5 -0.0913 -8.6459 7.1568 -1.2085 42.5230 10.2975
# 6 -22.7170 -19.8675 -19.2207 -1.6752 10.2975 33.7400
#
#
#
# Elastic Compliance Matrix: (Units=1/GPa)
#
#
# Indices 1 2 3 4 5 6 
#
# 1 0.021012 0.004232 -0.001591 -0.009522 -0.003016 0.016181
# 2 0.004232 0.040775 -0.002901 -0.005688 0.002797 0.024071
# 3 -0.001591 -0.002901 0.006333 -0.000478 -0.002017 0.001421
# 4 -0.009522 -0.005688 -0.000478 0.032222 0.002010 -0.009046
# 5 -0.003016 0.002797 -0.002017 0.002010 0.026803 -0.009613
# 6 0.016181 0.024071 0.001421 -0.009046 -0.009613 0.058002
#
#
# Mechanical properties :
#
#
# Convention : Reuss Voigt Hill
#
# Bulk Modulus (GPa) = 14.79228 46.43674 30.61451
# Shear Modulus (GPa) = 24.01546 38.08661 31.05103
#
# Velocity S-wave (km/s) = 3.26139 4.10717 3.70847
# Velocity P-wave (km/s) = 4.55344 6.56194 5.64769
#
# Compressibility (1/GPa) = 0.06760285
#
# Stress axis : x y z
#
# Youngs Moduli (GPa) = 47.59189 24.52464 157.89689
#
# Poissons Ratio (x) = -0.10380 0.25114
# Poissons Ratio (y) = -0.20143 0.45802
# Poissons Ratio (z) = 0.07570 0.07114
#
# Static dielectric constant tensor:
#      x y z
#    x 1.830020 0.021260 0.032020 
#    y 0.021260 1.859550 0.008030 
#    z 0.032020 0.008030 1.916470 
# 
# From -- ./inp_files/260990.got.cif
#   From: 2010.05.17/outbox.cif.g08.bks.cpg/sg2_131_cif.got.tgz:260990.got - 2010.06.03 11:33:40.
