data_PCOD9057219
_publ_section_title
;
Structure prediction by ZEFSAII (Michael W. Deem and Ramdas Pophale) SiO2 
 PCOD9057219
Probable space group: P -1
;
_chemical_formula_sum "Si O2"
_cell_formula_units_Z 16
_cell_length_a 17.239708
_cell_length_b 12.202920
_cell_length_c 8.412352
_cell_angle_alpha 40.629315
_cell_angle_beta 98.805578
_cell_angle_gamma 127.439893
_cell_volume 734.518012
_symmetry_space_group_name_H-M "P -1"
_symmetry_group_IT_number 2
_symmetry_cell_setting 'triclinic'
loop_
_space_group_symop_operation_xyz
x,y,z
-x,-y,-z
loop_
_atom_site_type_symbol
_atom_site_label
_atom_site_fract_x
_atom_site_fract_y
_atom_site_fract_z
Si Si1 0.143551 0.249313 0.759234
Si Si2 0.999732 0.297151 0.208563
Si Si3 0.652421 0.967597 0.774676
Si Si4 0.281626 0.710268 0.877038
Si Si5 0.232613 0.180381 0.128644
Si Si6 0.742220 0.211429 0.874890
Si Si7 0.166289 0.992662 0.804304
Si Si8 0.378218 0.489901 0.126219
O O1 0.182008 0.494614 0.445703
O O2 0.180079 0.160576 0.750386
O O3 0.209539 0.306568 0.878586
O O4 0.000000 0.000000 0.000000
O O5 0.892676 0.052778 0.556515
O O6 0.955090 0.179634 0.146947
O O7 0.000000 0.500000 0.000000
O O8 0.134429 0.453583 0.113984
O O9 0.685458 0.139379 0.442810
O O10 0.664861 0.064867 0.849133
O O11 0.739109 0.946014 0.815345
O O12 0.513676 0.687240 0.010472
O O13 0.316693 0.863991 0.883630
O O14 0.340451 0.622384 0.995669
O O15 0.349253 0.403971 0.029124
O O16 0.827663 0.187355 0.935306
O O17 0.284072 0.212578 0.489206
#
# Coordination Sequence:
#
# PCOD9057219 Si02
#       8
#     2   2   2   2   2   2   2   2
#     4  12  27  43  70 110 147 185 237 301 363 437
#     4  11  22  41  74 103 140 187 232 294 366 430
#     4  12  26  47  75 103 144 196 245 300 351 429
#     4  12  24  46  71 108 146 183 242 297 361 429
#     4  11  24  45  70 104 143 188 241 294 364 430
#     4  12  26  48  72 108 144 188 247 293 362 427
#     4  11  25  46  70 104 147 190 234 298 366 428
#     4  11  26  47  70 104 144 193 246 297 359 422
#
# _framework density 21.782993000000001
#
# number of rings (size 3 to 8) (size 9 to 14) (size 15 to 20)
#    0.000    0.500    5.000    3.000    3.500    2.500 
#    2.250    0.000    0.000    0.000    0.000    0.000 
#    0.000    0.000    0.000    0.000    0.000    0.000 
#
# Total GULP energy -89452.967713 kJ/mol
# GULP energy per Si atom -5590.810482 kJ/mol
# Density = 2.173341 g / cm^3
# Si number density = 21.782993 Si / 1000 Ang^3
#
#
#
# Elastic Constant Matrix: (Units=GPa)
#
#
# Indices 1 2 3 4 5 6 
#
# 1 68.5434 8.3174 23.5437 10.5814 21.5958 -1.3535
# 2 8.3174 135.2517 25.4009 12.3176 4.9501 -10.8124
# 3 23.5437 25.4009 54.5219 14.4595 28.0974 4.1644
# 4 10.5814 12.3176 14.4595 21.7702 2.0246 9.5178
# 5 21.5958 4.9501 28.0974 2.0246 29.1187 -3.2469
# 6 -1.3535 -10.8124 4.1644 9.5178 -3.2469 29.3101
#
#
#
# Elastic Compliance Matrix: (Units=1/GPa)
#
#
# Indices 1 2 3 4 5 6 
#
# 1 0.020806 0.000116 0.002340 -0.011271 -0.016647 0.002487
# 2 0.000116 0.009351 -0.006866 -0.004157 0.005957 0.006440
# 3 0.002340 -0.006866 0.055158 -0.025549 -0.052887 -0.007824
# 4 -0.011271 -0.004157 -0.025549 0.077342 0.026038 -0.020655
# 5 -0.016647 0.005957 -0.052887 0.026038 0.096140 0.011138
# 6 0.002487 0.006440 -0.007824 -0.020655 0.011138 0.045661
#
#
# Mechanical properties :
#
#
# Convention : Reuss Voigt Hill
#
# Bulk Modulus (GPa) = 13.07289 41.42677 27.24983
# Shear Modulus (GPa) = 14.75901 29.44347 22.10124
#
# Velocity S-wave (km/s) = 2.60580 3.68050 3.18875
# Velocity P-wave (km/s) = 3.88175 6.09267 5.10826
#
# Compressibility (1/GPa) = 0.07649420
#
# Stress axis : x y z
#
# Youngs Moduli (GPa) = 48.06408 106.93673 18.12981
#
# Poissons Ratio (x) = -0.01237 -0.04242
# Poissons Ratio (y) = -0.00556 0.12448
# Poissons Ratio (z) = -0.11247 0.73421
#
# Static dielectric constant tensor:
#      x y z
#    x 1.706540 0.010640 -0.008320 
#    y 0.010640 1.816220 0.060000 
#    z -0.008320 0.060000 1.768720 
# 
# From -- ./inp_files/332744.got.cif
#   From: 2010.05.17/outbox.cif.g08.bks.cpg/sg2_167_cif.got.tgz:332744.got - 2010.06.03 11:33:40.
