data_PCOD9057700
_publ_section_title
;
Structure prediction by ZEFSAII (Michael W. Deem and Ramdas Pophale) SiO2 
 PCOD9057700
Probable space group: P -1
;
_chemical_formula_sum "Si O2"
_cell_formula_units_Z 16
_cell_length_a 8.783952
_cell_length_b 25.584088
_cell_length_c 14.054504
_cell_angle_alpha 24.076268
_cell_angle_beta 126.462799
_cell_angle_gamma 139.263684
_cell_volume 782.426699
_symmetry_space_group_name_H-M "P -1"
_symmetry_group_IT_number 2
_symmetry_cell_setting 'triclinic'
loop_
_space_group_symop_operation_xyz
x,y,z
-x,-y,-z
loop_
_atom_site_type_symbol
_atom_site_label
_atom_site_fract_x
_atom_site_fract_y
_atom_site_fract_z
Si Si1 0.112935 0.085431 0.187603
Si Si2 0.293115 0.002500 0.961212
Si Si3 0.861812 0.574522 0.831771
Si Si4 0.721272 0.632736 0.071994
Si Si5 0.352111 0.688291 0.087969
Si Si6 0.440493 0.663950 0.369091
Si Si7 0.889570 0.674906 0.478809
Si Si8 0.029546 0.771903 0.761748
O O1 0.865275 0.994565 0.183414
O O2 0.106206 0.949152 0.467950
O O3 0.135122 0.209580 0.065247
O O4 0.358935 0.200477 0.020708
O O5 0.420998 0.162198 0.812294
O O6 0.097750 0.828791 0.234886
O O7 0.500000 0.000000 0.000000
O O8 0.564310 0.441542 0.920815
O O9 0.974112 0.708082 0.565024
O O10 0.904598 0.655531 0.815067
O O11 0.000000 0.500000 0.000000
O O12 0.712501 0.489691 0.357015
O O13 0.845362 0.686749 0.925121
O O14 0.311508 0.660586 0.232233
O O15 0.191042 0.502523 0.289237
O O16 0.259791 0.782909 0.857035
O O17 0.644305 0.654365 0.419447
#
# Coordination Sequence:
#
# PCOD9057700 Si02
#       8
#     2   2   2   2   2   2   2   2
#     4  12  24  49  69 101 144 178 234 281 348 414
#     4  12  29  44  71 107 138 178 229 295 351 404
#     4  11  22  43  69 100 134 186 237 272 336 418
#     4  11  25  45  71  99 141 185 225 287 353 401
#     4  12  24  44  75 103 134 186 234 280 338 420
#     4  11  24  45  72 100 135 184 231 281 345 410
#     4  11  22  46  71 101 135 182 232 285 341 408
#     4  12  27  42  69 106 143 184 225 289 344 407
#
# _framework density 20.449200999999999
#
# number of rings (size 3 to 8) (size 9 to 14) (size 15 to 20)
#    0.000    0.500    5.000    4.125    5.250    1.500 
#    0.000    0.000    0.000    0.000    0.000    0.000 
#    0.000    0.000    0.000    0.000    0.000    0.000 
#
# Total GULP energy -89520.409850 kJ/mol
# GULP energy per Si atom -5595.025616 kJ/mol
# Density = 2.040266 g / cm^3
# Si number density = 20.449201 Si / 1000 Ang^3
#
#
#
# Elastic Constant Matrix: (Units=GPa)
#
#
# Indices 1 2 3 4 5 6 
#
# 1 196.0239 24.8350 72.6447 -7.2031 12.2618 -84.4655
# 2 24.8350 108.9049 33.0750 19.6475 -0.6999 -16.7553
# 3 72.6447 33.0750 146.3478 11.4232 -5.4991 -27.9540
# 4 -7.2031 19.6475 11.4232 37.4890 -6.7277 9.3093
# 5 12.2618 -0.6999 -5.4991 -6.7277 33.8060 -5.0477
# 6 -84.4655 -16.7553 -27.9540 9.3093 -5.0477 77.9036
#
#
#
# Elastic Compliance Matrix: (Units=1/GPa)
#
#
# Indices 1 2 3 4 5 6 
#
# 1 0.011263 0.000190 -0.003698 -0.000027 -0.003086 0.010729
# 2 0.000190 0.011157 -0.001659 -0.006138 -0.000929 0.002684
# 3 -0.003698 -0.001659 0.009159 -0.002051 0.002286 -0.000687
# 4 -0.000027 -0.006138 -0.002051 0.032860 0.005242 -0.005672
# 5 -0.003086 -0.000929 0.002286 0.005242 0.031904 -0.001285
# 6 0.010729 0.002684 -0.000687 -0.005672 -0.001285 0.025394
#
#
# Mechanical properties :
#
#
# Convention : Reuss Voigt Hill
#
# Bulk Modulus (GPa) = 47.07108 79.15401 63.11255
# Shear Modulus (GPa) = 35.93181 51.22120 43.57650
#
# Velocity S-wave (km/s) = 4.19636 5.01023 4.62124
# Velocity P-wave (km/s) = 6.82259 8.50068 7.70744
#
# Compressibility (1/GPa) = 0.02124446
#
# Stress axis : x y z
#
# Youngs Moduli (GPa) = 88.78763 89.62823 109.18795
#
# Poissons Ratio (x) = -0.01707 0.40381
# Poissons Ratio (y) = -0.01691 0.18116
# Poissons Ratio (z) = 0.32836 0.14871
#
# Static dielectric constant tensor:
#      x y z
#    x 1.573140 -0.424860 0.135380 
#    y -0.424860 0.345190 0.467970 
#    z 0.135380 0.467970 1.566320 
# 
# From -- ./inp_files/262575.got.cif
#   From: 2010.05.17/outbox.cif.g08.bks.cpg/sg2_132_cif.got.tgz:262575.got - 2010.06.03 11:33:40.
