data_PCOD9057891
_publ_section_title
;
Structure prediction by ZEFSAII (Michael W. Deem and Ramdas Pophale) SiO2 
 PCOD9057891
Probable space group: P -1
;
_chemical_formula_sum "Si O2"
_cell_formula_units_Z 14
_cell_length_a 13.092763
_cell_length_b 5.727817
_cell_length_c 13.646108
_cell_angle_alpha 92.093152
_cell_angle_beta 145.215827
_cell_angle_gamma 92.628670
_cell_volume 578.236710
_symmetry_space_group_name_H-M "P -1"
_symmetry_group_IT_number 2
_symmetry_cell_setting 'triclinic'
loop_
_space_group_symop_operation_xyz
x,y,z
-x,-y,-z
loop_
_atom_site_type_symbol
_atom_site_label
_atom_site_fract_x
_atom_site_fract_y
_atom_site_fract_z
Si Si1 0.101356 0.204493 0.651052
Si Si2 0.616664 0.729265 0.799858
Si Si3 0.286037 0.980054 0.465686
Si Si4 0.033383 0.550800 0.283734
Si Si5 0.302541 0.356190 0.338235
Si Si6 0.399051 0.308423 0.742789
Si Si7 0.261223 0.903489 0.942915
O O1 0.253490 0.357485 0.708575
O O2 0.973056 0.374953 0.604454
O O3 0.200041 0.060477 0.808870
O O4 0.000000 0.000000 0.500000
O O5 0.444908 0.829167 0.617155
O O6 0.739607 0.640454 0.809894
O O7 0.524518 0.527930 0.796857
O O8 0.731158 0.937013 0.951713
O O9 0.092420 0.823793 0.302534
O O10 0.320825 0.100167 0.390751
O O11 0.298370 0.166450 0.568781
O O12 0.169003 0.444511 0.313807
O O13 0.862948 0.347354 0.144466
O O14 0.500000 0.500000 0.500000
O O15 0.532881 0.152412 0.900508
#
# Coordination Sequence:
#
# PCOD9057891 Si02
#       7
#     2   2   2   2   2   2   2
#     4  12  27  48  78 109 149 192 249 311 367 439
#     4  11  25  46  77 105 150 198 247 298 367 441
#     4  11  22  43  73 112 142 190 252 296 362 436
#     4  12  26  44  73 110 149 187 250 301 366 437
#     4  12  24  44  77 111 149 194 248 305 362 437
#     4  11  24  48  75 107 145 198 245 301 373 434
#     4  11  28  48  70 112 153 192 244 303 379 442
#
# _framework density 24.211537
#
# number of rings (size 3 to 8) (size 9 to 14) (size 15 to 20)
#    0.000    0.571    4.286    2.571    2.000    5.714 
#    0.000    3.571    0.000    0.000    0.000    0.000 
#    0.000    0.000    0.000    0.000    0.000    0.000 
#
# Total GULP energy -78087.442841 kJ/mol
# GULP energy per Si atom -5577.674489 kJ/mol
# Density = 2.415643 g / cm^3
# Si number density = 24.211537 Si / 1000 Ang^3
#
#
#
# Elastic Constant Matrix: (Units=GPa)
#
#
# Indices 1 2 3 4 5 6 
#
# 1 195.9254 35.8404 28.8203 -5.0477 -15.8402 -5.8379
# 2 35.8404 96.1235 40.6016 18.8858 -6.1588 26.7774
# 3 28.8203 40.6016 71.6625 14.6388 -8.3481 12.9547
# 4 -5.0477 18.8858 14.6388 50.1116 -7.6460 -12.3861
# 5 -15.8402 -6.1588 -8.3481 -7.6460 21.9394 4.2932
# 6 -5.8379 26.7774 12.9547 -12.3861 4.2932 39.9277
#
#
#
# Elastic Compliance Matrix: (Units=1/GPa)
#
#
# Indices 1 2 3 4 5 6 
#
# 1 0.006623 -0.003692 -0.001984 0.004435 0.003541 0.005083
# 2 -0.003692 0.020419 -0.004998 -0.010445 0.000640 -0.015921
# 3 -0.001984 -0.004998 0.020038 -0.004871 0.004147 -0.005397
# 4 0.004435 -0.010445 -0.004871 0.031150 0.005694 0.018285
# 5 0.003541 0.000640 0.004147 0.005694 0.052893 -0.005178
# 6 0.005083 -0.015921 -0.005397 0.018285 -0.005178 0.044446
#
#
# Mechanical properties :
#
#
# Convention : Reuss Voigt Hill
#
# Bulk Modulus (GPa) = 38.86151 63.80398 51.33275
# Shear Modulus (GPa) = 24.33166 39.62568 31.97867
#
# Velocity S-wave (km/s) = 3.17355 4.04994 3.63823
# Velocity P-wave (km/s) = 5.43270 6.94833 6.23672
#
# Compressibility (1/GPa) = 0.02573240
#
# Stress axis : x y z
#
# Youngs Moduli (GPa) = 150.98317 48.97330 49.90634
#
# Poissons Ratio (x) = 0.18080 0.09903
# Poissons Ratio (y) = 0.55741 0.24942
# Poissons Ratio (z) = 0.29959 0.24476
#
# Static dielectric constant tensor:
#      x y z
#    x 1.999820 -0.086060 -0.011450 
#    y -0.086060 1.963770 -0.029230 
#    z -0.011450 -0.029230 1.962220 
# 
# From -- ./inp_files/410655.got.cif
#   From: 2010.05.17/outbox.cif.g08.bks.cpg/sg2_206_cif.got.tgz:410655.got - 2010.06.03 11:33:40.
