data_PCOD9057239
_publ_section_title
;
Structure prediction by ZEFSAII (Michael W. Deem and Ramdas Pophale) SiO2 
 PCOD9057239
Probable space group: P -1
;
_chemical_formula_sum "Si O2"
_cell_formula_units_Z 16
_cell_length_a 5.160914
_cell_length_b 27.082876
_cell_length_c 7.123239
_cell_angle_alpha 39.950112
_cell_angle_beta 90.354522
_cell_angle_gamma 83.188422
_cell_volume 627.396838
_symmetry_space_group_name_H-M "P -1"
_symmetry_group_IT_number 2
_symmetry_cell_setting 'triclinic'
loop_
_space_group_symop_operation_xyz
x,y,z
-x,-y,-z
loop_
_atom_site_type_symbol
_atom_site_label
_atom_site_fract_x
_atom_site_fract_y
_atom_site_fract_z
Si Si1 0.668367 0.278881 0.737380
Si Si2 0.713170 0.970330 0.750021
Si Si3 0.024167 0.886015 0.665448
Si Si4 0.266895 0.752402 0.615186
Si Si5 0.452278 0.584639 0.154778
Si Si6 0.301707 0.147688 0.585862
Si Si7 0.029885 0.454558 0.903406
Si Si8 0.885446 0.620010 0.493317
O O1 0.649178 0.266188 0.548421
O O2 0.392372 0.322571 0.696731
O O3 0.892404 0.330026 0.618736
O O4 0.773554 0.195081 0.075124
O O5 0.924591 0.909729 0.806445
O O6 0.500000 0.000000 0.500000
O O7 0.626366 0.925093 0.058109
O O8 0.840690 0.042730 0.607296
O O9 0.790340 0.876915 0.547446
O O10 0.459824 0.806295 0.539198
O O11 0.964741 0.796139 0.501074
O O12 0.303678 0.670174 0.967604
O O13 0.500000 0.500000 0.500000
O O14 0.254738 0.568174 0.037304
O O15 0.745980 0.595902 0.076273
O O16 0.996705 0.545599 0.580014
O O17 0.155231 0.430838 0.174690
#
# Coordination Sequence:
#
# PCOD9057239 Si02
#       8
#     2   2   2   2   2   2   2   2
#     4  12  23  44  72 102 146 190 244 296 367 429
#     4  11  26  50  79 108 150 191 237 294 367 432
#     4  11  28  46  75 115 142 193 239 297 362 434
#     4  12  25  47  71 104 144 199 242 297 365 429
#     4  12  25  42  67  94 144 190 238 299 369 422
#     4  12  28  48  77 109 152 188 246 296 356 434
#     4  11  22  42  63 102 131 181 245 303 357 425
#     4  11  23  39  73  98 134 183 245 307 355 428
#
# _framework density 25.502198
#
# number of rings (size 3 to 8) (size 9 to 14) (size 15 to 20)
#    0.000    0.500    3.750    3.750    5.250    5.500 
#    0.000    0.000    0.000    0.000    0.000    0.000 
#    0.000    0.000    0.000    0.000    0.000    0.000 
#
# Total GULP energy -89584.037442 kJ/mol
# GULP energy per Si atom -5599.002340 kJ/mol
# Density = 2.544415 g / cm^3
# Si number density = 25.502198 Si / 1000 Ang^3
#
#
#
# Elastic Constant Matrix: (Units=GPa)
#
#
# Indices 1 2 3 4 5 6 
#
# 1 124.5278 32.3832 36.3951 -15.9678 11.6683 14.0458
# 2 32.3832 78.3173 49.9705 -12.1564 0.3957 23.7145
# 3 36.3951 49.9705 165.3249 -14.8395 4.5886 12.9701
# 4 -15.9678 -12.1564 -14.8395 43.2144 3.4005 2.8245
# 5 11.6683 0.3957 4.5886 3.4005 45.6603 -9.8888
# 6 14.0458 23.7145 12.9701 2.8245 -9.8888 44.8555
#
#
#
# Elastic Compliance Matrix: (Units=1/GPa)
#
#
# Indices 1 2 3 4 5 6 
#
# 1 0.009865 -0.002210 -0.000935 0.003121 -0.003193 -0.002551
# 2 -0.002210 0.019878 -0.004411 0.003968 -0.001432 -0.009107
# 3 -0.000935 -0.004411 0.007682 0.001079 -0.000528 0.000219
# 4 0.003121 0.003968 0.001079 0.026503 -0.004210 -0.005984
# 5 -0.003193 -0.001432 -0.000528 -0.004210 0.024748 0.007631
# 6 -0.002551 -0.009107 0.000219 -0.005984 0.007631 0.029903
#
#
# Mechanical properties :
#
#
# Convention : Reuss Voigt Hill
#
# Bulk Modulus (GPa) = 44.81646 67.29638 56.05642
# Shear Modulus (GPa) = 35.42859 43.37413 39.40136
#
# Velocity S-wave (km/s) = 3.73129 4.12855 3.93494
# Velocity P-wave (km/s) = 6.01457 7.01230 6.53251
#
# Compressibility (1/GPa) = 0.02231323
#
# Stress axis : x y z
#
# Youngs Moduli (GPa) = 101.36587 50.30743 130.17196
#
# Poissons Ratio (x) = 0.11116 0.12172
# Poissons Ratio (y) = 0.22398 0.57423
# Poissons Ratio (z) = 0.09478 0.22192
#
# Static dielectric constant tensor:
#      x y z
#    x 1.959550 -0.079840 0.017700 
#    y -0.079840 2.143010 0.009510 
#    z 0.017700 0.009510 2.003310 
# 
# From -- ./inp_files/106350.got.cif
#   From: 2010.05.17/outbox.cif.g08.bks.cpg/sg2_54_cif.got.tgz:106350.got - 2010.06.03 11:33:40.
