data_PCOD9057579
_publ_section_title
;
Structure prediction by ZEFSAII (Michael W. Deem and Ramdas Pophale) SiO2 
 PCOD9057579
Probable space group: P -1
;
_chemical_formula_sum "Si O2"
_cell_formula_units_Z 16
_cell_length_a 19.741357
_cell_length_b 13.641917
_cell_length_c 7.136119
_cell_angle_alpha 118.028591
_cell_angle_beta 120.816659
_cell_angle_gamma 21.838328
_cell_volume 613.867835
_symmetry_space_group_name_H-M "P -1"
_symmetry_group_IT_number 2
_symmetry_cell_setting 'triclinic'
loop_
_space_group_symop_operation_xyz
x,y,z
-x,-y,-z
loop_
_atom_site_type_symbol
_atom_site_label
_atom_site_fract_x
_atom_site_fract_y
_atom_site_fract_z
Si Si1 0.522147 0.775409 0.449890
Si Si2 0.490863 0.648877 0.634759
Si Si3 0.104601 0.146607 0.690507
Si Si4 0.914389 0.525800 0.047458
Si Si5 0.094168 0.810018 0.078100
Si Si6 0.924151 0.157594 0.399404
Si Si7 0.093239 0.571845 0.706309
Si Si8 0.538981 0.010048 0.795889
O O1 0.448043 0.778207 0.499764
O O2 0.715359 0.471285 0.388873
O O3 0.414324 0.959988 0.277062
O O4 0.570187 0.837658 0.650966
O O5 0.500000 0.500000 0.500000
O O6 0.687144 0.444030 0.806749
O O7 0.322907 0.891083 0.757465
O O8 0.990931 0.316824 0.867901
O O9 0.083520 0.046984 0.508994
O O10 0.987762 0.350409 0.540238
O O11 0.692671 0.832129 0.012099
O O12 0.974607 0.438053 0.263893
O O13 0.000000 0.500000 0.000000
O O14 0.048519 0.882090 0.341304
O O15 0.035080 0.761989 0.892308
O O16 0.917656 0.125567 0.122401
O O17 0.317930 0.298727 0.772710
#
# Coordination Sequence:
#
# PCOD9057579 Si02
#       8
#     2   2   2   2   2   2   2   2
#     4  11  22  42  76 105 139 195 250 298 360 453
#     4  12  25  42  71 110 150 192 241 308 382 433
#     4  12  25  48  69 106 151 190 238 304 381 433
#     4  12  29  45  69 110 149 188 241 309 372 441
#     4  12  23  42  71 105 142 186 253 298 352 443
#     4  12  20  43  73 101 139 190 243 305 354 431
#     4  12  26  48  77 104 144 198 251 301 366 450
#     4  11  23  46  71 106 142 192 252 301 362 442
#
# _framework density 26.064243000000001
#
# number of rings (size 3 to 8) (size 9 to 14) (size 15 to 20)
#    0.000    0.250    6.250    2.625    5.250    0.500 
#    0.000    0.000    0.000    4.500    0.000    0.000 
#    0.000    0.000    0.000    0.000    0.000    0.000 
#
# Total GULP energy -89137.843161 kJ/mol
# GULP energy per Si atom -5571.115198 kJ/mol
# Density = 2.600492 g / cm^3
# Si number density = 26.064243 Si / 1000 Ang^3
#
#
#
# Elastic Constant Matrix: (Units=GPa)
#
#
# Indices 1 2 3 4 5 6 
#
# 1 147.4651 24.7492 36.7522 -7.1003 -28.1108 34.7082
# 2 24.7492 95.3188 19.9371 2.6903 -11.2586 11.6468
# 3 36.7522 19.9371 96.5089 6.7534 -10.2853 21.9783
# 4 -7.1003 2.6903 6.7534 37.6069 20.2809 9.2710
# 5 -28.1108 -11.2586 -10.2853 20.2809 54.9144 -2.0794
# 6 34.7082 11.6468 21.9783 9.2710 -2.0794 34.0965
#
#
#
# Elastic Compliance Matrix: (Units=1/GPa)
#
#
# Indices 1 2 3 4 5 6 
#
# 1 0.010416 -0.000873 -0.001338 0.002869 0.003463 -0.010011
# 2 -0.000873 0.011494 -0.001334 -0.001505 0.002154 -0.001636
# 3 -0.001338 -0.001334 0.012818 -0.002127 0.002010 -0.005744
# 4 0.002869 -0.001505 -0.002127 0.038053 -0.013754 -0.012221
# 5 0.003463 0.002154 0.002010 -0.013754 0.025872 -0.000239
# 6 -0.010011 -0.001636 -0.005744 -0.012221 -0.000239 0.047089
#
#
# Mechanical properties :
#
#
# Convention : Reuss Voigt Hill
#
# Bulk Modulus (GPa) = 36.18401 55.79666 45.99034
# Shear Modulus (GPa) = 30.85572 42.51385 36.68479
#
# Velocity S-wave (km/s) = 3.44442 4.04309 3.75570
# Velocity P-wave (km/s) = 5.45266 6.57642 6.04073
#
# Compressibility (1/GPa) = 0.02763651
#
# Stress axis : x y z
#
# Youngs Moduli (GPa) = 96.00662 87.00387 78.01500
#
# Poissons Ratio (x) = 0.07598 0.10438
# Poissons Ratio (y) = 0.08384 0.10410
# Poissons Ratio (z) = 0.12846 0.11609
#
# Static dielectric constant tensor:
#      x y z
#    x 2.842670 0.018650 -1.012100 
#    y 0.018650 2.123910 0.204600 
#    z -1.012100 0.204600 3.443310 
# 
# From -- ./inp_files/347664.got.cif
#   From: 2010.05.17/outbox.cif.g08.bks.cpg/sg2_174_cif.got.tgz:347664.got - 2010.06.03 11:33:40.
