data_PCOD9057443
_publ_section_title
;
Structure prediction by ZEFSAII (Michael W. Deem and Ramdas Pophale) SiO2 
 PCOD9057443
Probable space group: P -1
;
_chemical_formula_sum "Si O2"
_cell_formula_units_Z 14
_cell_length_a 9.634630
_cell_length_b 12.540054
_cell_length_c 10.707118
_cell_angle_alpha 71.343370
_cell_angle_beta 70.986918
_cell_angle_gamma 130.387077
_cell_volume 629.290699
_symmetry_space_group_name_H-M "P -1"
_symmetry_group_IT_number 2
_symmetry_cell_setting 'triclinic'
loop_
_space_group_symop_operation_xyz
x,y,z
-x,-y,-z
loop_
_atom_site_type_symbol
_atom_site_label
_atom_site_fract_x
_atom_site_fract_y
_atom_site_fract_z
Si Si1 0.320327 0.759494 0.387812
Si Si2 0.303743 0.946724 0.489837
Si Si3 0.624196 0.283347 0.065643
Si Si4 0.111753 0.693001 0.227089
Si Si5 0.867656 0.029769 0.864902
Si Si6 0.788492 0.641039 0.909793
Si Si7 0.858191 0.999601 0.165319
O O1 0.190542 0.783176 0.484105
O O2 0.343125 0.809493 0.217422
O O3 0.606483 0.915199 0.305424
O O4 0.138999 0.534915 0.553865
O O5 0.042290 0.832956 0.673247
O O6 0.500000 0.000000 0.500000
O O7 0.494499 0.152297 0.278742
O O8 0.373092 0.142630 0.097510
O O9 0.808634 0.310519 0.927633
O O10 0.774687 0.496791 0.969232
O O11 0.065716 0.796007 0.206734
O O12 0.110911 0.099776 0.737124
O O13 0.799019 0.943682 0.057038
O O14 0.500000 0.500000 0.000000
O O15 0.875403 0.756676 0.970210
#
# Coordination Sequence:
#
# PCOD9057443 Si02
#       7
#     2   2   2   2   2   2   2
#     4  11  22  42  70 106 142 178 240 299 343 417
#     4  12  26  44  71 103 141 184 242 294 345 427
#     4  12  24  45  75 102 139 190 235 284 362 420
#     4  11  23  41  74 105 136 187 235 290 356 421
#     4  11  23  43  70 100 134 186 233 291 353 418
#     4  12  27  48  70 102 146 191 230 293 365 424
#     4  11  24  44  69 101 142 181 236 298 346 416
#
# _framework density 22.247271000000001
#
# number of rings (size 3 to 8) (size 9 to 14) (size 15 to 20)
#    0.000    0.571    7.143    1.286    0.000    2.857 
#    0.000    0.000    0.000    0.000    0.000    0.000 
#    0.000    0.000    0.000    0.000    0.000    0.000 
#
# Total GULP energy -78182.347093 kJ/mol
# GULP energy per Si atom -5584.453364 kJ/mol
# Density = 2.219664 g / cm^3
# Si number density = 22.247271 Si / 1000 Ang^3
#
#
#
# Elastic Constant Matrix: (Units=GPa)
#
#
# Indices 1 2 3 4 5 6 
#
# 1 116.0363 26.8033 36.2451 -4.9818 3.1409 -6.3270
# 2 26.8033 78.9505 20.7526 -3.2259 4.7396 -4.6483
# 3 36.2451 20.7526 81.3220 11.9641 11.5376 1.9271
# 4 -4.9818 -3.2259 11.9641 27.7689 -7.1908 1.8261
# 5 3.1409 4.7396 11.5376 -7.1908 35.9544 -10.9164
# 6 -6.3270 -4.6483 1.9271 1.8261 -10.9164 47.8348
#
#
#
# Elastic Compliance Matrix: (Units=1/GPa)
#
#
# Indices 1 2 3 4 5 6 
#
# 1 0.011058 -0.002172 -0.005465 0.004628 0.002571 0.001882
# 2 -0.002172 0.014395 -0.003142 0.002605 0.000180 0.001180
# 3 -0.005465 -0.003142 0.018429 -0.011208 -0.008242 -0.003224
# 4 0.004628 0.002605 -0.011208 0.045077 0.012616 0.002475
# 5 0.002571 0.000180 -0.008242 0.012616 0.035238 0.008250
# 6 0.001882 0.001180 -0.003224 0.002475 0.008250 0.023187
#
#
# Mechanical properties :
#
#
# Convention : Reuss Voigt Hill
#
# Bulk Modulus (GPa) = 44.79413 49.32343 47.05878
# Shear Modulus (GPa) = 28.34753 35.14549 31.74651
#
# Velocity S-wave (km/s) = 3.57347 3.97894 3.78164
# Velocity P-wave (km/s) = 6.09956 6.58240 6.34557
#
# Compressibility (1/GPa) = 0.02232435
#
# Stress axis : x y z
#
# Youngs Moduli (GPa) = 90.42920 69.47037 54.26299
#
# Poissons Ratio (x) = 0.15091 0.29652
# Poissons Ratio (y) = 0.19644 0.17049
# Poissons Ratio (z) = 0.49415 0.21827
#
# Static dielectric constant tensor:
#      x y z
#    x 1.872830 -0.035220 -0.078740 
#    y -0.035220 1.917280 0.072560 
#    z -0.078740 0.072560 1.902610 
# 
# From -- ./inp_files/397181.got.cif
#   From: 2010.05.17/outbox.cif.g08.bks.cpg/sg2_199_cif.got.tgz:397181.got - 2010.06.03 11:33:40.
