data_PCOD9057476
_publ_section_title
;
Structure prediction by ZEFSAII (Michael W. Deem and Ramdas Pophale) SiO2 
 PCOD9057476
Probable space group: P -1
;
_chemical_formula_sum "Si O2"
_cell_formula_units_Z 15
_cell_length_a 9.061167
_cell_length_b 7.890490
_cell_length_c 19.719933
_cell_angle_alpha 146.191656
_cell_angle_beta 58.991363
_cell_angle_gamma 122.478730
_cell_volume 654.612123
_symmetry_space_group_name_H-M "P -1"
_symmetry_group_IT_number 2
_symmetry_cell_setting 'triclinic'
loop_
_space_group_symop_operation_xyz
x,y,z
-x,-y,-z
loop_
_atom_site_type_symbol
_atom_site_label
_atom_site_fract_x
_atom_site_fract_y
_atom_site_fract_z
Si Si1 0.988388 0.357543 0.118629
Si Si2 0.342544 0.669152 0.075348
Si Si3 0.500000 0.500000 0.500000
Si Si4 0.551512 0.615084 0.752778
Si Si5 0.266323 0.465765 0.874463
Si Si6 0.263616 0.410257 0.645266
Si Si7 0.866542 0.279036 0.547027
Si Si8 0.207827 0.766448 0.608163
O O1 0.183064 0.577209 0.136006
O O2 0.868678 0.401686 0.096802
O O3 0.890057 0.450319 0.238771
O O4 0.000000 0.000000 0.000000
O O5 0.410632 0.040219 0.173732
O O6 0.500000 0.500000 0.000000
O O7 0.262456 0.547283 0.980772
O O8 0.377941 0.605365 0.623800
O O9 0.392903 0.665094 0.525234
O O10 0.463014 0.606599 0.844834
O O11 0.397440 0.402585 0.673450
O O12 0.724428 0.478681 0.665647
O O13 0.221984 0.094672 0.750182
O O14 0.188494 0.060225 0.518927
O O15 0.858839 0.207504 0.444467
O O16 0.060098 0.488368 0.583949
#
# Coordination Sequence:
#
# PCOD9057476 Si02
#       8
#     2   2   1   2   2   2   2   2
#     4  11  25  47  71 101 141 191 240 297 354 420
#     4  12  27  45  71 104 142 191 244 294 354 425
#     4  12  26  42  70 104 146 182 228 292 364 414
#     4  11  22  42  71 104 136 186 235 298 350 422
#     4  11  24  47  72 103 140 191 239 291 360 418
#     4  11  24  45  71 101 144 181 234 294 360 416
#     4  11  22  45  71 104 136 185 234 284 364 427
#     4  11  24  41  74 104 140 183 233 293 353 432
#
# _framework density 22.914334
#
# number of rings (size 3 to 8) (size 9 to 14) (size 15 to 20)
#    0.000    0.800    4.000    4.400    5.600    0.533 
#    2.400    0.000    0.000    0.000    0.000    0.000 
#    0.000    0.000    0.000    0.000    0.000    0.000 
#
# Total GULP energy -83744.290556 kJ/mol
# GULP energy per Si atom -5582.952704 kJ/mol
# Density = 2.286218 g / cm^3
# Si number density = 22.914334 Si / 1000 Ang^3
#
#
#
# Elastic Constant Matrix: (Units=GPa)
#
#
# Indices 1 2 3 4 5 6 
#
# 1 83.8003 13.7299 46.6104 11.7349 -20.9999 1.4938
# 2 13.7299 86.2351 56.5894 0.8320 -3.9003 1.1184
# 3 46.6104 56.5894 118.5443 6.6919 -28.8851 5.9932
# 4 11.7349 0.8320 6.6919 65.1402 -5.6279 -2.5976
# 5 -20.9999 -3.9003 -28.8851 -5.6279 35.7435 2.7432
# 6 1.4938 1.1184 5.9932 -2.5976 2.7432 25.8928
#
#
#
# Elastic Compliance Matrix: (Units=1/GPa)
#
#
# Indices 1 2 3 4 5 6 
#
# 1 0.016441 0.001476 -0.005872 -0.001978 0.004792 -0.000359
# 2 0.001476 0.018189 -0.010873 0.000185 -0.006082 0.002309
# 3 -0.005872 -0.010873 0.018841 0.000020 0.010954 -0.004711
# 4 -0.001978 0.000185 0.000020 0.015874 0.001254 0.001561
# 5 0.004792 -0.006082 0.010954 0.001254 0.039687 -0.006628
# 6 -0.000359 0.002309 -0.004711 0.001561 -0.006628 0.040491
#
#
# Mechanical properties :
#
#
# Convention : Reuss Voigt Hill
#
# Bulk Modulus (GPa) = 43.60217 58.04879 50.82548
# Shear Modulus (GPa) = 26.63756 36.79864 31.71810
#
# Velocity S-wave (km/s) = 3.41322 4.01174 3.72452
# Velocity P-wave (km/s) = 5.88244 6.84447 6.38161
#
# Compressibility (1/GPa) = 0.02293464
#
# Stress axis : x y z
#
# Youngs Moduli (GPa) = 60.82217 54.97769 53.07629
#
# Poissons Ratio (x) = -0.08114 0.31165
# Poissons Ratio (y) = -0.08977 0.57707
# Poissons Ratio (z) = 0.35713 0.59775
#
# Static dielectric constant tensor:
#      x y z
#    x 1.859020 -0.007580 0.031650 
#    y -0.007580 1.933840 -0.016480 
#    z 0.031650 -0.016480 1.802540 
# 
# From -- ./inp_files/329579.got.cif
#   From: 2010.05.17/outbox.cif.g08.bks.cpg/sg2_165_cif.got.tgz:329579.got - 2010.06.03 11:33:40.
