data_PCOD9057496
_publ_section_title
;
Structure prediction by ZEFSAII (Michael W. Deem and Ramdas Pophale) SiO2 
 PCOD9057496
Probable space group: P -1
;
_chemical_formula_sum "Si O2"
_cell_formula_units_Z 14
_cell_length_a 8.567837
_cell_length_b 5.157678
_cell_length_c 12.691645
_cell_angle_alpha 70.502378
_cell_angle_beta 84.103157
_cell_angle_gamma 78.802254
_cell_volume 518.183183
_symmetry_space_group_name_H-M "P -1"
_symmetry_group_IT_number 2
_symmetry_cell_setting 'triclinic'
loop_
_space_group_symop_operation_xyz
x,y,z
-x,-y,-z
loop_
_atom_site_type_symbol
_atom_site_label
_atom_site_fract_x
_atom_site_fract_y
_atom_site_fract_z
Si Si1 0.115242 0.957768 0.098353
Si Si2 0.652343 0.096433 0.420719
Si Si3 0.666534 0.773378 0.813547
Si Si4 0.618937 0.433191 0.665559
Si Si5 0.828870 0.785146 0.251641
Si Si6 0.861194 0.371627 0.471752
Si Si7 0.620422 0.117026 0.050860
O O1 0.195553 0.204362 0.112064
O O2 0.000693 0.872604 0.207680
O O3 0.262752 0.763593 0.054379
O O4 0.000000 0.000000 0.000000
O O5 0.562247 0.410394 0.354485
O O6 0.807667 0.074757 0.489484
O O7 0.500000 0.000000 0.500000
O O8 0.723290 0.947018 0.330451
O O9 0.631102 0.105450 0.735398
O O10 0.697709 0.591580 0.731094
O O11 0.498731 0.710326 0.881544
O O12 0.711951 0.471515 0.546559
O O13 0.868417 0.476938 0.336554
O O14 0.728430 0.868226 0.142012
O O15 0.000000 0.500000 0.500000
O O16 0.500000 0.000000 0.000000
#
# Coordination Sequence:
#
# PCOD9057496 Si02
#       7
#     2   2   2   2   2   2   2
#     4   9  21  43  72  99 144 188 245 306 372 430
#     4  12  25  44  70 104 145 194 247 297 363 441
#     4  11  23  44  75 105 144 188 247 303 366 437
#     4  12  25  44  73 108 144 191 244 297 365 447
#     4  11  22  42  71  97 144 187 240 296 371 427
#     4  12  28  43  68 106 149 194 239 299 366 450
#     4   9  19  41  71 101 132 182 243 303 359 427
#
# _framework density 27.017468999999998
#
# number of rings (size 3 to 8) (size 9 to 14) (size 15 to 20)
#    0.000    1.143    2.857    3.000    2.000    0.571 
#    0.000    7.143   12.571    0.000    0.000    0.000 
#    0.000    0.000    0.000    0.000    0.000    0.000 
#
# Total GULP energy -78109.034811 kJ/mol
# GULP energy per Si atom -5579.216772 kJ/mol
# Density = 2.695598 g / cm^3
# Si number density = 27.017469 Si / 1000 Ang^3
#
#
#
# Elastic Constant Matrix: (Units=GPa)
#
#
# Indices 1 2 3 4 5 6 
#
# 1 160.1527 21.3893 39.8057 2.2747 -10.3160 38.1985
# 2 21.3893 96.3158 32.4783 11.9256 -1.1442 14.4869
# 3 39.8057 32.4783 153.4684 9.7059 -19.8867 19.1371
# 4 2.2747 11.9256 9.7059 33.0263 3.1567 2.0369
# 5 -10.3160 -1.1442 -19.8867 3.1567 69.4807 10.2819
# 6 38.1985 14.4869 19.1371 2.0369 10.2819 43.6840
#
#
#
# Elastic Compliance Matrix: (Units=1/GPa)
#
#
# Indices 1 2 3 4 5 6 
#
# 1 0.008399 -0.000450 -0.000916 0.000106 0.002050 -0.007281
# 2 -0.000450 0.011944 -0.001835 -0.003595 0.000158 -0.002633
# 3 -0.000916 -0.001835 0.007900 -0.001681 0.002552 -0.002573
# 4 0.000106 -0.003595 -0.001681 0.032214 -0.002111 0.000831
# 5 0.002050 0.000158 0.002552 -0.002111 0.016525 -0.006754
# 6 -0.007281 -0.002633 -0.002573 0.000831 -0.006754 0.032810
#
#
# Mechanical properties :
#
#
# Convention : Reuss Voigt Hill
#
# Bulk Modulus (GPa) = 45.78550 66.36483 56.07516
# Shear Modulus (GPa) = 40.49379 50.32247 45.40813
#
# Velocity S-wave (km/s) = 3.87563 4.32046 4.10408
# Velocity P-wave (km/s) = 6.08365 7.03601 6.57709
#
# Compressibility (1/GPa) = 0.02184097
#
# Stress axis : x y z
#
# Youngs Moduli (GPa) = 119.06033 83.72201 126.58401
#
# Poissons Ratio (x) = 0.03766 0.11601
# Poissons Ratio (y) = 0.05356 0.23226
# Poissons Ratio (z) = 0.10911 0.15362
#
# Static dielectric constant tensor:
#      x y z
#    x 2.181250 -0.018970 0.059270 
#    y -0.018970 2.362830 -0.129650 
#    z 0.059270 -0.129650 2.199680 
# 
# From -- ./inp_files/372925.got.cif
#   From: 2010.05.17/outbox.cif.g08.bks.cpg/sg2_187_cif.got.tgz:372925.got - 2010.06.03 11:33:40.
