data_PCOD9057964
_publ_section_title
;
Structure prediction by ZEFSAII (Michael W. Deem and Ramdas Pophale) SiO2 
 PCOD9057964
Probable space group: P -1
;
_chemical_formula_sum "Si O2"
_cell_formula_units_Z 16
_cell_length_a 9.471318
_cell_length_b 14.294180
_cell_length_c 10.939467
_cell_angle_alpha 150.384650
_cell_angle_beta 83.039995
_cell_angle_gamma 107.035606
_cell_volume 671.257243
_symmetry_space_group_name_H-M "P -1"
_symmetry_group_IT_number 2
_symmetry_cell_setting 'triclinic'
loop_
_space_group_symop_operation_xyz
x,y,z
-x,-y,-z
loop_
_atom_site_type_symbol
_atom_site_label
_atom_site_fract_x
_atom_site_fract_y
_atom_site_fract_z
Si Si1 0.208687 0.460839 0.217668
Si Si2 0.825987 0.926935 0.093661
Si Si3 0.865823 0.409950 0.241224
Si Si4 0.646729 0.141553 0.478806
Si Si5 0.323199 0.874732 0.271882
Si Si6 0.167893 0.202580 0.411554
Si Si7 0.674564 0.033282 0.991853
Si Si8 0.162951 0.182969 0.668290
O O1 0.329512 0.684596 0.426336
O O2 0.048808 0.471904 0.292341
O O3 0.246336 0.312197 0.138364
O O4 0.184847 0.341925 0.955114
O O5 0.780636 0.057394 0.348784
O O6 0.010458 0.010030 0.175787
O O7 0.757102 0.982274 0.042403
O O8 0.827889 0.611452 0.462319
O O9 0.805850 0.278184 0.973932
O O10 0.773374 0.260121 0.188719
O O11 0.659803 0.217100 0.703181
O O12 0.485043 0.951849 0.272139
O O13 0.286938 0.076122 0.532297
O O14 0.162482 0.262928 0.621642
O O15 0.304948 0.124660 0.288595
O O16 0.500000 0.000000 0.000000
O O17 0.000000 0.000000 0.500000
#
# Coordination Sequence:
#
# PCOD9057964 Si02
#       8
#     2   2   2   2   2   2   2   2
#     4  12  24  42  74 109 137 187 232 286 342 424
#     4  12  24  45  72  99 139 183 236 293 347 411
#     4  12  25  45  75 102 136 186 239 284 353 412
#     4  11  25  42  67 103 145 185 230 283 356 409
#     4  11  22  44  66 101 151 185 222 290 347 419
#     4  12  25  44  74 107 134 186 238 286 344 423
#     4  12  28  50  70  98 143 183 234 301 353 406
#     4  12  20  40  72 101 146 180 226 276 350 411
#
# _framework density 23.835868000000001
#
# number of rings (size 3 to 8) (size 9 to 14) (size 15 to 20)
#    0.000    0.250    7.500    1.875    0.000    3.500 
#    4.500    0.000    0.000    0.000    0.000    0.000 
#    0.000    0.000    0.000    0.000    0.000    0.000 
#
# Total GULP energy -89635.676449 kJ/mol
# GULP energy per Si atom -5602.229778 kJ/mol
# Density = 2.378162 g / cm^3
# Si number density = 23.835868 Si / 1000 Ang^3
#
#
#
# Elastic Constant Matrix: (Units=GPa)
#
#
# Indices 1 2 3 4 5 6 
#
# 1 100.5382 44.0438 15.9702 2.0851 -15.9005 14.2440
# 2 44.0438 178.6471 28.8739 29.2627 -9.0326 -9.6268
# 3 15.9702 28.8739 55.6268 11.2952 -15.1726 5.9520
# 4 2.0851 29.2627 11.2952 46.1696 -13.0182 -6.4107
# 5 -15.9005 -9.0326 -15.1726 -13.0182 31.8660 -5.3922
# 6 14.2440 -9.6268 5.9520 -6.4107 -5.3922 44.7061
#
#
#
# Elastic Compliance Matrix: (Units=1/GPa)
#
#
# Indices 1 2 3 4 5 6 
#
# 1 0.012929 -0.003480 -0.000520 0.002860 0.005761 -0.003694
# 2 -0.003480 0.007645 -0.002980 -0.004316 -0.002371 0.002247
# 3 -0.000520 -0.002980 0.022617 -0.001577 0.008567 -0.002680
# 4 0.002860 -0.004316 -0.001577 0.028503 0.011753 0.003874
# 5 0.005761 -0.002371 0.008567 0.011753 0.043037 0.003390
# 6 -0.003694 0.002247 -0.002680 0.003874 0.003390 0.025350
#
#
# Mechanical properties :
#
#
# Convention : Reuss Voigt Hill
#
# Bulk Modulus (GPa) = 34.20985 56.95422 45.58204
# Shear Modulus (GPa) = 30.52782 40.94328 35.73555
#
# Velocity S-wave (km/s) = 3.58264 4.14903 3.87620
# Velocity P-wave (km/s) = 5.61223 6.84827 6.26083
#
# Compressibility (1/GPa) = 0.02923135
#
# Stress axis : x y z
#
# Youngs Moduli (GPa) = 77.34795 130.79806 44.21499
#
# Poissons Ratio (x) = 0.45514 0.02298
# Poissons Ratio (y) = 0.26915 0.13177
# Poissons Ratio (z) = 0.04020 0.38981
#
# Static dielectric constant tensor:
#      x y z
#    x 1.873770 -0.007670 -0.019550 
#    y -0.007670 1.963210 -0.057620 
#    z -0.019550 -0.057620 1.917880 
# 
# From -- ./inp_files/186392.got.cif
#   From: 2010.05.17/outbox.cif.g08.bks.cpg/sg2_94_cif.got.tgz:186392.got - 2010.06.03 11:33:40.
