data_PCOD9057170
_publ_section_title
;
Structure prediction by ZEFSAII (Michael W. Deem and Ramdas Pophale) SiO2 
 PCOD9057170
Probable space group: P -1
;
_chemical_formula_sum "Si O2"
_cell_formula_units_Z 12
_cell_length_a 12.725828
_cell_length_b 10.011285
_cell_length_c 8.204282
_cell_angle_alpha 78.546713
_cell_angle_beta 131.978938
_cell_angle_gamma 131.113487
_cell_volume 528.327241
_symmetry_space_group_name_H-M "P -1"
_symmetry_group_IT_number 2
_symmetry_cell_setting 'triclinic'
loop_
_space_group_symop_operation_xyz
x,y,z
-x,-y,-z
loop_
_atom_site_type_symbol
_atom_site_label
_atom_site_fract_x
_atom_site_fract_y
_atom_site_fract_z
Si Si1 0.044976 0.443641 0.220131
Si Si2 0.111078 0.426844 0.772359
Si Si3 0.529171 0.435125 0.711311
Si Si4 0.851992 0.021705 0.040582
Si Si5 0.174117 0.003039 0.371758
Si Si6 0.416053 0.615158 0.743096
O O1 0.948069 0.463750 0.261436
O O2 0.284899 0.592679 0.467126
O O3 0.946628 0.227082 0.153195
O O4 0.000000 0.500000 0.000000
O O5 0.268925 0.527005 0.765127
O O6 0.912248 0.196442 0.596775
O O7 0.237247 0.441669 0.046834
O O8 0.500000 0.500000 0.500000
O O9 0.455644 0.486852 0.763226
O O10 0.388546 0.204856 0.612022
O O11 0.815021 0.003393 0.811492
O O12 0.634471 0.835675 0.937755
O O13 0.010497 0.008939 0.237082
#
# Coordination Sequence:
#
# PCOD9057170 Si02
#       6
#     2   2   2   2   2   2
#     4  12  26  46  70  98 136 182 225 275 337 403
#     4  12  27  44  67 106 139 171 223 286 337 389
#     4  12  22  42  73 100 129 181 229 269 324 407
#     4  11  23  42  72 100 132 178 228 272 332 403
#     4  11  22  41  72 102 131 176 228 273 329 402
#     4  12  26  44  70 101 141 172 223 285 337 390
#
# _framework density 22.713194000000001
#
# number of rings (size 3 to 8) (size 9 to 14) (size 15 to 20)
#    0.000    0.333    6.667    3.000    0.000    4.667 
#    0.000    0.000    0.000    0.000    0.000    0.000 
#    0.000    0.000    0.000    0.000    0.000    0.000 
#
# Total GULP energy -67260.800699 kJ/mol
# GULP energy per Si atom -5605.066725 kJ/mol
# Density = 2.266150 g / cm^3
# Si number density = 22.713194 Si / 1000 Ang^3
#
#
#
# Elastic Constant Matrix: (Units=GPa)
#
#
# Indices 1 2 3 4 5 6 
#
# 1 127.0592 44.7003 -7.6342 13.0752 -3.1804 -22.7789
# 2 44.7003 114.9753 11.4700 35.6651 -10.0214 -10.7492
# 3 -7.6342 11.4700 58.5137 8.4956 7.6616 -7.3864
# 4 13.0752 35.6651 8.4956 44.8153 -0.2026 0.1448
# 5 -3.1804 -10.0214 7.6616 -0.2026 23.4550 0.1978
# 6 -22.7789 -10.7492 -7.3864 0.1448 0.1978 46.8728
#
#
#
# Elastic Compliance Matrix: (Units=1/GPa)
#
#
# Indices 1 2 3 4 5 6 
#
# 1 0.010213 -0.003767 0.002885 -0.000549 -0.001210 0.004561
# 2 -0.003767 0.014010 -0.002542 -0.009544 0.006214 0.000985
# 3 0.002885 -0.002542 0.019791 -0.002616 -0.007216 0.003976
# 4 -0.000549 -0.009544 -0.002616 0.030561 -0.003009 -0.002949
# 5 -0.001210 0.006214 -0.007216 -0.003009 0.047461 -0.000491
# 6 0.004561 0.000985 0.003976 -0.002949 -0.000491 0.024414
#
#
# Mechanical properties :
#
#
# Convention : Reuss Voigt Hill
#
# Bulk Modulus (GPa) = 26.90650 44.18006 35.54328
# Shear Modulus (GPa) = 30.17748 39.82943 35.00346
#
# Velocity S-wave (km/s) = 3.64900 4.19212 3.92995
# Velocity P-wave (km/s) = 5.44293 6.55174 6.02291
#
# Compressibility (1/GPa) = 0.03716574
#
# Stress axis : x y z
#
# Youngs Moduli (GPa) = 97.91635 71.37852 50.52760
#
# Poissons Ratio (x) = 0.26890 -0.14576
# Poissons Ratio (y) = 0.36888 0.12842
# Poissons Ratio (z) = -0.28246 0.18141
#
# Static dielectric constant tensor:
#      x y z
#    x 1.840900 0.023300 -0.063770 
#    y 0.023300 1.812830 -0.056580 
#    z -0.063770 -0.056580 1.897340 
# 
# From -- ./inp_files/148649.got.cif
#   From: 2010.05.17/outbox.cif.g08.bks.cpg/sg2_75_cif.got.tgz:148649.got - 2010.06.03 11:33:40.
