data_PCOD9057681
_publ_section_title
;
Structure prediction by ZEFSAII (Michael W. Deem and Ramdas Pophale) SiO2 
 PCOD9057681
Probable space group: P -1
;
_chemical_formula_sum "Si O2"
_cell_formula_units_Z 16
_cell_length_a 6.568924
_cell_length_b 12.015315
_cell_length_c 17.023515
_cell_angle_alpha 51.091672
_cell_angle_beta 70.549402
_cell_angle_gamma 45.821566
_cell_volume 736.520129
_symmetry_space_group_name_H-M "P -1"
_symmetry_group_IT_number 2
_symmetry_cell_setting 'triclinic'
loop_
_space_group_symop_operation_xyz
x,y,z
-x,-y,-z
loop_
_atom_site_type_symbol
_atom_site_label
_atom_site_fract_x
_atom_site_fract_y
_atom_site_fract_z
Si Si1 0.024831 0.399890 0.225858
Si Si2 0.388535 0.978234 0.103729
Si Si3 0.096342 0.275736 0.720469
Si Si4 0.603257 0.486426 0.905728
Si Si5 0.651675 0.290526 0.852518
Si Si6 0.855619 0.216691 0.640763
Si Si7 0.965252 0.833606 0.794550
Si Si8 0.823512 0.443272 0.405339
O O1 0.178337 0.480234 0.149650
O O2 0.149429 0.219403 0.235225
O O3 0.689982 0.570340 0.172234
O O4 0.000036 0.367156 0.334888
O O5 0.654712 0.846491 0.190391
O O6 0.250900 0.890211 0.129092
O O7 0.153315 0.161434 0.106609
O O8 0.500000 0.000000 0.000000
O O9 0.105702 0.433903 0.620289
O O10 0.800295 0.363599 0.763172
O O11 0.088775 0.172845 0.692978
O O12 0.712396 0.292408 0.935558
O O13 0.308819 0.669018 0.820819
O O14 0.500000 0.500000 0.000000
O O15 0.896086 0.282251 0.524941
O O16 0.526796 0.400184 0.629879
O O17 0.875761 0.037906 0.706848
#
# Coordination Sequence:
#
# PCOD9057681 Si02
#       8
#     2   2   2   2   2   2   2   2
#     4  11  23  44  65  95 134 177 215 276 328 400
#     4  12  27  41  68  99 134 176 223 281 335 389
#     4  12  20  43  69  97 133 171 226 273 330 394
#     4  11  27  42  70  93 130 184 226 268 335 404
#     4  11  22  43  68  91 133 172 221 269 331 393
#     4  11  24  43  70 102 131 175 222 284 335 391
#     4  11  26  42  61 100 139 169 220 283 329 389
#     4  11  22  43  73  99 129 178 226 271 341 401
#
# _framework density 21.723780000000001
#
# number of rings (size 3 to 8) (size 9 to 14) (size 15 to 20)
#    0.000    0.750    6.250    0.375    7.000    2.000 
#    0.000    0.625    0.000    0.000    0.000    0.000 
#    0.000    0.000    0.000    0.000    0.000    0.000 
#
# Total GULP energy -89305.986873 kJ/mol
# GULP energy per Si atom -5581.624180 kJ/mol
# Density = 2.167434 g / cm^3
# Si number density = 21.723780 Si / 1000 Ang^3
#
#
#
# Elastic Constant Matrix: (Units=GPa)
#
#
# Indices 1 2 3 4 5 6 
#
# 1 131.3718 47.2290 48.5801 15.1418 -8.2314 9.5089
# 2 47.2290 97.9790 28.1403 21.4002 4.3481 18.0252
# 3 48.5801 28.1403 109.4623 22.5259 -5.7947 4.9347
# 4 15.1418 21.4002 22.5259 35.3449 -7.9182 2.6635
# 5 -8.2314 4.3481 -5.7947 -7.9182 25.7152 9.2287
# 6 9.5089 18.0252 4.9347 2.6635 9.2287 51.1379
#
#
#
# Elastic Compliance Matrix: (Units=1/GPa)
#
#
# Indices 1 2 3 4 5 6 
#
# 1 0.010719 -0.004447 -0.003647 0.001414 0.004116 -0.000890
# 2 -0.004447 0.014986 -0.000404 -0.007890 -0.005390 -0.003033
# 3 -0.003647 -0.000404 0.012067 -0.005930 -0.000207 0.000002
# 4 0.001414 -0.007890 -0.005930 0.039255 0.013005 -0.001301
# 5 0.004116 -0.005390 -0.000207 0.013005 0.048013 -0.008188
# 6 -0.000890 -0.003033 0.000002 -0.001301 -0.008188 0.022335
#
#
# Mechanical properties :
#
#
# Convention : Reuss Voigt Hill
#
# Bulk Modulus (GPa) = 48.13076 65.19020 56.66048
# Shear Modulus (GPa) = 29.18933 36.76383 32.97658
#
# Velocity S-wave (km/s) = 3.66957 4.11826 3.90037
# Velocity P-wave (km/s) = 6.33705 7.25860 6.81342
#
# Compressibility (1/GPa) = 0.02077674
#
# Stress axis : x y z
#
# Youngs Moduli (GPa) = 93.29563 66.72719 82.86957
#
# Poissons Ratio (x) = 0.29674 0.30220
# Poissons Ratio (y) = 0.41489 0.03347
# Poissons Ratio (z) = 0.34022 0.02695
#
# Static dielectric constant tensor:
#      x y z
#    x 1.815600 0.018180 0.040540 
#    y 0.018180 1.855410 0.006810 
#    z 0.040540 0.006810 1.814010 
# 
# From -- ./inp_files/99632.got.cif
#   From: 2010.05.17/outbox.cif.g08.bks.cpg/sg2_50_cif.got.tgz:99632.got - 2010.06.03 11:33:40.
