data_PCOD9057075
_publ_section_title
;
Structure prediction by ZEFSAII (Michael W. Deem and Ramdas Pophale) SiO2 
 PCOD9057075
Probable space group: P -1
;
_chemical_formula_sum "Si O2"
_cell_formula_units_Z 16
_cell_length_a 7.151274
_cell_length_b 10.780166
_cell_length_c 12.018565
_cell_angle_alpha 95.945808
_cell_angle_beta 132.516732
_cell_angle_gamma 84.000770
_cell_volume 678.502952
_symmetry_space_group_name_H-M "P -1"
_symmetry_group_IT_number 2
_symmetry_cell_setting 'triclinic'
loop_
_space_group_symop_operation_xyz
x,y,z
-x,-y,-z
loop_
_atom_site_type_symbol
_atom_site_label
_atom_site_fract_x
_atom_site_fract_y
_atom_site_fract_z
Si Si1 0.288498 0.570763 0.778485
Si Si2 0.948001 0.078847 0.377381
Si Si3 0.402867 0.727293 0.643275
Si Si4 0.883955 0.284978 0.827214
Si Si5 0.554538 0.849917 0.498624
Si Si6 0.799464 0.454535 0.611648
Si Si7 0.705196 0.896159 0.114194
Si Si8 0.411569 0.685480 0.068714
O O1 0.445353 0.617556 0.739788
O O2 0.405864 0.434090 0.841768
O O3 0.987716 0.551135 0.643564
O O4 0.315928 0.662041 0.902984
O O5 0.695741 0.160601 0.308134
O O6 0.175845 0.165907 0.453345
O O7 0.917859 0.979778 0.259731
O O8 0.000000 0.000000 0.500000
O O9 0.574790 0.785249 0.622685
O O10 0.188576 0.668301 0.473040
O O11 0.658615 0.212845 0.667484
O O12 0.894166 0.410489 0.768032
O O13 0.803866 0.306955 0.923622
O O14 0.145343 0.201833 0.915396
O O15 0.500000 0.000000 0.500000
O O16 0.500000 0.500000 0.500000
O O17 0.566752 0.810686 0.139854
O O18 0.500000 0.000000 0.000000
#
# Coordination Sequence:
#
# PCOD9057075 Si02
#       8
#     2   2   2   2   2   2   2   2
#     4  11  25  48  70 103 144 191 241 295 363 425
#     4  12  23  42  74 105 145 188 233 302 367 427
#     4  11  25  41  69 108 142 179 232 295 356 433
#     4  11  24  45  73 101 142 190 237 299 363 427
#     4  11  22  41  69 109 139 180 233 293 365 418
#     4  11  24  45  72 110 142 182 238 301 366 430
#     4  12  26  48  69 105 145 189 247 293 359 441
#     4  11  26  49  73  96 145 196 240 295 354 434
#
# _framework density 23.581325
#
# number of rings (size 3 to 8) (size 9 to 14) (size 15 to 20)
#    0.000    0.750    3.750    3.375    5.250    1.000 
#    4.500    0.000    0.000    0.000    0.000    0.000 
#    0.000    0.000    0.000    0.000    0.000    0.000 
#
# Total GULP energy -89433.766678 kJ/mol
# GULP energy per Si atom -5589.610417 kJ/mol
# Density = 2.352765 g / cm^3
# Si number density = 23.581325 Si / 1000 Ang^3
#
#
#
# Elastic Constant Matrix: (Units=GPa)
#
#
# Indices 1 2 3 4 5 6 
#
# 1 154.3790 33.6062 37.1581 -21.7641 -15.0640 9.7933
# 2 33.6062 93.0397 18.3451 -19.3180 -3.7862 17.1255
# 3 37.1581 18.3451 56.7136 -13.5738 -9.0117 8.7120
# 4 -21.7641 -19.3180 -13.5738 33.7631 4.3641 -5.3293
# 5 -15.0640 -3.7862 -9.0117 4.3641 37.3713 -3.5252
# 6 9.7933 17.1255 8.7120 -5.3293 -3.5252 44.8982
#
#
#
# Elastic Compliance Matrix: (Units=1/GPa)
#
#
# Indices 1 2 3 4 5 6 
#
# 1 0.008350 -0.001610 -0.004026 0.002598 0.001932 0.000034
# 2 -0.001610 0.013461 -0.001480 0.005540 -0.000656 -0.003890
# 3 -0.004026 -0.001480 0.022736 0.004981 0.002925 -0.002148
# 4 0.002598 0.005540 0.004981 0.036745 -0.001424 0.000603
# 5 0.001932 -0.000656 0.002925 -0.001424 0.028468 0.001327
# 6 0.000034 -0.003890 -0.002148 0.000603 0.001327 0.024342
#
#
# Mechanical properties :
#
#
# Convention : Reuss Voigt Hill
#
# Bulk Modulus (GPa) = 32.98825 53.59454 43.29140
# Shear Modulus (GPa) = 31.55795 37.54137 34.54966
#
# Velocity S-wave (km/s) = 3.66219 3.99431 3.83185
# Velocity P-wave (km/s) = 5.64816 6.63698 6.16244
#
# Compressibility (1/GPa) = 0.03031382
#
# Stress axis : x y z
#
# Youngs Moduli (GPa) = 119.76348 74.28803 43.98268
#
# Poissons Ratio (x) = 0.11963 0.17709
# Poissons Ratio (y) = 0.19286 0.06509
# Poissons Ratio (z) = 0.48221 0.10995
#
# Static dielectric constant tensor:
#      x y z
#    x 1.923800 0.011460 0.020250 
#    y 0.011460 1.948160 -0.041860 
#    z 0.020250 -0.041860 1.931400 
# 
# From -- ./inp_files/364649.got.cif
#   From: 2010.05.17/outbox.cif.g08.bks.cpg/sg2_183_cif.got.tgz:364649.got - 2010.06.03 11:33:40.
