data_PCOD9057398
_publ_section_title
;
Structure prediction by ZEFSAII (Michael W. Deem and Ramdas Pophale) SiO2 
 PCOD9057398
Probable space group: P -1
;
_chemical_formula_sum "Si O2"
_cell_formula_units_Z 16
_cell_length_a 12.149353
_cell_length_b 11.335728
_cell_length_c 12.039947
_cell_angle_alpha 92.549353
_cell_angle_beta 48.312705
_cell_angle_gamma 54.420729
_cell_volume 708.876330
_symmetry_space_group_name_H-M "P -1"
_symmetry_group_IT_number 2
_symmetry_cell_setting 'triclinic'
loop_
_space_group_symop_operation_xyz
x,y,z
-x,-y,-z
loop_
_atom_site_type_symbol
_atom_site_label
_atom_site_fract_x
_atom_site_fract_y
_atom_site_fract_z
Si Si1 0.130867 0.693907 0.798283
Si Si2 0.276766 0.643750 0.244292
Si Si3 0.266786 0.033903 0.489185
Si Si4 0.644264 0.139264 0.796861
Si Si5 0.556152 0.077213 0.274029
Si Si6 0.605463 0.237413 0.426729
Si Si7 0.647938 0.790775 0.833584
Si Si8 0.076396 0.676004 0.575589
O O1 0.375781 0.453663 0.657566
O O2 0.213716 0.776560 0.740283
O O3 0.101665 0.674164 0.688639
O O4 0.864188 0.852676 0.048414
O O5 0.266849 0.788610 0.286334
O O6 0.312550 0.546265 0.329356
O O7 0.500000 0.500000 0.000000
O O8 0.018628 0.768451 0.361605
O O9 0.428740 0.876726 0.269238
O O10 0.263494 0.941744 0.586004
O O11 0.399076 0.070622 0.430538
O O12 0.419956 0.273447 0.044040
O O13 0.880957 0.910193 0.680751
O O14 0.511894 0.221269 0.384495
O O15 0.458138 0.154109 0.216319
O O16 0.940032 0.642784 0.635063
O O17 0.500000 0.000000 0.000000
#
# Coordination Sequence:
#
# PCOD9057398 Si02
#       8
#     2   2   2   2   2   2   2   2
#     4  11  23  46  69  96 132 175 230 271 324 393
#     4  11  23  38  60 100 131 167 214 271 332 390
#     4  11  22  45  64  92 136 173 217 269 329 401
#     4  10  18  36  68  88 121 168 205 261 338 380
#     4  12  22  44  70  96 135 175 223 271 330 394
#     4  11  27  43  65  98 135 181 223 268 323 393
#     4  10  17  36  67  97 119 163 208 269 341 376
#     4  10  18  40  66  90 127 163 212 269 332 385
#
# _framework density 22.570934000000001
#
# number of rings (size 3 to 8) (size 9 to 14) (size 15 to 20)
#    0.000    1.250    6.250    3.750    0.000    1.500 
#   11.250    1.250    0.000    0.000    0.000    0.000 
#    0.000    0.000    0.000    0.000    0.000    0.000 
#
# Total GULP energy -89413.414963 kJ/mol
# GULP energy per Si atom -5588.338435 kJ/mol
# Density = 2.251956 g / cm^3
# Si number density = 22.570934 Si / 1000 Ang^3
#
#
#
# Elastic Constant Matrix: (Units=GPa)
#
#
# Indices 1 2 3 4 5 6 
#
# 1 75.7949 16.8870 3.9670 6.0288 -6.1027 19.3523
# 2 16.8870 54.8103 20.3263 -9.1215 -5.4247 10.7553
# 3 3.9670 20.3263 80.9644 -14.2353 -16.3470 23.9753
# 4 6.0288 -9.1215 -14.2353 22.8128 7.6500 0.4512
# 5 -6.1027 -5.4247 -16.3470 7.6500 40.2222 -14.2173
# 6 19.3523 10.7553 23.9753 0.4512 -14.2173 31.1448
#
#
#
# Elastic Compliance Matrix: (Units=1/GPa)
#
#
# Indices 1 2 3 4 5 6 
#
# 1 0.017393 -0.004993 0.002947 -0.004547 0.000046 -0.011265
# 2 -0.004993 0.022995 -0.003339 0.009135 -0.001907 -0.003271
# 3 0.002947 -0.003339 0.019592 0.010269 0.000457 -0.015700
# 4 -0.004547 0.009135 0.010269 0.059291 -0.011656 -0.014414
# 5 0.000046 -0.001907 0.000457 -0.011656 0.032400 0.015237
# 6 -0.011265 -0.003271 -0.015700 -0.014414 0.015237 0.059488
#
#
# Mechanical properties :
#
#
# Convention : Reuss Voigt Hill
#
# Bulk Modulus (GPa) = 20.32114 32.65892 26.49003
# Shear Modulus (GPa) = 20.97916 30.19524 25.58720
#
# Velocity S-wave (km/s) = 3.05204 3.66155 3.37060
# Velocity P-wave (km/s) = 4.63063 5.69006 5.18746
#
# Compressibility (1/GPa) = 0.04920984
#
# Stress axis : x y z
#
# Youngs Moduli (GPa) = 57.49315 43.48842 51.04184
#
# Poissons Ratio (x) = 0.21716 -0.15042
# Poissons Ratio (y) = 0.28709 0.17041
# Poissons Ratio (z) = -0.16944 0.14519
#
# Static dielectric constant tensor:
#      x y z
#    x 1.847800 -0.001770 0.006250 
#    y -0.001770 1.874110 0.027060 
#    z 0.006250 0.027060 1.931090 
# 
# From -- ./inp_files/428337.got.cif
#   From: 2010.05.17/outbox.cif.g08.bks.cpg/sg2_215_cif.got.tgz:428337.got - 2010.06.03 11:33:40.
