data_PCOD9057283
_publ_section_title
;
Structure prediction by ZEFSAII (Michael W. Deem and Ramdas Pophale) SiO2 
 PCOD9057283
Probable space group: P -1
;
_chemical_formula_sum "Si O2"
_cell_formula_units_Z 16
_cell_length_a 17.044483
_cell_length_b 17.355732
_cell_length_c 5.365832
_cell_angle_alpha 58.156065
_cell_angle_beta 134.231184
_cell_angle_gamma 146.324900
_cell_volume 625.033897
_symmetry_space_group_name_H-M "P -1"
_symmetry_group_IT_number 2
_symmetry_cell_setting 'triclinic'
loop_
_space_group_symop_operation_xyz
x,y,z
-x,-y,-z
loop_
_atom_site_type_symbol
_atom_site_label
_atom_site_fract_x
_atom_site_fract_y
_atom_site_fract_z
Si Si1 0.336879 0.466342 0.188936
Si Si2 0.368916 0.997004 0.251772
Si Si3 0.394915 0.745532 0.309870
Si Si4 0.157702 0.010744 0.616789
Si Si5 0.700096 0.820995 0.831537
Si Si6 0.176110 0.727102 0.547704
Si Si7 0.210145 0.307701 0.674888
Si Si8 0.176354 0.540812 0.554983
O O1 0.500000 0.500000 0.500000
O O2 0.245676 0.393349 0.374721
O O3 0.227889 0.363908 0.885624
O O4 0.325517 0.568127 0.938072
O O5 0.218498 0.851594 0.316732
O O6 0.500000 0.000000 0.500000
O O7 0.491579 0.146380 0.397990
O O8 0.272439 0.994301 0.835876
O O9 0.525581 0.757023 0.473417
O O10 0.224594 0.589172 0.292981
O O11 0.336805 0.796901 0.946362
O O12 0.967659 0.855632 0.468825
O O13 0.189589 0.101181 0.309548
O O14 0.210571 0.079465 0.893445
O O15 0.657378 0.691759 0.032699
O O16 0.168453 0.637221 0.491380
O O17 0.003726 0.616760 0.511225
#
# Coordination Sequence:
#
# PCOD9057283 Si02
#       8
#     2   2   2   2   2   2   2   2
#     4  12  28  46  71 103 139 188 246 297 354 421
#     4  11  22  42  66 105 134 180 234 293 355 421
#     4  11  24  41  72  98 141 182 238 292 361 424
#     4  11  24  43  69 106 143 182 236 292 362 432
#     4  11  24  42  73 106 140 187 232 294 358 431
#     4  11  24  44  70  98 144 185 240 290 358 424
#     4  12  25  46  72 100 143 189 236 301 358 422
#     4  11  26  45  67 103 139 191 238 293 354 428
#
# _framework density 25.598610999999998
#
# number of rings (size 3 to 8) (size 9 to 14) (size 15 to 20)
#    0.000    0.750    1.250    5.625    5.250    3.000 
#    0.000    0.000    0.000    0.000    0.000    0.000 
#    0.000    0.000    0.000    0.000    0.000    0.000 
#
# Total GULP energy -89424.423046 kJ/mol
# GULP energy per Si atom -5589.026440 kJ/mol
# Density = 2.554035 g / cm^3
# Si number density = 25.598611 Si / 1000 Ang^3
#
#
#
# Elastic Constant Matrix: (Units=GPa)
#
#
# Indices 1 2 3 4 5 6 
#
# 1 62.9999 18.5062 33.2327 13.7020 4.8296 0.0441
# 2 18.5062 98.2626 22.9018 -11.4909 -19.8599 6.5957
# 3 33.2327 22.9018 113.3807 -18.9840 -3.3926 -8.9341
# 4 13.7020 -11.4909 -18.9840 53.7147 -2.8722 -2.6732
# 5 4.8296 -19.8599 -3.3926 -2.8722 48.3623 -7.4781
# 6 0.0441 6.5957 -8.9341 -2.6732 -7.4781 31.0886
#
#
#
# Elastic Compliance Matrix: (Units=1/GPa)
#
#
# Indices 1 2 3 4 5 6 
#
# 1 0.024720 -0.004959 -0.008573 -0.010932 -0.006361 -0.003917
# 2 -0.004959 0.012942 -0.000373 0.004161 0.005864 -0.001078
# 3 -0.008573 -0.000373 0.013095 0.007144 0.002842 0.005153
# 4 -0.010932 0.004161 0.007144 0.025350 0.005533 0.004696
# 5 -0.006361 0.005864 0.002842 0.005533 0.025195 0.006118
# 6 -0.003917 -0.001078 0.005153 0.004696 0.006118 0.035756
#
#
# Mechanical properties :
#
#
# Convention : Reuss Voigt Hill
#
# Bulk Modulus (GPa) = 43.57946 47.10272 45.34109
# Shear Modulus (GPa) = 28.98249 39.96663 34.47456
#
# Velocity S-wave (km/s) = 3.36845 3.95559 3.67377
# Velocity P-wave (km/s) = 5.67360 6.26919 5.97882
#
# Compressibility (1/GPa) = 0.02294659
#
# Stress axis : x y z
#
# Youngs Moduli (GPa) = 40.45298 77.26857 76.36288
#
# Poissons Ratio (x) = 0.38314 0.65469
# Poissons Ratio (y) = 0.20059 0.02852
# Poissons Ratio (z) = 0.34682 0.02885
#
# Static dielectric constant tensor:
#      x y z
#    x 2.196340 -0.014770 0.053220 
#    y -0.014770 1.979170 0.019070 
#    z 0.053220 0.019070 2.037530 
# 
# From -- ./inp_files/111630.got.cif
#   From: 2010.05.17/outbox.cif.g08.bks.cpg/sg2_56_cif.got.tgz:111630.got - 2010.06.03 11:33:40.
