data_PCOD9057206
_publ_section_title
;
Structure prediction by ZEFSAII (Michael W. Deem and Ramdas Pophale) SiO2 
 PCOD9057206
Probable space group: P -1
;
_chemical_formula_sum "Si O2"
_cell_formula_units_Z 16
_cell_length_a 12.527453
_cell_length_b 9.545233
_cell_length_c 10.456157
_cell_angle_alpha 59.388363
_cell_angle_beta 37.726163
_cell_angle_gamma 72.697269
_cell_volume 645.129414
_symmetry_space_group_name_H-M "P -1"
_symmetry_group_IT_number 2
_symmetry_cell_setting 'triclinic'
loop_
_space_group_symop_operation_xyz
x,y,z
-x,-y,-z
loop_
_atom_site_type_symbol
_atom_site_label
_atom_site_fract_x
_atom_site_fract_y
_atom_site_fract_z
Si Si1 0.948090 0.376728 0.382992
Si Si2 0.396874 0.831570 0.108216
Si Si3 0.438873 0.263283 0.764184
Si Si4 0.535967 0.678546 0.813326
Si Si5 0.290906 0.526401 0.896338
Si Si6 0.806257 0.248237 0.307689
Si Si7 0.891073 0.930395 0.962572
Si Si8 0.896096 0.743331 0.307360
O O1 0.816052 0.226335 0.648405
O O2 0.889383 0.351723 0.302999
O O3 0.916845 0.553033 0.380123
O O4 0.160226 0.391893 0.170345
O O5 0.474938 0.709076 0.188484
O O6 0.459914 0.802284 0.921118
O O7 0.500000 0.000000 0.000000
O O8 0.361936 0.432147 0.754333
O O9 0.595138 0.215878 0.551896
O O10 0.265293 0.121412 0.967827
O O11 0.435059 0.641693 0.791758
O O12 0.739286 0.746666 0.554855
O O13 0.500000 0.500000 0.000000
O O14 0.172534 0.645450 0.890196
O O15 0.921941 0.107938 0.247979
O O16 0.842945 0.809708 0.188336
O O17 0.930439 0.120485 0.881188
#
# Coordination Sequence:
#
# PCOD9057206 Si02
#       8
#     2   2   2   2   2   2   2   2
#     4  11  22  43  70 100 137 180 228 286 341 412
#     4  11  27  48  67  97 135 180 239 288 335 407
#     4  11  23  42  71 102 135 187 229 282 350 399
#     4  12  24  46  67  93 138 184 230 282 337 407
#     4  12  22  40  72 103 134 184 232 273 354 409
#     4  11  22  41  73 103 142 174 230 287 338 412
#     4  11  24  45  70 109 143 176 228 287 347 411
#     4  11  24  44  68 100 147 176 219 290 346 399
#
# _framework density 24.801227999999998
#
# number of rings (size 3 to 8) (size 9 to 14) (size 15 to 20)
#    0.000    0.750    5.000    3.000    3.500    1.500 
#    2.250    3.125    0.000    0.000    0.000    0.000 
#    0.000    0.000    0.000    0.000    0.000    0.000 
#
# Total GULP energy -89438.008985 kJ/mol
# GULP energy per Si atom -5589.875562 kJ/mol
# Density = 2.474478 g / cm^3
# Si number density = 24.801228 Si / 1000 Ang^3
#
#
#
# Elastic Constant Matrix: (Units=GPa)
#
#
# Indices 1 2 3 4 5 6 
#
# 1 37.0425 0.7866 4.8930 1.1155 2.9131 12.1888
# 2 0.7866 125.3047 53.1801 -3.9939 -5.2389 26.0214
# 3 4.8930 53.1801 159.1543 12.5651 -10.4630 8.2789
# 4 1.1155 -3.9939 12.5651 32.5791 3.6066 -0.3564
# 5 2.9131 -5.2389 -10.4630 3.6066 24.9340 5.1010
# 6 12.1888 26.0214 8.2789 -0.3564 5.1010 30.4043
#
#
#
# Elastic Compliance Matrix: (Units=1/GPa)
#
#
# Indices 1 2 3 4 5 6 
#
# 1 0.032265 0.003597 -0.001388 -0.000258 -0.000372 -0.015576
# 2 0.003597 0.011945 -0.003539 0.002303 0.002542 -0.011101
# 3 -0.001388 -0.003539 0.007971 -0.003799 0.003140 0.000844
# 4 -0.000258 0.002303 -0.003799 0.033120 -0.005985 0.000559
# 5 -0.000372 0.002542 0.003140 -0.005985 0.045016 -0.010504
# 6 -0.015576 -0.011101 0.000844 0.000559 -0.010504 0.050175
#
#
# Mechanical properties :
#
#
# Convention : Reuss Voigt Hill
#
# Bulk Modulus (GPa) = 20.19307 48.80234 34.49771
# Shear Modulus (GPa) = 25.04280 35.09293 30.06786
#
# Velocity S-wave (km/s) = 3.18109 3.76569 3.48566
# Velocity P-wave (km/s) = 4.65318 6.21509 5.48996
#
# Compressibility (1/GPa) = 0.04952193
#
# Stress axis : x y z
#
# Youngs Moduli (GPa) = 30.99299 83.71695 125.45543
#
# Poissons Ratio (x) = -0.30116 0.17412
# Poissons Ratio (y) = -0.11149 0.44401
# Poissons Ratio (z) = 0.04301 0.29629
#
# Static dielectric constant tensor:
#      x y z
#    x 1.982600 -0.084180 0.039260 
#    y -0.084180 1.960060 -0.016510 
#    z 0.039260 -0.016510 2.035230 
# 
# From -- ./inp_files/447061.got.cif
#   From: 2010.05.17/outbox.cif.g08.bks.cpg/sg2_224_cif.got.tgz:447061.got - 2010.06.03 11:33:40.
