data_PCOD9057330
_publ_section_title
;
Structure prediction by ZEFSAII (Michael W. Deem and Ramdas Pophale) SiO2 
 PCOD9057330
Probable space group: P -1
;
_chemical_formula_sum "Si O2"
_cell_formula_units_Z 16
_cell_length_a 8.630819
_cell_length_b 25.662902
_cell_length_c 26.307250
_cell_angle_alpha 169.017280
_cell_angle_beta 37.425207
_cell_angle_gamma 141.825376
_cell_volume 673.555651
_symmetry_space_group_name_H-M "P -1"
_symmetry_group_IT_number 2
_symmetry_cell_setting 'triclinic'
loop_
_space_group_symop_operation_xyz
x,y,z
-x,-y,-z
loop_
_atom_site_type_symbol
_atom_site_label
_atom_site_fract_x
_atom_site_fract_y
_atom_site_fract_z
Si Si1 0.134982 0.833204 0.882768
Si Si2 0.982174 0.790465 0.094665
Si Si3 0.707504 0.551456 0.138554
Si Si4 0.766705 0.683564 0.755666
Si Si5 0.111196 0.253355 0.375550
Si Si6 0.354317 0.267219 0.784237
Si Si7 0.596545 0.002689 0.313083
Si Si8 0.737836 0.667366 0.472359
O O1 0.180487 0.982824 0.068062
O O2 0.849134 0.796145 0.897712
O O3 0.190345 0.517145 0.573417
O O4 0.262552 0.047936 0.014806
O O5 0.912730 0.753919 0.136868
O O6 0.757954 0.923489 0.246436
O O7 0.215424 0.015784 0.249699
O O8 0.049335 0.514790 0.784019
O O9 0.622331 0.648492 0.198569
O O10 0.639930 0.806023 0.434379
O O11 0.000000 0.500000 0.000000
O O12 0.533789 0.286768 0.947988
O O13 0.522201 0.480032 0.619935
O O14 0.000000 0.500000 0.500000
O O15 0.809931 0.176207 0.390834
O O16 0.231522 0.325029 0.467428
O O17 0.500000 0.000000 0.500000
O O18 0.500000 0.500000 0.000000
#
# Coordination Sequence:
#
# PCOD9057330 Si02
#       8
#     2   2   2   2   2   2   2   2
#     4  11  24  45  71  96 134 180 226 262 356 410
#     4  11  22  42  68 101 131 180 233 287 344 393
#     4  12  24  42  64  99 135 181 228 283 344 411
#     4  11  26  49  70  97 145 183 216 285 356 412
#     4  11  23  44  70 103 126 178 234 280 337 405
#     4  12  22  41  71  95 133 184 234 281 340 419
#     4  11  22  43  68  89 141 174 219 287 351 397
#     4  11  26  42  71 101 140 172 234 293 334 406
#
# _framework density 23.754532999999999
#
# number of rings (size 3 to 8) (size 9 to 14) (size 15 to 20)
#    0.000    0.750    3.750    4.875    3.500    1.000 
#    6.750    0.000    0.000    0.000    0.000    0.000 
#    0.000    0.000    0.000    0.000    0.000    0.000 
#
# Total GULP energy -89375.048822 kJ/mol
# GULP energy per Si atom -5585.940551 kJ/mol
# Density = 2.370047 g / cm^3
# Si number density = 23.754533 Si / 1000 Ang^3
#
#
#
# Elastic Constant Matrix: (Units=GPa)
#
#
# Indices 1 2 3 4 5 6 
#
# 1 20.7910 7.5106 22.0984 -3.8238 14.6860 8.8236
# 2 7.5106 73.7969 13.6215 11.8323 -2.6319 5.3504
# 3 22.0984 13.6215 139.6089 10.0515 9.6844 -3.2047
# 4 -3.8238 11.8323 10.0515 45.1383 3.2551 -3.6663
# 5 14.6860 -2.6319 9.6844 3.2551 34.4394 -2.1349
# 6 8.8236 5.3504 -3.2047 -3.6663 -2.1349 31.7484
#
#
#
# Elastic Compliance Matrix: (Units=1/GPa)
#
#
# Indices 1 2 3 4 5 6 
#
# 1 0.130036 -0.012297 -0.017770 0.019164 -0.055523 -0.037382
# 2 -0.012297 0.015862 0.000343 -0.005729 0.006937 0.000584
# 3 -0.017770 0.000343 0.009962 -0.003738 0.005517 0.005826
# 4 0.019164 -0.005729 -0.003738 0.026658 -0.010224 -0.002347
# 5 -0.055523 0.006937 0.005517 -0.010224 0.053728 0.017251
# 6 -0.037382 0.000584 0.005826 -0.002347 0.017251 0.043265
#
#
# Mechanical properties :
#
#
# Convention : Reuss Voigt Hill
#
# Bulk Modulus (GPa) = 10.37190 35.62865 23.00028
# Shear Modulus (GPa) = 13.47359 34.99631 24.23495
#
# Velocity S-wave (km/s) = 2.38418 3.84245 3.19756
# Velocity P-wave (km/s) = 3.45758 5.89213 4.83074
#
# Compressibility (1/GPa) = 0.09641434
#
# Stress axis : x y z
#
# Youngs Moduli (GPa) = 7.69019 63.04198 100.37862
#
# Poissons Ratio (x) = 0.77522 1.78370
# Poissons Ratio (y) = 0.09456 -0.03447
# Poissons Ratio (z) = 0.13665 -0.02165
#
# Static dielectric constant tensor:
#      x y z
#    x 2.116250 0.127720 -0.242240 
#    y 0.127720 2.011560 -0.138810 
#    z -0.242240 -0.138810 2.048220 
# 
# From -- ./inp_files/617702.got.cif
#   From: 2010.05.17/outbox.cif.g08.bks.cpg/sg2_309_cif.got.tgz:617702.got - 2010.06.03 11:33:40.
