data_PCOD9057873
_publ_section_title
;
Structure prediction by ZEFSAII (Michael W. Deem and Ramdas Pophale) SiO2 
 PCOD9057873
Probable space group: P -1
;
_chemical_formula_sum "Si O2"
_cell_formula_units_Z 16
_cell_length_a 11.397779
_cell_length_b 8.830834
_cell_length_c 17.862487
_cell_angle_alpha 64.559389
_cell_angle_beta 148.110185
_cell_angle_gamma 125.813289
_cell_volume 760.673321
_symmetry_space_group_name_H-M "P -1"
_symmetry_group_IT_number 2
_symmetry_cell_setting 'triclinic'
loop_
_space_group_symop_operation_xyz
x,y,z
-x,-y,-z
loop_
_atom_site_type_symbol
_atom_site_label
_atom_site_fract_x
_atom_site_fract_y
_atom_site_fract_z
Si Si1 0.427193 0.129096 0.379972
Si Si2 0.281810 0.921711 0.832137
Si Si3 0.966506 0.894884 0.082568
Si Si4 0.554653 0.318189 0.812870
Si Si5 0.051816 0.581819 0.119407
Si Si6 0.264795 0.335184 0.364175
Si Si7 0.566301 0.350602 0.112158
Si Si8 0.290057 0.568912 0.652078
O O1 0.409043 0.277056 0.393916
O O2 0.583308 0.235344 0.368146
O O3 0.500000 0.000000 0.500000
O O4 0.154804 0.009883 0.223887
O O5 0.279810 0.734732 0.832664
O O6 0.981744 0.851960 0.698491
O O7 0.388707 0.109174 0.798930
O O8 0.500000 0.000000 0.000000
O O9 0.008262 0.715332 0.124842
O O10 0.694316 0.834304 0.977874
O O11 0.000000 0.000000 0.000000
O O12 0.705125 0.302585 0.825417
O O13 0.386525 0.428301 0.696978
O O14 0.792361 0.463374 0.960399
O O15 0.117667 0.433529 0.225146
O O16 0.500000 0.500000 0.500000
O O17 0.655933 0.417765 0.231775
O O18 0.500000 0.500000 0.000000
O O19 0.000000 0.500000 0.500000
#
# Coordination Sequence:
#
# PCOD9057873 Si02
#       8
#     2   2   2   2   2   2   2   2
#     4  12  28  49  73 104 147 198 247 304 370 447
#     4  12  25  44  73 109 142 191 252 305 363 449
#     4  12  23  44  73 108 142 184 249 304 361 438
#     4  11  23  44  72 104 142 191 240 302 367 441
#     4  11  22  43  73 102 143 187 238 302 371 434
#     4  12  27  48  71 104 149 194 246 304 378 443
#     4  12  26  45  75 109 146 188 239 304 373 438
#     4  12  28  49  72 107 151 193 243 309 379 437
#
# _framework density 21.033995000000001
#
# number of rings (size 3 to 8) (size 9 to 14) (size 15 to 20)
#    0.000    0.250    5.000    3.750    7.000    0.000 
#    0.000    1.250    0.000    0.000    0.000    0.000 
#    0.000    0.000    0.000    0.000    0.000    0.000 
#
# Total GULP energy -89221.257841 kJ/mol
# GULP energy per Si atom -5576.328615 kJ/mol
# Density = 2.098612 g / cm^3
# Si number density = 21.033995 Si / 1000 Ang^3
#
#
#
# Elastic Constant Matrix: (Units=GPa)
#
#
# Indices 1 2 3 4 5 6 
#
# 1 78.2277 17.7295 36.5749 7.9564 -8.6260 3.5812
# 2 17.7295 76.4664 15.8813 -13.4084 -7.9443 15.6384
# 3 36.5749 15.8813 111.2152 2.2526 7.8829 12.8492
# 4 7.9564 -13.4084 2.2526 46.2993 2.6979 3.9147
# 5 -8.6260 -7.9443 7.8829 2.6979 34.0529 5.1839
# 6 3.5812 15.6384 12.8492 3.9147 5.1839 56.8401
#
#
#
# Elastic Compliance Matrix: (Units=1/GPa)
#
#
# Indices 1 2 3 4 5 6 
#
# 1 0.016986 -0.003132 -0.005514 -0.003923 0.005030 0.000849
# 2 -0.003132 0.016347 -0.001120 0.005521 0.003565 -0.004752
# 3 -0.005514 -0.001120 0.011429 0.000440 -0.004097 -0.001585
# 4 -0.003923 0.005521 0.000440 0.024171 -0.001278 -0.002919
# 5 0.005030 0.003565 -0.004097 -0.001278 0.033024 -0.003295
# 6 0.000849 -0.004752 -0.001585 -0.002919 -0.003295 0.019707
#
#
# Mechanical properties :
#
#
# Convention : Reuss Voigt Hill
#
# Bulk Modulus (GPa) = 39.63468 45.14231 42.38850
# Shear Modulus (GPa) = 33.42107 40.48668 36.95388
#
# Velocity S-wave (km/s) = 3.99043 4.39204 4.19604
# Velocity P-wave (km/s) = 6.33368 6.87228 6.60847
#
# Compressibility (1/GPa) = 0.02523043
#
# Stress axis : x y z
#
# Youngs Moduli (GPa) = 58.87255 61.17377 87.49318
#
# Poissons Ratio (x) = 0.19160 0.48244
# Poissons Ratio (y) = 0.18440 0.09797
# Poissons Ratio (z) = 0.32462 0.06850
#
# Static dielectric constant tensor:
#      x y z
#    x 1.857010 0.062170 -0.017520 
#    y 0.062170 1.790410 -0.005500 
#    z -0.017520 -0.005500 1.739850 
# 
# From -- ./inp_files/279240.got.cif
#   From: 2010.05.17/outbox.cif.g08.bks.cpg/sg2_140_cif.got.tgz:279240.got - 2010.06.03 11:33:40.
