data_PCOD9057447
_publ_section_title
;
Structure prediction by ZEFSAII (Michael W. Deem and Ramdas Pophale) SiO2 
 PCOD9057447
Probable space group: P -1
;
_chemical_formula_sum "Si O2"
_cell_formula_units_Z 14
_cell_length_a 11.923093
_cell_length_b 5.376205
_cell_length_c 21.758309
_cell_angle_alpha 109.765038
_cell_angle_beta 146.515163
_cell_angle_gamma 55.249542
_cell_volume 602.579607
_symmetry_space_group_name_H-M "P -1"
_symmetry_group_IT_number 2
_symmetry_cell_setting 'triclinic'
loop_
_space_group_symop_operation_xyz
x,y,z
-x,-y,-z
loop_
_atom_site_type_symbol
_atom_site_label
_atom_site_fract_x
_atom_site_fract_y
_atom_site_fract_z
Si Si1 0.880311 0.584482 0.135727
Si Si2 0.703194 0.852604 0.526774
Si Si3 0.290461 0.874716 0.986981
Si Si4 0.414576 0.030087 0.283033
Si Si5 0.521633 0.065594 0.197771
Si Si6 0.844521 0.259397 0.899200
Si Si7 0.004115 0.818292 0.333970
O O1 0.733000 0.416639 0.064269
O O2 0.137921 0.330005 0.197086
O O3 0.960863 0.664553 0.242223
O O4 0.709374 0.915089 0.049786
O O5 0.849239 0.476334 0.575836
O O6 0.500000 0.000000 0.500000
O O7 0.573364 0.947785 0.409230
O O8 0.864713 0.005382 0.612528
O O9 0.023038 0.130332 0.913416
O O10 0.484941 0.812876 0.123854
O O11 0.527347 0.059855 0.273809
O O12 0.383369 0.747262 0.227515
O O13 0.265137 0.396511 0.095610
O O14 0.744974 0.052519 0.267501
O O15 0.000000 0.000000 0.000000
#
# Coordination Sequence:
#
# PCOD9057447 Si02
#       7
#     2   2   2   2   2   2   2
#     4  11  24  44  72 107 137 195 246 286 351 439
#     4  12  28  51  78 103 139 196 257 298 357 437
#     4  11  23  41  73 104 144 191 242 282 350 444
#     4  11  25  42  77 102 143 192 247 298 358 426
#     4  12  26  44  71 111 157 182 237 306 374 420
#     4  11  22  42  70 109 144 195 237 287 355 444
#     4  12  30  48  74 109 147 190 244 312 364 418
#
# _framework density 23.233443000000001
#
# number of rings (size 3 to 8) (size 9 to 14) (size 15 to 20)
#    0.000    0.571    4.286    3.429    6.000    2.286 
#    0.000    0.000    0.000    0.000    0.000    0.000 
#    0.000    0.000    0.000    0.000    0.000    0.000 
#
# Total GULP energy -78262.223651 kJ/mol
# GULP energy per Si atom -5590.158832 kJ/mol
# Density = 2.318056 g / cm^3
# Si number density = 23.233443 Si / 1000 Ang^3
#
#
#
# Elastic Constant Matrix: (Units=GPa)
#
#
# Indices 1 2 3 4 5 6 
#
# 1 135.0204 31.6810 65.3365 15.7708 10.1632 22.3544
# 2 31.6810 86.6033 31.3396 11.0098 0.9571 22.4574
# 3 65.3365 31.3396 95.4677 21.1011 -19.5851 6.5137
# 4 15.7708 11.0098 21.1011 39.7913 4.8130 0.8037
# 5 10.1632 0.9571 -19.5851 4.8130 50.9009 -0.9690
# 6 22.3544 22.4574 6.5137 0.8037 -0.9690 37.5973
#
#
#
# Elastic Compliance Matrix: (Units=1/GPa)
#
#
# Indices 1 2 3 4 5 6 
#
# 1 0.014362 0.000647 -0.011356 0.001203 -0.007500 -0.007177
# 2 0.000647 0.015697 -0.005191 -0.001369 -0.002461 -0.008895
# 3 -0.011356 -0.005191 0.023946 -0.008397 0.012491 0.006206
# 4 0.001203 -0.001369 -0.008397 0.030232 -0.006290 0.000749
# 5 -0.007500 -0.002461 0.012491 -0.006290 0.026678 0.004587
# 6 -0.007177 -0.008895 0.006206 0.000749 0.004587 0.035205
#
#
# Mechanical properties :
#
#
# Convention : Reuss Voigt Hill
#
# Bulk Modulus (GPa) = 45.03673 63.75619 54.39646
# Shear Modulus (GPa) = 26.98003 38.24019 32.61011
#
# Velocity S-wave (km/s) = 3.41142 4.06138 3.75051
# Velocity P-wave (km/s) = 5.91131 7.03522 6.49761
#
# Compressibility (1/GPa) = 0.02220410
#
# Stress axis : x y z
#
# Youngs Moduli (GPa) = 69.62761 63.70766 41.76065
#
# Poissons Ratio (x) = -0.04120 0.47425
# Poissons Ratio (y) = -0.04503 0.21677
# Poissons Ratio (z) = 0.79071 0.33069
#
# Static dielectric constant tensor:
#      x y z
#    x 1.928270 0.023230 0.000990 
#    y 0.023230 1.918910 -0.022380 
#    z 0.000990 -0.022380 1.877890 
# 
# From -- ./inp_files/592814.got.cif
#   From: 2010.05.17/outbox.cif.g08.bks.cpg/sg2_297_cif.got.tgz:592814.got - 2010.06.03 11:33:40.
