data_PCOD9057997
_publ_section_title
;
Structure prediction by ZEFSAII (Michael W. Deem and Ramdas Pophale) SiO2 
 PCOD9057997
Probable space group: P -1
;
_chemical_formula_sum "Si O2"
_cell_formula_units_Z 12
_cell_length_a 16.239177
_cell_length_b 7.191448
_cell_length_c 9.240470
_cell_angle_alpha 78.563469
_cell_angle_beta 134.054227
_cell_angle_gamma 64.411186
_cell_volume 446.953742
_symmetry_space_group_name_H-M "P -1"
_symmetry_group_IT_number 2
_symmetry_cell_setting 'triclinic'
loop_
_space_group_symop_operation_xyz
x,y,z
-x,-y,-z
loop_
_atom_site_type_symbol
_atom_site_label
_atom_site_fract_x
_atom_site_fract_y
_atom_site_fract_z
Si Si1 0.292334 0.843361 0.040693
Si Si2 0.051557 0.638489 0.989528
Si Si3 0.334006 0.718945 0.608106
Si Si4 0.563762 0.752730 0.002845
Si Si5 0.574751 0.709062 0.565526
Si Si6 0.935845 0.305839 0.349121
O O1 0.473235 0.602981 0.188827
O O2 0.376514 0.864353 0.263890
O O3 0.300668 0.616930 0.144915
O O4 0.099528 0.174054 0.676855
O O5 0.043960 0.658719 0.799424
O O6 0.263021 0.431715 0.327191
O O7 0.867849 0.004427 0.764549
O O8 0.000000 0.500000 0.000000
O O9 0.313958 0.583237 0.723594
O O10 0.386948 0.861458 0.705704
O O11 0.717068 0.629222 0.092738
O O12 0.500000 0.000000 0.000000
O O13 0.500000 0.000000 0.500000
O O14 0.000000 0.000000 0.500000
#
# Coordination Sequence:
#
# PCOD9057997 Si02
#       6
#     2   2   2   2   2   2
#     4  11  24  45  79 108 150 214 258 323 402 471
#     4  12  26  45  77 112 157 210 262 332 401 473
#     4  11  22  44  68 107 155 197 257 322 395 461
#     4  11  24  42  76 114 151 197 264 329 389 467
#     4  11  25  47  72 110 156 203 265 326 394 474
#     4  12  21  49  82 110 156 213 264 332 396 476
#
# _framework density 26.848414999999999
#
# number of rings (size 3 to 8) (size 9 to 14) (size 15 to 20)
#    0.000    0.667    5.000    2.000    0.000    6.000 
#    0.000    3.333    0.000    0.000    0.000    0.000 
#    0.000    0.000    0.000    0.000    0.000    0.000 
#
# Total GULP energy -67142.561842 kJ/mol
# GULP energy per Si atom -5595.213487 kJ/mol
# Density = 2.678731 g / cm^3
# Si number density = 26.848415 Si / 1000 Ang^3
#
#
#
# Elastic Constant Matrix: (Units=GPa)
#
#
# Indices 1 2 3 4 5 6 
#
# 1 165.4729 37.9150 29.8333 -6.1827 9.6267 20.7126
# 2 37.9150 152.9807 58.3817 -3.0850 10.0072 8.4653
# 3 29.8333 58.3817 138.2219 2.9366 16.7415 15.2958
# 4 -6.1827 -3.0850 2.9366 36.4158 -4.6498 4.1535
# 5 9.6267 10.0072 16.7415 -4.6498 48.0793 -9.5192
# 6 20.7126 8.4653 15.2958 4.1535 -9.5192 40.5803
#
#
#
# Elastic Compliance Matrix: (Units=1/GPa)
#
#
# Indices 1 2 3 4 5 6 
#
# 1 0.007005 -0.001243 -0.000416 0.001332 -0.001597 -0.003671
# 2 -0.001243 0.008068 -0.003119 0.000689 -0.000279 -0.000009
# 3 -0.000416 -0.003119 0.009441 -0.001138 -0.003331 -0.003361
# 4 0.001332 0.000689 -0.001138 0.028434 0.002183 -0.002793
# 5 -0.001597 -0.000279 -0.003331 0.002183 0.024042 0.007545
# 6 -0.003671 -0.000009 -0.003361 -0.002793 0.007545 0.029840
#
#
# Mechanical properties :
#
#
# Convention : Reuss Voigt Hill
#
# Bulk Modulus (GPa) = 66.85101 78.77063 72.81082
# Shear Modulus (GPa) = 41.19540 47.05144 44.12342
#
# Velocity S-wave (km/s) = 3.92135 4.19081 4.05832
# Velocity P-wave (km/s) = 6.74212 7.26773 7.00985
#
# Compressibility (1/GPa) = 0.01495864
#
# Stress axis : x y z
#
# Youngs Moduli (GPa) = 142.75122 123.94777 105.91642
#
# Poissons Ratio (x) = 0.15408 0.04402
# Poissons Ratio (y) = 0.17746 0.33038
# Poissons Ratio (z) = 0.05933 0.38662
#
# Static dielectric constant tensor:
#      x y z
#    x 2.201030 -0.083210 -0.087650 
#    y -0.083210 2.177720 0.145570 
#    z -0.087650 0.145570 2.237690 
# 
# From -- ./inp_files/468407.got.cif
#   From: 2010.05.17/outbox.cif.g08.bks.cpg/sg2_235_cif.got.tgz:468407.got - 2010.06.03 11:33:40.
