data_PCOD9057870
_publ_section_title
;
Structure prediction by ZEFSAII (Michael W. Deem and Ramdas Pophale) SiO2 
 PCOD9057870
Probable space group: P -1
;
_chemical_formula_sum "Si O2"
_cell_formula_units_Z 14
_cell_length_a 8.775988
_cell_length_b 12.347211
_cell_length_c 17.883899
_cell_angle_alpha 149.693740
_cell_angle_beta 127.484219
_cell_angle_gamma 45.953995
_cell_volume 702.709925
_symmetry_space_group_name_H-M "P -1"
_symmetry_group_IT_number 2
_symmetry_cell_setting 'triclinic'
loop_
_space_group_symop_operation_xyz
x,y,z
-x,-y,-z
loop_
_atom_site_type_symbol
_atom_site_label
_atom_site_fract_x
_atom_site_fract_y
_atom_site_fract_z
Si Si1 0.971462 0.177848 0.861388
Si Si2 0.124048 0.232570 0.351470
Si Si3 0.207493 0.699815 0.284113
Si Si4 0.150808 0.135143 0.129416
Si Si5 0.892432 0.540429 0.178045
Si Si6 0.563014 0.987317 0.424106
Si Si7 0.428032 0.166747 0.005597
O O1 0.860469 0.216424 0.771189
O O2 0.200025 0.181912 0.922111
O O3 0.991664 0.933143 0.757284
O O4 0.846116 0.388455 0.008486
O O5 0.144335 0.228257 0.266074
O O6 0.000000 0.500000 0.500000
O O7 0.352708 0.115187 0.388898
O O8 0.013047 0.679318 0.256490
O O9 0.290423 0.871306 0.451715
O O10 0.389871 0.432217 0.173333
O O11 0.058081 0.347626 0.168629
O O12 0.388052 0.953072 0.070714
O O13 0.000000 0.000000 0.000000
O O14 0.694523 0.722906 0.274231
O O15 0.500000 0.000000 0.500000
O O16 0.500000 0.000000 0.000000
#
# Coordination Sequence:
#
# PCOD9057870 Si02
#       7
#     2   2   2   2   2   2   2
#     4  11  24  46  71  99 136 179 227 282 328 410
#     4  12  28  45  66 103 139 176 225 281 341 399
#     4  11  25  45  71  98 140 177 228 278 334 411
#     4  12  25  43  71 102 136 174 225 284 331 405
#     4  11  24  46  68 100 134 177 229 277 336 401
#     4  12  27  45  68  99 137 185 219 279 345 398
#     4  11  22  43  73 102 130 179 227 275 342 391
#
# _framework density 19.922872000000002
#
# number of rings (size 3 to 8) (size 9 to 14) (size 15 to 20)
#    0.000    0.571    5.714    3.000   10.000    0.571 
#    0.000    1.429    0.000    0.000    0.000    0.000 
#    0.000    0.000    0.000    0.000    0.000    0.000 
#
# Total GULP energy -78327.509569 kJ/mol
# GULP energy per Si atom -5594.822112 kJ/mol
# Density = 1.987753 g / cm^3
# Si number density = 19.922872 Si / 1000 Ang^3
#
#
#
# Elastic Constant Matrix: (Units=GPa)
#
#
# Indices 1 2 3 4 5 6 
#
# 1 82.7728 4.9965 48.7644 4.8398 -25.5405 3.2519
# 2 4.9965 66.8594 20.3647 -6.1439 -19.5233 -4.0146
# 3 48.7644 20.3647 122.6067 5.0911 -17.4094 -17.0212
# 4 4.8398 -6.1439 5.0911 40.9846 -1.9841 -6.3309
# 5 -25.5405 -19.5233 -17.4094 -1.9841 47.2805 6.4810
# 6 3.2519 -4.0146 -17.0212 -6.3309 6.4810 37.0113
#
#
#
# Elastic Compliance Matrix: (Units=1/GPa)
#
#
# Indices 1 2 3 4 5 6 
#
# 1 0.020144 0.003367 -0.008050 -0.001484 0.010225 -0.007151
# 2 0.003367 0.018444 -0.003452 0.003075 0.008406 -0.000829
# 3 -0.008050 -0.003452 0.012542 -0.000232 -0.002046 0.006419
# 4 -0.001484 0.003075 -0.000232 0.025820 0.000832 0.004628
# 5 0.010225 0.008406 -0.002046 0.000832 0.030261 -0.006084
# 6 -0.007151 -0.000829 0.006419 0.004628 -0.006084 0.032366
#
#
# Mechanical properties :
#
#
# Convention : Reuss Voigt Hill
#
# Bulk Modulus (GPa) = 28.68689 46.72112 37.70400
# Shear Modulus (GPa) = 29.85685 38.26284 34.05985
#
# Velocity S-wave (km/s) = 3.87540 4.38716 4.13920
# Velocity P-wave (km/s) = 5.86986 7.01176 6.46607
#
# Compressibility (1/GPa) = 0.03485913
#
# Stress axis : x y z
#
# Youngs Moduli (GPa) = 49.64373 54.21810 79.73457
#
# Poissons Ratio (x) = -0.18254 0.64188
# Poissons Ratio (y) = -0.16714 0.27522
# Poissons Ratio (z) = 0.39964 0.18714
#
# Static dielectric constant tensor:
#      x y z
#    x 1.717060 -0.001330 0.007880 
#    y -0.001330 1.675660 0.004620 
#    z 0.007880 0.004620 1.679790 
# 
# From -- ./inp_files/153789.got.cif
#   From: 2010.05.17/outbox.cif.g08.bks.cpg/sg2_77_cif.got.tgz:153789.got - 2010.06.03 11:33:40.
