data_PCOD9057377
_publ_section_title
;
Structure prediction by ZEFSAII (Michael W. Deem and Ramdas Pophale) SiO2 
 PCOD9057377
Probable space group: P -1
;
_chemical_formula_sum "Si O2"
_cell_formula_units_Z 14
_cell_length_a 15.565943
_cell_length_b 9.404716
_cell_length_c 11.762702
_cell_angle_alpha 143.158690
_cell_angle_beta 143.556349
_cell_angle_gamma 43.189525
_cell_volume 595.490495
_symmetry_space_group_name_H-M "P -1"
_symmetry_group_IT_number 2
_symmetry_cell_setting 'triclinic'
loop_
_space_group_symop_operation_xyz
x,y,z
-x,-y,-z
loop_
_atom_site_type_symbol
_atom_site_label
_atom_site_fract_x
_atom_site_fract_y
_atom_site_fract_z
Si Si1 0.657665 0.239366 0.339305
Si Si2 0.711081 0.986127 0.630623
Si Si3 0.095144 0.496348 0.485678
Si Si4 0.922311 0.316893 0.979157
Si Si5 0.026183 0.961846 0.365777
Si Si6 0.372135 0.229777 0.381621
Si Si7 0.657679 0.753910 0.900225
O O1 0.676775 0.483477 0.453250
O O2 0.499112 0.307274 0.276721
O O3 0.792338 0.122459 0.493099
O O4 0.650213 0.023627 0.108725
O O5 0.752191 0.703650 0.453320
O O6 0.690143 0.953605 0.722600
O O7 0.839901 0.114035 0.810095
O O8 0.550984 0.136167 0.514542
O O9 0.000000 0.500000 0.500000
O O10 0.071005 0.780676 0.616477
O O11 0.001760 0.772985 0.119554
O O12 0.793402 0.561281 0.977791
O O13 0.026172 0.383873 0.231084
O O14 0.000000 0.000000 0.500000
O O15 0.320621 0.242188 0.206873
#
# Coordination Sequence:
#
# PCOD9057377 Si02
#       7
#     2   2   2   2   2   2   2
#     4  11  22  42  69 101 132 169 231 281 335 392
#     4  11  25  45  65  98 140 180 222 271 345 404
#     4  12  27  45  67  99 139 185 223 269 343 417
#     4  12  24  47  70 100 136 182 230 279 336 405
#     4  12  26  43  69 102 136 177 225 284 337 400
#     4  11  23  44  68  98 136 176 223 286 333 396
#     4  11  23  40  74 100 128 177 233 282 336 388
#
# _framework density 23.51003
#
# number of rings (size 3 to 8) (size 9 to 14) (size 15 to 20)
#    0.000    0.571    5.714    2.571    0.000    1.714 
#    2.571    1.429    0.000    0.000    0.000    0.000 
#    0.000    0.000    0.000    0.000    0.000    0.000 
#
# Total GULP energy -78214.677062 kJ/mol
# GULP energy per Si atom -5586.762647 kJ/mol
# Density = 2.345652 g / cm^3
# Si number density = 23.510030 Si / 1000 Ang^3
#
#
#
# Elastic Constant Matrix: (Units=GPa)
#
#
# Indices 1 2 3 4 5 6 
#
# 1 94.8977 36.5513 38.7486 7.0765 -4.5096 -0.2614
# 2 36.5513 163.3607 26.0900 15.4475 1.5024 -20.0096
# 3 38.7486 26.0900 81.5462 6.4278 -14.6066 -6.4868
# 4 7.0765 15.4475 6.4278 36.5570 -10.0828 1.7602
# 5 -4.5096 1.5024 -14.6066 -10.0828 37.3498 1.3755
# 6 -0.2614 -20.0096 -6.4868 1.7602 1.3755 50.1580
#
#
#
# Elastic Compliance Matrix: (Units=1/GPa)
#
#
# Indices 1 2 3 4 5 6 
#
# 1 0.013909 -0.002247 -0.006089 -0.000810 -0.000773 -0.001562
# 2 -0.002247 0.007508 -0.001204 -0.003229 -0.002026 0.002996
# 3 -0.006089 -0.001204 0.016686 0.000300 0.005865 0.001474
# 4 -0.000810 -0.003229 0.000300 0.031350 0.008708 -0.002592
# 5 -0.000773 -0.002026 0.005865 0.008708 0.031452 -0.001222
# 6 -0.001562 0.002996 0.001474 -0.002592 -0.001222 0.021439
#
#
# Mechanical properties :
#
#
# Convention : Reuss Voigt Hill
#
# Bulk Modulus (GPa) = 52.57228 60.28718 56.42973
# Shear Modulus (GPa) = 33.83776 40.70727 37.27251
#
# Velocity S-wave (km/s) = 3.79791 4.16563 3.98601
# Velocity P-wave (km/s) = 6.45309 6.98824 6.72599
#
# Compressibility (1/GPa) = 0.01902143
#
# Stress axis : x y z
#
# Youngs Moduli (GPa) = 71.89682 133.19977 59.93124
#
# Poissons Ratio (x) = 0.29933 0.36492
# Poissons Ratio (y) = 0.16157 0.07217
# Poissons Ratio (z) = 0.43777 0.16040
#
# Static dielectric constant tensor:
#      x y z
#    x 1.983340 -0.020310 0.027050 
#    y -0.020310 1.879290 0.023210 
#    z 0.027050 0.023210 1.940740 
# 
# From -- ./inp_files/462579.got.cif
#   From: 2010.05.17/outbox.cif.g08.bks.cpg/sg2_232_cif.got.tgz:462579.got - 2010.06.03 11:33:40.
