data_PCOD9057642
_publ_section_title
;
Structure prediction by ZEFSAII (Michael W. Deem and Ramdas Pophale) SiO2 
 PCOD9057642
Probable space group: P -1
;
_chemical_formula_sum "Si O2"
_cell_formula_units_Z 16
_cell_length_a 13.799068
_cell_length_b 15.044388
_cell_length_c 14.764875
_cell_angle_alpha 35.487880
_cell_angle_beta 20.390256
_cell_angle_gamma 36.422797
_cell_volume 606.823070
_symmetry_space_group_name_H-M "P -1"
_symmetry_group_IT_number 2
_symmetry_cell_setting 'triclinic'
loop_
_space_group_symop_operation_xyz
x,y,z
-x,-y,-z
loop_
_atom_site_type_symbol
_atom_site_label
_atom_site_fract_x
_atom_site_fract_y
_atom_site_fract_z
Si Si1 0.242622 0.890031 0.933517
Si Si2 0.042958 0.936022 0.681851
Si Si3 0.045361 0.334982 0.148788
Si Si4 0.830781 0.576540 0.766950
Si Si5 0.222563 0.299832 0.476920
Si Si6 0.371584 0.602214 0.370731
Si Si7 0.387253 0.680184 0.715573
Si Si8 0.518728 0.110923 0.096212
O O1 0.075787 0.753119 0.218314
O O2 0.523834 0.833575 0.675325
O O3 0.326485 0.974118 0.878706
O O4 0.000000 0.000000 0.000000
O O5 0.199860 0.841318 0.710079
O O6 0.964075 0.806497 0.792273
O O7 0.259403 0.029022 0.368487
O O8 0.767157 0.063168 0.845789
O O9 0.799645 0.357493 0.420367
O O10 0.359041 0.314940 0.934916
O O11 0.000000 0.500000 0.000000
O O12 0.794612 0.570474 0.695550
O O13 0.600752 0.720131 0.892155
O O14 0.127945 0.625226 0.488760
O O15 0.794826 0.422881 0.980694
O O16 0.344961 0.321086 0.451570
O O17 0.509036 0.419472 0.383422
#
# Coordination Sequence:
#
# PCOD9057642 Si02
#       8
#     2   2   2   2   2   2   2   2
#     4  11  22  43  67 100 149 192 236 297 357 423
#     4  12  26  46  77 108 139 183 249 308 353 434
#     4  12  25  47  74 109 144 181 240 308 377 415
#     4  11  27  49  72 104 156 200 233 293 366 435
#     4  11  26  41  71 107 143 192 247 290 348 426
#     4  12  26  44  75 103 145 188 238 295 371 424
#     4  12  27  45  77 110 145 190 251 300 355 429
#     4  11  26  46  71 103 147 193 234 290 371 426
#
# _framework density 26.366828999999999
#
# number of rings (size 3 to 8) (size 9 to 14) (size 15 to 20)
#    0.000    0.500    2.500    4.875   10.500    0.500 
#    0.000    3.750    0.000    0.000    0.000    0.000 
#    0.000    0.000    0.000    0.000    0.000    0.000 
#
# Total GULP energy -89663.431254 kJ/mol
# GULP energy per Si atom -5603.964453 kJ/mol
# Density = 2.630682 g / cm^3
# Si number density = 26.366829 Si / 1000 Ang^3
#
#
#
# Elastic Constant Matrix: (Units=GPa)
#
#
# Indices 1 2 3 4 5 6 
#
# 1 92.9914 7.4348 27.9560 7.4082 -11.9695 12.7833
# 2 7.4348 95.3610 51.4939 13.3657 -1.8130 -1.1451
# 3 27.9560 51.4939 169.1967 4.4277 -20.4196 13.6226
# 4 7.4082 13.3657 4.4277 42.6168 -2.0830 1.4455
# 5 -11.9695 -1.8130 -20.4196 -2.0830 52.6622 -5.2843
# 6 12.7833 -1.1451 13.6226 1.4455 -5.2843 53.3244
#
#
#
# Elastic Compliance Matrix: (Units=1/GPa)
#
#
# Indices 1 2 3 4 5 6 
#
# 1 0.011894 0.000185 -0.001578 -0.001798 0.001804 -0.002217
# 2 0.000185 0.013284 -0.004217 -0.003861 -0.001157 0.001308
# 3 -0.001578 -0.004217 0.007843 0.000952 0.002424 -0.001501
# 4 -0.001798 -0.003861 0.000952 0.024944 0.000764 -0.000495
# 5 0.001804 -0.001157 0.002424 0.000764 0.020422 0.000926
# 6 -0.002217 0.001308 -0.001501 -0.000495 0.000926 0.019801
#
#
# Mechanical properties :
#
#
# Convention : Reuss Voigt Hill
#
# Bulk Modulus (GPa) = 45.87356 59.03538 52.45447
# Shear Modulus (GPa) = 42.85339 47.76497 45.30918
#
# Velocity S-wave (km/s) = 4.03585 4.26085 4.14988
# Velocity P-wave (km/s) = 6.25727 6.82972 6.54975
#
# Compressibility (1/GPa) = 0.02179905
#
# Stress axis : x y z
#
# Youngs Moduli (GPa) = 84.07943 75.27646 127.49978
#
# Poissons Ratio (x) = -0.01389 0.20120
# Poissons Ratio (y) = -0.01552 0.53773
# Poissons Ratio (z) = 0.13268 0.31748
#
# Static dielectric constant tensor:
#      x y z
#    x 2.202450 -0.189410 0.056330 
#    y -0.189410 2.218550 -0.057550 
#    z 0.056330 -0.057550 2.058590 
# 
# From -- ./inp_files/534225.got.cif
#   From: 2010.05.17/outbox.cif.g08.bks.cpg/sg2_268_cif.got.tgz:534225.got - 2010.06.03 11:33:40.
