data_PCOD9057806
_publ_section_title
;
Structure prediction by ZEFSAII (Michael W. Deem and Ramdas Pophale) SiO2 
 PCOD9057806
Probable space group: P -1
;
_chemical_formula_sum "Si O2"
_cell_formula_units_Z 15
_cell_length_a 8.257389
_cell_length_b 11.887023
_cell_length_c 11.517835
_cell_angle_alpha 64.592781
_cell_angle_beta 122.746317
_cell_angle_gamma 135.784889
_cell_volume 661.442154
_symmetry_space_group_name_H-M "P -1"
_symmetry_group_IT_number 2
_symmetry_cell_setting 'triclinic'
loop_
_space_group_symop_operation_xyz
x,y,z
-x,-y,-z
loop_
_atom_site_type_symbol
_atom_site_label
_atom_site_fract_x
_atom_site_fract_y
_atom_site_fract_z
Si Si1 0.390433 0.441045 0.113730
Si Si2 0.070086 0.833126 0.614354
Si Si3 0.276696 0.554672 0.569660
Si Si4 0.752966 0.868160 0.306118
Si Si5 0.749827 0.493140 0.692901
Si Si6 0.933443 0.940935 0.871114
Si Si7 0.527604 0.133190 0.379123
Si Si8 0.000000 0.500000 0.000000
O O1 0.615709 0.497305 0.268000
O O2 0.189630 0.245049 0.114091
O O3 0.500000 0.500000 0.000000
O O4 0.235257 0.497714 0.070423
O O5 0.236735 0.790157 0.647151
O O6 0.958599 0.867709 0.450673
O O7 0.844381 0.675809 0.668690
O O8 0.238983 0.997330 0.681357
O O9 0.278157 0.512469 0.456350
O O10 0.450123 0.744818 0.576848
O O11 0.000000 0.500000 0.500000
O O12 0.503102 0.685237 0.294949
O O13 0.837490 0.938192 0.179162
O O14 0.956333 0.498930 0.841289
O O15 0.715850 0.946733 0.753401
O O16 0.000000 0.000000 0.000000
O O17 0.500000 0.000000 0.500000
#
# Coordination Sequence:
#
# PCOD9057806 Si02
#       8
#     2   2   2   2   2   2   2   1
#     4  11  28  50  78 112 160 207 262 331 395 475
#     4  11  24  44  76 107 150 189 257 319 381 466
#     4  11  24  45  77 114 148 196 268 316 388 473
#     4  11  26  46  71 111 150 194 252 326 387 459
#     4  12  27  45  77 112 147 206 251 320 392 462
#     4  11  27  48  73 105 151 200 253 315 398 471
#     4  11  22  43  71 105 143 189 247 316 377 457
#     4  12  30  48  74 116 160 202 272 320 398 474
#
# _framework density 22.677717999999999
#
# number of rings (size 3 to 8) (size 9 to 14) (size 15 to 20)
#    0.000    0.800    2.667    2.800   13.067    3.200 
#    0.000    2.000    0.000    0.000    0.000    0.000 
#    0.000    0.000    0.000    0.000    0.000    0.000 
#
# Total GULP energy -83517.515899 kJ/mol
# GULP energy per Si atom -5567.834393 kJ/mol
# Density = 2.262610 g / cm^3
# Si number density = 22.677718 Si / 1000 Ang^3
#
#
#
# Elastic Constant Matrix: (Units=GPa)
#
#
# Indices 1 2 3 4 5 6 
#
# 1 103.4670 48.5677 49.4197 -5.3603 -3.1019 -3.8131
# 2 48.5677 124.9539 53.4474 -4.5030 -16.7218 6.3390
# 3 49.4197 53.4474 189.3138 13.8160 -6.6340 -5.6704
# 4 -5.3603 -4.5030 13.8160 31.6793 2.2514 -11.1249
# 5 -3.1019 -16.7218 -6.6340 2.2514 45.5426 -5.1566
# 6 -3.8131 6.3390 -5.6704 -11.1249 -5.1566 34.5661
#
#
#
# Elastic Compliance Matrix: (Units=1/GPa)
#
#
# Indices 1 2 3 4 5 6 
#
# 1 0.013062 -0.004151 -0.002456 0.003765 -0.000852 0.002884
# 2 -0.004151 0.011055 -0.002046 0.000801 0.003203 -0.002085
# 3 -0.002456 -0.002046 0.006779 -0.003654 0.000258 0.000079
# 4 0.003765 0.000801 -0.003654 0.038112 -0.000523 0.011857
# 5 -0.000852 0.003203 0.000258 -0.000523 0.023443 0.002690
# 6 0.002884 -0.002085 0.000079 0.011857 0.002690 0.033861
#
#
# Mechanical properties :
#
#
# Convention : Reuss Voigt Hill
#
# Bulk Modulus (GPa) = 73.58602 80.06713 76.82658
# Shear Modulus (GPa) = 33.74979 40.11095 36.93037
#
# Velocity S-wave (km/s) = 3.86195 4.21020 4.03983
# Velocity P-wave (km/s) = 7.23915 7.68229 7.46401
#
# Compressibility (1/GPa) = 0.01358954
#
# Stress axis : x y z
#
# Youngs Moduli (GPa) = 76.55544 90.45763 147.51190
#
# Poissons Ratio (x) = 0.37551 0.36231
# Poissons Ratio (y) = 0.31780 0.30182
# Poissons Ratio (z) = 0.18803 0.18509
#
# Static dielectric constant tensor:
#      x y z
#    x 2.022490 0.046990 -0.052900 
#    y 0.046990 1.889660 0.012950 
#    z -0.052900 0.012950 1.890400 
# 
# From -- ./inp_files/392412.got.cif
#   From: 2010.05.17/outbox.cif.g08.bks.cpg/sg2_197_cif.got.tgz:392412.got - 2010.06.03 11:33:40.
