data_PCOD9057980
_publ_section_title
;
Structure prediction by ZEFSAII (Michael W. Deem and Ramdas Pophale) SiO2 
 PCOD9057980
Probable space group: P -1
;
_chemical_formula_sum "Si O2"
_cell_formula_units_Z 13
_cell_length_a 8.138180
_cell_length_b 5.786779
_cell_length_c 14.148064
_cell_angle_alpha 106.440271
_cell_angle_beta 52.914116
_cell_angle_gamma 99.722529
_cell_volume 509.786267
_symmetry_space_group_name_H-M "P -1"
_symmetry_group_IT_number 2
_symmetry_cell_setting 'triclinic'
loop_
_space_group_symop_operation_xyz
x,y,z
-x,-y,-z
loop_
_atom_site_type_symbol
_atom_site_label
_atom_site_fract_x
_atom_site_fract_y
_atom_site_fract_z
Si Si1 0.302899 0.489779 0.457569
Si Si2 0.500000 0.000000 0.500000
Si Si3 0.720087 0.888816 0.938559
Si Si4 0.828913 0.322510 0.077273
Si Si5 0.333723 0.884560 0.717284
Si Si6 0.876341 0.544306 0.693682
Si Si7 0.519939 0.680473 0.153689
O O1 0.401042 0.755144 0.454386
O O2 0.472783 0.287004 0.400643
O O3 0.205073 0.431395 0.382849
O O4 0.115597 0.479670 0.595836
O O5 0.297681 0.010860 0.644998
O O6 0.831325 0.781793 0.797251
O O7 0.649198 0.683639 0.012947
O O8 0.500000 0.000000 0.000000
O O9 0.838551 0.089006 0.980917
O O10 0.830056 0.262347 0.181209
O O11 0.609407 0.452536 0.152998
O O12 0.000000 0.500000 0.000000
O O13 0.417705 0.078398 0.785423
O O14 0.724426 0.346419 0.770003
#
# Coordination Sequence:
#
# PCOD9057980 Si02
#       7
#     2   1   2   2   2   2   2
#     4  11  25  44  69  98 137 178 226 276 335 405
#     4  12  24  46  66  94 138 186 216 284 328 402
#     4  11  23  42  69 100 135 179 219 280 344 394
#     4  11  25  44  72 102 133 180 228 284 337 399
#     4  11  23  45  70  98 137 180 225 279 344 396
#     4  11  22  44  67 102 132 177 227 272 336 407
#     4  11  22  44  72  94 140 174 222 286 336 399
#
# _framework density 25.500881
#
# number of rings (size 3 to 8) (size 9 to 14) (size 15 to 20)
#    0.000    0.923    4.615    1.846    0.000    6.769 
#    2.769    0.000    0.000    0.000    0.000    0.000 
#    0.000    0.000    0.000    0.000    0.000    0.000 
#
# Total GULP energy -72558.276814 kJ/mol
# GULP energy per Si atom -5581.405909 kJ/mol
# Density = 2.544284 g / cm^3
# Si number density = 25.500881 Si / 1000 Ang^3
#
#
#
# Elastic Constant Matrix: (Units=GPa)
#
#
# Indices 1 2 3 4 5 6 
#
# 1 69.5695 13.5488 33.7432 10.1721 -3.8213 1.1683
# 2 13.5488 75.9858 52.0453 4.0884 -6.6491 27.0618
# 3 33.7432 52.0453 214.3779 -1.5108 -2.0167 21.1004
# 4 10.1721 4.0884 -1.5108 58.0245 5.9412 -5.6691
# 5 -3.8213 -6.6491 -2.0167 5.9412 51.2328 5.0891
# 6 1.1683 27.0618 21.1004 -5.6691 5.0891 35.1774
#
#
#
# Elastic Compliance Matrix: (Units=1/GPa)
#
#
# Indices 1 2 3 4 5 6 
#
# 1 0.016251 -0.001583 -0.002328 -0.002766 0.001090 0.001471
# 2 -0.001583 0.022193 -0.003532 -0.003427 0.004622 -0.016122
# 3 -0.002328 -0.003532 0.005947 0.000799 -0.000433 -0.000581
# 4 -0.002766 -0.003427 0.000799 0.018893 -0.003385 0.005783
# 5 0.001090 0.004622 -0.000433 -0.003385 0.021266 -0.006954
# 6 0.001471 -0.016122 -0.000581 0.005783 -0.006954 0.043068
#
#
# Mechanical properties :
#
#
# Convention : Reuss Voigt Hill
#
# Bulk Modulus (GPa) = 33.89288 62.06752 47.98020
# Shear Modulus (GPa) = 32.82155 46.25999 39.54077
#
# Velocity S-wave (km/s) = 3.59148 4.26379 3.94199
# Velocity P-wave (km/s) = 5.52431 6.97367 6.29087
#
# Compressibility (1/GPa) = 0.02950472
#
# Stress axis : x y z
#
# Youngs Moduli (GPa) = 61.53497 45.05984 168.14152
#
# Poissons Ratio (x) = 0.07133 0.39136
# Poissons Ratio (y) = 0.09742 0.59395
# Poissons Ratio (z) = 0.14323 0.15917
#
# Static dielectric constant tensor:
#      x y z
#    x 2.247400 -0.159750 0.097340 
#    y -0.159750 2.269210 -0.170710 
#    z 0.097340 -0.170710 2.104980 
# 
# From -- ./inp_files/25527.got.cif
#   From: 2010.05.17/outbox.cif.g08.bks.cpg/sg2_13_cif.got.tgz:25527.got - 2010.06.03 11:33:40.
