data_PCOD9057222
_publ_section_title
;
Structure prediction by ZEFSAII (Michael W. Deem and Ramdas Pophale) SiO2 
 PCOD9057222
Probable space group: P -1
;
_chemical_formula_sum "Si O2"
_cell_formula_units_Z 14
_cell_length_a 11.878670
_cell_length_b 20.178605
_cell_length_c 8.197881
_cell_angle_alpha 133.271381
_cell_angle_beta 36.441535
_cell_angle_gamma 150.873663
_cell_volume 567.107812
_symmetry_space_group_name_H-M "P -1"
_symmetry_group_IT_number 2
_symmetry_cell_setting 'triclinic'
loop_
_space_group_symop_operation_xyz
x,y,z
-x,-y,-z
loop_
_atom_site_type_symbol
_atom_site_label
_atom_site_fract_x
_atom_site_fract_y
_atom_site_fract_z
Si Si1 0.185321 0.394913 0.045319
Si Si2 0.974689 0.053611 0.775361
Si Si3 0.106052 0.667964 0.039570
Si Si4 0.336022 0.307813 0.954734
Si Si5 0.566249 0.401481 0.401032
Si Si6 0.437034 0.951367 0.301472
Si Si7 0.101680 0.143427 0.284771
O O1 0.150168 0.328065 0.142465
O O2 0.437657 0.424519 0.720246
O O3 0.938734 0.314383 0.064276
O O4 0.340440 0.546386 0.152148
O O5 0.270251 0.205647 0.729462
O O6 0.864220 0.950780 0.878824
O O7 0.000000 0.000000 0.500000
O O8 0.736039 0.044731 0.020898
O O9 0.263900 0.796623 0.191524
O O10 0.788885 0.535642 0.254812
O O11 0.264270 0.627702 0.789905
O O12 0.208625 0.220921 0.120666
O O13 0.291722 0.265601 0.397835
O O14 0.230547 0.954544 0.477817
O O15 0.500000 0.000000 0.500000
#
# Coordination Sequence:
#
# PCOD9057222 Si02
#       7
#     2   2   2   2   2   2   2
#     4  11  23  46  70 103 144 185 241 302 354 425
#     4  12  28  49  71 105 149 191 239 301 364 432
#     4  11  23  41  72 105 144 187 244 293 363 432
#     4  11  25  44  73 104 141 194 239 294 363 422
#     4  11  22  41  75 103 139 191 240 293 370 419
#     4  12  26  43  74 110 141 191 244 291 362 437
#     4  12  23  48  75 101 147 188 244 297 358 430
#
# _framework density 24.686664
#
# number of rings (size 3 to 8) (size 9 to 14) (size 15 to 20)
#    0.000    0.571    5.714    2.571    0.000    0.571 
#    0.000    4.286    0.000    0.000    0.000    0.000 
#    0.000    0.000    0.000    0.000    0.000    0.000 
#
# Total GULP energy -78339.291426 kJ/mol
# GULP energy per Si atom -5595.663673 kJ/mol
# Density = 2.463048 g / cm^3
# Si number density = 24.686664 Si / 1000 Ang^3
#
#
#
# Elastic Constant Matrix: (Units=GPa)
#
#
# Indices 1 2 3 4 5 6 
#
# 1 135.2609 39.2670 12.4083 3.1022 4.0095 8.3674
# 2 39.2670 151.2238 8.7464 25.5578 13.9306 22.1799
# 3 12.4083 8.7464 66.0765 3.2343 0.4126 24.2961
# 4 3.1022 25.5578 3.2343 37.6241 6.8060 8.6865
# 5 4.0095 13.9306 0.4126 6.8060 32.5283 -2.2015
# 6 8.3674 22.1799 24.2961 8.6865 -2.2015 53.5398
#
#
#
# Elastic Compliance Matrix: (Units=1/GPa)
#
#
# Indices 1 2 3 4 5 6 
#
# 1 0.008128 -0.002183 -0.001305 0.000955 -0.000246 0.000061
# 2 -0.002183 0.008578 0.000556 -0.004561 -0.002649 -0.002834
# 3 -0.001305 0.000556 0.018410 0.000271 -0.000940 -0.008464
# 4 0.000955 -0.004561 0.000271 0.031321 -0.004969 -0.003669
# 5 -0.000246 -0.002649 -0.000940 -0.004969 0.033212 0.003735
# 6 0.000061 -0.002834 -0.008464 -0.003669 0.003735 0.024432
#
#
# Mechanical properties :
#
#
# Convention : Reuss Voigt Hill
#
# Bulk Modulus (GPa) = 34.18496 52.60052 43.39274
# Shear Modulus (GPa) = 35.79235 44.21441 40.00338
#
# Velocity S-wave (km/s) = 3.81184 4.23664 4.02984
# Velocity P-wave (km/s) = 5.76638 6.72946 6.26645
#
# Compressibility (1/GPa) = 0.02925263
#
# Stress axis : x y z
#
# Youngs Moduli (GPa) = 123.02951 116.57920 54.31819
#
# Poissons Ratio (x) = 0.25447 0.07089
# Poissons Ratio (y) = 0.26855 -0.03021
# Poissons Ratio (z) = 0.16057 -0.06484
#
# Static dielectric constant tensor:
#      x y z
#    x 2.030590 -0.029880 0.046670 
#    y -0.029880 1.972660 -0.006440 
#    z 0.046670 -0.006440 1.929600 
# 
# From -- ./inp_files/283195.got.cif
#   From: 2010.05.17/outbox.cif.g08.bks.cpg/sg2_142_cif.got.tgz:283195.got - 2010.06.03 11:33:40.
