data_PCOD9057876
_publ_section_title
;
Structure prediction by ZEFSAII (Michael W. Deem and Ramdas Pophale) SiO2 
 PCOD9057876
Probable space group: P -1
;
_chemical_formula_sum "Si O2"
_cell_formula_units_Z 16
_cell_length_a 6.979646
_cell_length_b 15.118346
_cell_length_c 19.854474
_cell_angle_alpha 153.695708
_cell_angle_beta 132.932849
_cell_angle_gamma 48.066179
_cell_volume 668.909986
_symmetry_space_group_name_H-M "P -1"
_symmetry_group_IT_number 2
_symmetry_cell_setting 'triclinic'
loop_
_space_group_symop_operation_xyz
x,y,z
-x,-y,-z
loop_
_atom_site_type_symbol
_atom_site_label
_atom_site_fract_x
_atom_site_fract_y
_atom_site_fract_z
Si Si1 0.486712 0.874060 0.694868
Si Si2 0.995596 0.268424 0.068537
Si Si3 0.916062 0.157628 0.229745
Si Si4 0.260124 0.252551 0.805712
Si Si5 0.602506 0.164717 0.019971
Si Si6 0.511966 0.609477 0.165959
Si Si7 0.469131 0.494307 0.369484
Si Si8 0.655766 0.390521 0.729220
O O1 0.370408 0.671433 0.519636
O O2 0.788010 0.813262 0.697486
O O3 0.337947 0.063630 0.745273
O O4 0.507553 0.963900 0.835073
O O5 0.252756 0.350074 0.210031
O O6 0.793694 0.458432 0.121563
O O7 0.827779 0.200331 0.044277
O O8 0.052812 0.077617 0.901730
O O9 0.747066 0.352118 0.357570
O O10 0.740086 0.150456 0.114902
O O11 0.463669 0.226358 0.773139
O O12 0.957353 0.276667 0.725726
O O13 0.305152 0.461061 0.996010
O O14 0.378865 0.365652 0.100970
O O15 0.479005 0.679098 0.282848
O O16 0.473169 0.609871 0.376221
#
# Coordination Sequence:
#
# PCOD9057876 Si02
#       8
#     2   2   2   2   2   2   2   2
#     4  11  21  37  59  89 119 162 188 248 310 346
#     4  10  17  37  57  88 113 155 200 239 294 348
#     4  10  20  40  62  84 113 161 206 242 290 358
#     4  11  20  36  64  88 120 154 204 247 290 350
#     4   9  20  38  65  83 116 155 205 246 290 352
#     4  10  20  35  62  90 117 153 205 254 278 346
#     4  11  23  35  60  88 124 152 197 245 306 356
#     4  10  20  38  60  91 115 160 201 241 291 356
#
# _framework density 23.919512000000001
#
# number of rings (size 3 to 8) (size 9 to 14) (size 15 to 20)
#    0.000    1.750    5.000    2.625    0.000    0.500 
#    0.000    3.125    8.250    0.000    0.000    0.000 
#    0.000    0.000    0.000    0.000    0.000    0.000 
#
# Total GULP energy -89386.831939 kJ/mol
# GULP energy per Si atom -5586.676996 kJ/mol
# Density = 2.386507 g / cm^3
# Si number density = 23.919512 Si / 1000 Ang^3
#
#
#
# Elastic Constant Matrix: (Units=GPa)
#
#
# Indices 1 2 3 4 5 6 
#
# 1 71.7645 25.2050 15.3544 0.8104 -10.3052 7.1051
# 2 25.2050 91.2642 -0.6086 2.5011 -2.0883 -9.1532
# 3 15.3544 -0.6086 68.4190 2.5241 -10.5427 -5.1210
# 4 0.8104 2.5011 2.5241 18.1115 3.4281 -3.0950
# 5 -10.3052 -2.0883 -10.5427 3.4281 20.6784 -4.9560
# 6 7.1051 -9.1532 -5.1210 -3.0950 -4.9560 43.4393
#
#
#
# Elastic Compliance Matrix: (Units=1/GPa)
#
#
# Indices 1 2 3 4 5 6 
#
# 1 0.017684 -0.005112 -0.003334 -0.001388 0.005919 -0.003786
# 2 -0.005112 0.012805 0.001697 -0.001275 0.000715 0.003725
# 3 -0.003334 0.001697 0.017122 -0.003491 0.008697 0.003665
# 4 -0.001388 -0.001275 -0.003491 0.058567 -0.011739 0.002380
# 5 0.005919 0.000715 0.008697 -0.011739 0.059231 0.006129
# 6 -0.003786 0.003725 0.003665 0.002380 0.006129 0.025726
#
#
# Mechanical properties :
#
#
# Convention : Reuss Voigt Hill
#
# Bulk Modulus (GPa) = 29.31426 34.59437 31.95431
# Shear Modulus (GPa) = 23.14764 29.21230 26.17997
#
# Velocity S-wave (km/s) = 3.11421 3.49847 3.31192
# Velocity P-wave (km/s) = 5.02126 5.55097 5.29275
#
# Compressibility (1/GPa) = 0.03411309
#
# Stress axis : x y z
#
# Youngs Moduli (GPa) = 56.54855 78.09231 58.40324
#
# Poissons Ratio (x) = 0.39924 0.19472
# Poissons Ratio (y) = 0.28910 -0.09912
# Poissons Ratio (z) = 0.18854 -0.13254
#
# Static dielectric constant tensor:
#      x y z
#    x 1.972900 0.035910 0.001000 
#    y 0.035910 1.954820 0.023980 
#    z 0.001000 0.023980 1.962970 
# 
# From -- ./inp_files/608416.got.cif
#   From: 2010.05.17/outbox.cif.g08.bks.cpg/sg2_305_cif.got.tgz:608416.got - 2010.06.03 11:33:40.
