data_PCOD9057291
_publ_section_title
;
Structure prediction by ZEFSAII (Michael W. Deem and Ramdas Pophale) SiO2 
 PCOD9057291
Probable space group: P -1
;
_chemical_formula_sum "Si O2"
_cell_formula_units_Z 16
_cell_length_a 8.177147
_cell_length_b 8.224651
_cell_length_c 19.473376
_cell_angle_alpha 66.285507
_cell_angle_beta 114.026528
_cell_angle_gamma 145.215381
_cell_volume 676.621762
_symmetry_space_group_name_H-M "P -1"
_symmetry_group_IT_number 2
_symmetry_cell_setting 'triclinic'
loop_
_space_group_symop_operation_xyz
x,y,z
-x,-y,-z
loop_
_atom_site_type_symbol
_atom_site_label
_atom_site_fract_x
_atom_site_fract_y
_atom_site_fract_z
Si Si1 0.672911 0.308655 0.504439
Si Si2 0.615606 0.002490 0.134089
Si Si3 0.129104 0.019828 0.930319
Si Si4 0.917812 0.152079 0.300603
Si Si5 0.315389 0.741404 0.325626
Si Si6 0.685270 0.429006 0.033228
Si Si7 0.916633 0.227527 0.837162
Si Si8 0.938033 0.052637 0.553006
O O1 0.732863 0.312551 0.593391
O O2 0.943256 0.649758 0.472800
O O3 0.500000 0.000000 0.500000
O O4 0.407359 0.234395 0.457158
O O5 0.834807 0.131445 0.212075
O O6 0.690605 0.221946 0.058608
O O7 0.658372 0.867616 0.115037
O O8 0.319808 0.843074 0.146871
O O9 0.919218 0.017244 0.874780
O O10 0.363649 0.244912 0.991699
O O11 0.925099 0.709675 0.979974
O O12 0.212352 0.478867 0.316739
O O13 0.654874 0.033242 0.319830
O O14 0.935562 0.963585 0.360007
O O15 0.128400 0.740491 0.252892
O O16 0.780899 0.504841 0.116961
O O17 0.000000 0.000000 0.500000
#
# Coordination Sequence:
#
# PCOD9057291 Si02
#       8
#     2   2   2   2   2   2   2   2
#     4  12  25  42  67 104 140 175 221 283 345 400
#     4  11  26  45  67 100 134 179 224 280 347 403
#     4  12  28  41  68  99 134 170 231 283 336 409
#     4  11  23  40  70  96 129 176 228 272 329 406
#     4  11  22  42  66  95 133 178 216 274 340 404
#     4  12  24  45  68  97 130 181 224 281 340 407
#     4  11  26  44  69  96 135 180 224 277 348 406
#     4  12  22  42  71  98 129 179 230 272 327 408
#
# _framework density 23.646889000000002
#
# number of rings (size 3 to 8) (size 9 to 14) (size 15 to 20)
#    0.000    0.500    5.000    3.000    3.500    1.000 
#    0.000    1.250    0.000    0.000    0.000    0.000 
#    0.000    0.000    0.000    0.000    0.000    0.000 
#
# Total GULP energy -89230.263537 kJ/mol
# GULP energy per Si atom -5576.891471 kJ/mol
# Density = 2.359307 g / cm^3
# Si number density = 23.646889 Si / 1000 Ang^3
#
#
#
# Elastic Constant Matrix: (Units=GPa)
#
#
# Indices 1 2 3 4 5 6 
#
# 1 61.1203 22.9242 43.4655 6.2043 7.0773 5.6606
# 2 22.9242 117.1465 43.1028 -0.0161 10.1101 12.0855
# 3 43.4655 43.1028 183.9236 6.4617 35.0790 -4.4471
# 4 6.2043 -0.0161 6.4617 36.2835 -3.5177 6.5968
# 5 7.0773 10.1101 35.0790 -3.5177 26.5868 4.1459
# 6 5.6606 12.0855 -4.4471 6.5968 4.1459 40.9555
#
#
#
# Elastic Compliance Matrix: (Units=1/GPa)
#
#
# Indices 1 2 3 4 5 6 
#
# 1 0.020791 -0.002219 -0.004690 -0.002100 0.001618 -0.002553
# 2 -0.002219 0.010000 -0.001936 0.001284 -0.000010 -0.003060
# 3 -0.004690 -0.001936 0.009334 -0.002645 -0.011273 0.003800
# 4 -0.002100 0.001284 -0.002645 0.030332 0.008529 -0.006125
# 5 0.001618 -0.000010 -0.011273 0.008529 0.054488 -0.008334
# 6 -0.002553 -0.003060 0.003800 -0.006125 -0.008334 0.027916
#
#
# Mechanical properties :
#
#
# Convention : Reuss Voigt Hill
#
# Bulk Modulus (GPa) = 44.57489 64.57503 54.57496
# Shear Modulus (GPa) = 28.08525 37.61168 32.84847
#
# Velocity S-wave (km/s) = 3.45003 3.99250 3.73114
# Velocity P-wave (km/s) = 5.89588 6.97286 6.45686
#
# Compressibility (1/GPa) = 0.02243416
#
# Stress axis : x y z
#
# Youngs Moduli (GPa) = 48.09752 100.00228 107.13507
#
# Poissons Ratio (x) = 0.22195 0.50244
# Poissons Ratio (y) = 0.10675 0.20743
# Poissons Ratio (z) = 0.22557 0.19362
#
# Static dielectric constant tensor:
#      x y z
#    x 2.046750 -0.116730 0.024990 
#    y -0.116730 1.999490 -0.062910 
#    z 0.024990 -0.062910 1.858140 
# 
# From -- ./inp_files/587913.got.cif
#   From: 2010.05.17/outbox.cif.g08.bks.cpg/sg2_294_cif.got.tgz:587913.got - 2010.06.03 11:33:40.
