data_PCOD9057686
_publ_section_title
;
Structure prediction by ZEFSAII (Michael W. Deem and Ramdas Pophale) SiO2 
 PCOD9057686
Probable space group: P -1
;
_chemical_formula_sum "Si O2"
_cell_formula_units_Z 16
_cell_length_a 18.010111
_cell_length_b 9.069620
_cell_length_c 12.368860
_cell_angle_alpha 88.104695
_cell_angle_beta 127.713148
_cell_angle_gamma 135.563715
_cell_volume 766.076986
_symmetry_space_group_name_H-M "P -1"
_symmetry_group_IT_number 2
_symmetry_cell_setting 'triclinic'
loop_
_space_group_symop_operation_xyz
x,y,z
-x,-y,-z
loop_
_atom_site_type_symbol
_atom_site_label
_atom_site_fract_x
_atom_site_fract_y
_atom_site_fract_z
Si Si1 0.161307 0.377658 0.826626
Si Si2 0.287349 0.278556 0.805249
Si Si3 0.666566 0.360939 0.798215
Si Si4 0.007470 0.348251 0.061313
Si Si5 0.729768 0.675645 0.457707
Si Si6 0.072180 0.437525 0.536532
Si Si7 0.263010 0.653973 0.478728
Si Si8 0.600202 0.616015 0.702614
O O1 0.248398 0.343121 0.862451
O O2 0.161124 0.486910 0.722135
O O3 0.272235 0.587207 0.025058
O O4 0.935224 0.033635 0.663647
O O5 0.271386 0.336590 0.673115
O O6 0.500000 0.500000 0.000000
O O7 0.113439 0.918559 0.656649
O O8 0.832526 0.526515 0.864083
O O9 0.646052 0.507835 0.763390
O O10 0.459313 0.998667 0.601238
O O11 0.082859 0.455404 0.248767
O O12 0.000000 0.500000 0.000000
O O13 0.798556 0.982545 0.876454
O O14 0.717921 0.496725 0.501395
O O15 0.552191 0.531653 0.341973
O O16 0.221268 0.644589 0.564616
O O17 0.000000 0.500000 0.500000
O O18 0.500000 0.500000 0.500000
#
# Coordination Sequence:
#
# PCOD9057686 Si02
#       8
#     2   2   2   2   2   2   2   2
#     4  11  23  46  66 100 141 175 226 274 335 399
#     4  11  23  42  68  98 140 178 224 267 338 404
#     4  12  27  43  70 103 134 176 225 286 334 401
#     4  12  27  48  70  97 136 179 225 282 343 399
#     4  11  22  43  68  95 131 183 216 273 338 401
#     4  11  26  42  68 101 138 182 220 281 328 397
#     4  12  25  45  68  97 140 176 228 271 341 404
#     4  12  25  44  72 101 131 173 232 281 338 399
#
# _framework density 20.885631
#
# number of rings (size 3 to 8) (size 9 to 14) (size 15 to 20)
#    0.000    0.500    2.500    6.000    8.750    1.500 
#    0.000    0.000    0.000    0.000    0.000    0.000 
#    0.000    0.000    0.000    0.000    0.000    0.000 
#
# Total GULP energy -89639.291324 kJ/mol
# GULP energy per Si atom -5602.455708 kJ/mol
# Density = 2.083809 g / cm^3
# Si number density = 20.885631 Si / 1000 Ang^3
#
#
#
# Elastic Constant Matrix: (Units=GPa)
#
#
# Indices 1 2 3 4 5 6 
#
# 1 97.1383 33.3746 -2.4860 -1.2791 24.5947 3.6437
# 2 33.3746 94.5872 34.3215 4.5807 14.1383 -7.2267
# 3 -2.4860 34.3215 107.1227 8.1515 1.3415 1.2212
# 4 -1.2791 4.5807 8.1515 36.0311 4.9246 14.3448
# 5 24.5947 14.1383 1.3415 4.9246 42.1605 -4.5676
# 6 3.6437 -7.2267 1.2212 14.3448 -4.5676 35.0949
#
#
#
# Elastic Compliance Matrix: (Units=1/GPa)
#
#
# Indices 1 2 3 4 5 6 
#
# 1 0.014304 -0.005150 0.001844 0.003862 -0.007689 -0.005189
# 2 -0.005150 0.014720 -0.004668 -0.002751 -0.000950 0.004729
# 3 0.001844 -0.004668 0.010995 -0.001503 0.000219 -0.000892
# 4 0.003862 -0.002751 -0.001503 0.036219 -0.007319 -0.016672
# 5 -0.007689 -0.000950 0.000219 -0.007319 0.030185 0.007515
# 6 -0.005189 0.004729 -0.000892 -0.016672 0.007515 0.037830
#
#
# Mechanical properties :
#
#
# Convention : Reuss Voigt Hill
#
# Bulk Modulus (GPa) = 41.54714 47.69650 44.62182
# Shear Modulus (GPa) = 29.72198 38.23316 33.97757
#
# Velocity S-wave (km/s) = 3.77647 4.28319 4.03779
# Velocity P-wave (km/s) = 6.24111 6.88095 6.56883
#
# Compressibility (1/GPa) = 0.02406905
#
# Stress axis : x y z
#
# Youngs Moduli (GPa) = 69.91273 67.93541 90.94702
#
# Poissons Ratio (x) = 0.34987 -0.16767
# Poissons Ratio (y) = 0.36006 0.42457
# Poissons Ratio (z) = -0.12889 0.31715
#
# Static dielectric constant tensor:
#      x y z
#    x 1.723630 0.018090 -0.009390 
#    y 0.018090 1.725040 -0.019240 
#    z -0.009390 -0.019240 1.723190 
# 
# From -- ./inp_files/187219.got.cif
#   From: 2010.05.17/outbox.cif.g08.bks.cpg/sg2_94_cif.got.tgz:187219.got - 2010.06.03 11:33:40.
