data_PCOD9057520
_publ_section_title
;
Structure prediction by ZEFSAII (Michael W. Deem and Ramdas Pophale) SiO2 
 PCOD9057520
Probable space group: P -1
;
_chemical_formula_sum "Si O2"
_cell_formula_units_Z 16
_cell_length_a 11.329385
_cell_length_b 10.482855
_cell_length_c 13.910990
_cell_angle_alpha 118.649243
_cell_angle_beta 147.473310
_cell_angle_gamma 47.276006
_cell_volume 634.415126
_symmetry_space_group_name_H-M "P -1"
_symmetry_group_IT_number 2
_symmetry_cell_setting 'triclinic'
loop_
_space_group_symop_operation_xyz
x,y,z
-x,-y,-z
loop_
_atom_site_type_symbol
_atom_site_label
_atom_site_fract_x
_atom_site_fract_y
_atom_site_fract_z
Si Si1 0.300265 0.419909 0.142141
Si Si2 0.959640 0.790318 0.593024
Si Si3 0.294565 0.239079 0.893224
Si Si4 0.672324 0.986540 0.755279
Si Si5 0.067052 0.386362 0.311142
Si Si6 0.871004 0.206938 0.501800
Si Si7 0.159613 0.998319 0.908941
Si Si8 0.373137 0.709798 0.299693
O O1 0.555486 0.318906 0.352243
O O2 0.324971 0.571890 0.169067
O O3 0.360604 0.272551 0.054554
O O4 0.000000 0.500000 0.000000
O O5 0.638044 0.945868 0.421040
O O6 0.980422 0.641248 0.620981
O O7 0.083022 0.736456 0.551954
O O8 0.106520 0.858048 0.780525
O O9 0.559371 0.067832 0.968481
O O10 0.187580 0.425782 0.832686
O O11 0.051979 0.221981 0.706885
O O12 0.788971 0.993891 0.939657
O O13 0.655338 0.135170 0.729342
O O14 0.845914 0.791895 0.753630
O O15 0.332592 0.385954 0.487738
O O16 0.000000 0.000000 0.500000
O O17 0.878354 0.185845 0.763051
#
# Coordination Sequence:
#
# PCOD9057520 Si02
#       8
#     2   2   2   2   2   2   2   2
#     4  12  30  52  74 107 140 192 252 306 354 429
#     4  11  23  44  72 110 144 191 236 295 358 433
#     4  12  28  48  74 109 145 189 241 304 370 425
#     4  11  22  42  72 111 149 197 230 291 364 437
#     4  11  23  45  75 111 154 188 234 299 370 426
#     4  12  29  53  73 105 147 193 248 303 360 429
#     4  12  23  40  73 107 144 192 231 288 366 429
#     4  11  23  45  72 104 152 189 242 294 354 432
#
# _framework density 25.220078999999998
#
# number of rings (size 3 to 8) (size 9 to 14) (size 15 to 20)
#    0.000    0.500    6.250    1.875    3.500    5.000 
#    0.000    0.000    0.000    0.000    0.000    0.000 
#    0.000    0.000    0.000    0.000    0.000    0.000 
#
# Total GULP energy -89587.566209 kJ/mol
# GULP energy per Si atom -5599.222888 kJ/mol
# Density = 2.516268 g / cm^3
# Si number density = 25.220079 Si / 1000 Ang^3
#
#
#
# Elastic Constant Matrix: (Units=GPa)
#
#
# Indices 1 2 3 4 5 6 
#
# 1 104.8258 34.0842 43.3968 -4.0132 13.0322 -15.0553
# 2 34.0842 122.0724 31.5893 11.5926 14.6460 2.1581
# 3 43.3968 31.5893 166.0425 9.4302 27.0408 -0.0216
# 4 -4.0132 11.5926 9.4302 51.5966 -14.9664 4.9860
# 5 13.0322 14.6460 27.0408 -14.9664 33.3742 0.3594
# 6 -15.0553 2.1581 -0.0216 4.9860 0.3594 29.0007
#
#
#
# Elastic Compliance Matrix: (Units=1/GPa)
#
#
# Indices 1 2 3 4 5 6 
#
# 1 0.012737 -0.002974 -0.002660 0.001200 -0.001047 0.006638
# 2 -0.002974 0.010006 -0.000146 -0.003674 -0.004742 -0.001598
# 3 -0.002660 -0.000146 0.008109 -0.003653 -0.007098 -0.000648
# 4 0.001200 -0.003674 -0.003653 0.025901 0.015759 -0.003755
# 5 -0.001047 -0.004742 -0.007098 0.015759 0.045309 -0.003467
# 6 0.006638 -0.001598 -0.000648 -0.003755 -0.003467 0.038735
#
#
# Mechanical properties :
#
#
# Convention : Reuss Voigt Hill
#
# Bulk Modulus (GPa) = 51.83184 67.89793 59.86488
# Shear Modulus (GPa) = 31.48866 41.71900 36.60383
#
# Velocity S-wave (km/s) = 3.53732 4.07160 3.81383
# Velocity P-wave (km/s) = 6.10573 7.00603 6.57132
#
# Compressibility (1/GPa) = 0.01929316
#
# Stress axis : x y z
#
# Youngs Moduli (GPa) = 78.50959 99.94039 123.32185
#
# Poissons Ratio (x) = 0.29720 0.32804
# Poissons Ratio (y) = 0.23347 0.01797
# Poissons Ratio (z) = 0.20884 0.01456
#
# Static dielectric constant tensor:
#      x y z
#    x 2.068830 -0.025570 0.039970 
#    y -0.025570 2.073070 -0.028950 
#    z 0.039970 -0.028950 1.975440 
# 
# From -- ./inp_files/519071.got.cif
#   From: 2010.05.17/outbox.cif.g08.bks.cpg/sg2_260_cif.got.tgz:519071.got - 2010.06.03 11:33:40.
