data_PCOD9057961
_publ_section_title
;
Structure prediction by ZEFSAII (Michael W. Deem and Ramdas Pophale) SiO2 
 PCOD9057961
Probable space group: P -1
;
_chemical_formula_sum "Si O2"
_cell_formula_units_Z 16
_cell_length_a 21.255726
_cell_length_b 11.929375
_cell_length_c 17.713779
_cell_angle_alpha 30.512187
_cell_angle_beta 19.254789
_cell_angle_gamma 31.476273
_cell_volume 730.782368
_symmetry_space_group_name_H-M "P -1"
_symmetry_group_IT_number 2
_symmetry_cell_setting 'triclinic'
loop_
_space_group_symop_operation_xyz
x,y,z
-x,-y,-z
loop_
_atom_site_type_symbol
_atom_site_label
_atom_site_fract_x
_atom_site_fract_y
_atom_site_fract_z
Si Si1 0.310568 0.016729 0.653931
Si Si2 0.891429 0.222007 0.855237
Si Si3 0.746641 0.154590 0.338709
Si Si4 0.483834 0.081141 0.796255
Si Si5 0.154088 0.398505 0.079871
Si Si6 0.764439 0.453415 0.566105
Si Si7 0.662486 0.267759 0.936613
Si Si8 0.652180 0.652996 0.945470
O O1 0.232970 0.285166 0.572712
O O2 0.500000 0.000000 0.500000
O O3 0.356410 0.880010 0.603521
O O4 0.165993 0.905610 0.931893
O O5 0.767460 0.189645 0.941099
O O6 0.821223 0.487012 0.801012
O O7 0.112473 0.093709 0.662077
O O8 0.612022 0.224140 0.523700
O O9 0.864152 0.347257 0.077871
O O10 0.285818 0.225037 0.973542
O O11 0.436477 0.918879 0.878430
O O12 0.604291 0.910914 0.821092
O O13 0.940507 0.360231 0.363002
O O14 0.275808 0.372302 0.035719
O O15 0.797248 0.322645 0.684351
O O16 0.550976 0.430031 0.791186
O O17 0.500000 0.500000 0.000000
#
# Coordination Sequence:
#
# PCOD9057961 Si02
#       8
#     2   2   2   2   2   2   2   2
#     4  12  20  39  68  96 132 170 212 276 336 386
#     4  12  22  39  66 101 131 160 214 277 335 385
#     4  12  25  41  65 100 133 173 221 271 331 388
#     4  11  26  45  66  92 133 182 217 273 321 390
#     4  12  25  47  65  94 137 180 225 260 324 399
#     4  11  23  40  70  99 129 177 217 270 330 393
#     4  11  22  44  66 100 132 164 222 274 336 387
#     4  11  24  43  68 101 130 168 221 277 332 388
#
# _framework density 21.894344
#
# number of rings (size 3 to 8) (size 9 to 14) (size 15 to 20)
#    0.000    0.500    6.250    3.375    1.750    2.500 
#    2.250    0.625    0.000    0.000    0.000    0.000 
#    0.000    0.000    0.000    0.000    0.000    0.000 
#
# Total GULP energy -89501.001160 kJ/mol
# GULP energy per Si atom -5593.812572 kJ/mol
# Density = 2.184451 g / cm^3
# Si number density = 21.894344 Si / 1000 Ang^3
#
#
#
# Elastic Constant Matrix: (Units=GPa)
#
#
# Indices 1 2 3 4 5 6 
#
# 1 73.0011 14.5744 13.6401 8.1898 -0.0596 -7.7599
# 2 14.5744 87.9127 16.0100 21.8101 8.2146 2.7531
# 3 13.6401 16.0100 79.2580 11.9727 24.0976 -4.6417
# 4 8.1898 21.8101 11.9727 32.1815 -0.0352 10.1164
# 5 -0.0596 8.2146 24.0976 -0.0352 39.1095 0.1831
# 6 -7.7599 2.7531 -4.6417 10.1164 0.1831 30.0743
#
#
#
# Elastic Compliance Matrix: (Units=1/GPa)
#
#
# Indices 1 2 3 4 5 6 
#
# 1 0.015324 -0.001571 -0.001926 -0.003700 0.001513 0.005036
# 2 -0.001571 0.014302 -0.000174 -0.009717 -0.002915 0.001545
# 3 -0.001926 -0.000174 0.017723 -0.007523 -0.010916 0.004851
# 4 -0.003700 -0.009717 -0.007523 0.046749 0.006792 -0.016993
# 5 0.001513 -0.002915 -0.010916 0.006792 0.032932 -0.003513
# 6 0.005036 0.001545 0.004851 -0.016993 -0.003513 0.040895
#
#
# Mechanical properties :
#
#
# Convention : Reuss Voigt Hill
#
# Bulk Modulus (GPa) = 24.99590 36.51344 30.75467
# Shear Modulus (GPa) = 26.51092 33.33621 29.92356
#
# Velocity S-wave (km/s) = 3.48351 3.90628 3.70094
# Velocity P-wave (km/s) = 5.25559 6.08758 5.68682
#
# Compressibility (1/GPa) = 0.04000656
#
# Stress axis : x y z
#
# Youngs Moduli (GPa) = 65.25919 69.92182 56.42384
#
# Poissons Ratio (x) = 0.10983 0.10868
# Poissons Ratio (y) = 0.10251 0.00981
# Poissons Ratio (z) = 0.12569 0.01216
#
# Static dielectric constant tensor:
#      x y z
#    x 1.778540 -0.010770 0.014600 
#    y -0.010770 1.806910 0.001600 
#    z 0.014600 0.001600 1.873200 
# 
# From -- ./inp_files/315370.got.cif
#   From: 2010.05.17/outbox.cif.g08.bks.cpg/sg2_158_cif.got.tgz:315370.got - 2010.06.03 11:33:40.
