data_PCOD9057108
_publ_section_title
;
Structure prediction by ZEFSAII (Michael W. Deem and Ramdas Pophale) SiO2 
 PCOD9057108
Probable space group: P -1
;
_chemical_formula_sum "Si O2"
_cell_formula_units_Z 12
_cell_length_a 14.045437
_cell_length_b 6.785228
_cell_length_c 9.221557
_cell_angle_alpha 123.216525
_cell_angle_beta 104.533490
_cell_angle_gamma 113.112746
_cell_volume 538.114519
_symmetry_space_group_name_H-M "P -1"
_symmetry_group_IT_number 2
_symmetry_cell_setting 'triclinic'
loop_
_space_group_symop_operation_xyz
x,y,z
-x,-y,-z
loop_
_atom_site_type_symbol
_atom_site_label
_atom_site_fract_x
_atom_site_fract_y
_atom_site_fract_z
Si Si1 0.868947 0.819517 0.785019
Si Si2 0.443942 0.107748 0.622750
Si Si3 0.218939 0.074151 0.466148
Si Si4 0.144926 0.718653 0.581886
Si Si5 0.548740 0.214725 0.241256
Si Si6 0.332682 0.210444 0.100615
O O1 0.882726 0.026686 0.739709
O O2 0.845956 0.524484 0.588399
O O3 0.754366 0.751144 0.816538
O O4 0.000000 0.000000 0.000000
O O5 0.311622 0.993427 0.455780
O O6 0.500000 0.000000 0.500000
O O7 0.421855 0.939988 0.695064
O O8 0.557106 0.480080 0.825722
O O9 0.326145 0.444373 0.626065
O O10 0.164701 0.949578 0.557046
O O11 0.000000 0.500000 0.500000
O O12 0.240728 0.926780 0.837983
O O13 0.427058 0.193574 0.228739
O O14 0.500000 0.000000 0.000000
#
# Coordination Sequence:
#
# PCOD9057108 Si02
#       6
#     2   2   2   2   2   2
#     4  12  26  48  68  99 141 186 236 284 334 411
#     4  11  22  41  70 105 138 174 222 288 349 413
#     4  11  24  42  70 100 138 179 228 286 350 405
#     4  12  26  48  68  99 141 186 236 284 334 411
#     4  11  22  41  70 105 138 174 222 288 349 413
#     4  11  24  44  72 104 140 181 228 282 352 409
#
# _framework density 22.300087000000001
#
# number of rings (size 3 to 8) (size 9 to 14) (size 15 to 20)
#    0.000    0.667    1.667    7.000    0.000    6.667 
#    3.000    0.000    0.000    0.000    0.000    0.000 
#    0.000    0.000    0.000    0.000    0.000    0.000 
#
# Total GULP energy -66989.308198 kJ/mol
# GULP energy per Si atom -5582.442350 kJ/mol
# Density = 2.224933 g / cm^3
# Si number density = 22.300087 Si / 1000 Ang^3
#
#
#
# Elastic Constant Matrix: (Units=GPa)
#
#
# Indices 1 2 3 4 5 6 
#
# 1 123.4800 29.2046 44.5027 2.6521 6.2008 -2.5704
# 2 29.2046 105.5170 12.5680 -23.8118 6.1517 -15.4083
# 3 44.5027 12.5680 108.7423 -9.5119 3.5058 -13.7614
# 4 2.6521 -23.8118 -9.5119 33.7848 -3.1336 7.1971
# 5 6.2008 6.1517 3.5058 -3.1336 46.8130 -6.3980
# 6 -2.5704 -15.4083 -13.7614 7.1971 -6.3980 42.5869
#
#
#
# Elastic Compliance Matrix: (Units=1/GPa)
#
#
# Indices 1 2 3 4 5 6 
#
# 1 0.010685 -0.003572 -0.004502 -0.004402 -0.001112 -0.001525
# 2 -0.003572 0.012834 0.001182 0.008940 -0.000258 0.003260
# 3 -0.004502 0.001182 0.011644 0.003783 0.000276 0.003321
# 4 -0.004402 0.008940 0.003783 0.037865 0.001386 -0.002000
# 5 -0.001112 -0.000258 0.000276 0.001386 0.022025 0.003003
# 6 -0.001525 0.003260 0.003321 -0.002000 0.003003 0.026431
#
#
# Mechanical properties :
#
#
# Convention : Reuss Voigt Hill
#
# Bulk Modulus (GPa) = 46.77976 56.69887 51.73932
# Shear Modulus (GPa) = 35.11351 41.40122 38.25736
#
# Velocity S-wave (km/s) = 3.97242 4.31344 4.14644
# Velocity P-wave (km/s) = 6.48560 7.09143 6.79527
#
# Compressibility (1/GPa) = 0.02137676
#
# Stress axis : x y z
#
# Youngs Moduli (GPa) = 93.59283 77.91973 85.87997
#
# Poissons Ratio (x) = 0.27836 0.38664
# Poissons Ratio (y) = 0.33435 -0.10148
# Poissons Ratio (z) = 0.42136 -0.09207
#
# Static dielectric constant tensor:
#      x y z
#    x 2.038830 -0.140040 0.158980 
#    y -0.140040 1.932840 -0.084100 
#    z 0.158980 -0.084100 1.975180 
# 
# From -- ./inp_files/123987.got.cif
#   From: 2010.05.17/outbox.cif.g08.bks.cpg/sg2_62_cif.got.tgz:123987.got - 2010.06.03 11:33:40.
