data_PCOD9057737
_publ_section_title
;
Structure prediction by ZEFSAII (Michael W. Deem and Ramdas Pophale) SiO2 
 PCOD9057737
Probable space group: P -1
;
_chemical_formula_sum "Si O2"
_cell_formula_units_Z 16
_cell_length_a 9.181496
_cell_length_b 28.733457
_cell_length_c 8.797315
_cell_angle_alpha 140.287050
_cell_angle_beta 70.942470
_cell_angle_gamma 139.834138
_cell_volume 739.581361
_symmetry_space_group_name_H-M "P -1"
_symmetry_group_IT_number 2
_symmetry_cell_setting 'triclinic'
loop_
_space_group_symop_operation_xyz
x,y,z
-x,-y,-z
loop_
_atom_site_type_symbol
_atom_site_label
_atom_site_fract_x
_atom_site_fract_y
_atom_site_fract_z
Si Si1 0.924437 0.002977 0.195872
Si Si2 0.407177 0.449285 0.076997
Si Si3 0.366370 0.299485 0.885602
Si Si4 0.958311 0.466831 0.107036
Si Si5 0.167404 0.294118 0.242147
Si Si6 0.512714 0.716503 0.753588
Si Si7 0.156523 0.683151 0.989926
Si Si8 0.405596 0.891945 0.169444
O O1 0.196006 0.154603 0.560978
O O2 0.675218 0.963920 0.173038
O O3 0.764468 0.875636 0.026695
O O4 0.000000 0.000000 0.000000
O O5 0.675130 0.572765 0.408314
O O6 0.161189 0.406184 0.114372
O O7 0.500000 0.500000 0.000000
O O8 0.325476 0.331920 0.830744
O O9 0.701685 0.420381 0.116957
O O10 0.235659 0.297409 0.055836
O O11 0.832791 0.338739 0.890008
O O12 0.275306 0.605423 0.423801
O O13 0.000000 0.500000 0.000000
O O14 0.304908 0.281649 0.256917
O O15 0.830269 0.179273 0.054408
O O16 0.292226 0.663197 0.820268
O O17 0.302678 0.796898 0.102983
O O18 0.500000 0.000000 0.500000
#
# Coordination Sequence:
#
# PCOD9057737 Si02
#       8
#     2   2   2   2   2   2   2   2
#     4  11  26  47  73 105 148 191 241 307 364 429
#     4  12  26  42  68 105 150 186 238 310 369 422
#     4  12  25  44  74 101 144 192 243 296 362 438
#     4  12  24  41  68 106 141 182 237 303 362 423
#     4  12  24  45  73 103 140 189 246 290 363 433
#     4  11  25  45  73 103 147 186 244 295 363 439
#     4  11  22  43  70 100 138 187 241 291 359 436
#     4  11  24  47  75 104 145 196 248 297 360 447
#
# _framework density 21.633859999999999
#
# number of rings (size 3 to 8) (size 9 to 14) (size 15 to 20)
#    0.000    0.500    5.000    3.000    5.250    1.500 
#    2.250    0.625    0.000    0.000    0.000    0.000 
#    0.000    0.000    0.000    0.000    0.000    0.000 
#
# Total GULP energy -89068.430948 kJ/mol
# GULP energy per Si atom -5566.776934 kJ/mol
# Density = 2.158462 g / cm^3
# Si number density = 21.633860 Si / 1000 Ang^3
#
#
#
# Elastic Constant Matrix: (Units=GPa)
#
#
# Indices 1 2 3 4 5 6 
#
# 1 150.9759 30.8717 40.3227 12.6528 7.9133 -6.4444
# 2 30.8717 107.7053 44.9369 -6.0609 0.9197 -7.5183
# 3 40.3227 44.9369 89.9783 7.1218 -2.3575 -7.2719
# 4 12.6528 -6.0609 7.1218 25.7551 -2.4352 -6.6183
# 5 7.9133 0.9197 -2.3575 -2.4352 26.7749 -0.5230
# 6 -6.4444 -7.5183 -7.2719 -6.6183 -0.5230 37.4009
#
#
#
# Elastic Compliance Matrix: (Units=1/GPa)
#
#
# Indices 1 2 3 4 5 6 
#
# 1 0.008107 -0.001391 -0.002720 -0.003872 -0.002943 -0.000138
# 2 -0.001391 0.012666 -0.005991 0.005884 0.000026 0.002183
# 3 -0.002720 -0.005991 0.015756 -0.004057 0.002042 0.000701
# 4 -0.003872 0.005884 -0.004057 0.045726 0.004898 0.007887
# 5 -0.002943 0.000026 0.002042 0.004898 0.038868 0.001305
# 6 -0.000138 0.002183 0.000701 0.007887 0.001305 0.028703
#
#
# Mechanical properties :
#
#
# Convention : Reuss Voigt Hill
#
# Bulk Modulus (GPa) = 61.25586 64.54690 62.90138
# Shear Modulus (GPa) = 28.49451 33.48805 30.99128
#
# Velocity S-wave (km/s) = 3.63316 3.93866 3.78899
# Velocity P-wave (km/s) = 6.78057 7.11231 6.94842
#
# Compressibility (1/GPa) = 0.01632497
#
# Stress axis : x y z
#
# Youngs Moduli (GPa) = 123.34378 78.95035 63.46772
#
# Poissons Ratio (x) = 0.10984 0.17264
# Poissons Ratio (y) = 0.17161 0.38023
# Poissons Ratio (z) = 0.33552 0.47298
#
# Static dielectric constant tensor:
#      x y z
#    x 1.834460 -0.007710 -0.008310 
#    y -0.007710 1.853980 0.030300 
#    z -0.008310 0.030300 1.778540 
# 
# From -- ./inp_files/227751.got.cif
#   From: 2010.05.17/outbox.cif.g08.bks.cpg/sg2_114_cif.got.tgz:227751.got - 2010.06.03 11:33:40.
