data_PCOD9057368
_publ_section_title
;
Structure prediction by ZEFSAII (Michael W. Deem and Ramdas Pophale) SiO2 
 PCOD9057368
Probable space group: P -1
;
_chemical_formula_sum "Si O2"
_cell_formula_units_Z 14
_cell_length_a 30.116498
_cell_length_b 14.864265
_cell_length_c 12.275182
_cell_angle_alpha 27.182431
_cell_angle_beta 19.105927
_cell_angle_gamma 19.149876
_cell_volume 589.782990
_symmetry_space_group_name_H-M "P -1"
_symmetry_group_IT_number 2
_symmetry_cell_setting 'triclinic'
loop_
_space_group_symop_operation_xyz
x,y,z
-x,-y,-z
loop_
_atom_site_type_symbol
_atom_site_label
_atom_site_fract_x
_atom_site_fract_y
_atom_site_fract_z
Si Si1 0.867840 0.465884 0.499683
Si Si2 0.665362 0.671544 0.979511
Si Si3 0.215978 0.804168 0.672781
Si Si4 0.436737 0.220246 0.299369
Si Si5 0.131516 0.509528 0.856311
Si Si6 0.231106 0.820995 0.373192
Si Si7 0.739290 0.779696 0.913924
O O1 0.767948 0.567939 0.738238
O O2 0.725801 0.523139 0.678136
O O3 0.056780 0.146162 0.415686
O O4 0.939038 0.614364 0.141491
O O5 0.771452 0.637320 0.879790
O O6 0.643479 0.464949 0.288063
O O7 0.500000 0.000000 0.000000
O O8 0.232901 0.725377 0.592784
O O9 0.253755 0.998063 0.372365
O O10 0.000000 0.000000 0.000000
O O11 0.311163 0.246027 0.656426
O O12 0.576249 0.245456 0.998876
O O13 0.543188 0.970756 0.233179
O O14 0.180382 0.690381 0.553518
O O15 0.122400 0.434191 0.081827
#
# Coordination Sequence:
#
# PCOD9057368 Si02
#       7
#     2   2   2   2   2   2   2
#     4  12  26  46  72 111 142 185 245 298 365 427
#     4  12  25  44  70 107 145 187 241 296 363 434
#     4  11  22  42  68  99 143 185 233 297 352 426
#     4  11  25  50  68 105 150 185 239 303 359 425
#     4  12  24  47  77 101 141 195 241 296 359 432
#     4  11  25  46  71 106 141 193 242 292 366 427
#     4  11  24  43  71 100 137 194 236 284 365 422
#
# _framework density 23.737544
#
# number of rings (size 3 to 8) (size 9 to 14) (size 15 to 20)
#    0.000    0.571    7.143    1.286    2.000    2.286 
#    7.714    0.000    0.000    0.000    0.000    0.000 
#    0.000    0.000    0.000    0.000    0.000    0.000 
#
# Total GULP energy -78104.278025 kJ/mol
# GULP energy per Si atom -5578.877002 kJ/mol
# Density = 2.368352 g / cm^3
# Si number density = 23.737544 Si / 1000 Ang^3
#
#
#
# Elastic Constant Matrix: (Units=GPa)
#
#
# Indices 1 2 3 4 5 6 
#
# 1 111.0120 27.6731 43.1880 -9.5716 -0.9211 6.5907
# 2 27.6731 91.8363 41.3386 -10.9018 -15.3426 -6.4927
# 3 43.1880 41.3386 98.2106 -7.6636 8.5845 0.9068
# 4 -9.5716 -10.9018 -7.6636 26.8715 -1.1670 -5.6269
# 5 -0.9211 -15.3426 8.5845 -1.1670 39.8143 0.6608
# 6 6.5907 -6.4927 0.9068 -5.6269 0.6608 39.5612
#
#
#
# Elastic Compliance Matrix: (Units=1/GPa)
#
#
# Indices 1 2 3 4 5 6 
#
# 1 0.011279 -0.001181 -0.004366 0.001972 0.000834 -0.001706
# 2 -0.001181 0.016498 -0.006721 0.005474 0.007878 0.003705
# 3 -0.004366 -0.006721 0.015442 -0.000279 -0.006017 -0.000669
# 4 0.001972 0.005474 -0.000279 0.041549 0.003326 0.006430
# 5 0.000834 0.007878 -0.006017 0.003326 0.029546 0.001272
# 6 -0.001706 0.003705 -0.000669 0.006430 0.001272 0.027078
#
#
# Mechanical properties :
#
#
# Convention : Reuss Voigt Hill
#
# Bulk Modulus (GPa) = 53.52373 58.38427 55.95400
# Shear Modulus (GPa) = 29.04367 33.84001 31.44184
#
# Velocity S-wave (km/s) = 3.50170 3.77980 3.64340
# Velocity P-wave (km/s) = 6.24070 6.61047 6.42824
#
# Compressibility (1/GPa) = 0.01868330
#
# Stress axis : x y z
#
# Youngs Moduli (GPa) = 88.65828 60.61382 64.76043
#
# Poissons Ratio (x) = 0.07156 0.28276
# Poissons Ratio (y) = 0.10467 0.43524
# Poissons Ratio (z) = 0.38711 0.40737
#
# Static dielectric constant tensor:
#      x y z
#    x 1.987610 -0.004340 -0.059930 
#    y -0.004340 2.003450 -0.046650 
#    z -0.059930 -0.046650 1.923990 
# 
# From -- ./inp_files/477648.got.cif
#   From: 2010.05.17/outbox.cif.g08.bks.cpg/sg2_239_cif.got.tgz:477648.got - 2010.06.03 11:33:40.
