data_PCOD9057061
_publ_section_title
;
Structure prediction by ZEFSAII (Michael W. Deem and Ramdas Pophale) SiO2 
 PCOD9057061
Probable space group: P -1
;
_chemical_formula_sum "Si O2"
_cell_formula_units_Z 16
_cell_length_a 20.894018
_cell_length_b 13.048156
_cell_length_c 11.532376
_cell_angle_alpha 125.083844
_cell_angle_beta 150.434886
_cell_angle_gamma 34.313671
_cell_volume 748.868217
_symmetry_space_group_name_H-M "P -1"
_symmetry_group_IT_number 2
_symmetry_cell_setting 'triclinic'
loop_
_space_group_symop_operation_xyz
x,y,z
-x,-y,-z
loop_
_atom_site_type_symbol
_atom_site_label
_atom_site_fract_x
_atom_site_fract_y
_atom_site_fract_z
Si Si1 0.256180 0.074942 0.074511
Si Si2 0.859918 0.116988 0.235618
Si Si3 0.298318 0.660334 0.197827
Si Si4 0.984973 0.640745 0.343326
Si Si5 0.393787 0.470478 0.976251
Si Si6 0.763188 0.019522 0.366674
Si Si7 0.805168 0.983735 0.678380
Si Si8 0.738124 0.793931 0.590880
O O1 0.088948 0.242449 0.818483
O O2 0.210744 0.966648 0.962811
O O3 0.210825 0.196689 0.193445
O O4 0.506593 0.901254 0.311857
O O5 0.646576 0.372577 0.060790
O O6 0.000000 0.000000 0.500000
O O7 0.019551 0.064392 0.363280
O O8 0.500000 0.500000 0.500000
O O9 0.368615 0.539550 0.112346
O O10 0.248034 0.846958 0.228371
O O11 0.071874 0.771895 0.955576
O O12 0.062055 0.440618 0.304017
O O13 0.203131 0.529923 0.668500
O O14 0.804243 0.843022 0.277436
O O15 0.600601 0.217082 0.150548
O O16 0.716174 0.060095 0.455571
O O17 0.705945 0.941300 0.557298
#
# Coordination Sequence:
#
# PCOD9057061 Si02
#       8
#     2   2   2   2   2   2   2   2
#     4  11  24  48  67 102 135 181 238 280 345 410
#     4  11  22  42  72 102 138 170 225 296 340 403
#     4  11  22  41  71 101 139 175 223 282 347 409
#     4  11  23  45  66  96 140 182 234 280 337 408
#     4  11  22  41  69 103 136 178 222 289 349 400
#     4  11  23  42  69 103 139 173 228 286 346 409
#     4  11  24  45  69 103 140 174 229 284 345 413
#     4  11  27  44  72  94 141 190 227 283 334 418
#
# _framework density 21.365575
#
# number of rings (size 3 to 8) (size 9 to 14) (size 15 to 20)
#    0.000    1.000    6.250    1.875    1.750    3.000 
#    0.000    1.250    0.000    0.000    0.000    0.000 
#    0.000    0.000    0.000    0.000    0.000    0.000 
#
# Total GULP energy -89227.063180 kJ/mol
# GULP energy per Si atom -5576.691449 kJ/mol
# Density = 2.131695 g / cm^3
# Si number density = 21.365575 Si / 1000 Ang^3
#
#
#
# Elastic Constant Matrix: (Units=GPa)
#
#
# Indices 1 2 3 4 5 6 
#
# 1 59.8979 -21.9791 -40.0882 -39.4479 -28.0198 -32.4891
# 2 -21.9791 -278.0731 -518.2829 -464.9599 -104.8807 -293.1887
# 3 -40.0882 -518.2829 -681.2130 -683.2268 -182.0661 -397.2769
# 4 -39.4479 -464.9599 -683.2268 -537.7650 -128.8855 -344.8939
# 5 -28.0198 -104.8807 -182.0661 -128.8855 0.2587 -72.4432
# 6 -32.4891 -293.1887 -397.2769 -344.8939 -72.4432 -168.6844
#
#
#
# Elastic Compliance Matrix: (Units=1/GPa)
#
#
# Indices 1 2 3 4 5 6 
#
# 1 0.020600 -0.004063 0.002252 -0.003507 0.014934 -0.001452
# 2 -0.004063 0.013123 -0.007349 -0.002898 -0.011526 0.006159
# 3 0.002252 -0.007349 0.011734 -0.005032 0.013306 -0.010720
# 4 -0.003507 -0.002898 -0.005032 0.013893 -0.009984 -0.006554
# 5 0.014934 -0.011526 0.013306 -0.009984 0.057280 -0.018366
# 6 -0.001452 0.006159 -0.010720 -0.006554 -0.018366 0.030181
#
#
# Mechanical properties :
#
#
# Convention : Reuss Voigt Hill
#
# Bulk Modulus (GPa) = 36.85318 -228.89873 -96.02278
# Shear Modulus (GPa) = 28.70646 -162.50735 -66.90044
#
# Velocity S-wave (km/s) = 3.66947 -8.73072 -5.60181
# Velocity P-wave (km/s) = 5.93630 14.45686 9.32098
#
# Compressibility (1/GPa) = 0.02713470
#
# Stress axis : x y z
#
# Youngs Moduli (GPa) = 48.54370 76.20433 85.22499
#
# Poissons Ratio (x) = 0.30964 -0.19191
# Poissons Ratio (y) = 0.19725 0.62634
# Poissons Ratio (z) = -0.10931 0.56005
#
# Static dielectric constant tensor:
#      x y z
#    x 1.779100 -0.048940 0.018880 
#    y -0.048940 1.817440 -0.046930 
#    z 0.018880 -0.046930 1.776410 
# 
# From -- ./inp_files/471217.got.cif
#   From: 2010.05.17/outbox.cif.g08.bks.cpg/sg2_236_cif.got.tgz:471217.got - 2010.06.03 11:33:40.
