data_PCOD9057827
_publ_section_title
;
Structure prediction by ZEFSAII (Michael W. Deem and Ramdas Pophale) SiO2 
 PCOD9057827
Probable space group: P -1
;
_chemical_formula_sum "Si O2"
_cell_formula_units_Z 16
_cell_length_a 14.258808
_cell_length_b 6.494609
_cell_length_c 14.482792
_cell_angle_alpha 40.309753
_cell_angle_beta 122.142623
_cell_angle_gamma 119.139126
_cell_volume 726.529798
_symmetry_space_group_name_H-M "P -1"
_symmetry_group_IT_number 2
_symmetry_cell_setting 'triclinic'
loop_
_space_group_symop_operation_xyz
x,y,z
-x,-y,-z
loop_
_atom_site_type_symbol
_atom_site_label
_atom_site_fract_x
_atom_site_fract_y
_atom_site_fract_z
Si Si1 0.165700 0.475396 0.305988
Si Si2 0.117021 0.726649 0.003409
Si Si3 0.391166 0.588790 0.862675
Si Si4 0.397647 0.341193 0.563782
Si Si5 0.790397 0.329754 0.113143
Si Si6 0.104315 0.757028 0.499816
Si Si7 0.957827 0.601368 0.239852
Si Si8 0.695763 0.597774 0.315639
O O1 0.166892 0.697426 0.141219
O O2 0.283199 0.408712 0.431140
O O3 0.090173 0.612848 0.297618
O O4 0.101423 0.128809 0.356726
O O5 0.208098 0.645236 0.004674
O O6 0.000000 0.500000 0.000000
O O7 0.085407 0.083981 0.852299
O O8 0.297018 0.534579 0.911908
O O9 0.359596 0.397703 0.816276
O O10 0.402869 0.962015 0.709602
O O11 0.500000 0.500000 0.000000
O O12 0.500000 0.500000 0.500000
O O13 0.389942 0.468645 0.621499
O O14 0.909212 0.522586 0.140133
O O15 0.768947 0.946971 0.251708
O O16 0.098965 0.697315 0.627171
O O17 0.218568 0.658303 0.555885
O O18 0.000000 0.500000 0.500000
#
# Coordination Sequence:
#
# PCOD9057827 Si02
#       8
#     2   2   2   2   2   2   2   2
#     4  12  25  43  67 105 146 182 232 289 350 416
#     4  12  25  42  65 103 148 191 229 278 352 424
#     4  11  25  48  74 101 132 183 242 292 341 415
#     4  11  27  48  68 102 141 181 235 293 353 411
#     4  11  22  43  72 100 138 183 233 288 344 415
#     4  12  21  40  71 102 137 183 226 281 353 415
#     4  12  23  44  68  99 145 183 232 283 344 426
#     4  11  22  46  73  99 135 177 237 285 345 421
#
# _framework density 22.022494999999999
#
# number of rings (size 3 to 8) (size 9 to 14) (size 15 to 20)
#    0.000    0.500    5.000    3.750    0.000    5.500 
#    2.250    0.000    0.000    0.000    0.000    0.000 
#    0.000    0.000    0.000    0.000    0.000    0.000 
#
# Total GULP energy -89435.429879 kJ/mol
# GULP energy per Si atom -5589.714367 kJ/mol
# Density = 2.197237 g / cm^3
# Si number density = 22.022495 Si / 1000 Ang^3
#
#
#
# Elastic Constant Matrix: (Units=GPa)
#
#
# Indices 1 2 3 4 5 6 
#
# 1 151.5761 42.9848 43.8806 18.6473 -2.6151 -19.7603
# 2 42.9848 92.0667 21.9261 17.3328 9.7136 -11.5515
# 3 43.8806 21.9261 86.0130 18.9283 13.3389 4.3925
# 4 18.6473 17.3328 18.9283 22.8898 4.8710 -7.1304
# 5 -2.6151 9.7136 13.3389 4.8710 36.2938 9.6419
# 6 -19.7603 -11.5515 4.3925 -7.1304 9.6419 32.1671
#
#
#
# Elastic Compliance Matrix: (Units=1/GPa)
#
#
# Indices 1 2 3 4 5 6 
#
# 1 0.009418 -0.002806 -0.004439 -0.000856 0.001952 0.004609
# 2 -0.002806 0.014273 -0.000359 -0.006405 -0.003879 0.003194
# 3 -0.004439 -0.000359 0.017486 -0.012064 -0.003181 -0.006964
# 4 -0.000856 -0.006405 -0.012064 0.065438 -0.006776 0.015358
# 5 0.001952 -0.003879 -0.003181 -0.006776 0.033840 -0.011405
# 6 0.004609 0.003194 -0.006964 0.015358 -0.011405 0.042840
#
#
# Mechanical properties :
#
#
# Convention : Reuss Voigt Hill
#
# Bulk Modulus (GPa) = 38.50744 60.80432 49.65588
# Shear Modulus (GPa) = 24.13590 32.99441 28.56516
#
# Velocity S-wave (km/s) = 3.31413 3.87488 3.60542
# Velocity P-wave (km/s) = 5.67169 6.90576 6.31893
#
# Compressibility (1/GPa) = 0.02596901
#
# Stress axis : x y z
#
# Youngs Moduli (GPa) = 106.17780 70.06137 57.18818
#
# Poissons Ratio (x) = 0.19662 0.25386
# Poissons Ratio (y) = 0.29798 0.02052
# Poissons Ratio (z) = 0.47132 0.02514
#
# Static dielectric constant tensor:
#      x y z
#    x 1.820370 -0.003740 -0.017570 
#    y -0.003740 1.860080 0.057740 
#    z -0.017570 0.057740 1.825040 
# 
# From -- ./inp_files/525492.got.cif
#   From: 2010.05.17/outbox.cif.g08.bks.cpg/sg2_263_cif.got.tgz:525492.got - 2010.06.03 11:33:40.
