data_PCOD9057402
_publ_section_title
;
Structure prediction by ZEFSAII (Michael W. Deem and Ramdas Pophale) SiO2 
 PCOD9057402
Probable space group: P -1
;
_chemical_formula_sum "Si O2"
_cell_formula_units_Z 14
_cell_length_a 12.547906
_cell_length_b 7.691236
_cell_length_c 15.644509
_cell_angle_alpha 123.870636
_cell_angle_beta 30.261682
_cell_angle_gamma 134.269286
_cell_volume 540.475792
_symmetry_space_group_name_H-M "P -1"
_symmetry_group_IT_number 2
_symmetry_cell_setting 'triclinic'
loop_
_space_group_symop_operation_xyz
x,y,z
-x,-y,-z
loop_
_atom_site_type_symbol
_atom_site_label
_atom_site_fract_x
_atom_site_fract_y
_atom_site_fract_z
Si Si1 0.340724 0.427082 0.845250
Si Si2 0.261834 0.149923 0.402788
Si Si3 0.585197 0.970741 0.573810
Si Si4 0.520831 0.708001 0.132672
Si Si5 0.673886 0.181753 0.854088
Si Si6 0.910781 0.942379 0.211854
Si Si7 0.073611 0.458602 0.789690
O O1 0.567168 0.571123 0.663261
O O2 0.460046 0.486310 0.873200
O O3 0.201902 0.153406 0.830129
O O4 0.129459 0.494741 0.012225
O O5 0.260633 0.099361 0.487811
O O6 0.391781 0.025713 0.229019
O O7 0.000000 0.000000 0.500000
O O8 0.755941 0.048653 0.393064
O O9 0.323370 0.719460 0.675058
O O10 0.557871 0.166673 0.703266
O O11 0.354765 0.637768 0.143511
O O12 0.798301 0.883819 0.954737
O O13 0.939850 0.328379 0.756963
O O14 0.500000 0.000000 0.000000
O O15 0.879156 0.712544 0.226591
#
# Coordination Sequence:
#
# PCOD9057402 Si02
#       7
#     2   2   2   2   2   2   2
#     4  12  25  43  71 102 143 182 221 292 350 402
#     4  11  24  43  68 101 135 175 236 287 330 408
#     4  11  25  44  71 103 134 182 237 281 336 410
#     4  11  26  47  67 102 146 179 226 283 351 410
#     4  11  22  42  69  96 132 182 232 279 334 408
#     4  12  23  42  74 101 136 181 231 285 340 408
#     4  12  22  42  70 104 130 177 240 280 333 406
#
# _framework density 25.903102000000001
#
# number of rings (size 3 to 8) (size 9 to 14) (size 15 to 20)
#    0.000    0.571    5.714    3.000    2.000    1.143 
#    0.000    2.857    0.000    0.000    0.000    0.000 
#    0.000    0.000    0.000    0.000    0.000    0.000 
#
# Total GULP energy -78206.677183 kJ/mol
# GULP energy per Si atom -5586.191227 kJ/mol
# Density = 2.584415 g / cm^3
# Si number density = 25.903102 Si / 1000 Ang^3
#
#
#
# Elastic Constant Matrix: (Units=GPa)
#
#
# Indices 1 2 3 4 5 6 
#
# 1 159.1376 9.1165 -0.1641 12.8869 -15.0374 11.2457
# 2 9.1165 47.4099 14.8488 5.6893 -3.0915 17.1651
# 3 -0.1641 14.8488 122.7476 15.5951 3.9390 6.0751
# 4 12.8869 5.6893 15.5951 25.6444 22.5252 -2.5956
# 5 -15.0374 -3.0915 3.9390 22.5252 42.0374 0.2547
# 6 11.2457 17.1651 6.0751 -2.5956 0.2547 39.9165
#
#
#
# Elastic Compliance Matrix: (Units=1/GPa)
#
#
# Indices 1 2 3 4 5 6 
#
# 1 0.009304 0.002692 0.001909 -0.018790 0.013448 -0.005377
# 2 0.002692 0.029990 -0.000454 -0.022987 0.015620 -0.015180
# 3 0.001909 -0.000454 0.009769 -0.012950 0.006690 -0.002714
# 4 -0.018790 -0.022987 -0.012950 0.133259 -0.078763 0.026317
# 5 0.013448 0.015620 0.006690 -0.078763 0.071429 -0.017101
# 6 -0.005377 -0.015180 -0.002714 0.026317 -0.017101 0.035329
#
#
# Mechanical properties :
#
#
# Convention : Reuss Voigt Hill
#
# Bulk Modulus (GPa) = 17.43483 41.87750 29.65616
# Shear Modulus (GPa) = 16.67194 41.88590 29.27892
#
# Velocity S-wave (km/s) = 2.53973 4.02558 3.36568
# Velocity P-wave (km/s) = 3.91736 6.14892 5.15533
#
# Compressibility (1/GPa) = 0.05735644
#
# Stress axis : x y z
#
# Youngs Moduli (GPa) = 107.48100 33.34411 102.36239
#
# Poissons Ratio (x) = -0.08975 -0.19538
# Poissons Ratio (y) = -0.28930 0.04645
# Poissons Ratio (z) = -0.20515 0.01513
#
# Static dielectric constant tensor:
#      x y z
#    x 2.149390 -0.280090 -0.152770 
#    y -0.280090 2.514520 0.394920 
#    z -0.152770 0.394920 2.252880 
# 
# From -- ./inp_files/181622.got.cif
#   From: 2010.05.17/outbox.cif.g08.bks.cpg/sg2_91_cif.got.tgz:181622.got - 2010.06.03 11:33:40.
