data_PCOD9057577
_publ_section_title
;
Structure prediction by ZEFSAII (Michael W. Deem and Ramdas Pophale) SiO2 
 PCOD9057577
Probable space group: P -1
;
_chemical_formula_sum "Si O2"
_cell_formula_units_Z 14
_cell_length_a 8.140841
_cell_length_b 5.093763
_cell_length_c 19.364754
_cell_angle_alpha 123.013358
_cell_angle_beta 65.977024
_cell_angle_gamma 120.968271
_cell_volume 568.329739
_symmetry_space_group_name_H-M "P -1"
_symmetry_group_IT_number 2
_symmetry_cell_setting 'triclinic'
loop_
_space_group_symop_operation_xyz
x,y,z
-x,-y,-z
loop_
_atom_site_type_symbol
_atom_site_label
_atom_site_fract_x
_atom_site_fract_y
_atom_site_fract_z
Si Si1 0.492966 0.866916 0.559337
Si Si2 0.136098 0.065745 0.662159
Si Si3 0.534847 0.470093 0.143708
Si Si4 0.794917 0.039596 0.651762
Si Si5 0.100410 0.232725 0.951994
Si Si6 0.095986 0.212111 0.203007
Si Si7 0.424261 0.769647 0.751472
O O1 0.500000 0.500000 0.500000
O O2 0.323013 0.948316 0.395307
O O3 0.500000 0.000000 0.500000
O O4 0.289003 0.886030 0.621366
O O5 0.267394 0.463227 0.694173
O O6 0.988358 0.954230 0.606571
O O7 0.307807 0.235175 0.144572
O O8 0.609526 0.317013 0.173999
O O9 0.669401 0.539685 0.062891
O O10 0.552639 0.849775 0.214135
O O11 0.868361 0.406210 0.727928
O O12 0.998316 0.999233 0.743255
O O13 0.631920 0.774037 0.690920
O O14 0.048641 0.968207 0.859575
O O15 0.000000 0.500000 0.000000
O O16 0.000000 0.000000 0.000000
#
# Coordination Sequence:
#
# PCOD9057577 Si02
#       7
#     2   2   2   2   2   2   2
#     4  12  31  53  74 116 166 201 248 323 405 471
#     4  12  25  47  84 110 152 209 266 322 385 461
#     4  11  23  44  71 107 153 190 255 328 368 450
#     4  11  27  47  82 115 148 204 269 321 384 461
#     4  12  28  46  71 108 161 206 244 316 401 452
#     4  11  26  45  79 116 142 202 279 312 375 464
#     4  11  22  42  75 115 142 187 258 329 365 438
#
# _framework density 24.633585
#
# number of rings (size 3 to 8) (size 9 to 14) (size 15 to 20)
#    0.000    0.571    2.857    4.286    8.000    2.286 
#    0.000    0.000    0.000    0.000    0.000    0.000 
#    0.000    0.000    0.000    0.000    0.000    0.000 
#
# Total GULP energy -78288.491111 kJ/mol
# GULP energy per Si atom -5592.035079 kJ/mol
# Density = 2.457752 g / cm^3
# Si number density = 24.633585 Si / 1000 Ang^3
#
#
#
# Elastic Constant Matrix: (Units=GPa)
#
#
# Indices 1 2 3 4 5 6 
#
# 1 140.6399 30.8451 13.5429 -1.8410 4.3762 15.3227
# 2 30.8451 133.7702 15.5215 -9.6717 3.3019 -4.9239
# 3 13.5429 15.5215 30.6146 6.3432 5.5672 -2.6727
# 4 -1.8410 -9.6717 6.3432 40.2902 -5.7208 -3.6444
# 5 4.3762 3.3019 5.5672 -5.7208 34.7371 -13.8949
# 6 15.3227 -4.9239 -2.6727 -3.6444 -13.8949 59.3913
#
#
#
# Elastic Compliance Matrix: (Units=1/GPa)
#
#
# Indices 1 2 3 4 5 6 
#
# 1 0.008064 -0.001612 -0.002698 -0.000053 -0.001516 -0.002693
# 2 -0.001612 0.008587 -0.004336 0.002953 0.001118 0.001375
# 3 -0.002698 -0.004336 0.039021 -0.008286 -0.006876 -0.000024
# 4 -0.000053 0.002953 -0.008286 0.028116 0.006982 0.003244
# 5 -0.001516 0.001118 -0.006876 0.006982 0.034604 0.008699
# 6 -0.002693 0.001375 -0.000024 0.003244 0.008699 0.019879
#
#
# Mechanical properties :
#
#
# Convention : Reuss Voigt Hill
#
# Bulk Modulus (GPa) = 26.05539 47.20486 36.63013
# Shear Modulus (GPa) = 29.69902 43.22472 36.46187
#
# Velocity S-wave (km/s) = 3.47599 4.19347 3.85147
# Velocity P-wave (km/s) = 5.16818 6.53080 5.88903
#
# Compressibility (1/GPa) = 0.03837977
#
# Stress axis : x y z
#
# Youngs Moduli (GPa) = 124.01363 116.45814 25.62708
#
# Poissons Ratio (x) = 0.18770 0.06915
# Poissons Ratio (y) = 0.19988 0.11111
# Poissons Ratio (z) = 0.33465 0.50493
#
# Static dielectric constant tensor:
#      x y z
#    x 2.060760 0.008810 -0.057800 
#    y 0.008810 1.923880 -0.050450 
#    z -0.057800 -0.050450 2.025640 
# 
# From -- ./inp_files/125354.got.cif
#   From: 2010.05.17/outbox.cif.g08.bks.cpg/sg2_63_cif.got.tgz:125354.got - 2010.06.03 11:33:40.
