data_PCOD9057722
_publ_section_title
;
Structure prediction by ZEFSAII (Michael W. Deem and Ramdas Pophale) SiO2 
 PCOD9057722
Probable space group: P -1
;
_chemical_formula_sum "Si O2"
_cell_formula_units_Z 14
_cell_length_a 9.065303
_cell_length_b 9.721559
_cell_length_c 12.639390
_cell_angle_alpha 66.974544
_cell_angle_beta 145.430419
_cell_angle_gamma 109.900134
_cell_volume 581.320989
_symmetry_space_group_name_H-M "P -1"
_symmetry_group_IT_number 2
_symmetry_cell_setting 'triclinic'
loop_
_space_group_symop_operation_xyz
x,y,z
-x,-y,-z
loop_
_atom_site_type_symbol
_atom_site_label
_atom_site_fract_x
_atom_site_fract_y
_atom_site_fract_z
Si Si1 0.773034 0.378092 0.780727
Si Si2 0.303705 0.111424 0.402103
Si Si3 0.737125 0.143458 0.007027
Si Si4 0.693212 0.004423 0.337434
Si Si5 0.622205 0.391110 0.457277
Si Si6 0.224450 0.574520 0.917061
Si Si7 0.309085 0.651082 0.719571
O O1 0.819493 0.237955 0.922703
O O2 0.767755 0.342376 0.663528
O O3 0.506362 0.451199 0.641075
O O4 0.994220 0.508764 0.872942
O O5 0.354343 0.107928 0.558572
O O6 0.381881 0.269625 0.348303
O O7 0.500000 0.000000 0.500000
O O8 0.000820 0.065834 0.220604
O O9 0.487733 0.044428 0.853246
O O10 0.677592 0.267750 0.023128
O O11 0.632311 0.172272 0.286956
O O12 0.000000 0.000000 0.500000
O O13 0.775795 0.381290 0.441262
O O14 0.139634 0.604804 0.736692
O O15 0.440440 0.450211 0.087539
#
# Coordination Sequence:
#
# PCOD9057722 Si02
#       7
#     2   2   2   2   2   2   2
#     4  11  23  41  79 106 140 191 243 303 373 430
#     4  12  25  44  71 108 146 190 247 297 363 444
#     4  12  25  48  79 104 149 199 244 306 373 433
#     4  12  29  49  72 106 151 199 244 301 374 447
#     4  11  22  43  69 108 143 185 243 304 358 436
#     4  11  24  45  72 106 140 191 245 301 365 438
#     4  11  25  46  68 103 148 182 246 303 358 433
#
# _framework density 24.083081
#
# number of rings (size 3 to 8) (size 9 to 14) (size 15 to 20)
#    0.000    0.571    5.714    2.143    0.000    4.571 
#    5.143    0.000    0.000    0.000    0.000    0.000 
#    0.000    0.000    0.000    0.000    0.000    0.000 
#
# Total GULP energy -78323.306719 kJ/mol
# GULP energy per Si atom -5594.521908 kJ/mol
# Density = 2.402827 g / cm^3
# Si number density = 24.083081 Si / 1000 Ang^3
#
#
#
# Elastic Constant Matrix: (Units=GPa)
#
#
# Indices 1 2 3 4 5 6 
#
# 1 110.5990 41.2428 35.8213 6.3695 -27.0476 -6.9761
# 2 41.2428 101.5240 45.2833 6.7123 8.4975 -20.7679
# 3 35.8213 45.2833 113.2636 13.7037 -7.9084 -19.9338
# 4 6.3695 6.7123 13.7037 40.2852 -3.6534 -1.8147
# 5 -27.0476 8.4975 -7.9084 -3.6534 57.2259 -2.4462
# 6 -6.9761 -20.7679 -19.9338 -1.8147 -2.4462 40.8028
#
#
#
# Elastic Compliance Matrix: (Units=1/GPa)
#
#
# Indices 1 2 3 4 5 6 
#
# 1 0.013182 -0.005334 -0.001719 -0.000040 0.006744 -0.000898
# 2 -0.005334 0.015140 -0.003843 -0.000632 -0.005145 0.004580
# 3 -0.001719 -0.003843 0.011980 -0.002877 0.001382 0.003558
# 4 -0.000040 -0.000632 -0.002877 0.026010 0.001317 -0.000499
# 5 0.006744 -0.005145 0.001382 0.001317 0.021726 0.000571
# 6 -0.000898 0.004580 0.003558 -0.000499 0.000571 0.028436
#
#
# Mechanical properties :
#
#
# Convention : Reuss Voigt Hill
#
# Bulk Modulus (GPa) = 54.02275 63.34237 58.68256
# Shear Modulus (GPa) = 34.61732 41.19872 37.90802
#
# Velocity S-wave (km/s) = 3.79544 4.14054 3.97174
# Velocity P-wave (km/s) = 6.45660 7.01551 6.74185
#
# Compressibility (1/GPa) = 0.01851072
#
# Stress axis : x y z
#
# Youngs Moduli (GPa) = 75.85815 66.04933 83.47429
#
# Poissons Ratio (x) = 0.35232 0.14349
# Poissons Ratio (y) = 0.40464 0.32077
# Poissons Ratio (z) = 0.13040 0.25381
#
# Static dielectric constant tensor:
#      x y z
#    x 1.943850 0.026750 -0.010970 
#    y 0.026750 1.943080 0.030440 
#    z -0.010970 0.030440 1.968670 
# 
# From -- ./inp_files/382160.got.cif
#   From: 2010.05.17/outbox.cif.g08.bks.cpg/sg2_192_cif.got.tgz:382160.got - 2010.06.03 11:33:40.
