data_PCOD9057287
_publ_section_title
;
Structure prediction by ZEFSAII (Michael W. Deem and Ramdas Pophale) SiO2 
 PCOD9057287
Probable space group: P -1
;
_chemical_formula_sum "Si O2"
_cell_formula_units_Z 14
_cell_length_a 16.779021
_cell_length_b 9.181414
_cell_length_c 27.015892
_cell_angle_alpha 28.305479
_cell_angle_beta 161.049148
_cell_angle_gamma 143.552397
_cell_volume 629.976416
_symmetry_space_group_name_H-M "P -1"
_symmetry_group_IT_number 2
_symmetry_cell_setting 'triclinic'
loop_
_space_group_symop_operation_xyz
x,y,z
-x,-y,-z
loop_
_atom_site_type_symbol
_atom_site_label
_atom_site_fract_x
_atom_site_fract_y
_atom_site_fract_z
Si Si1 0.220150 0.018890 0.887356
Si Si2 0.745610 0.732262 0.722781
Si Si3 0.045388 0.351420 0.426717
Si Si4 0.536837 0.534382 0.284717
Si Si5 0.766374 0.275619 0.777015
Si Si6 0.214592 0.306269 0.433535
Si Si7 0.029167 0.844823 0.398651
O O1 0.184795 0.388057 0.767564
O O2 0.174667 0.999691 0.807532
O O3 0.981826 0.899791 0.807065
O O4 0.452712 0.797508 0.115160
O O5 0.701415 0.538597 0.803791
O O6 0.755169 0.508057 0.747637
O O7 0.500000 0.000000 0.500000
O O8 0.274515 0.362269 0.595348
O O9 0.114854 0.455901 0.381682
O O10 0.000000 0.000000 0.500000
O O11 0.698817 0.223701 0.448102
O O12 0.504074 0.156598 0.656901
O O13 0.790977 0.458411 0.685789
O O14 0.000000 0.000000 0.000000
O O15 0.051362 0.055937 0.395358
O O16 0.000000 0.500000 0.500000
#
# Coordination Sequence:
#
# PCOD9057287 Si02
#       7
#     2   2   2   2   2   2   2
#     4  11  24  42  68  98 127 170 222 269 325 395
#     4  12  20  45  68  97 134 173 217 268 338 403
#     4  11  24  44  66  93 130 175 219 269 325 385
#     4  11  24  42  68  98 127 170 222 269 325 395
#     4  11  25  39  65 101 133 167 211 277 339 386
#     4  11  22  42  66  92 134 167 212 268 334 391
#     4  11  24  44  66  93 130 175 219 269 325 385
#
# _framework density 22.223054000000001
#
# number of rings (size 3 to 8) (size 9 to 14) (size 15 to 20)
#    0.000    0.857    5.714    2.143    4.000    2.286 
#    0.000    2.857    0.000    0.000    0.000    0.000 
#    0.000    0.000    0.000    0.000    0.000    0.000 
#
# Total GULP energy -78302.937264 kJ/mol
# GULP energy per Si atom -5593.066947 kJ/mol
# Density = 2.217247 g / cm^3
# Si number density = 22.223054 Si / 1000 Ang^3
#
#
#
# Elastic Constant Matrix: (Units=GPa)
#
#
# Indices 1 2 3 4 5 6 
#
# 1 94.9750 4.0598 17.8868 -0.9013 -9.8539 -14.9089
# 2 4.0598 71.6976 16.4532 -8.1538 -4.7953 -18.3834
# 3 17.8868 16.4532 127.3684 -14.1551 -16.3546 -26.3479
# 4 -0.9013 -8.1538 -14.1551 14.8722 2.4108 -2.3100
# 5 -9.8539 -4.7953 -16.3546 2.4108 28.4367 -3.2942
# 6 -14.9089 -18.3834 -26.3479 -2.3100 -3.2942 43.2051
#
#
#
# Elastic Compliance Matrix: (Units=1/GPa)
#
#
# Indices 1 2 3 4 5 6 
#
# 1 0.011761 0.001061 -0.000026 0.001272 0.004702 0.004920
# 2 0.001061 0.017706 0.001470 0.011989 0.004314 0.009767
# 3 -0.000026 0.001470 0.011795 0.012291 0.007023 0.009002
# 4 0.001272 0.011989 0.012291 0.087712 0.004185 0.018044
# 5 0.004702 0.004314 0.007023 0.004185 0.042505 0.011206
# 6 0.004920 0.009767 0.009002 0.018044 0.011206 0.036308
#
#
# Mechanical properties :
#
#
# Convention : Reuss Voigt Hill
#
# Bulk Modulus (GPa) = 21.61093 41.20450 31.40772
# Shear Modulus (GPa) = 22.91468 34.34555 28.63012
#
# Velocity S-wave (km/s) = 3.21459 3.93554 3.59319
# Velocity P-wave (km/s) = 4.85013 6.26362 5.60164
#
# Compressibility (1/GPa) = 0.04627288
#
# Stress axis : x y z
#
# Youngs Moduli (GPa) = 85.02772 56.47768 84.78221
#
# Poissons Ratio (x) = -0.05991 0.00218
# Poissons Ratio (y) = -0.09019 -0.12467
# Poissons Ratio (z) = 0.00219 -0.08305
#
# Static dielectric constant tensor:
#      x y z
#    x 1.863630 0.057660 -0.014980 
#    y 0.057660 1.820600 0.005930 
#    z -0.014980 0.005930 1.801220 
# 
# From -- ./inp_files/270722.got.cif
#   From: 2010.05.17/outbox.cif.g08.bks.cpg/sg2_136_cif.got.tgz:270722.got - 2010.06.03 11:33:40.
