data_PCOD9057132
_publ_section_title
;
Structure prediction by ZEFSAII (Michael W. Deem and Ramdas Pophale) SiO2 
 PCOD9057132
Probable space group: P -1
;
_chemical_formula_sum "Si O2"
_cell_formula_units_Z 16
_cell_length_a 9.108935
_cell_length_b 23.878071
_cell_length_c 12.333922
_cell_angle_alpha 27.931997
_cell_angle_beta 145.332328
_cell_angle_gamma 134.037901
_cell_volume 709.770929
_symmetry_space_group_name_H-M "P -1"
_symmetry_group_IT_number 2
_symmetry_cell_setting 'triclinic'
loop_
_space_group_symop_operation_xyz
x,y,z
-x,-y,-z
loop_
_atom_site_type_symbol
_atom_site_label
_atom_site_fract_x
_atom_site_fract_y
_atom_site_fract_z
Si Si1 0.155498 0.660282 0.257860
Si Si2 0.146216 0.244189 0.899405
Si Si3 0.674063 0.545507 0.433461
Si Si4 0.736763 0.211066 0.542210
Si Si5 0.249490 0.270743 0.286028
Si Si6 0.273539 0.517623 0.923734
Si Si7 0.833041 0.117341 0.247045
Si Si8 0.515605 0.962012 0.450818
O O1 0.326888 0.542283 0.520475
O O2 0.067064 0.665702 0.318362
O O3 0.259424 0.782437 0.070954
O O4 0.892081 0.664598 0.017546
O O5 0.374673 0.317549 0.870844
O O6 0.007180 0.192224 0.802384
O O7 0.242694 0.144503 0.216190
O O8 0.500000 0.500000 0.500000
O O9 0.967930 0.538789 0.669422
O O10 0.515297 0.204535 0.512301
O O11 0.695585 0.349548 0.236388
O O12 0.707955 0.107831 0.614987
O O13 0.034320 0.182178 0.334266
O O14 0.290753 0.376826 0.214173
O O15 0.500000 0.500000 0.000000
O O16 0.593771 0.071128 0.241505
O O17 0.000000 0.000000 0.500000
O O18 0.500000 0.000000 0.500000
#
# Coordination Sequence:
#
# PCOD9057132 Si02
#       8
#     2   2   2   2   2   2   2   2
#     4   9  18  36  62  88 120 168 215 254 312 381
#     4  11  22  38  65  91 119 166 222 259 310 394
#     4  10  21  35  60  97 135 166 205 273 333 367
#     4  10  19  37  60  90 121 155 212 269 308 367
#     4   8  15  32  62  82 114 157 199 259 305 347
#     4   8  16  32  60  88 113 164 208 249 311 373
#     4  10  17  36  65  84 120 160 218 255 299 373
#     4  12  25  40  62  90 122 172 208 258 328 386
#
# _framework density 22.542483000000001
#
# number of rings (size 3 to 8) (size 9 to 14) (size 15 to 20)
#    0.750    1.500    3.750    0.375    1.750    0.500 
#    2.250    2.500    5.500    3.750    0.000    0.000 
#    0.000    0.000    0.000    0.000    0.000    0.000 
#
# Total GULP energy -89067.543657 kJ/mol
# GULP energy per Si atom -5566.721479 kJ/mol
# Density = 2.249118 g / cm^3
# Si number density = 22.542483 Si / 1000 Ang^3
#
#
#
# Elastic Constant Matrix: (Units=GPa)
#
#
# Indices 1 2 3 4 5 6 
#
# 1 80.4582 51.4227 5.3754 -10.9123 -16.7044 9.8908
# 2 51.4227 167.3677 14.6936 -22.4826 -16.7836 4.5172
# 3 5.3754 14.6936 43.9059 -7.8512 -12.7816 15.0007
# 4 -10.9123 -22.4826 -7.8512 35.9785 7.8280 -5.1576
# 5 -16.7044 -16.7836 -12.7816 7.8280 23.3744 -6.9002
# 6 9.8908 4.5172 15.0007 -5.1576 -6.9002 30.0439
#
#
#
# Elastic Compliance Matrix: (Units=1/GPa)
#
#
# Indices 1 2 3 4 5 6 
#
# 1 0.017870 -0.004636 0.004022 0.000527 0.010049 -0.004796
# 2 -0.004636 0.008049 -0.001988 0.003294 0.000890 0.002078
# 3 0.004022 -0.001988 0.032055 0.001924 0.014375 -0.013398
# 4 0.000527 0.003294 0.001924 0.032143 -0.006246 0.002454
# 5 0.010049 0.000890 0.014375 -0.006246 0.061257 0.002377
# 6 -0.004796 0.002078 -0.013398 0.002454 0.002377 0.042208
#
#
# Mechanical properties :
#
#
# Convention : Reuss Voigt Hill
#
# Bulk Modulus (GPa) = 18.94993 48.30170 33.62582
# Shear Modulus (GPa) = 23.10778 32.56205 27.83491
#
# Velocity S-wave (km/s) = 3.20516 3.80475 3.51775
# Velocity P-wave (km/s) = 4.70340 6.38553 5.60789
#
# Compressibility (1/GPa) = 0.05277063
#
# Stress axis : x y z
#
# Youngs Moduli (GPa) = 55.95900 124.23326 31.19596
#
# Poissons Ratio (x) = 0.57590 -0.12546
# Poissons Ratio (y) = 0.25940 0.06202
# Poissons Ratio (z) = -0.22505 0.24700
#
# Static dielectric constant tensor:
#      x y z
#    x 1.804240 -0.016760 0.041420 
#    y -0.016760 1.923100 -0.036020 
#    z 0.041420 -0.036020 2.010760 
# 
# From -- ./inp_files/406580.got.cif
#   From: 2010.05.17/outbox.cif.g08.bks.cpg/sg2_204_cif.got.tgz:406580.got - 2010.06.03 11:33:40.
