data_PCOD9057238
_publ_section_title
;
Structure prediction by ZEFSAII (Michael W. Deem and Ramdas Pophale) SiO2 
 PCOD9057238
Probable space group: P -1
;
_chemical_formula_sum "Si O2"
_cell_formula_units_Z 16
_cell_length_a 9.512505
_cell_length_b 17.719919
_cell_length_c 14.443948
_cell_angle_alpha 147.211568
_cell_angle_beta 137.787370
_cell_angle_gamma 61.227263
_cell_volume 816.318150
_symmetry_space_group_name_H-M "P -1"
_symmetry_group_IT_number 2
_symmetry_cell_setting 'triclinic'
loop_
_space_group_symop_operation_xyz
x,y,z
-x,-y,-z
loop_
_atom_site_type_symbol
_atom_site_label
_atom_site_fract_x
_atom_site_fract_y
_atom_site_fract_z
Si Si1 0.650734 0.252379 0.822933
Si Si2 0.649599 0.836845 0.132078
Si Si3 0.764054 0.368203 0.683711
Si Si4 0.804803 0.837856 0.403835
Si Si5 0.785495 0.411984 0.240883
Si Si6 0.994778 0.700926 0.100714
Si Si7 0.673463 0.077210 0.244579
Si Si8 0.565097 0.479650 0.876015
O O1 0.393408 0.141989 0.610389
O O2 0.810040 0.211631 0.786961
O O3 0.603111 0.382216 0.876171
O O4 0.788644 0.315697 0.050968
O O5 0.789647 0.903914 0.363454
O O6 0.794594 0.759951 0.067383
O O7 0.616019 0.964609 0.187543
O O8 0.413234 0.706699 0.915145
O O9 0.909227 0.300766 0.750632
O O10 0.643494 0.231040 0.415903
O O11 0.901809 0.519630 0.849437
O O12 0.290193 0.344014 0.849635
O O13 0.062231 0.889440 0.616355
O O14 0.688336 0.531043 0.274269
O O15 0.000000 0.500000 0.500000
O O16 0.367507 0.576732 0.245944
O O17 0.500000 0.000000 0.000000
#
# Coordination Sequence:
#
# PCOD9057238 Si02
#       8
#     2   2   2   2   2   2   2   2
#     4   9  19  31  59  90 113 142 192 248 280 332
#     4  10  21  39  61  85 112 154 200 230 288 347
#     4  10  18  34  61  89 114 144 198 246 277 337
#     4  10  18  37  60  85 113 150 195 238 283 341
#     4  10  20  36  56  88 121 150 182 238 298 340
#     4  10  17  36  65  94 104 144 206 249 276 320
#     4  12  25  37  56  85 121 158 191 233 294 353
#     4   9  17  35  62  88 109 146 204 239 280 324
#
# _framework density 19.600201999999999
#
# number of rings (size 3 to 8) (size 9 to 14) (size 15 to 20)
#    0.000    2.250    3.750    3.375    0.000    3.000 
#    2.250    1.875    2.750    3.750    0.000    0.000 
#    0.000    0.000    0.000    0.000    0.000    0.000 
#
# Total GULP energy -89181.282577 kJ/mol
# GULP energy per Si atom -5573.830161 kJ/mol
# Density = 1.955559 g / cm^3
# Si number density = 19.600202 Si / 1000 Ang^3
#
#
#
# Elastic Constant Matrix: (Units=GPa)
#
#
# Indices 1 2 3 4 5 6 
#
# 1 127.0997 17.6101 38.7339 2.3093 14.8118 0.7534
# 2 17.6101 59.6327 32.1920 1.7658 1.1279 11.3762
# 3 38.7339 32.1920 131.9085 -16.1778 -2.6601 0.5897
# 4 2.3093 1.7658 -16.1778 31.5049 -2.4291 2.2276
# 5 14.8118 1.1279 -2.6601 -2.4291 23.2533 3.4207
# 6 0.7534 11.3762 0.5897 2.2276 3.4207 21.3473
#
#
#
# Elastic Compliance Matrix: (Units=1/GPa)
#
#
# Indices 1 2 3 4 5 6 
#
# 1 0.009873 -0.001409 -0.003065 -0.002908 -0.007160 0.001938
# 2 -0.001409 0.022343 -0.005349 -0.003039 0.000574 -0.011484
# 3 -0.003065 -0.005349 0.010615 0.006174 0.003865 0.001402
# 4 -0.002908 -0.003039 0.006174 0.036067 0.006963 -0.003328
# 5 -0.007160 0.000574 0.003865 0.006963 0.050016 -0.008901
# 6 0.001938 -0.011484 0.001402 -0.003328 -0.008901 0.054631
#
#
# Mechanical properties :
#
#
# Convention : Reuss Voigt Hill
#
# Bulk Modulus (GPa) = 43.13066 55.07920 49.10493
# Shear Modulus (GPa) = 23.70572 30.56140 27.13356
#
# Velocity S-wave (km/s) = 3.48151 3.95300 3.72472
# Velocity P-wave (km/s) = 6.18176 6.99981 6.60347
#
# Compressibility (1/GPa) = 0.02318536
#
# Stress axis : x y z
#
# Youngs Moduli (GPa) = 101.28815 44.75693 94.20425
#
# Poissons Ratio (x) = 0.06307 0.28872
# Poissons Ratio (y) = 0.14274 0.50388
# Poissons Ratio (z) = 0.31043 0.23939
#
# Static dielectric constant tensor:
#      x y z
#    x 1.760810 -0.018550 0.023850 
#    y -0.018550 1.697290 0.031740 
#    z 0.023850 0.031740 1.712100 
# 
# From -- ./inp_files/506783.got.cif
#   From: 2010.05.17/outbox.cif.g08.bks.cpg/sg2_254_cif.got.tgz:506783.got - 2010.06.03 11:33:40.
