data_PCOD9057514
_publ_section_title
;
Structure prediction by ZEFSAII (Michael W. Deem and Ramdas Pophale) SiO2 
 PCOD9057514
Probable space group: P -1
;
_chemical_formula_sum "Si O2"
_cell_formula_units_Z 16
_cell_length_a 12.160745
_cell_length_b 5.564455
_cell_length_c 11.536175
_cell_angle_alpha 104.179308
_cell_angle_beta 68.587225
_cell_angle_gamma 99.084418
_cell_volume 702.574893
_symmetry_space_group_name_H-M "P -1"
_symmetry_group_IT_number 2
_symmetry_cell_setting 'triclinic'
loop_
_space_group_symop_operation_xyz
x,y,z
-x,-y,-z
loop_
_atom_site_type_symbol
_atom_site_label
_atom_site_fract_x
_atom_site_fract_y
_atom_site_fract_z
Si Si1 0.179891 0.956429 0.235887
Si Si2 0.574944 0.501120 0.131962
Si Si3 0.992854 0.240320 0.112742
Si Si4 0.168167 0.615557 0.003737
Si Si5 0.569979 0.575983 0.597702
Si Si6 0.716419 0.126955 0.585115
Si Si7 0.603597 0.819821 0.964122
Si Si8 0.030267 0.744387 0.598474
O O1 0.117330 0.804974 0.137009
O O2 0.246875 0.805361 0.288327
O O3 0.280384 0.118043 0.147523
O O4 0.082336 0.095936 0.357383
O O5 0.534842 0.441739 0.269317
O O6 0.452869 0.429938 0.104031
O O7 0.690646 0.350748 0.047601
O O8 0.614172 0.769227 0.091474
O O9 0.968755 0.271951 0.262341
O O10 0.123859 0.363141 0.052721
O O11 0.891793 0.377682 0.097413
O O12 0.000000 0.000000 0.000000
O O13 0.500000 0.500000 0.500000
O O14 0.650042 0.351398 0.579409
O O15 0.642146 0.851884 0.589718
O O16 0.841877 0.126460 0.470166
O O17 0.500000 0.000000 0.000000
O O18 0.000000 0.500000 0.500000
#
# Coordination Sequence:
#
# PCOD9057514 Si02
#       8
#     2   2   2   2   2   2   2   2
#     4  12  23  47  75 112 153 193 256 322 392 457
#     4  11  25  40  71 106 140 192 243 307 382 454
#     4  11  25  49  70 107 151 195 247 321 381 463
#     4  11  25  42  75 108 146 193 247 312 392 462
#     4  12  29  52  73 107 155 208 260 322 385 467
#     4  12  28  50  77 108 153 205 265 322 381 473
#     4  11  22  42  72 107 144 182 242 311 384 450
#     4  12  27  48  80 111 153 207 264 320 393 460
#
# _framework density 22.773374
#
# number of rings (size 3 to 8) (size 9 to 14) (size 15 to 20)
#    0.000    0.500    3.750    3.750    3.500    2.000 
#    0.000    0.000    0.000    0.000    0.000    0.000 
#    0.000    0.000    0.000    0.000    0.000    0.000 
#
# Total GULP energy -89124.780605 kJ/mol
# GULP energy per Si atom -5570.298788 kJ/mol
# Density = 2.272154 g / cm^3
# Si number density = 22.773374 Si / 1000 Ang^3
#
#
#
# Elastic Constant Matrix: (Units=GPa)
#
#
# Indices 1 2 3 4 5 6 
#
# 1 110.7210 40.6719 54.6026 -6.8216 1.7646 -11.5812
# 2 40.6719 82.4406 58.1769 -6.8288 -10.8252 -8.5972
# 3 54.6026 58.1769 164.5568 -13.7116 5.7457 5.8977
# 4 -6.8216 -6.8288 -13.7116 38.8093 -4.5312 -1.5487
# 5 1.7646 -10.8252 5.7457 -4.5312 64.3417 -4.3420
# 6 -11.5812 -8.5972 5.8977 -1.5487 -4.3420 40.8710
#
#
#
# Elastic Compliance Matrix: (Units=1/GPa)
#
#
# Indices 1 2 3 4 5 6 
#
# 1 0.012116 -0.003745 -0.002741 0.000567 -0.000474 0.003012
# 2 -0.003745 0.019113 -0.005702 0.001353 0.004212 0.004281
# 3 -0.002741 -0.005702 0.009312 0.001451 -0.001847 -0.003461
# 4 0.000567 0.001353 0.001451 0.026919 0.002078 0.001477
# 5 -0.000474 0.004212 -0.001847 0.002078 0.016769 0.002878
# 6 0.003012 0.004281 -0.003461 0.001477 0.002878 0.027082
#
#
# Mechanical properties :
#
#
# Convention : Reuss Voigt Hill
#
# Bulk Modulus (GPa) = 61.85944 73.84680 67.85312
# Shear Modulus (GPa) = 35.44197 42.42221 38.93209
#
# Velocity S-wave (km/s) = 3.94926 4.32070 4.13915
# Velocity P-wave (km/s) = 6.92947 7.57552 7.25968
#
# Compressibility (1/GPa) = 0.01616568
#
# Stress axis : x y z
#
# Youngs Moduli (GPa) = 82.53239 52.32051 107.39129
#
# Poissons Ratio (x) = 0.19593 0.29432
# Poissons Ratio (y) = 0.30907 0.61238
# Poissons Ratio (z) = 0.22619 0.29835
#
# Static dielectric constant tensor:
#      x y z
#    x 1.876790 -0.069530 0.013820 
#    y -0.069530 1.895830 -0.333390 
#    z 0.013820 -0.333390 1.952610 
# 
# From -- ./inp_files/410738.got.cif
#   From: 2010.05.17/outbox.cif.g08.bks.cpg/sg2_206_cif.got.tgz:410738.got - 2010.06.03 11:33:40.
