data_PCOD9057823
_publ_section_title
;
Structure prediction by ZEFSAII (Michael W. Deem and Ramdas Pophale) SiO2 
 PCOD9057823
Probable space group: P -1
;
_chemical_formula_sum "Si O2"
_cell_formula_units_Z 15
_cell_length_a 8.960670
_cell_length_b 12.465436
_cell_length_c 18.841298
_cell_angle_alpha 29.487613
_cell_angle_beta 53.262197
_cell_angle_gamma 42.867256
_cell_volume 699.743089
_symmetry_space_group_name_H-M "P -1"
_symmetry_group_IT_number 2
_symmetry_cell_setting 'triclinic'
loop_
_space_group_symop_operation_xyz
x,y,z
-x,-y,-z
loop_
_atom_site_type_symbol
_atom_site_label
_atom_site_fract_x
_atom_site_fract_y
_atom_site_fract_z
Si Si1 0.390701 0.545516 0.401312
Si Si2 0.651609 0.590165 0.656770
Si Si3 0.500000 0.500000 0.000000
Si Si4 0.264760 0.844377 0.008463
Si Si5 0.201229 0.893371 0.383995
Si Si6 0.654788 0.798719 0.130990
Si Si7 0.865915 0.610120 0.829338
Si Si8 0.796691 0.868037 0.553144
O O1 0.280123 0.507140 0.386655
O O2 0.221851 0.766952 0.374826
O O3 0.555623 0.282366 0.548835
O O4 0.552731 0.633180 0.277078
O O5 0.646847 0.379451 0.828045
O O6 0.802367 0.674221 0.604488
O O7 0.406946 0.847466 0.571991
O O8 0.350369 0.708260 0.987030
O O9 0.286524 0.486317 0.044959
O O10 0.333229 0.045100 0.895681
O O11 0.000000 0.000000 0.000000
O O12 0.019341 0.867382 0.493001
O O13 0.127301 0.189451 0.235144
O O14 0.894973 0.616580 0.133404
O O15 0.500000 0.000000 0.000000
O O16 0.754989 0.776943 0.692462
#
# Coordination Sequence:
#
# PCOD9057823 Si02
#       8
#     2   2   1   2   2   2   2   2
#     4  11  23  43  67 104 137 177 231 291 344 421
#     4  11  23  43  68 101 135 178 231 286 356 406
#     4  12  26  46  74 104 134 192 244 274 356 436
#     4  12  25  48  68  99 145 189 230 288 349 427
#     4  11  24  42  72 102 135 178 235 284 352 421
#     4  12  24  43  70  98 143 190 235 285 353 418
#     4  12  23  46  71 101 139 190 232 293 357 421
#     4  11  22  43  71  99 134 179 230 291 354 415
#
# _framework density 21.436437999999999
#
# number of rings (size 3 to 8) (size 9 to 14) (size 15 to 20)
#    0.000    0.533    6.667    2.000    0.000    0.533 
#    4.800    1.333    0.000    0.000    0.000    0.000 
#    0.000    0.000    0.000    0.000    0.000    0.000 
#
# Total GULP energy -83648.229231 kJ/mol
# GULP energy per Si atom -5576.548615 kJ/mol
# Density = 2.138765 g / cm^3
# Si number density = 21.436438 Si / 1000 Ang^3
#
#
#
# Elastic Constant Matrix: (Units=GPa)
#
#
# Indices 1 2 3 4 5 6 
#
# 1 49.4841 28.3009 -2.9688 -11.2357 -4.7478 24.4722
# 2 28.3009 138.5463 8.3289 -16.2053 -0.5293 32.9447
# 3 -2.9688 8.3289 32.7925 -23.4993 8.3177 -7.6714
# 4 -11.2357 -16.2053 -23.4993 25.4391 -0.8296 -8.5424
# 5 -4.7478 -0.5293 8.3177 -0.8296 27.6473 -6.3285
# 6 24.4722 32.9447 -7.6714 -8.5424 -6.3285 50.2003
#
#
#
# Elastic Compliance Matrix: (Units=1/GPa)
#
#
# Indices 1 2 3 4 5 6 
#
# 1 0.037789 -0.003955 0.048637 0.059196 -0.006238 0.000893
# 2 -0.003955 0.009402 -0.008480 -0.005749 0.000399 -0.006466
# 3 0.048637 -0.008480 0.268609 0.284466 -0.049182 0.065109
# 4 0.059196 -0.005749 0.284466 0.346907 -0.048804 0.071266
# 5 -0.006238 0.000399 -0.049182 -0.048804 0.046804 -0.007141
# 6 0.000893 -0.006466 0.065109 0.071266 -0.007141 0.044905
#
#
# Mechanical properties :
#
#
# Convention : Reuss Voigt Hill
#
# Bulk Modulus (GPa) = 2.57597 32.01610 17.29603
# Shear Modulus (GPa) = 6.16208 33.13479 19.64844
#
# Velocity S-wave (km/s) = 1.69730 3.93583 3.03081
# Velocity P-wave (km/s) = 2.24619 5.96843 4.50930
#
# Compressibility (1/GPa) = 0.38820340
#
# Stress axis : x y z
#
# Youngs Moduli (GPa) = 26.46251 106.35868 3.72289
#
# Poissons Ratio (x) = 0.42069 -0.18107
# Poissons Ratio (y) = 0.10467 0.03157
# Poissons Ratio (z) = -1.28706 0.90191
#
# Static dielectric constant tensor:
#      x y z
#    x 1.762200 0.042750 0.007650 
#    y 0.042750 1.766990 -0.012810 
#    z 0.007650 -0.012810 1.793280 
# 
# From -- ./inp_files/213085.got.cif
#   From: 2010.05.17/outbox.cif.g08.bks.cpg/sg2_107_cif.got.tgz:213085.got - 2010.06.03 11:33:40.
