data_PCOD9057167
_publ_section_title
;
Structure prediction by ZEFSAII (Michael W. Deem and Ramdas Pophale) SiO2 
 PCOD9057167
Probable space group: P -1
;
_chemical_formula_sum "Si O2"
_cell_formula_units_Z 16
_cell_length_a 14.686282
_cell_length_b 8.919701
_cell_length_c 11.046265
_cell_angle_alpha 60.671538
_cell_angle_beta 99.764400
_cell_angle_gamma 141.252418
_cell_volume 727.315144
_symmetry_space_group_name_H-M "P -1"
_symmetry_group_IT_number 2
_symmetry_cell_setting 'triclinic'
loop_
_space_group_symop_operation_xyz
x,y,z
-x,-y,-z
loop_
_atom_site_type_symbol
_atom_site_label
_atom_site_fract_x
_atom_site_fract_y
_atom_site_fract_z
Si Si1 0.416183 0.775078 0.888569
Si Si2 0.935859 0.521045 0.808820
Si Si3 0.394131 0.230345 0.181455
Si Si4 0.145787 0.290053 0.839769
Si Si5 0.461365 0.476701 0.360282
Si Si6 0.021787 0.645538 0.328705
Si Si7 0.796692 0.997188 0.132798
Si Si8 0.673276 0.410032 0.790193
O O1 0.548503 0.869403 0.808448
O O2 0.270026 0.570310 0.845901
O O3 0.510745 0.080676 0.836993
O O4 0.348585 0.588881 0.071195
O O5 0.023230 0.559883 0.703703
O O6 0.813267 0.488207 0.767605
O O7 0.061992 0.785535 0.825736
O O8 0.841899 0.217332 0.964426
O O9 0.424194 0.297634 0.306216
O O10 0.207076 0.973211 0.223950
O O11 0.500000 0.500000 0.000000
O O12 0.080131 0.334306 0.715065
O O13 0.216699 0.219027 0.832209
O O14 0.000000 0.000000 0.000000
O O15 0.500000 0.500000 0.500000
O O16 0.318987 0.398350 0.352073
O O17 0.630599 0.800672 0.226205
O O18 0.000000 0.500000 0.500000
#
# Coordination Sequence:
#
# PCOD9057167 Si02
#       8
#     2   2   2   2   2   2   2   2
#     4  11  22  41  72 101 131 177 244 306 344 421
#     4  11  24  45  70 100 141 181 235 303 359 433
#     4  12  23  49  76 103 140 191 254 300 345 440
#     4  12  24  43  72 104 137 189 249 299 354 435
#     4  12  28  44  68 103 146 185 231 299 367 430
#     4  12  29  46  69 107 151 191 233 303 379 431
#     4  11  24  44  70 103 133 182 243 292 354 433
#     4  11  24  41  69 104 136 180 237 297 368 414
#
# _framework density 21.998716000000002
#
# number of rings (size 3 to 8) (size 9 to 14) (size 15 to 20)
#    0.000    0.500    5.000    3.750    7.000    1.000 
#    0.000    2.500    0.000    0.000    0.000    0.000 
#    0.000    0.000    0.000    0.000    0.000    0.000 
#
# Total GULP energy -89277.438140 kJ/mol
# GULP energy per Si atom -5579.839884 kJ/mol
# Density = 2.194865 g / cm^3
# Si number density = 21.998716 Si / 1000 Ang^3
#
#
#
# Elastic Constant Matrix: (Units=GPa)
#
#
# Indices 1 2 3 4 5 6 
#
# 1 143.4410 24.1677 2.7404 11.6731 23.1059 -2.4848
# 2 24.1677 99.0128 18.9414 13.0957 2.2021 2.1028
# 3 2.7404 18.9414 0.2022 15.4492 8.4726 -20.5247
# 4 11.6731 13.0957 15.4492 27.6066 4.2794 -12.5627
# 5 23.1059 2.2021 8.4726 4.2794 22.7812 4.2602
# 6 -2.4848 2.1028 -20.5247 -12.5627 4.2602 31.3461
#
#
#
# Elastic Compliance Matrix: (Units=1/GPa)
#
#
# Indices 1 2 3 4 5 6 
#
# 1 0.008095 -0.000755 -0.005401 -0.000120 -0.005710 -0.002116
# 2 -0.000755 0.009672 0.008591 -0.007754 -0.002305 0.002122
# 3 -0.005401 0.008591 -0.040125 0.003637 0.024335 -0.029127
# 4 -0.000120 -0.007754 0.003637 0.051980 -0.015065 0.025771
# 5 -0.005710 -0.002305 0.024335 -0.015065 0.042987 0.003756
# 6 -0.002116 0.002122 -0.029127 0.025771 0.003756 0.022338
#
#
# Mechanical properties :
#
#
# Convention : Reuss Voigt Hill
#
# Bulk Modulus (GPa) = -57.17993 37.15055 -10.01469
# Shear Modulus (GPa) = 59.34894 29.46721 44.40808
#
# Velocity S-wave (km/s) = 5.19971 3.66388 4.49783
# Velocity P-wave (km/s) = 3.16234 5.90110 4.73410
#
# Compressibility (1/GPa) = -0.01748865
#
# Stress axis : x y z
#
# Youngs Moduli (GPa) = 123.53676 103.38924 -24.92196
#
# Poissons Ratio (x) = 0.07803 -0.13461
# Poissons Ratio (y) = 0.09324 0.21410
# Poissons Ratio (z) = 0.66726 -0.88820
#
# Static dielectric constant tensor:
#      x y z
#    x 1.894380 -0.024940 0.009300 
#    y -0.024940 1.994910 0.112640 
#    z 0.009300 0.112640 1.888100 
# 
# From -- ./inp_files/445658.got.cif
#   From: 2010.05.17/outbox.cif.g08.bks.cpg/sg2_223_cif.got.tgz:445658.got - 2010.06.03 11:33:40.
