data_PCOD9057242
_publ_section_title
;
Structure prediction by ZEFSAII (Michael W. Deem and Ramdas Pophale) SiO2 
 PCOD9057242
Probable space group: P -1
;
_chemical_formula_sum "Si O2"
_cell_formula_units_Z 16
_cell_length_a 7.147823
_cell_length_b 14.245639
_cell_length_c 20.268057
_cell_angle_alpha 33.476343
_cell_angle_beta 144.310110
_cell_angle_gamma 146.129496
_cell_volume 584.434134
_symmetry_space_group_name_H-M "P -1"
_symmetry_group_IT_number 2
_symmetry_cell_setting 'triclinic'
loop_
_space_group_symop_operation_xyz
x,y,z
-x,-y,-z
loop_
_atom_site_type_symbol
_atom_site_label
_atom_site_fract_x
_atom_site_fract_y
_atom_site_fract_z
Si Si1 0.702233 0.911459 0.390647
Si Si2 0.322965 0.620045 0.711670
Si Si3 0.555913 0.188079 0.491370
Si Si4 0.881309 0.006820 0.037134
Si Si5 0.280505 0.299314 0.092333
Si Si6 0.673845 0.406106 0.862269
Si Si7 0.487872 0.513560 0.621408
Si Si8 0.435143 0.776297 0.252586
O O1 0.454108 0.909288 0.383260
O O2 0.672297 0.698615 0.518508
O O3 0.565031 0.900059 0.283706
O O4 0.111781 0.081359 0.416182
O O5 0.307779 0.776263 0.565721
O O6 0.495696 0.718693 0.772296
O O7 0.605036 0.547579 0.806877
O O8 0.943827 0.420822 0.727023
O O9 0.713898 0.414435 0.426524
O O10 0.161313 0.143950 0.090882
O O11 0.704570 0.789400 0.138216
O O12 0.613794 0.100208 0.892200
O O13 0.000000 0.000000 0.000000
O O14 0.500000 0.500000 0.000000
O O15 0.943525 0.325779 0.008765
O O16 0.765760 0.494108 0.763751
O O17 0.309765 0.314517 0.646712
#
# Coordination Sequence:
#
# PCOD9057242 Si02
#       8
#     2   2   2   2   2   2   2   2
#     4   9  20  40  68  88 120 165 213 264 313 368
#     4  11  23  40  60  95 128 165 208 258 316 385
#     4   8  20  41  61  90 123 154 218 256 320 367
#     4  12  25  42  59  95 134 163 216 256 312 382
#     4  12  23  42  63  91 126 167 209 261 317 374
#     4  11  22  42  63  90 127 169 207 265 312 379
#     4   9  19  39  64  89 120 162 213 258 311 374
#     4  12  22  39  62  92 129 167 210 256 317 370
#
# _framework density 27.376909000000001
#
# number of rings (size 3 to 8) (size 9 to 14) (size 15 to 20)
#    0.750    0.750    3.750    1.125    1.750    0.500 
#    4.500    0.625    0.000    0.000    0.000    0.000 
#    0.000    0.000    0.000    0.000    0.000    0.000 
#
# Total GULP energy -89358.856279 kJ/mol
# GULP energy per Si atom -5584.928517 kJ/mol
# Density = 2.731460 g / cm^3
# Si number density = 27.376909 Si / 1000 Ang^3
#
#
#
# Elastic Constant Matrix: (Units=GPa)
#
#
# Indices 1 2 3 4 5 6 
#
# 1 112.4353 25.0453 15.7285 -0.0579 -14.6821 -25.7530
# 2 25.0453 141.6371 51.8183 11.5937 -17.4748 -35.5733
# 3 15.7285 51.8183 130.3190 17.5340 -28.3897 -22.8157
# 4 -0.0579 11.5937 17.5340 58.9706 -16.6369 -10.4366
# 5 -14.6821 -17.4748 -28.3897 -16.6369 46.3924 -1.9600
# 6 -25.7530 -35.5733 -22.8157 -10.4366 -1.9600 44.5530
#
#
#
# Elastic Compliance Matrix: (Units=1/GPa)
#
#
# Indices 1 2 3 4 5 6 
#
# 1 0.011264 0.000153 0.000776 0.002667 0.005387 0.007892
# 2 0.000153 0.009958 -0.002143 0.000841 0.003097 0.007275
# 3 0.000776 -0.002143 0.010525 -0.000257 0.005970 0.004330
# 4 0.002667 0.000841 -0.000257 0.020618 0.008706 0.007294
# 5 0.005387 0.003097 0.005970 0.008706 0.031712 0.012078
# 6 0.007892 0.007275 0.004330 0.007294 0.012078 0.037273
#
#
# Mechanical properties :
#
#
# Convention : Reuss Voigt Hill
#
# Bulk Modulus (GPa) = 34.10740 63.28618 48.69679
# Shear Modulus (GPa) = 37.43900 49.43648 43.43774
#
# Velocity S-wave (km/s) = 3.70204 4.25405 3.98761
# Velocity P-wave (km/s) = 5.54607 6.87721 6.24720
#
# Compressibility (1/GPa) = 0.02931915
#
# Stress axis : x y z
#
# Youngs Moduli (GPa) = 88.77947 100.42612 95.01129
#
# Poissons Ratio (x) = -0.01534 -0.07375
# Poissons Ratio (y) = -0.01356 0.20358
# Poissons Ratio (z) = -0.06892 0.21518
#
# Static dielectric constant tensor:
#      x y z
#    x 2.269960 0.040640 0.130300 
#    y 0.040640 2.100160 0.077080 
#    z 0.130300 0.077080 2.185260 
# 
# From -- ./inp_files/590269.got.cif
#   From: 2010.05.17/outbox.cif.g08.bks.cpg/sg2_296_cif.got.tgz:590269.got - 2010.06.03 11:33:40.
