data_PCOD9057313
_publ_section_title
;
Structure prediction by ZEFSAII (Michael W. Deem and Ramdas Pophale) SiO2 
 PCOD9057313
Probable space group: P -1
;
_chemical_formula_sum "Si O2"
_cell_formula_units_Z 14
_cell_length_a 14.768642
_cell_length_b 7.962105
_cell_length_c 19.024403
_cell_angle_alpha 38.939435
_cell_angle_beta 151.208428
_cell_angle_gamma 124.731244
_cell_volume 629.168312
_symmetry_space_group_name_H-M "P -1"
_symmetry_group_IT_number 2
_symmetry_cell_setting 'triclinic'
loop_
_space_group_symop_operation_xyz
x,y,z
-x,-y,-z
loop_
_atom_site_type_symbol
_atom_site_label
_atom_site_fract_x
_atom_site_fract_y
_atom_site_fract_z
Si Si1 0.183017 0.787712 0.019264
Si Si2 0.456651 0.325910 0.266480
Si Si3 0.229531 0.375770 0.861216
Si Si4 0.959084 0.748479 0.448409
Si Si5 0.876420 0.893749 0.647860
Si Si6 0.960869 0.740670 0.021075
Si Si7 0.574519 0.297007 0.009737
O O1 0.055975 0.865352 0.834694
O O2 0.221133 0.071907 0.975389
O O3 0.382506 0.510005 0.227346
O O4 0.049079 0.719137 0.009604
O O5 0.667567 0.060797 0.491342
O O6 0.272585 0.226074 0.152435
O O7 0.474829 0.553944 0.147585
O O8 0.312966 0.523496 0.930026
O O9 0.022054 0.601226 0.614737
O O10 0.383110 0.316867 0.919088
O O11 0.000000 0.500000 0.500000
O O12 0.731180 0.972462 0.217645
O O13 0.095897 0.927720 0.458124
O O14 0.914940 0.568086 0.758984
O O15 0.000000 0.000000 0.000000
#
# Coordination Sequence:
#
# PCOD9057313 Si02
#       7
#     2   2   2   2   2   2   2
#     4  11  24  41  66  92 127 167 210 261 311 374
#     4  11  22  42  67  92 126 163 214 262 306 375
#     4  11  24  39  62  97 129 169 209 254 323 371
#     4  12  22  40  65  94 130 166 210 258 314 374
#     4  11  23  41  67  96 122 167 214 260 311 369
#     4  11  25  46  67  91 128 166 208 263 317 371
#     4  11  23  40  62  94 133 168 206 261 312 377
#
# _framework density 22.251598000000001
#
# number of rings (size 3 to 8) (size 9 to 14) (size 15 to 20)
#    0.000    0.857    5.714    3.000    2.000    4.000 
#    0.000    1.429    0.000    0.000    0.000    0.000 
#    0.000    0.000    0.000    0.000    0.000    0.000 
#
# Total GULP energy -78376.954219 kJ/mol
# GULP energy per Si atom -5598.353873 kJ/mol
# Density = 2.220095 g / cm^3
# Si number density = 22.251598 Si / 1000 Ang^3
#
#
#
# Elastic Constant Matrix: (Units=GPa)
#
#
# Indices 1 2 3 4 5 6 
#
# 1 65.7206 2.3410 -2.1288 -7.2407 8.3488 8.5529
# 2 2.3410 109.3788 28.9254 -35.5204 2.5712 0.9920
# 3 -2.1288 28.9254 86.7639 -22.8286 29.4098 -2.6815
# 4 -7.2407 -35.5204 -22.8286 30.3339 -2.0044 0.4498
# 5 8.3488 2.5712 29.4098 -2.0044 29.1604 -6.5613
# 6 8.5529 0.9920 -2.6815 0.4498 -6.5613 32.4521
#
#
#
# Elastic Compliance Matrix: (Units=1/GPa)
#
#
# Indices 1 2 3 4 5 6 
#
# 1 0.019459 0.001736 0.007509 0.011502 -0.014215 -0.007595
# 2 0.001736 0.014941 0.000048 0.017904 -0.000935 -0.001347
# 3 0.007509 0.000048 0.026584 0.020031 -0.028917 -0.005908
# 4 0.011502 0.017904 0.020031 0.070415 -0.021882 -0.007323
# 5 -0.014215 -0.000935 -0.028917 -0.021882 0.069655 0.015772
# 6 -0.007595 -0.001347 -0.005908 -0.007323 0.015772 0.035660
#
#
# Mechanical properties :
#
#
# Convention : Reuss Voigt Hill
#
# Bulk Modulus (GPa) = 12.56779 35.57093 24.06936
# Shear Modulus (GPa) = 20.43722 33.90433 27.17077
#
# Velocity S-wave (km/s) = 3.03390 3.90767 3.49817
# Velocity P-wave (km/s) = 4.23474 6.03161 5.21121
#
# Compressibility (1/GPa) = 0.07956849
#
# Stress axis : x y z
#
# Youngs Moduli (GPa) = 51.39084 66.92801 37.61708
#
# Poissons Ratio (x) = -0.11619 -0.28246
# Poissons Ratio (y) = -0.08922 -0.00179
# Poissons Ratio (z) = -0.38588 -0.00318
#
# Static dielectric constant tensor:
#      x y z
#    x 1.808000 -0.007650 0.000570 
#    y -0.007650 1.817110 0.000210 
#    z 0.000570 0.000210 1.830560 
# 
# From -- ./inp_files/251412.got.cif
#   From: 2010.05.17/outbox.cif.g08.bks.cpg/sg2_126_cif.got.tgz:251412.got - 2010.06.03 11:33:40.
