data_PCOD9057113
_publ_section_title
;
Structure prediction by ZEFSAII (Michael W. Deem and Ramdas Pophale) SiO2 
 PCOD9057113
Probable space group: P -1
;
_chemical_formula_sum "Si O2"
_cell_formula_units_Z 14
_cell_length_a 11.386041
_cell_length_b 9.991089
_cell_length_c 9.578638
_cell_angle_alpha 43.827772
_cell_angle_beta 115.700534
_cell_angle_gamma 126.090397
_cell_volume 609.692887
_symmetry_space_group_name_H-M "P -1"
_symmetry_group_IT_number 2
_symmetry_cell_setting 'triclinic'
loop_
_space_group_symop_operation_xyz
x,y,z
-x,-y,-z
loop_
_atom_site_type_symbol
_atom_site_label
_atom_site_fract_x
_atom_site_fract_y
_atom_site_fract_z
Si Si1 0.502998 0.781560 0.719614
Si Si2 0.330903 0.505348 0.604070
Si Si3 0.196495 0.166527 0.026405
Si Si4 0.767490 0.489991 0.009823
Si Si5 0.776136 0.708894 0.567265
Si Si6 0.112778 0.821558 0.618431
Si Si7 0.863977 0.270910 0.615381
O O1 0.471618 0.632461 0.677300
O O2 0.648500 0.813770 0.849158
O O3 0.500000 0.000000 0.500000
O O4 0.371417 0.652596 0.857171
O O5 0.329797 0.403227 0.531671
O O6 0.260459 0.673379 0.428290
O O7 0.227057 0.305882 0.798161
O O8 0.149164 0.284870 0.033063
O O9 0.108800 0.911078 0.153542
O O10 0.734066 0.549194 0.796578
O O11 0.861058 0.357729 0.149790
O O12 0.942179 0.760127 0.571730
O O13 0.794527 0.942787 0.447078
O O14 0.165503 0.813817 0.494641
O O15 0.000000 0.500000 0.500000
#
# Coordination Sequence:
#
# PCOD9057113 Si02
#       7
#     2   2   2   2   2   2   2
#     4  11  22  44  74  94 127 174 224 276 325 385
#     4  11  23  41  67 100 129 168 224 274 317 385
#     4  11  23  43  69  96 129 171 225 272 329 384
#     4  11  22  41  70  94 128 184 216 259 337 392
#     4  11  25  41  63  97 143 173 214 269 333 391
#     4  11  22  43  63  95 140 183 209 267 333 389
#     4  12  22  41  69  98 129 171 228 272 315 392
#
# _framework density 22.96238
#
# number of rings (size 3 to 8) (size 9 to 14) (size 15 to 20)
#    0.000    0.857    7.143    2.143    0.000    1.714 
#    5.143    3.571    0.000    0.000    0.000    0.000 
#    0.000    0.000    0.000    0.000    0.000    0.000 
#
# Total GULP energy -78346.305740 kJ/mol
# GULP energy per Si atom -5596.164696 kJ/mol
# Density = 2.291012 g / cm^3
# Si number density = 22.962380 Si / 1000 Ang^3
#
#
#
# Elastic Constant Matrix: (Units=GPa)
#
#
# Indices 1 2 3 4 5 6 
#
# 1 48.1900 26.5763 1.4154 -4.4488 7.9982 1.0929
# 2 26.5763 145.9409 48.9912 1.8911 -6.2494 -18.4159
# 3 1.4154 48.9912 138.0691 -16.1209 0.1790 -20.1985
# 4 -4.4488 1.8911 -16.1209 52.6236 -13.1275 0.0469
# 5 7.9982 -6.2494 0.1790 -13.1275 32.5967 -7.2622
# 6 1.0929 -18.4159 -20.1985 0.0469 -7.2622 31.5283
#
#
#
# Elastic Compliance Matrix: (Units=1/GPa)
#
#
# Indices 1 2 3 4 5 6 
#
# 1 0.025722 -0.006172 0.001177 0.000638 -0.008515 -0.005705
# 2 -0.006172 0.009729 -0.002717 -0.000640 0.004283 0.005144
# 3 0.001177 -0.002717 0.009275 0.003423 0.001558 0.004668
# 4 0.000638 -0.000640 0.003423 0.022536 0.009667 0.003990
# 5 -0.008515 0.004283 0.001558 0.009667 0.040388 0.013084
# 6 -0.005705 0.005144 0.004668 0.003990 0.013084 0.040918
#
#
# Mechanical properties :
#
#
# Convention : Reuss Voigt Hill
#
# Bulk Modulus (GPa) = 34.12592 54.01845 44.07218
# Shear Modulus (GPa) = 28.77549 40.36418 34.56983
#
# Velocity S-wave (km/s) = 3.54384 4.19721 3.88428
# Velocity P-wave (km/s) = 5.62485 6.86036 6.27310
#
# Compressibility (1/GPa) = 0.02930324
#
# Stress axis : x y z
#
# Youngs Moduli (GPa) = 38.87726 102.78843 107.81431
#
# Poissons Ratio (x) = 0.63442 -0.12693
# Poissons Ratio (y) = 0.23995 0.29288
# Poissons Ratio (z) = -0.04577 0.27923
#
# Static dielectric constant tensor:
#      x y z
#    x 1.961660 0.063970 -0.006100 
#    y 0.063970 1.898890 -0.033670 
#    z -0.006100 -0.033670 1.875150 
# 
# From -- ./inp_files/206180.got.cif
#   From: 2010.05.17/outbox.cif.g08.bks.cpg/sg2_104_cif.got.tgz:206180.got - 2010.06.03 11:33:40.
