data_PCOD9057436
_publ_section_title
;
Structure prediction by ZEFSAII (Michael W. Deem and Ramdas Pophale) SiO2 
 PCOD9057436
Probable space group: P -1
;
_chemical_formula_sum "Si O2"
_cell_formula_units_Z 16
_cell_length_a 21.775219
_cell_length_b 13.981913
_cell_length_c 8.459819
_cell_angle_alpha 54.117627
_cell_angle_beta 32.086689
_cell_angle_gamma 32.764674
_cell_volume 665.137021
_symmetry_space_group_name_H-M "P -1"
_symmetry_group_IT_number 2
_symmetry_cell_setting 'triclinic'
loop_
_space_group_symop_operation_xyz
x,y,z
-x,-y,-z
loop_
_atom_site_type_symbol
_atom_site_label
_atom_site_fract_x
_atom_site_fract_y
_atom_site_fract_z
Si Si1 0.570431 0.062986 0.205387
Si Si2 0.668992 0.613592 0.349203
Si Si3 0.469787 0.912909 0.257883
Si Si4 0.978354 0.769310 0.444212
Si Si5 0.409025 0.342898 0.018420
Si Si6 0.945981 0.783014 0.122472
Si Si7 0.502757 0.483209 0.200845
Si Si8 0.925545 0.063712 0.780528
O O1 0.510808 0.216013 0.308821
O O2 0.439197 0.209766 0.201460
O O3 0.500000 0.000000 0.500000
O O4 0.790093 0.880236 0.844478
O O5 0.644518 0.500193 0.447724
O O6 0.645387 0.740343 0.157076
O O7 0.883666 0.431435 0.121838
O O8 0.259489 0.090718 0.617542
O O9 0.500000 0.000000 0.000000
O O10 0.472866 0.793541 0.259398
O O11 0.184766 0.549231 0.266894
O O12 0.953666 0.762530 0.317271
O O13 0.988592 0.900660 0.335978
O O14 0.511033 0.375203 0.835058
O O15 0.964384 0.905176 0.922945
O O16 0.500000 0.500000 0.000000
O O17 0.701921 0.273849 0.040497
O O18 0.000000 0.000000 0.500000
#
# Coordination Sequence:
#
# PCOD9057436 Si02
#       8
#     2   2   2   2   2   2   2   2
#     4  12  27  47  73 103 144 192 243 293 353 425
#     4  12  26  44  73 109 140 188 238 297 362 414
#     4  12  27  48  71 104 147 189 242 292 349 433
#     4  11  26  46  71 103 144 187 237 295 355 429
#     4  11  25  46  73 105 141 191 237 294 361 418
#     4  12  26  45  72 105 142 190 234 292 363 425
#     4  11  22  42  70 103 146 176 232 300 355 421
#     4  11  24  41  70 108 144 182 235 294 360 425
#
# _framework density 24.055192999999999
#
# number of rings (size 3 to 8) (size 9 to 14) (size 15 to 20)
#    0.000    0.500    5.000    2.625    3.500    3.500 
#    0.000    0.000    0.000    0.000    0.000    0.000 
#    0.000    0.000    0.000    0.000    0.000    0.000 
#
# Total GULP energy -89471.261282 kJ/mol
# GULP energy per Si atom -5591.953830 kJ/mol
# Density = 2.400044 g / cm^3
# Si number density = 24.055193 Si / 1000 Ang^3
#
#
#
# Elastic Constant Matrix: (Units=GPa)
#
#
# Indices 1 2 3 4 5 6 
#
# 1 56.9552 12.6173 -6.8140 5.4918 -4.1948 11.1358
# 2 12.6173 138.9774 52.8487 -4.7401 -21.2846 -24.3230
# 3 -6.8140 52.8487 104.1261 4.5587 -15.6791 -3.4514
# 4 5.4918 -4.7401 4.5587 44.5085 -4.8499 1.3490
# 5 -4.1948 -21.2846 -15.6791 -4.8499 28.6490 1.2917
# 6 11.1358 -24.3230 -3.4514 1.3490 1.2917 38.0245
#
#
#
# Elastic Compliance Matrix: (Units=1/GPa)
#
#
# Indices 1 2 3 4 5 6 
#
# 1 0.021258 -0.004855 0.003926 -0.003105 0.001531 -0.008917
# 2 -0.004855 0.012114 -0.005501 0.002784 0.005372 0.008390
# 3 0.003926 -0.005501 0.013150 -0.001927 0.003517 -0.003526
# 4 -0.003105 0.002784 -0.001927 0.023791 0.004518 0.001518
# 5 0.001531 0.005372 0.003517 0.004518 0.041732 0.001729
# 6 -0.008917 0.008390 -0.003526 0.001518 0.001729 0.033845
#
#
# Mechanical properties :
#
#
# Convention : Reuss Voigt Hill
#
# Bulk Modulus (GPa) = 29.70660 46.37362 38.04011
# Shear Modulus (GPa) = 29.41690 38.33019 33.87354
#
# Velocity S-wave (km/s) = 3.50078 3.99611 3.75662
# Velocity P-wave (km/s) = 5.35880 6.37273 5.88763
#
# Compressibility (1/GPa) = 0.03366255
#
# Stress axis : x y z
#
# Youngs Moduli (GPa) = 47.04010 82.54852 76.04659
#
# Poissons Ratio (x) = 0.40077 -0.29857
# Poissons Ratio (y) = 0.22838 0.41834
# Poissons Ratio (z) = -0.18469 0.45411
#
# Static dielectric constant tensor:
#      x y z
#    x 2.057460 0.001760 -0.013670 
#    y 0.001760 1.910880 0.077230 
#    z -0.013670 0.077230 2.130110 
# 
# From -- ./inp_files/273107.got.cif
#   From: 2010.05.17/outbox.cif.g08.bks.cpg/sg2_137_cif.got.tgz:273107.got - 2010.06.03 11:33:40.
