data_PCOD9057805
_publ_section_title
;
Structure prediction by ZEFSAII (Michael W. Deem and Ramdas Pophale) SiO2 
 PCOD9057805
Probable space group: P -1
;
_chemical_formula_sum "Si O2"
_cell_formula_units_Z 16
_cell_length_a 14.594609
_cell_length_b 9.878442
_cell_length_c 8.522967
_cell_angle_alpha 114.500261
_cell_angle_beta 140.037691
_cell_angle_gamma 79.693223
_cell_volume 697.572703
_symmetry_space_group_name_H-M "P -1"
_symmetry_group_IT_number 2
_symmetry_cell_setting 'triclinic'
loop_
_space_group_symop_operation_xyz
x,y,z
-x,-y,-z
loop_
_atom_site_type_symbol
_atom_site_label
_atom_site_fract_x
_atom_site_fract_y
_atom_site_fract_z
Si Si1 0.996036 0.162363 0.659044
Si Si2 0.128216 0.035865 0.058458
Si Si3 0.590116 0.415244 0.688019
Si Si4 0.022986 0.699937 0.693708
Si Si5 0.449999 0.198075 0.649434
Si Si6 0.747655 0.278835 0.243662
Si Si7 0.901222 0.489487 0.019871
Si Si8 0.306653 0.425313 0.765003
O O1 0.829995 0.189037 0.429958
O O2 0.083027 0.336594 0.810509
O O3 0.000000 0.000000 0.500000
O O4 0.075021 0.148411 0.921629
O O5 0.292204 0.080889 0.363899
O O6 0.108046 0.874883 0.869777
O O7 0.000000 0.000000 0.000000
O O8 0.500000 0.500000 0.500000
O O9 0.499773 0.255621 0.566052
O O10 0.729490 0.410687 0.761638
O O11 0.637091 0.504498 0.957755
O O12 0.125244 0.638074 0.675545
O O13 0.041655 0.623018 0.844116
O O14 0.850941 0.685298 0.454443
O O15 0.403233 0.326828 0.757637
O O16 0.599165 0.175982 0.919680
O O17 0.705000 0.438280 0.307812
O O18 0.000000 0.500000 0.000000
#
# Coordination Sequence:
#
# PCOD9057805 Si02
#       8
#     2   2   2   2   2   2   2   2
#     4  12  26  45  73 110 147 192 252 307 370 445
#     4  12  26  46  71 104 150 195 244 302 376 447
#     4  11  24  41  67 107 144 187 237 306 371 433
#     4  12  22  43  74 100 139 195 250 290 367 441
#     4  11  25  46  72 110 147 194 246 313 377 437
#     4  11  22  43  71 105 138 189 244 308 368 431
#     4  12  26  44  72 108 148 191 250 305 364 450
#     4  11  22  43  75 103 142 191 246 300 368 446
#
# _framework density 22.936678000000001
#
# number of rings (size 3 to 8) (size 9 to 14) (size 15 to 20)
#    0.000    0.500    6.250    4.125    1.750    1.500 
#    0.000    0.625    0.000    0.000    0.000    0.000 
#    0.000    0.000    0.000    0.000    0.000    0.000 
#
# Total GULP energy -89072.088817 kJ/mol
# GULP energy per Si atom -5567.005551 kJ/mol
# Density = 2.288447 g / cm^3
# Si number density = 22.936678 Si / 1000 Ang^3
#
#
#
# Elastic Constant Matrix: (Units=GPa)
#
#
# Indices 1 2 3 4 5 6 
#
# 1 114.3569 5.8004 16.2230 -6.3622 32.7852 0.0321
# 2 5.8004 83.0146 26.6310 -16.2550 0.1024 -0.4021
# 3 16.2230 26.6310 113.1569 -18.0177 46.2171 3.5562
# 4 -6.3622 -16.2550 -18.0177 42.0086 4.5504 -0.6793
# 5 32.7852 0.1024 46.2171 4.5504 42.0680 0.6681
# 6 0.0321 -0.4021 3.5562 -0.6793 0.6681 32.1538
#
#
#
# Elastic Compliance Matrix: (Units=1/GPa)
#
#
# Indices 1 2 3 4 5 6 
#
# 1 0.013910 -0.002131 0.007857 0.006835 -0.020202 -0.000345
# 2 -0.002131 0.014532 -0.006247 0.001735 0.008289 0.000739
# 3 0.007857 -0.006247 0.026455 0.014059 -0.036663 -0.001953
# 4 0.006835 0.001735 0.014059 0.034187 -0.024470 -0.000309
# 5 -0.020202 0.008289 -0.036663 -0.024470 0.082389 0.001950
# 6 -0.000345 0.000739 -0.001953 -0.000309 0.001950 0.031279
#
#
# Mechanical properties :
#
#
# Convention : Reuss Voigt Hill
#
# Bulk Modulus (GPa) = 18.56806 45.31525 31.94165
# Shear Modulus (GPa) = 22.54833 40.70436 31.62635
#
# Velocity S-wave (km/s) = 3.13879 4.21722 3.71732
# Velocity P-wave (km/s) = 4.60966 6.59642 5.69042
#
# Compressibility (1/GPa) = 0.05385593
#
# Stress axis : x y z
#
# Youngs Moduli (GPa) = 71.89111 68.81299 37.79959
#
# Poissons Ratio (x) = 0.14664 -0.29701
# Poissons Ratio (y) = 0.15320 0.23614
# Poissons Ratio (z) = -0.56488 0.42989
#
# Static dielectric constant tensor:
#      x y z
#    x 1.988660 -0.125150 -0.113320 
#    y -0.125150 1.983310 0.200940 
#    z -0.113320 0.200940 1.757770 
# 
# From -- ./inp_files/299407.got.cif
#   From: 2010.05.17/outbox.cif.g08.bks.cpg/sg2_150_cif.got.tgz:299407.got - 2010.06.03 11:33:40.
