data_PCOD9057350
_publ_section_title
;
Structure prediction by ZEFSAII (Michael W. Deem and Ramdas Pophale) SiO2 
 PCOD9057350
Probable space group: P -1
;
_chemical_formula_sum "Si O2"
_cell_formula_units_Z 12
_cell_length_a 12.092640
_cell_length_b 9.736521
_cell_length_c 12.208308
_cell_angle_alpha 37.168354
_cell_angle_beta 144.119498
_cell_angle_gamma 132.222979
_cell_volume 507.567366
_symmetry_space_group_name_H-M "P -1"
_symmetry_group_IT_number 2
_symmetry_cell_setting 'triclinic'
loop_
_space_group_symop_operation_xyz
x,y,z
-x,-y,-z
loop_
_atom_site_type_symbol
_atom_site_label
_atom_site_fract_x
_atom_site_fract_y
_atom_site_fract_z
Si Si1 0.557997 0.363114 0.802392
Si Si2 0.689321 0.490189 0.307204
Si Si3 0.629323 0.873472 0.768533
Si Si4 0.861372 0.176976 0.323776
Si Si5 0.040798 0.358909 0.770866
Si Si6 0.550497 0.853942 0.378975
O O1 0.386857 0.351261 0.759921
O O2 0.590765 0.628991 0.623745
O O3 0.505036 0.228103 0.735184
O O4 0.733214 0.267075 0.066048
O O5 0.499592 0.367050 0.182403
O O6 0.825019 0.607434 0.249980
O O7 0.826159 0.315678 0.586274
O O8 0.500000 0.000000 0.500000
O O9 0.611067 0.014920 0.775276
O O10 0.843290 0.813885 0.955412
O O11 0.955987 0.401064 0.315444
O O12 0.728087 0.037106 0.393365
O O13 0.000000 0.000000 0.500000
#
# Coordination Sequence:
#
# PCOD9057350 Si02
#       6
#     2   2   2   2   2   2
#     4  11  24  45  65  97 135 172 220 277 322 391
#     4  11  22  42  68  92 133 172 214 274 325 377
#     4  12  22  43  68  96 133 175 212 272 333 383
#     4  12  24  42  67  97 133 177 218 270 335 391
#     4  11  24  40  68 100 129 169 227 270 317 402
#     4  11  24  42  69  95 131 179 217 266 338 385
#
# _framework density 23.642181999999998
#
# number of rings (size 3 to 8) (size 9 to 14) (size 15 to 20)
#    0.000    0.667    5.000    3.000    0.000    4.000 
#    0.000    1.667    0.000    0.000    0.000    0.000 
#    0.000    0.000    0.000    0.000    0.000    0.000 
#
# Total GULP energy -67136.531910 kJ/mol
# GULP energy per Si atom -5594.710993 kJ/mol
# Density = 2.358837 g / cm^3
# Si number density = 23.642182 Si / 1000 Ang^3
#
#
#
# Elastic Constant Matrix: (Units=GPa)
#
#
# Indices 1 2 3 4 5 6 
#
# 1 69.2934 17.7474 29.6614 0.8330 8.0705 -33.8279
# 2 17.7474 86.5608 43.4163 -2.1790 11.5482 -17.2225
# 3 29.6614 43.4163 181.8393 7.2763 26.3074 -13.7370
# 4 0.8330 -2.1790 7.2763 38.9987 -0.5810 11.4974
# 5 8.0705 11.5482 26.3074 -0.5810 38.5714 -5.5036
# 6 -33.8279 -17.2225 -13.7370 11.4974 -5.5036 45.1855
#
#
#
# Elastic Compliance Matrix: (Units=1/GPa)
#
#
# Indices 1 2 3 4 5 6 
#
# 1 0.025086 -0.000192 -0.002199 -0.005874 -0.001011 0.019410
# 2 -0.000192 0.014029 -0.002764 0.000057 -0.001683 0.004144
# 3 -0.002199 -0.002764 0.007043 -0.001277 -0.003632 -0.000676
# 4 -0.005874 0.000057 -0.001277 0.029618 0.000787 -0.012204
# 5 -0.001011 -0.001683 -0.003632 0.000787 0.029253 0.000860
# 6 0.019410 0.004144 -0.000676 -0.012204 0.000860 0.041246
#
#
# Mechanical properties :
#
#
# Convention : Reuss Voigt Hill
#
# Bulk Modulus (GPa) = 27.89455 57.70486 42.79970
# Shear Modulus (GPa) = 29.66764 41.00902 35.33833
#
# Velocity S-wave (km/s) = 3.54624 4.16934 3.87035
# Velocity P-wave (km/s) = 5.34715 6.90206 6.17375
#
# Compressibility (1/GPa) = 0.03584930
#
# Stress axis : x y z
#
# Youngs Moduli (GPa) = 39.86339 71.28286 141.97641
#
# Poissons Ratio (x) = 0.01366 0.31215
# Poissons Ratio (y) = 0.00764 0.39243
# Poissons Ratio (z) = 0.08764 0.19703
#
# Static dielectric constant tensor:
#      x y z
#    x 1.903270 0.013990 -0.085200 
#    y 0.013990 1.911170 -0.040970 
#    z -0.085200 -0.040970 1.974480 
# 
# From -- ./inp_files/230956.got.cif
#   From: 2010.05.17/outbox.cif.g08.bks.cpg/sg2_116_cif.got.tgz:230956.got - 2010.06.03 11:33:40.
