data_PCOD9057311
_publ_section_title
;
Structure prediction by ZEFSAII (Michael W. Deem and Ramdas Pophale) SiO2 
 PCOD9057311
Probable space group: P -1
;
_chemical_formula_sum "Si O2"
_cell_formula_units_Z 12
_cell_length_a 12.498779
_cell_length_b 9.654847
_cell_length_c 5.099102
_cell_angle_alpha 76.571089
_cell_angle_beta 122.703803
_cell_angle_gamma 116.323177
_cell_volume 464.070654
_symmetry_space_group_name_H-M "P -1"
_symmetry_group_IT_number 2
_symmetry_cell_setting 'triclinic'
loop_
_space_group_symop_operation_xyz
x,y,z
-x,-y,-z
loop_
_atom_site_type_symbol
_atom_site_label
_atom_site_fract_x
_atom_site_fract_y
_atom_site_fract_z
Si Si1 0.263883 0.938393 0.841368
Si Si2 0.173087 0.205378 0.522305
Si Si3 0.692247 0.660697 0.860412
Si Si4 0.406390 0.667739 0.286657
Si Si5 0.972851 0.386855 0.262907
Si Si6 0.432342 0.864022 0.716029
O O1 0.174886 0.758411 0.857764
O O2 0.167780 0.036899 0.674142
O O3 0.406280 0.022913 0.162378
O O4 0.328667 0.943352 0.634538
O O5 0.194932 0.217420 0.232835
O O6 0.069590 0.287814 0.421174
O O7 0.300061 0.309829 0.833037
O O8 0.548718 0.656559 0.567298
O O9 0.699892 0.498756 0.867469
O O10 0.438327 0.774461 0.028852
O O11 0.371051 0.738946 0.467908
O O12 0.000000 0.500000 0.500000
O O13 0.000000 0.500000 0.000000
#
# Coordination Sequence:
#
# PCOD9057311 Si02
#       6
#     2   2   2   2   2   2
#     4  11  27  50  75 114 152 195 250 307 374 447
#     4  12  25  49  75 110 145 202 245 308 372 439
#     4  11  23  40  74 109 156 187 254 295 379 434
#     4  11  22  42  67 115 150 201 236 308 361 448
#     4  12  31  53  78 109 145 202 253 313 370 439
#     4  11  25  43  77 106 156 192 248 302 374 435
#
# _framework density 25.858129999999999
#
# number of rings (size 3 to 8) (size 9 to 14) (size 15 to 20)
#    0.000    0.667    3.333    2.500    7.000    9.333 
#    0.000    3.333    0.000    0.000    0.000    0.000 
#    0.000    0.000    0.000    0.000    0.000    0.000 
#
# Total GULP energy -67103.531106 kJ/mol
# GULP energy per Si atom -5591.960926 kJ/mol
# Density = 2.579928 g / cm^3
# Si number density = 25.858130 Si / 1000 Ang^3
#
#
#
# Elastic Constant Matrix: (Units=GPa)
#
#
# Indices 1 2 3 4 5 6 
#
# 1 111.1070 49.8135 50.6671 -1.1567 4.7740 -19.9418
# 2 49.8135 190.4747 45.1219 6.7932 1.2421 -11.5363
# 3 50.6671 45.1219 95.9700 4.5473 -18.6442 -8.4114
# 4 -1.1567 6.7932 4.5473 31.9595 -12.5962 -1.2411
# 5 4.7740 1.2421 -18.6442 -12.5962 46.6918 2.7145
# 6 -19.9418 -11.5363 -8.4114 -1.2411 2.7145 57.7747
#
#
#
# Elastic Compliance Matrix: (Units=1/GPa)
#
#
# Indices 1 2 3 4 5 6 
#
# 1 0.013802 -0.001712 -0.007014 0.000310 -0.004293 0.003609
# 2 -0.001712 0.006310 -0.002212 -0.001598 -0.001329 0.000375
# 3 -0.007014 -0.002212 0.016540 0.000850 0.007656 -0.000796
# 4 0.000310 -0.001598 0.000850 0.035428 0.009895 0.000208
# 5 -0.004293 -0.001329 0.007656 0.009895 0.027718 -0.001722
# 6 0.003609 0.000375 -0.000796 0.000208 -0.001722 0.018599
#
#
# Mechanical properties :
#
#
# Convention : Reuss Voigt Hill
#
# Bulk Modulus (GPa) = 67.68076 76.52853 72.10465
# Shear Modulus (GPa) = 34.43531 44.08182 39.25857
#
# Velocity S-wave (km/s) = 3.65321 4.13335 3.90067
# Velocity P-wave (km/s) = 6.63515 7.24149 6.94494
#
# Compressibility (1/GPa) = 0.01477525
#
# Stress axis : x y z
#
# Youngs Moduli (GPa) = 72.45322 158.46939 60.45804
#
# Poissons Ratio (x) = 0.27138 0.42404
# Poissons Ratio (y) = 0.12408 0.13376
# Poissons Ratio (z) = 0.50817 0.35061
#
# Static dielectric constant tensor:
#      x y z
#    x 2.107900 -0.032650 0.081890 
#    y -0.032650 2.089580 -0.040410 
#    z 0.081890 -0.040410 2.038270 
# 
# From -- ./inp_files/87703.got.cif
#   From: 2010.05.17/outbox.cif.g08.bks.cpg/sg2_44_cif.got.tgz:87703.got - 2010.06.03 11:33:40.
