data_PCOD9057431
_publ_section_title
;
Structure prediction by ZEFSAII (Michael W. Deem and Ramdas Pophale) SiO2 
 PCOD9057431
Probable space group: P -1
;
_chemical_formula_sum "Si O2"
_cell_formula_units_Z 16
_cell_length_a 8.342829
_cell_length_b 11.023256
_cell_length_c 14.788129
_cell_angle_alpha 110.002004
_cell_angle_beta 123.215907
_cell_angle_gamma 39.395840
_cell_volume 713.614766
_symmetry_space_group_name_H-M "P -1"
_symmetry_group_IT_number 2
_symmetry_cell_setting 'triclinic'
loop_
_space_group_symop_operation_xyz
x,y,z
-x,-y,-z
loop_
_atom_site_type_symbol
_atom_site_label
_atom_site_fract_x
_atom_site_fract_y
_atom_site_fract_z
Si Si1 0.550600 0.486151 0.904670
Si Si2 0.137260 0.495880 0.210282
Si Si3 0.863457 0.519098 0.312088
Si Si4 0.839687 0.825574 0.077581
Si Si5 0.156851 0.255453 0.495041
Si Si6 0.510816 0.442659 0.589974
Si Si7 0.331929 0.830011 0.805081
Si Si8 0.121361 0.989094 0.438412
O O1 0.380591 0.457457 0.791373
O O2 0.414571 0.685827 0.871384
O O3 0.892728 0.310782 0.944366
O O4 0.500000 0.500000 0.000000
O O5 0.318893 0.535805 0.295164
O O6 0.361775 0.288719 0.177359
O O7 0.006672 0.508921 0.265035
O O8 0.892124 0.670450 0.113082
O O9 0.121421 0.322329 0.398465
O O10 0.742162 0.691732 0.385439
O O11 0.854952 0.955791 0.165605
O O12 0.500000 0.000000 0.000000
O O13 0.815416 0.414732 0.449532
O O14 0.268622 0.055714 0.498586
O O15 0.500000 0.500000 0.500000
O O16 0.672111 0.226826 0.585493
O O17 0.139601 0.867257 0.675604
O O18 0.000000 0.000000 0.500000
#
# Coordination Sequence:
#
# PCOD9057431 Si02
#       8
#     2   2   2   2   2   2   2   2
#     4  11  27  51  75 101 147 192 233 306 372 419
#     4  11  22  42  70 102 141 188 236 297 357 425
#     4  11  24  43  67  99 147 190 227 295 373 419
#     4  11  27  48  74 107 132 184 252 300 352 433
#     4  11  23  43  63 101 145 185 236 291 352 438
#     4  12  20  39  66  96 137 186 236 288 348 429
#     4  11  24  45  72 103 140 184 245 295 352 437
#     4  12  21  37  70 101 134 187 239 286 354 422
#
# _framework density 22.421063
#
# number of rings (size 3 to 8) (size 9 to 14) (size 15 to 20)
#    0.000    0.750    6.250    0.750    3.500    1.500 
#    0.000    5.000    0.000    0.000    0.000    0.000 
#    0.000    0.000    0.000    0.000    0.000    0.000 
#
# Total GULP energy -89412.527204 kJ/mol
# GULP energy per Si atom -5588.282950 kJ/mol
# Density = 2.237003 g / cm^3
# Si number density = 22.421063 Si / 1000 Ang^3
#
#
#
# Elastic Constant Matrix: (Units=GPa)
#
#
# Indices 1 2 3 4 5 6 
#
# 1 134.4588 37.2246 51.3958 -4.0178 -26.0884 -4.8184
# 2 37.2246 136.6231 30.9509 -17.5131 -12.0602 1.0562
# 3 51.3958 30.9509 114.6512 -9.0540 -9.7979 -8.9278
# 4 -4.0178 -17.5131 -9.0540 35.1466 3.7152 9.1878
# 5 -26.0884 -12.0602 -9.7979 3.7152 51.3976 3.6532
# 6 -4.8184 1.0562 -8.9278 9.1878 3.6532 35.0323
#
#
#
# Elastic Compliance Matrix: (Units=1/GPa)
#
#
# Indices 1 2 3 4 5 6 
#
# 1 0.010127 -0.001694 -0.003800 -0.001191 0.004079 0.000363
# 2 -0.001694 0.008715 -0.001351 0.004252 0.000765 -0.002035
# 3 -0.003800 -0.001351 0.011014 0.001237 -0.000380 0.002040
# 4 -0.001191 0.004252 0.001237 0.033108 -0.001157 -0.008539
# 5 0.004079 0.000765 -0.000380 -0.001157 0.021826 -0.001531
# 6 0.000363 -0.002035 0.002040 -0.008539 -0.001531 0.031576
#
#
# Mechanical properties :
#
#
# Convention : Reuss Voigt Hill
#
# Bulk Modulus (GPa) = 61.85102 69.43063 65.64083
# Shear Modulus (GPa) = 36.91534 42.05941 39.48737
#
# Velocity S-wave (km/s) = 4.06206 4.33585 4.20119
# Velocity P-wave (km/s) = 7.04602 7.49000 7.27140
#
# Compressibility (1/GPa) = 0.01616788
#
# Stress axis : x y z
#
# Youngs Moduli (GPa) = 98.74107 114.74131 90.79207
#
# Poissons Ratio (x) = 0.19437 0.34500
# Poissons Ratio (y) = 0.16726 0.12263
# Poissons Ratio (z) = 0.37521 0.15498
#
# Static dielectric constant tensor:
#      x y z
#    x 1.905850 0.014560 0.111790 
#    y 0.014560 1.711990 0.286220 
#    z 0.111790 0.286220 1.575470 
# 
# From -- ./inp_files/500472.got.cif
#   From: 2010.05.17/outbox.cif.g08.bks.cpg/sg2_251_cif.got.tgz:500472.got - 2010.06.03 11:33:40.
