data_PCOD9057502
_publ_section_title
;
Structure prediction by ZEFSAII (Michael W. Deem and Ramdas Pophale) SiO2 
 PCOD9057502
Probable space group: P -1
;
_chemical_formula_sum "Si O2"
_cell_formula_units_Z 16
_cell_length_a 8.015246
_cell_length_b 7.815883
_cell_length_c 21.112782
_cell_angle_alpha 46.480976
_cell_angle_beta 135.903546
_cell_angle_gamma 132.206562
_cell_volume 624.866768
_symmetry_space_group_name_H-M "P -1"
_symmetry_group_IT_number 2
_symmetry_cell_setting 'triclinic'
loop_
_space_group_symop_operation_xyz
x,y,z
-x,-y,-z
loop_
_atom_site_type_symbol
_atom_site_label
_atom_site_fract_x
_atom_site_fract_y
_atom_site_fract_z
Si Si1 0.869724 0.986125 0.823672
Si Si2 0.918438 0.303170 0.969888
Si Si3 0.268237 0.587234 0.883438
Si Si4 0.965056 0.239736 0.461629
Si Si5 0.642788 0.879046 0.171412
Si Si6 0.551944 0.683882 0.715733
Si Si7 0.110650 0.508559 0.311655
Si Si8 0.233219 0.046906 0.409803
O O1 0.123649 0.078528 0.824785
O O2 0.746263 0.199852 0.737734
O O3 0.954570 0.908490 0.932534
O O4 0.668667 0.734538 0.803826
O O5 0.023235 0.447055 0.897059
O O6 0.000000 0.500000 0.000000
O O7 0.617809 0.167716 0.925905
O O8 0.150124 0.542194 0.790185
O O9 0.331589 0.882308 0.838913
O O10 0.500000 0.500000 0.000000
O O11 0.674509 0.210651 0.377778
O O12 0.101866 0.479651 0.393604
O O13 0.979024 0.190332 0.553232
O O14 0.000000 0.000000 0.500000
O O15 0.571606 0.611636 0.256742
O O16 0.775437 0.870244 0.685512
O O17 0.233529 0.303890 0.377312
O O18 0.500000 0.000000 0.500000
#
# Coordination Sequence:
#
# PCOD9057502 Si02
#       8
#     2   2   2   2   2   2   2   2
#     4  12  25  40  72 102 138 185 235 282 344 413
#     4  12  25  43  67  99 140 186 234 277 340 407
#     4  12  29  45  68 106 142 185 234 286 338 412
#     4   9  20  42  72  95 136 179 220 288 347 411
#     4  12  23  44  70  98 140 189 230 283 342 406
#     4  11  22  42  72 100 135 179 229 283 349 410
#     4  11  23  44  68 100 142 178 228 283 349 406
#     4   9  20  42  71  98 135 174 227 288 337 416
#
# _framework density 25.605459
#
# number of rings (size 3 to 8) (size 9 to 14) (size 15 to 20)
#    0.000    1.000    3.750    2.625    3.500    3.000 
#    0.000    6.250   11.000    0.000    0.000    0.000 
#    0.000    0.000    0.000    0.000    0.000    0.000 
#
# Total GULP energy -89248.056195 kJ/mol
# GULP energy per Si atom -5578.003512 kJ/mol
# Density = 2.554718 g / cm^3
# Si number density = 25.605459 Si / 1000 Ang^3
#
#
#
# Elastic Constant Matrix: (Units=GPa)
#
#
# Indices 1 2 3 4 5 6 
#
# 1 65.0910 19.4234 34.3571 -14.9428 1.5765 8.8369
# 2 19.4234 99.9690 35.8461 -19.1201 -1.2228 -12.1465
# 3 34.3571 35.8461 145.1655 -45.8528 6.3396 -2.1015
# 4 -14.9428 -19.1201 -45.8528 36.7662 -0.4051 2.5239
# 5 1.5765 -1.2228 6.3396 -0.4051 43.2744 -13.6054
# 6 8.8369 -12.1465 -2.1015 2.5239 -13.6054 25.5975
#
#
#
# Elastic Compliance Matrix: (Units=1/GPa)
#
#
# Indices 1 2 3 4 5 6 
#
# 1 0.020443 -0.003739 -0.002736 0.003701 -0.004054 -0.011576
# 2 -0.003739 0.012910 -0.001433 0.002835 0.003535 0.008899
# 3 -0.002736 -0.001433 0.012192 0.013402 -0.001944 -0.001089
# 4 0.003701 0.002835 0.013402 0.047213 -0.003209 -0.005193
# 5 -0.004054 0.003535 -0.001944 -0.003209 0.029569 0.018950
# 6 -0.011576 0.008899 -0.001089 -0.005193 0.018950 0.057780
#
#
# Mechanical properties :
#
#
# Convention : Reuss Voigt Hill
#
# Bulk Modulus (GPa) = 33.63778 54.38654 44.01216
# Shear Modulus (GPa) = 24.29155 35.83420 30.06287
#
# Velocity S-wave (km/s) = 3.08342 3.74501 3.43020
# Velocity P-wave (km/s) = 5.08351 6.32349 5.73710
#
# Compressibility (1/GPa) = 0.02972848
#
# Stress axis : x y z
#
# Youngs Moduli (GPa) = 48.91733 77.45875 82.01772
#
# Poissons Ratio (x) = 0.28961 0.22443
# Poissons Ratio (y) = 0.18290 0.11754
# Poissons Ratio (z) = 0.13386 0.11101
#
# Static dielectric constant tensor:
#      x y z
#    x 2.172470 0.058300 -0.003680 
#    y 0.058300 2.003380 -0.018240 
#    z -0.003680 -0.018240 2.160520 
# 
# From -- ./inp_files/606635.got.cif
#   From: 2010.05.17/outbox.cif.g08.bks.cpg/sg2_304_cif.got.tgz:606635.got - 2010.06.03 11:33:40.
