data_PCOD9057536
_publ_section_title
;
Structure prediction by ZEFSAII (Michael W. Deem and Ramdas Pophale) SiO2 
 PCOD9057536
Probable space group: P -1
;
_chemical_formula_sum "Si O2"
_cell_formula_units_Z 12
_cell_length_a 12.695250
_cell_length_b 9.440590
_cell_length_c 9.743072
_cell_angle_alpha 134.160593
_cell_angle_beta 114.783397
_cell_angle_gamma 40.165816
_cell_volume 523.905107
_symmetry_space_group_name_H-M "P -1"
_symmetry_group_IT_number 2
_symmetry_cell_setting 'triclinic'
loop_
_space_group_symop_operation_xyz
x,y,z
-x,-y,-z
loop_
_atom_site_type_symbol
_atom_site_label
_atom_site_fract_x
_atom_site_fract_y
_atom_site_fract_z
Si Si1 0.829724 0.664890 0.598946
Si Si2 0.674074 0.462533 0.462914
Si Si3 0.684773 0.163624 0.031813
Si Si4 0.161994 0.861710 0.409334
Si Si5 0.697925 0.469594 0.009355
Si Si6 0.681884 0.928042 0.418320
O O1 0.806093 0.468284 0.494144
O O2 0.686256 0.900887 0.567595
O O3 0.000000 0.500000 0.500000
O O4 0.801727 0.838618 0.831340
O O5 0.686529 0.406034 0.592349
O O6 0.496027 0.769819 0.525701
O O7 0.708246 0.221305 0.234367
O O8 0.720730 0.298679 0.036943
O O9 0.491394 0.336653 0.018968
O O10 0.178073 0.746991 0.191045
O O11 0.184967 0.067655 0.545948
O O12 0.000000 0.000000 0.500000
O O13 0.717491 0.671127 0.200846
#
# Coordination Sequence:
#
# PCOD9057536 Si02
#       6
#     2   2   2   2   2   2
#     4  12  25  42  70 106 138 172 227 290 338 394
#     4  12  25  43  73 102 132 184 230 277 337 408
#     4  11  22  42  73 103 130 178 233 279 330 403
#     4  12  28  46  66 102 146 175 220 292 348 392
#     4  11  23  42  74  99 134 181 230 276 335 407
#     4  12  23  45  72  98 134 184 233 272 333 416
#
# _framework density 22.904910000000001
#
# number of rings (size 3 to 8) (size 9 to 14) (size 15 to 20)
#    0.000    0.333    6.667    3.000    0.000    4.667 
#    0.000    0.000    0.000    0.000    0.000    0.000 
#    0.000    0.000    0.000    0.000    0.000    0.000 
#
# Total GULP energy -67263.380021 kJ/mol
# GULP energy per Si atom -5605.281668 kJ/mol
# Density = 2.285278 g / cm^3
# Si number density = 22.904910 Si / 1000 Ang^3
#
#
#
# Elastic Constant Matrix: (Units=GPa)
#
#
# Indices 1 2 3 4 5 6 
#
# 1 138.9670 -5.7960 57.3889 6.3845 10.8809 12.1106
# 2 -5.7960 56.3065 -7.3187 -8.5700 1.0144 8.0109
# 3 57.3889 -7.3187 147.1316 10.1359 17.2248 -0.7675
# 4 6.3845 -8.5700 10.1359 27.3096 2.9428 -10.0026
# 5 10.8809 1.0144 17.2248 2.9428 45.4741 4.4938
# 6 12.1106 8.0109 -0.7675 -10.0026 4.4938 26.7980
#
#
#
# Elastic Compliance Matrix: (Units=1/GPa)
#
#
# Indices 1 2 3 4 5 6 
#
# 1 0.009246 0.000899 -0.003383 -0.002603 -0.000242 -0.005475
# 2 0.000899 0.019174 0.000369 0.004086 -0.000602 -0.004501
# 3 -0.003383 0.000369 0.008532 -0.001424 -0.002492 0.001549
# 4 -0.002603 0.004086 -0.001424 0.045896 -0.003644 0.017656
# 5 -0.000242 -0.000602 -0.002492 -0.003644 0.023748 -0.005125
# 6 -0.005475 -0.004501 0.001549 0.017656 -0.005125 0.048630
#
#
# Mechanical properties :
#
#
# Convention : Reuss Voigt Hill
#
# Bulk Modulus (GPa) = 30.56044 47.88374 39.22209
# Shear Modulus (GPa) = 29.34902 39.79174 34.57038
#
# Velocity S-wave (km/s) = 3.58347 4.17256 3.88919
# Velocity P-wave (km/s) = 5.52204 6.64564 6.10973
#
# Compressibility (1/GPa) = 0.03272204
#
# Stress axis : x y z
#
# Youngs Moduli (GPa) = 108.15407 52.15515 117.20203
#
# Poissons Ratio (x) = -0.04690 0.39645
# Poissons Ratio (y) = -0.09725 -0.04319
# Poissons Ratio (z) = 0.36585 -0.01922
#
# Static dielectric constant tensor:
#      x y z
#    x 1.856910 -0.074930 0.004250 
#    y -0.074930 1.932130 0.007950 
#    z 0.004250 0.007950 1.789980 
# 
# From -- ./inp_files/148627.got.cif
#   From: 2010.05.17/outbox.cif.g08.bks.cpg/sg2_75_cif.got.tgz:148627.got - 2010.06.03 11:33:40.
