data_PCOD9057643
_publ_section_title
;
Structure prediction by ZEFSAII (Michael W. Deem and Ramdas Pophale) SiO2 
 PCOD9057643
Probable space group: P -1
;
_chemical_formula_sum "Si O2"
_cell_formula_units_Z 15
_cell_length_a 10.963779
_cell_length_b 18.044922
_cell_length_c 8.256557
_cell_angle_alpha 54.468888
_cell_angle_beta 125.915900
_cell_angle_gamma 150.610109
_cell_volume 639.063073
_symmetry_space_group_name_H-M "P -1"
_symmetry_group_IT_number 2
_symmetry_cell_setting 'triclinic'
loop_
_space_group_symop_operation_xyz
x,y,z
-x,-y,-z
loop_
_atom_site_type_symbol
_atom_site_label
_atom_site_fract_x
_atom_site_fract_y
_atom_site_fract_z
Si Si1 0.428999 0.390741 0.944852
Si Si2 0.850570 0.821007 0.506556
Si Si3 0.901405 0.683544 0.502401
Si Si4 0.267146 0.578205 0.416776
Si Si5 0.026093 0.942592 0.841153
Si Si6 0.500000 0.000000 0.500000
Si Si7 0.335494 0.929386 0.121073
Si Si8 0.937692 0.586706 0.181897
O O1 0.296604 0.373919 0.711785
O O2 0.500000 0.500000 0.000000
O O3 0.230272 0.219348 0.073258
O O4 0.700884 0.477527 0.016027
O O5 0.852785 0.719153 0.578116
O O6 0.568247 0.717142 0.461692
O O7 0.014358 0.912123 0.679778
O O8 0.945097 0.934748 0.292928
O O9 0.850248 0.551533 0.634063
O O10 0.188101 0.838008 0.472006
O O11 0.176444 0.504064 0.620389
O O12 0.153541 0.622475 0.246989
O O13 0.260550 0.997305 0.020899
O O14 0.510929 0.036069 0.653677
O O15 0.074049 0.748657 0.116078
O O16 0.500000 0.000000 0.000000
#
# Coordination Sequence:
#
# PCOD9057643 Si02
#       8
#     2   2   2   2   2   1   2   2
#     4  12  20  44  70  98 135 188 236 281 354 432
#     4  11  25  42  69 107 140 185 239 293 365 427
#     4  12  25  44  70 100 145 184 232 302 359 421
#     4  11  22  43  67 101 137 183 242 290 352 437
#     4  11  22  43  68  99 138 186 234 290 353 436
#     4  12  24  46  68 110 140 184 248 284 376 426
#     4  12  24  45  72 102 146 188 235 306 360 430
#     4  11  23  42  74  99 136 192 240 286 360 431
#
# _framework density 23.471861000000001
#
# number of rings (size 3 to 8) (size 9 to 14) (size 15 to 20)
#    0.000    0.533    6.667    2.000    0.000    2.667 
#    4.800    0.667    0.000    0.000    0.000    0.000 
#    0.000    0.000    0.000    0.000    0.000    0.000 
#
# Total GULP energy -83738.832614 kJ/mol
# GULP energy per Si atom -5582.588841 kJ/mol
# Density = 2.341844 g / cm^3
# Si number density = 23.471861 Si / 1000 Ang^3
#
#
#
# Elastic Constant Matrix: (Units=GPa)
#
#
# Indices 1 2 3 4 5 6 
#
# 1 70.5791 14.0746 1.6265 3.5142 2.8939 -0.2477
# 2 14.0746 84.1840 13.3101 4.2873 -2.8774 17.1344
# 3 1.6265 13.3101 19.2690 -14.5974 -1.6183 4.4858
# 4 3.5142 4.2873 -14.5974 34.5903 -0.6046 4.7659
# 5 2.8939 -2.8774 -1.6183 -0.6046 35.1205 -3.1193
# 6 -0.2477 17.1344 4.4858 4.7659 -3.1193 38.8937
#
#
#
# Elastic Compliance Matrix: (Units=1/GPa)
#
#
# Indices 1 2 3 4 5 6 
#
# 1 0.014869 -0.002479 -0.001623 -0.002122 -0.001404 0.001521
# 2 -0.002479 0.016069 -0.015776 -0.007800 0.000278 -0.004297
# 3 -0.001623 -0.015776 0.100292 0.045878 0.003366 -0.009979
# 4 -0.002122 -0.007800 0.045878 0.050576 0.001817 -0.007920
# 5 -0.001404 0.000278 0.003366 0.001817 0.028938 0.001579
# 6 0.001521 -0.004297 -0.009979 -0.007920 0.001579 0.029862
#
#
# Mechanical properties :
#
#
# Convention : Reuss Voigt Hill
#
# Bulk Modulus (GPa) = 10.93197 25.78383 18.35790
# Shear Modulus (GPa) = 16.08478 31.38898 23.73688
#
# Velocity S-wave (km/s) = 2.62062 3.66088 3.18353
# Velocity P-wave (km/s) = 3.71813 5.37385 4.62075
#
# Compressibility (1/GPa) = 0.09147483
#
# Stress axis : x y z
#
# Youngs Moduli (GPa) = 67.25479 62.23218 9.97088
#
# Poissons Ratio (x) = 0.15427 0.01618
# Poissons Ratio (y) = 0.16672 0.15730
# Poissons Ratio (z) = 0.10913 0.98177
#
# Static dielectric constant tensor:
#      x y z
#    x 1.901880 0.005830 0.014580 
#    y 0.005830 1.841000 -0.026820 
#    z 0.014580 -0.026820 1.976040 
# 
# From -- ./inp_files/277515.got.cif
#   From: 2010.05.17/outbox.cif.g08.bks.cpg/sg2_139_cif.got.tgz:277515.got - 2010.06.03 11:33:40.
