data_PCOD9057022
_publ_section_title
;
Structure prediction by ZEFSAII (Michael W. Deem and Ramdas Pophale) SiO2 
 PCOD9057022
Probable space group: P -1
;
_chemical_formula_sum "Si O2"
_cell_formula_units_Z 14
_cell_length_a 12.207964
_cell_length_b 8.950568
_cell_length_c 21.145049
_cell_angle_alpha 135.661919
_cell_angle_beta 30.413628
_cell_angle_gamma 114.866730
_cell_volume 680.102938
_symmetry_space_group_name_H-M "P -1"
_symmetry_group_IT_number 2
_symmetry_cell_setting 'triclinic'
loop_
_space_group_symop_operation_xyz
x,y,z
-x,-y,-z
loop_
_atom_site_type_symbol
_atom_site_label
_atom_site_fract_x
_atom_site_fract_y
_atom_site_fract_z
Si Si1 0.725098 0.179692 0.412108
Si Si2 0.023293 0.284037 0.469994
Si Si3 0.095100 0.603578 0.080448
Si Si4 0.240669 0.357777 0.632008
Si Si5 0.579266 0.287180 0.950930
Si Si6 0.978045 0.580072 0.698121
Si Si7 0.435556 0.766016 0.349803
O O1 0.509178 0.318560 0.507633
O O2 0.948553 0.233922 0.312487
O O3 0.579579 0.278638 0.581720
O O4 0.864014 0.873494 0.248006
O O5 0.089662 0.338868 0.522534
O O6 0.000000 0.500000 0.500000
O O7 0.752378 0.303752 0.610933
O O8 0.233822 0.998106 0.255716
O O9 0.267058 0.667752 0.058110
O O10 0.958798 0.519794 0.172749
O O11 0.284577 0.400513 0.872632
O O12 0.107340 0.508459 0.680644
O O13 0.309163 0.069834 0.499981
O O14 0.500000 0.500000 0.000000
O O15 0.323515 0.310650 0.111509
#
# Coordination Sequence:
#
# PCOD9057022 Si02
#       7
#     2   2   2   2   2   2   2
#     4  11  25  44  63  94 134 178 223 262 320 400
#     4  12  24  41  66 101 138 167 216 278 340 398
#     4  11  22  41  68  95 127 171 221 270 326 386
#     4  11  25  44  63  94 134 178 223 262 320 400
#     4  12  24  41  66 101 138 167 216 278 340 398
#     4  12  25  40  70  98 135 170 214 278 342 386
#     4  11  22  41  68  95 127 171 221 270 326 386
#
# _framework density 20.585121000000001
#
# number of rings (size 3 to 8) (size 9 to 14) (size 15 to 20)
#    0.000    0.571    7.143    2.143    4.000    4.571 
#    0.000    0.000    0.000    5.143    0.000    0.000 
#    0.000    0.000    0.000    0.000    0.000    0.000 
#
# Total GULP energy -78302.518915 kJ/mol
# GULP energy per Si atom -5593.037065 kJ/mol
# Density = 2.053827 g / cm^3
# Si number density = 20.585121 Si / 1000 Ang^3
#
#
#
# Elastic Constant Matrix: (Units=GPa)
#
#
# Indices 1 2 3 4 5 6 
#
# 1 62.1521 7.1778 19.8485 -7.8761 -9.4094 -3.8790
# 2 7.1778 72.4256 32.0618 -13.8967 6.4717 5.7434
# 3 19.8485 32.0618 129.7009 -14.2625 15.8807 -16.4228
# 4 -7.8761 -13.8967 -14.2625 31.2722 2.5527 -5.6876
# 5 -9.4094 6.4717 15.8807 2.5527 30.0566 -4.5394
# 6 -3.8790 5.7434 -16.4228 -5.6876 -4.5394 27.4646
#
#
#
# Elastic Compliance Matrix: (Units=1/GPa)
#
#
# Indices 1 2 3 4 5 6 
#
# 1 0.018879 -0.000969 -0.002909 0.002907 0.007867 0.003031
# 2 -0.000969 0.017307 -0.003905 0.004910 -0.003231 -0.005608
# 3 -0.002909 -0.003905 0.011138 0.004331 -0.005251 0.007095
# 4 0.002907 0.004910 0.004331 0.038915 -0.004334 0.009316
# 5 0.007867 -0.003231 -0.005251 -0.004334 0.040236 0.004399
# 6 0.003031 -0.005608 0.007095 0.009316 0.004399 0.044910
#
#
# Mechanical properties :
#
#
# Convention : Reuss Voigt Hill
#
# Bulk Modulus (GPa) = 31.48734 42.49497 36.99116
# Shear Modulus (GPa) = 25.31166 31.43804 28.37485
#
# Velocity S-wave (km/s) = 3.51038 3.91221 3.71673
# Velocity P-wave (km/s) = 5.63558 6.41058 6.03553
#
# Compressibility (1/GPa) = 0.03175879
#
# Stress axis : x y z
#
# Youngs Moduli (GPa) = 52.96857 57.77889 89.78204
#
# Poissons Ratio (x) = 0.05597 0.26122
# Poissons Ratio (y) = 0.05131 0.35057
# Poissons Ratio (z) = 0.15411 0.22561
#
# Static dielectric constant tensor:
#      x y z
#    x 1.743250 -0.003850 -0.000170 
#    y -0.003850 1.718600 -0.030300 
#    z -0.000170 -0.030300 1.707800 
# 
# From -- ./inp_files/201836.got.cif
#   From: 2010.05.17/outbox.cif.g08.bks.cpg/sg2_101_cif.got.tgz:201836.got - 2010.06.03 11:33:40.
