data_PCOD9057701
_publ_section_title
;
Structure prediction by ZEFSAII (Michael W. Deem and Ramdas Pophale) SiO2 
 PCOD9057701
Probable space group: P -1
;
_chemical_formula_sum "Si O2"
_cell_formula_units_Z 16
_cell_length_a 8.811707
_cell_length_b 25.430108
_cell_length_c 12.824688
_cell_angle_alpha 21.105746
_cell_angle_beta 130.808308
_cell_angle_gamma 140.283287
_cell_volume 635.082778
_symmetry_space_group_name_H-M "P -1"
_symmetry_group_IT_number 2
_symmetry_cell_setting 'triclinic'
loop_
_space_group_symop_operation_xyz
x,y,z
-x,-y,-z
loop_
_atom_site_type_symbol
_atom_site_label
_atom_site_fract_x
_atom_site_fract_y
_atom_site_fract_z
Si Si1 0.689140 0.057846 0.276789
Si Si2 0.553051 0.816917 0.855076
Si Si3 0.851840 0.426982 0.712512
Si Si4 0.767029 0.537191 0.042029
Si Si5 0.107811 0.245388 0.983122
Si Si6 0.199585 0.744163 0.539532
Si Si7 0.236623 0.959022 0.981282
Si Si8 0.989334 0.129393 0.596850
O O1 0.585792 0.967347 0.511113
O O2 0.485683 0.905211 0.391938
O O3 0.709127 0.239675 0.932209
O O4 0.977258 0.149469 0.210796
O O5 0.749885 0.931402 0.824483
O O6 0.306246 0.651020 0.105791
O O7 0.640113 0.728601 0.976826
O O8 0.125820 0.492534 0.750490
O O9 0.860881 0.575589 0.373203
O O10 0.792842 0.423897 0.173032
O O11 0.500000 0.500000 0.000000
O O12 0.944886 0.744494 0.706018
O O13 0.912560 0.094058 0.093840
O O14 0.061189 0.774483 0.512984
O O15 0.106792 0.785347 0.318057
O O16 0.209139 0.104562 0.755715
O O17 0.500000 0.000000 0.000000
#
# Coordination Sequence:
#
# PCOD9057701 Si02
#       8
#     2   2   2   2   2   2   2   2
#     4  12  24  43  74 102 142 188 234 294 351 432
#     4  11  24  45  74 104 142 188 237 290 360 422
#     4  12  24  48  70 103 146 185 234 297 355 420
#     4  12  27  44  72 104 144 185 237 299 360 417
#     4  11  25  42  72 104 144 184 239 293 355 420
#     4  12  24  45  70 105 139 185 244 290 357 428
#     4  11  22  43  69 100 144 188 233 292 356 422
#     4  11  24  44  72 103 140 192 238 293 355 427
#
# _framework density 25.193563999999999
#
# number of rings (size 3 to 8) (size 9 to 14) (size 15 to 20)
#    0.000    0.500    5.000    3.750    1.750    1.000 
#    0.000    1.250    0.000    0.000    0.000    0.000 
#    0.000    0.000    0.000    0.000    0.000    0.000 
#
# Total GULP energy -89264.446860 kJ/mol
# GULP energy per Si atom -5579.027929 kJ/mol
# Density = 2.513622 g / cm^3
# Si number density = 25.193564 Si / 1000 Ang^3
#
#
#
# Elastic Constant Matrix: (Units=GPa)
#
#
# Indices 1 2 3 4 5 6 
#
# 1 130.8838 27.3073 77.5890 1.4205 6.4033 16.5614
# 2 27.3073 57.0836 14.0273 -6.8876 5.8099 0.5526
# 3 77.5890 14.0273 135.1751 1.0930 13.8975 13.5520
# 4 1.4205 -6.8876 1.0930 31.0751 -4.9726 2.1528
# 5 6.4033 5.8099 13.8975 -4.9726 57.6471 7.8331
# 6 16.5614 0.5526 13.5520 2.1528 7.8331 33.8767
#
#
#
# Elastic Compliance Matrix: (Units=1/GPa)
#
#
# Indices 1 2 3 4 5 6 
#
# 1 0.013065 -0.004790 -0.006724 -0.000985 0.001085 -0.003808
# 2 -0.004790 0.020329 0.000576 0.004330 -0.001535 0.001859
# 3 -0.006724 0.000576 0.011488 -0.000228 -0.001986 -0.000844
# 4 -0.000985 0.004330 -0.000228 0.033829 0.002963 -0.002333
# 5 0.001085 -0.001535 -0.001986 0.002963 0.018689 -0.004221
# 6 -0.003808 0.001859 -0.000844 -0.002333 -0.004221 0.032812
#
#
# Mechanical properties :
#
#
# Convention : Reuss Voigt Hill
#
# Bulk Modulus (GPa) = 43.46634 62.33219 52.89927
# Shear Modulus (GPa) = 31.29770 38.13437 34.71603
#
# Velocity S-wave (km/s) = 3.52844 3.89479 3.71613
# Velocity P-wave (km/s) = 5.82153 6.70976 6.28137
#
# Compressibility (1/GPa) = 0.02300631
#
# Stress axis : x y z
#
# Youngs Moduli (GPa) = 76.53872 49.19155 87.04583
#
# Poissons Ratio (x) = 0.23564 0.58530
# Poissons Ratio (y) = 0.36664 -0.05017
# Poissons Ratio (z) = 0.51465 -0.02835
#
# Static dielectric constant tensor:
#      x y z
#    x 2.226650 0.005600 0.047470 
#    y 0.005600 1.980670 0.029270 
#    z 0.047470 0.029270 1.945380 
# 
# From -- ./inp_files/278645.got.cif
#   From: 2010.05.17/outbox.cif.g08.bks.cpg/sg2_140_cif.got.tgz:278645.got - 2010.06.03 11:33:40.
