data_PCOD9057315
_publ_section_title
;
Structure prediction by ZEFSAII (Michael W. Deem and Ramdas Pophale) SiO2 
 PCOD9057315
Probable space group: P -1
;
_chemical_formula_sum "Si O2"
_cell_formula_units_Z 16
_cell_length_a 9.559028
_cell_length_b 9.625160
_cell_length_c 15.921081
_cell_angle_alpha 73.872508
_cell_angle_beta 141.553652
_cell_angle_gamma 117.559611
_cell_volume 797.905351
_symmetry_space_group_name_H-M "P -1"
_symmetry_group_IT_number 2
_symmetry_cell_setting 'triclinic'
loop_
_space_group_symop_operation_xyz
x,y,z
-x,-y,-z
loop_
_atom_site_type_symbol
_atom_site_label
_atom_site_fract_x
_atom_site_fract_y
_atom_site_fract_z
Si Si1 0.112762 0.117721 0.612081
Si Si2 0.212903 0.952924 0.372502
Si Si3 0.968985 0.152174 0.996059
Si Si4 0.219941 0.280234 0.255842
Si Si5 0.932517 0.347672 0.243882
Si Si6 0.464151 0.980689 0.887127
Si Si7 0.393290 0.379545 0.572958
Si Si8 0.864376 0.306383 0.757609
O O1 0.278831 0.284512 0.619937
O O2 0.905326 0.111623 0.581665
O O3 0.281642 0.055949 0.755938
O O4 0.000000 0.000000 0.500000
O O5 0.121979 0.823328 0.278265
O O6 0.500000 0.000000 0.500000
O O7 0.186518 0.113981 0.309024
O O8 0.934855 0.260562 0.888749
O O9 0.720258 0.073129 0.946315
O O10 0.185351 0.252602 0.145186
O O11 0.000000 0.000000 0.000000
O O12 0.000367 0.316985 0.186321
O O13 0.463560 0.433205 0.371551
O O14 0.160856 0.346673 0.407731
O O15 0.953182 0.524296 0.221683
O O16 0.675992 0.205877 0.170496
O O17 0.500000 0.000000 0.000000
O O18 0.596550 0.318755 0.641089
#
# Coordination Sequence:
#
# PCOD9057315 Si02
#       8
#     2   2   2   2   2   2   2   2
#     4  12  23  42  69 101 132 176 230 275 325 407
#     4  12  23  40  66  98 136 176 214 274 346 394
#     4  12  25  44  66  96 136 177 226 275 333 401
#     4  11  22  42  67  95 133 176 222 273 328 404
#     4  11  22  43  68 100 133 170 227 279 331 401
#     4  12  24  43  70  96 133 183 226 270 332 404
#     4  11  23  43  70 101 131 169 230 282 328 399
#     4  11  24  41  66  98 135 177 214 275 349 391
#
# _framework density 20.052502
#
# number of rings (size 3 to 8) (size 9 to 14) (size 15 to 20)
#    0.000    0.500    6.250    3.750    0.000    3.000 
#    2.250    1.875    0.000    0.000    0.000    0.000 
#    0.000    0.000    0.000    0.000    0.000    0.000 
#
# Total GULP energy -89390.151558 kJ/mol
# GULP energy per Si atom -5586.884472 kJ/mol
# Density = 2.000686 g / cm^3
# Si number density = 20.052502 Si / 1000 Ang^3
#
#
#
# Elastic Constant Matrix: (Units=GPa)
#
#
# Indices 1 2 3 4 5 6 
#
# 1 101.6418 27.8095 22.3185 5.4143 -15.4777 13.2374
# 2 27.8095 137.1044 26.4819 8.3812 -12.3750 15.7275
# 3 22.3185 26.4819 91.3501 3.7044 -24.3972 4.7316
# 4 5.4143 8.3812 3.7044 34.9119 3.9811 -5.5356
# 5 -15.4777 -12.3750 -24.3972 3.9811 32.6152 0.8616
# 6 13.2374 15.7275 4.7316 -5.5356 0.8616 41.2799
#
#
#
# Elastic Compliance Matrix: (Units=1/GPa)
#
#
# Indices 1 2 3 4 5 6 
#
# 1 0.011713 -0.001186 -0.000940 -0.002558 0.004814 -0.003640
# 2 -0.001186 0.008480 -0.001378 -0.002419 0.002000 -0.003059
# 3 -0.000940 -0.001378 0.014466 -0.002437 0.010186 -0.001371
# 4 -0.002558 -0.002419 -0.002437 0.031816 -0.008009 0.006455
# 5 0.004814 0.002000 0.010186 -0.008009 0.042444 -0.005433
# 6 -0.003640 -0.003059 -0.001371 0.006455 -0.005433 0.027694
#
#
# Mechanical properties :
#
#
# Convention : Reuss Voigt Hill
#
# Bulk Modulus (GPa) = 36.16461 53.70179 44.93320
# Shear Modulus (GPa) = 32.71457 38.66050 35.68753
#
# Velocity S-wave (km/s) = 4.04350 4.39562 4.22323
# Velocity P-wave (km/s) = 6.31458 7.25264 6.79980
#
# Compressibility (1/GPa) = 0.02765134
#
# Stress axis : x y z
#
# Youngs Moduli (GPa) = 85.37798 117.93040 69.12615
#
# Poissons Ratio (x) = 0.13984 0.06498
# Poissons Ratio (y) = 0.10124 0.09524
# Poissons Ratio (z) = 0.08025 0.16249
#
# Static dielectric constant tensor:
#      x y z
#    x 1.612810 0.175000 0.066010 
#    y 0.175000 1.421400 -0.138050 
#    z 0.066010 -0.138050 1.609640 
# 
# From -- ./inp_files/189448.got.cif
#   From: 2010.05.17/outbox.cif.g08.bks.cpg/sg2_95_cif.got.tgz:189448.got - 2010.06.03 11:33:40.
