data_PCOD9057481
_publ_section_title
;
Structure prediction by ZEFSAII (Michael W. Deem and Ramdas Pophale) SiO2 
 PCOD9057481
Probable space group: P -1
;
_chemical_formula_sum "Si O2"
_cell_formula_units_Z 14
_cell_length_a 10.381015
_cell_length_b 6.653158
_cell_length_c 16.823621
_cell_angle_alpha 105.857124
_cell_angle_beta 147.280710
_cell_angle_gamma 72.818899
_cell_volume 599.346563
_symmetry_space_group_name_H-M "P -1"
_symmetry_group_IT_number 2
_symmetry_cell_setting 'triclinic'
loop_
_space_group_symop_operation_xyz
x,y,z
-x,-y,-z
loop_
_atom_site_type_symbol
_atom_site_label
_atom_site_fract_x
_atom_site_fract_y
_atom_site_fract_z
Si Si1 0.221327 0.521942 0.338935
Si Si2 0.665172 0.571446 0.795394
Si Si3 0.806022 0.346702 0.361752
Si Si4 0.936663 0.166347 0.917127
Si Si5 0.527828 0.622876 0.110049
Si Si6 0.071995 0.838495 0.834167
Si Si7 0.109973 0.071297 0.726421
O O1 0.500000 0.500000 0.500000
O O2 0.222762 0.462648 0.238829
O O3 0.095697 0.748113 0.328849
O O4 0.081606 0.346045 0.289889
O O5 0.388269 0.666248 0.669720
O O6 0.704259 0.334654 0.823919
O O7 0.832420 0.705321 0.949041
O O8 0.639917 0.459696 0.216582
O O9 0.000000 0.500000 0.500000
O O10 0.933784 0.118667 0.375857
O O11 0.906371 0.031261 0.808761
O O12 0.000000 0.000000 0.000000
O O13 0.700665 0.799402 0.203707
O O14 0.500000 0.500000 0.000000
O O15 0.259934 0.743737 0.988326
O O16 0.198476 0.942022 0.838131
#
# Coordination Sequence:
#
# PCOD9057481 Si02
#       7
#     2   2   2   2   2   2   2
#     4  12  28  47  74 106 148 191 243 293 364 446
#     4  11  26  44  72 107 144 182 238 299 359 428
#     4  12  30  50  72 106 153 195 244 299 371 436
#     4  11  22  42  71 106 141 179 231 301 364 415
#     4  12  25  44  78 109 145 190 250 301 357 436
#     4  12  24  45  76 109 140 190 247 301 361 430
#     4  12  26  49  76 105 144 194 247 303 363 429
#
# _framework density 23.358771000000001
#
# number of rings (size 3 to 8) (size 9 to 14) (size 15 to 20)
#    0.000    0.286    5.714    2.143    8.000    2.286 
#    2.571    0.000    0.000    0.000    0.000    0.000 
#    0.000    0.000    0.000    0.000    0.000    0.000 
#
# Total GULP energy -78216.843130 kJ/mol
# GULP energy per Si atom -5586.917366 kJ/mol
# Density = 2.330561 g / cm^3
# Si number density = 23.358771 Si / 1000 Ang^3
#
#
#
# Elastic Constant Matrix: (Units=GPa)
#
#
# Indices 1 2 3 4 5 6 
#
# 1 82.0252 45.8465 9.3526 7.4088 11.3738 -25.6674
# 2 45.8465 156.0993 31.5892 22.2752 6.3320 -31.3578
# 3 9.3526 31.5892 71.8741 11.6440 19.7246 -17.1120
# 4 7.4088 22.2752 11.6440 33.3458 -1.8289 -7.6797
# 5 11.3738 6.3320 19.7246 -1.8289 32.4155 -3.2276
# 6 -25.6674 -31.3578 -17.1120 -7.6797 -3.2276 49.3055
#
#
#
# Elastic Compliance Matrix: (Units=1/GPa)
#
#
# Indices 1 2 3 4 5 6 
#
# 1 0.017172 -0.003850 0.003076 -0.001071 -0.006512 0.006965
# 2 -0.003850 0.009009 -0.002656 -0.003633 0.001233 0.002318
# 3 0.003076 -0.002656 0.020311 -0.005483 -0.012704 0.005276
# 4 -0.001071 -0.003633 -0.005483 0.035188 0.006520 0.001136
# 5 -0.006512 0.001233 -0.012704 0.006520 0.040659 -0.003337
# 6 0.006965 0.002318 0.005276 0.001136 -0.003337 0.027172
#
#
# Mechanical properties :
#
#
# Convention : Reuss Voigt Hill
#
# Bulk Modulus (GPa) = 25.23201 53.73058 39.48129
# Shear Modulus (GPa) = 29.48468 37.89404 33.68936
#
# Velocity S-wave (km/s) = 3.55667 4.03210 3.80183
# Velocity P-wave (km/s) = 5.26232 6.68800 6.01753
#
# Compressibility (1/GPa) = 0.03963220
#
# Stress axis : x y z
#
# Youngs Moduli (GPa) = 58.23559 111.00615 49.23431
#
# Poissons Ratio (x) = 0.42734 -0.15147
# Poissons Ratio (y) = 0.22419 0.13078
# Poissons Ratio (z) = -0.17916 0.29486
#
# Static dielectric constant tensor:
#      x y z
#    x 1.993960 -0.062930 -0.077130 
#    y -0.062930 1.908150 -0.050950 
#    z -0.077130 -0.050950 1.797260 
# 
# From -- ./inp_files/564497.got.cif
#   From: 2010.05.17/outbox.cif.g08.bks.cpg/sg2_283_cif.got.tgz:564497.got - 2010.06.03 11:33:40.
