data_PCOD9057859
_publ_section_title
;
Structure prediction by ZEFSAII (Michael W. Deem and Ramdas Pophale) SiO2 
 PCOD9057859
Probable space group: P -1
;
_chemical_formula_sum "Si O2"
_cell_formula_units_Z 15
_cell_length_a 9.354977
_cell_length_b 20.811677
_cell_length_c 11.882165
_cell_angle_alpha 150.308580
_cell_angle_beta 142.617679
_cell_angle_gamma 46.267935
_cell_volume 695.694389
_symmetry_space_group_name_H-M "P -1"
_symmetry_group_IT_number 2
_symmetry_cell_setting 'triclinic'
loop_
_space_group_symop_operation_xyz
x,y,z
-x,-y,-z
loop_
_atom_site_type_symbol
_atom_site_label
_atom_site_fract_x
_atom_site_fract_y
_atom_site_fract_z
Si Si1 0.462141 0.513527 0.652593
Si Si2 0.704158 0.409726 0.939215
Si Si3 0.650309 0.718691 0.638997
Si Si4 0.838822 0.317370 0.119442
Si Si5 0.884317 0.432549 0.683336
Si Si6 0.500000 0.000000 0.000000
Si Si7 0.171106 0.866446 0.780889
Si Si8 0.270990 0.940905 0.208795
O O1 0.395942 0.362850 0.400774
O O2 0.357293 0.588202 0.807137
O O3 0.742086 0.517578 0.816339
O O4 0.314090 0.570291 0.543794
O O5 0.573330 0.311213 0.624366
O O6 0.500000 0.500000 0.000000
O O7 0.820717 0.330871 0.994709
O O8 0.893775 0.496560 0.124381
O O9 0.673171 0.871878 0.896254
O O10 0.888426 0.656116 0.639738
O O11 0.792135 0.179372 0.934520
O O12 0.908985 0.283482 0.507484
O O13 0.343814 0.913905 0.862767
O O14 0.291785 0.891609 0.017279
O O15 0.936458 0.953573 0.762750
O O16 0.500000 0.000000 0.500000
#
# Coordination Sequence:
#
# PCOD9057859 Si02
#       8
#     2   2   2   2   2   1   2   2
#     4  11  22  43  72  97 142 182 225 291 361 403
#     4  12  27  41  75 110 139 182 240 290 351 427
#     4  12  25  47  72 102 142 189 231 293 355 418
#     4  12  24  47  70 103 141 184 236 294 351 415
#     4  11  24  44  69 109 140 183 230 293 357 415
#     4  12  26  50  72 100 144 196 232 284 366 422
#     4  11  25  48  73  98 147 187 231 294 351 422
#     4  11  27  45  72 103 137 192 241 286 345 430
#
# _framework density 21.561191999999998
#
# number of rings (size 3 to 8) (size 9 to 14) (size 15 to 20)
#    0.000    0.533    6.667    1.200    3.733    0.533 
#    2.400    1.333    0.000    0.000    0.000    0.000 
#    0.000    0.000    0.000    0.000    0.000    0.000 
#
# Total GULP energy -83573.422601 kJ/mol
# GULP energy per Si atom -5571.561507 kJ/mol
# Density = 2.151212 g / cm^3
# Si number density = 21.561192 Si / 1000 Ang^3
#
#
#
# Elastic Constant Matrix: (Units=GPa)
#
#
# Indices 1 2 3 4 5 6 
#
# 1 155.0752 51.9991 53.8308 1.7109 33.8293 -2.4040
# 2 51.9991 128.0501 51.8602 21.5894 11.5017 16.5427
# 3 53.8308 51.8602 74.4921 -3.4017 24.8444 9.9975
# 4 1.7109 21.5894 -3.4017 41.9549 3.8221 7.0188
# 5 33.8293 11.5017 24.8444 3.8221 38.3035 3.1335
# 6 -2.4040 16.5427 9.9975 7.0188 3.1335 48.5590
#
#
#
# Elastic Compliance Matrix: (Units=1/GPa)
#
#
# Indices 1 2 3 4 5 6 
#
# 1 0.009857 -0.002324 -0.003878 0.000608 -0.005747 0.002361
# 2 -0.002324 0.013856 -0.009799 -0.007969 0.005206 -0.002002
# 3 -0.003878 -0.009799 0.028051 0.009138 -0.012481 -0.003144
# 4 0.000608 -0.007969 0.009138 0.029773 -0.006796 -0.003001
# 5 -0.005747 0.005206 -0.012481 -0.006796 0.038474 -0.000989
# 6 0.002361 -0.002002 -0.003144 -0.003001 -0.000989 0.022537
#
#
# Mechanical properties :
#
#
# Convention : Reuss Voigt Hill
#
# Bulk Modulus (GPa) = 50.60037 74.77751 62.68894
# Shear Modulus (GPa) = 27.60329 39.09198 33.34763
#
# Velocity S-wave (km/s) = 3.58191 4.26264 3.93701
# Velocity P-wave (km/s) = 6.37385 7.68008 7.05725
#
# Compressibility (1/GPa) = 0.01976270
#
# Stress axis : x y z
#
# Youngs Moduli (GPa) = 101.44741 72.16965 35.64978
#
# Poissons Ratio (x) = 0.16769 0.13826
# Poissons Ratio (y) = 0.23572 0.34933
# Poissons Ratio (z) = 0.39343 0.70719
#
# Static dielectric constant tensor:
#      x y z
#    x 1.860320 -0.008540 -0.047260 
#    y -0.008540 1.814930 0.011290 
#    z -0.047260 0.011290 1.829200 
# 
# From -- ./inp_files/281744.got.cif
#   From: 2010.05.17/outbox.cif.g08.bks.cpg/sg2_141_cif.got.tgz:281744.got - 2010.06.03 11:33:40.
