data_PCOD9057194
_publ_section_title
;
Structure prediction by ZEFSAII (Michael W. Deem and Ramdas Pophale) SiO2 
 PCOD9057194
Probable space group: P -1
;
_chemical_formula_sum "Si O2"
_cell_formula_units_Z 16
_cell_length_a 11.373328
_cell_length_b 7.546490
_cell_length_c 16.197520
_cell_angle_alpha 73.614087
_cell_angle_beta 34.337155
_cell_angle_gamma 59.024037
_cell_volume 642.317726
_symmetry_space_group_name_H-M "P -1"
_symmetry_group_IT_number 2
_symmetry_cell_setting 'triclinic'
loop_
_space_group_symop_operation_xyz
x,y,z
-x,-y,-z
loop_
_atom_site_type_symbol
_atom_site_label
_atom_site_fract_x
_atom_site_fract_y
_atom_site_fract_z
Si Si1 0.639224 0.856048 0.676817
Si Si2 0.550547 0.652740 0.007789
Si Si3 0.497366 0.509937 0.226256
Si Si4 0.036004 0.811080 0.061089
Si Si5 0.063401 0.609034 0.738925
Si Si6 0.251121 0.015942 0.015120
Si Si7 0.930150 0.213899 0.461357
Si Si8 0.548009 0.869858 0.403449
O O1 0.564307 0.679525 0.722921
O O2 0.888982 0.729866 0.601506
O O3 0.651831 0.979837 0.570919
O O4 0.425564 0.021120 0.842574
O O5 0.425843 0.660117 0.166766
O O6 0.426158 0.884587 0.006657
O O7 0.500000 0.500000 0.000000
O O8 0.841050 0.563022 0.859574
O O9 0.354217 0.632459 0.373072
O O10 0.786561 0.398316 0.067550
O O11 0.782115 0.850966 0.227639
O O12 0.160903 0.855875 0.059484
O O13 0.000000 0.000000 0.000000
O O14 0.974347 0.758311 0.852542
O O15 0.044918 0.758997 0.653080
O O16 0.330734 0.388242 0.615786
O O17 0.000000 0.000000 0.500000
O O18 0.500000 0.000000 0.500000
#
# Coordination Sequence:
#
# PCOD9057194 Si02
#       8
#     2   2   2   2   2   2   2   2
#     4  11  24  45  69 102 138 182 231 282 345 408
#     4  12  20  39  71 105 128 175 234 284 329 405
#     4  11  22  41  72  98 133 176 230 279 336 406
#     4  11  22  45  70  98 129 184 233 274 339 417
#     4  12  26  43  68 104 141 180 228 289 347 399
#     4  11  23  41  70 101 142 175 235 285 340 409
#     4  12  27  45  67 100 143 182 225 285 351 405
#     4  12  26  46  71 101 139 182 231 286 340 417
#
# _framework density 24.909791999999999
#
# number of rings (size 3 to 8) (size 9 to 14) (size 15 to 20)
#    0.000    0.500    7.500    2.250    1.750    3.500 
#    2.250    1.250    0.000    0.000    0.000    0.000 
#    0.000    0.000    0.000    0.000    0.000    0.000 
#
# Total GULP energy -89320.570281 kJ/mol
# GULP energy per Si atom -5582.535643 kJ/mol
# Density = 2.485310 g / cm^3
# Si number density = 24.909792 Si / 1000 Ang^3
#
#
#
# Elastic Constant Matrix: (Units=GPa)
#
#
# Indices 1 2 3 4 5 6 
#
# 1 56.1505 13.8784 1.3823 -8.5069 12.7025 -17.4263
# 2 13.8784 96.4207 26.6186 -10.1270 24.3351 -20.0786
# 3 1.3823 26.6186 130.7718 4.8106 23.6552 -0.5789
# 4 -8.5069 -10.1270 4.8106 49.4735 -1.3422 0.7092
# 5 12.7025 24.3351 23.6552 -1.3422 38.7156 -10.8831
# 6 -17.4263 -20.0786 -0.5789 0.7092 -10.8831 42.3345
#
#
#
# Elastic Compliance Matrix: (Units=1/GPa)
#
#
# Indices 1 2 3 4 5 6 
#
# 1 0.021873 -0.000054 0.000644 0.003435 -0.005289 0.007570
# 2 -0.000054 0.013691 -0.001771 0.002732 -0.006049 0.004846
# 3 0.000644 -0.001771 0.008962 -0.001237 -0.005107 -0.001745
# 4 0.003435 0.002732 -0.001237 0.021432 -0.000743 0.002143
# 5 -0.005289 -0.006049 -0.005107 -0.000743 0.035599 0.004048
# 6 0.007570 0.004846 -0.001745 0.002143 0.004048 0.030017
#
#
# Mechanical properties :
#
#
# Convention : Reuss Voigt Hill
#
# Bulk Modulus (GPa) = 23.71768 40.78909 32.25338
# Shear Modulus (GPa) = 33.78585 42.20230 37.99407
#
# Velocity S-wave (km/s) = 3.68683 4.12054 3.90970
# Velocity P-wave (km/s) = 5.25982 6.24890 5.77557
#
# Compressibility (1/GPa) = 0.04216264
#
# Stress axis : x y z
#
# Youngs Moduli (GPa) = 45.71862 73.04312 111.57959
#
# Poissons Ratio (x) = 0.00395 -0.07181
# Poissons Ratio (y) = 0.00247 0.19762
# Poissons Ratio (z) = -0.02943 0.12936
#
# Static dielectric constant tensor:
#      x y z
#    x 7.887110 0.392730 -0.351060 
#    y 0.392730 2.141060 -0.015120 
#    z -0.351060 -0.015120 1.953330 
# 
# From -- ./inp_files/515508.got.cif
#   From: 2010.05.17/outbox.cif.g08.bks.cpg/sg2_258_cif.got.tgz:515508.got - 2010.06.03 11:33:40.
