data_PCOD9057001
_publ_section_title
;
Structure prediction by ZEFSAII (Michael W. Deem and Ramdas Pophale) SiO2 
 PCOD9057001
Probable space group: P -1
;
_chemical_formula_sum "Si O2"
_cell_formula_units_Z 16
_cell_length_a 11.287393
_cell_length_b 8.533135
_cell_length_c 14.675728
_cell_angle_alpha 104.307640
_cell_angle_beta 29.544215
_cell_angle_gamma 110.978496
_cell_volume 644.413358
_symmetry_space_group_name_H-M "P -1"
_symmetry_group_IT_number 2
_symmetry_cell_setting 'triclinic'
loop_
_space_group_symop_operation_xyz
x,y,z
-x,-y,-z
loop_
_atom_site_type_symbol
_atom_site_label
_atom_site_fract_x
_atom_site_fract_y
_atom_site_fract_z
Si Si1 0.861842 0.335469 0.397295
Si Si2 0.308566 0.599715 0.899087
Si Si3 0.129495 0.867282 0.178715
Si Si4 0.344504 0.491836 0.196052
Si Si5 0.367159 0.383810 0.487349
Si Si6 0.009438 0.237095 0.092477
Si Si7 0.431680 0.873595 0.162629
Si Si8 0.574965 0.950299 0.261986
O O1 0.789312 0.503498 0.441564
O O2 0.994385 0.285692 0.213874
O O3 0.620637 0.182104 0.562652
O O4 0.061900 0.380129 0.351040
O O5 0.521210 0.573666 0.822168
O O6 0.437651 0.639048 0.720984
O O7 0.200452 0.733474 0.043571
O O8 0.101411 0.415972 0.005103
O O9 0.243037 0.869879 0.204989
O O10 0.828883 0.794474 0.375516
O O11 0.289782 0.048673 0.057198
O O12 0.361817 0.686579 0.223005
O O13 0.500000 0.500000 0.000000
O O14 0.500000 0.500000 0.500000
O O15 0.738857 0.116419 0.227191
O O16 0.214119 0.139341 0.922876
O O17 0.438672 0.982181 0.265006
#
# Coordination Sequence:
#
# PCOD9057001 Si02
#       8
#     2   2   2   2   2   2   2   2
#     4  12  23  44  70 104 134 175 233 291 335 403
#     4  12  24  46  74 102 131 184 231 279 344 403
#     4  11  26  46  67  96 146 173 228 279 338 413
#     4  12  20  42  78 103 130 178 232 284 341 398
#     4  12  27  43  68  99 135 184 231 273 336 417
#     4  11  22  41  67  99 139 169 228 278 342 405
#     4  11  22  43  68  97 136 184 216 279 346 394
#     4  11  25  39  68 103 135 179 224 288 339 398
#
# _framework density 24.828785
#
# number of rings (size 3 to 8) (size 9 to 14) (size 15 to 20)
#    0.000    0.500    7.500    0.375    3.500    2.500 
#    0.000    5.000    0.000    0.000    0.000    0.000 
#    0.000    0.000    0.000    0.000    0.000    0.000 
#
# Total GULP energy -89674.795617 kJ/mol
# GULP energy per Si atom -5604.674726 kJ/mol
# Density = 2.477227 g / cm^3
# Si number density = 24.828785 Si / 1000 Ang^3
#
#
#
# Elastic Constant Matrix: (Units=GPa)
#
#
# Indices 1 2 3 4 5 6 
#
# 1 77.8509 27.3515 49.6863 -4.1581 -2.9132 23.3444
# 2 27.3515 86.8777 39.8101 -13.5530 -7.7744 25.3008
# 3 49.6863 39.8101 141.5109 -33.8879 4.3634 11.9917
# 4 -4.1581 -13.5530 -33.8879 43.4347 14.4480 -11.1785
# 5 -2.9132 -7.7744 4.3634 14.4480 42.1494 -5.6016
# 6 23.3444 25.3008 11.9917 -11.1785 -5.6016 41.3855
#
#
#
# Elastic Compliance Matrix: (Units=1/GPa)
#
#
# Indices 1 2 3 4 5 6 
#
# 1 0.021738 -0.000586 -0.008843 -0.009230 0.003972 -0.011296
# 2 -0.000586 0.015953 -0.003936 -0.001135 0.002604 -0.008236
# 3 -0.008843 -0.003936 0.013942 0.012388 -0.006249 0.005855
# 4 -0.009230 -0.001135 0.012388 0.038927 -0.014021 0.010927
# 5 0.003972 0.002604 -0.006249 -0.014021 0.029695 -0.001790
# 6 -0.011296 -0.008236 0.005855 0.010927 -0.001790 0.036583
#
#
# Mechanical properties :
#
#
# Convention : Reuss Voigt Hill
#
# Bulk Modulus (GPa) = 40.15767 59.99280 50.07524
# Shear Modulus (GPa) = 26.05936 38.02004 32.03970
#
# Velocity S-wave (km/s) = 3.24321 3.91741 3.59615
# Velocity P-wave (km/s) = 5.49850 6.68405 6.12005
#
# Compressibility (1/GPa) = 0.02490184
#
# Stress axis : x y z
#
# Youngs Moduli (GPa) = 46.00264 62.68350 71.72527
#
# Poissons Ratio (x) = 0.03674 0.63427
# Poissons Ratio (y) = 0.02696 0.28234
# Poissons Ratio (z) = 0.40681 0.24675
#
# Static dielectric constant tensor:
#      x y z
#    x 1.988630 0.027110 -0.012550 
#    y 0.027110 2.073900 0.045450 
#    z -0.012550 0.045450 1.946990 
# 
# From -- ./inp_files/515743.got.cif
#   From: 2010.05.17/outbox.cif.g08.bks.cpg/sg2_258_cif.got.tgz:515743.got - 2010.06.03 11:33:40.
