data_PCOD9057711
_publ_section_title
;
Structure prediction by ZEFSAII (Michael W. Deem and Ramdas Pophale) SiO2 
 PCOD9057711
Probable space group: P -1
;
_chemical_formula_sum "Si O2"
_cell_formula_units_Z 14
_cell_length_a 10.629863
_cell_length_b 24.778135
_cell_length_c 6.631864
_cell_angle_alpha 124.636288
_cell_angle_beta 98.406039
_cell_angle_gamma 35.519172
_cell_volume 625.856649
_symmetry_space_group_name_H-M "P -1"
_symmetry_group_IT_number 2
_symmetry_cell_setting 'triclinic'
loop_
_space_group_symop_operation_xyz
x,y,z
-x,-y,-z
loop_
_atom_site_type_symbol
_atom_site_label
_atom_site_fract_x
_atom_site_fract_y
_atom_site_fract_z
Si Si1 0.656331 0.222261 0.820435
Si Si2 0.838368 0.357437 0.249519
Si Si3 0.822739 0.730085 0.175620
Si Si4 0.901122 0.455003 0.750309
Si Si5 0.664549 0.698276 0.740662
Si Si6 0.159211 0.074433 0.800021
Si Si7 0.767917 0.062178 0.180227
O O1 0.689175 0.138986 0.529274
O O2 0.956841 0.121810 0.709660
O O3 0.430472 0.368451 0.945299
O O4 0.516525 0.272647 0.117448
O O5 0.500000 0.500000 0.500000
O O6 0.904069 0.389425 0.471785
O O7 0.941360 0.330074 0.991535
O O8 0.026736 0.207532 0.038082
O O9 0.942269 0.641367 0.216837
O O10 0.504924 0.910721 0.498728
O O11 0.777911 0.692713 0.927992
O O12 0.066397 0.438300 0.636995
O O13 0.470879 0.829174 0.816986
O O14 0.126947 0.056730 0.975469
O O15 0.000000 0.000000 0.000000
#
# Coordination Sequence:
#
# PCOD9057711 Si02
#       7
#     2   2   2   2   2   2   2
#     4  12  24  42  72 101 145 178 225 280 343 407
#     4  11  26  49  70  98 136 180 235 283 340 403
#     4  11  25  46  71 100 139 178 234 282 340 402
#     4  11  25  45  70 104 135 185 225 282 341 408
#     4  11  22  43  69 103 143 174 229 273 345 406
#     4  12  23  47  69 101 140 179 226 286 334 405
#     4  12  24  41  69 105 136 182 227 274 346 405
#
# _framework density 22.369336000000001
#
# number of rings (size 3 to 8) (size 9 to 14) (size 15 to 20)
#    0.000    0.571    5.714    2.143    0.000    6.857 
#    5.143    0.000    0.000    0.000    0.000    0.000 
#    0.000    0.000    0.000    0.000    0.000    0.000 
#
# Total GULP energy -78189.854988 kJ/mol
# GULP energy per Si atom -5584.989642 kJ/mol
# Density = 2.231842 g / cm^3
# Si number density = 22.369336 Si / 1000 Ang^3
#
#
#
# Elastic Constant Matrix: (Units=GPa)
#
#
# Indices 1 2 3 4 5 6 
#
# 1 92.1873 28.6699 49.5865 8.5643 -19.1488 12.8181
# 2 28.6699 106.4791 66.0051 29.8418 -3.1424 -2.2236
# 3 49.5865 66.0051 85.8320 18.6830 -27.4826 16.4315
# 4 8.5643 29.8418 18.6830 33.2656 1.8217 7.0540
# 5 -19.1488 -3.1424 -27.4826 1.8217 49.3340 8.1702
# 6 12.8181 -2.2236 16.4315 7.0540 8.1702 37.4442
#
#
#
# Elastic Compliance Matrix: (Units=1/GPa)
#
#
# Indices 1 2 3 4 5 6 
#
# 1 0.016157 0.002440 -0.010908 -0.000103 0.000467 -0.000682
# 2 0.002440 0.036807 -0.037911 -0.016651 -0.021488 0.025813
# 3 -0.010908 -0.037911 0.063244 0.006853 0.034127 -0.035008
# 4 -0.000103 -0.016651 0.006853 0.043736 0.003239 -0.012907
# 5 0.000467 -0.021488 0.034127 0.003239 0.042322 -0.026257
# 6 -0.000682 0.025813 -0.035008 -0.012907 -0.026257 0.051996
#
#
# Mechanical properties :
#
#
# Convention : Reuss Voigt Hill
#
# Bulk Modulus (GPa) = 42.64602 63.66903 53.15752
# Shear Modulus (GPa) = 14.09096 33.35789 23.72442
#
# Velocity S-wave (km/s) = 2.51255 3.86584 3.26018
# Velocity P-wave (km/s) = 5.24625 6.96065 6.16335
#
# Compressibility (1/GPa) = 0.02344885
#
# Stress axis : x y z
#
# Youngs Moduli (GPa) = 61.89092 27.16876 15.81189
#
# Poissons Ratio (x) = -0.06628 0.17248
# Poissons Ratio (y) = -0.15100 0.59945
# Poissons Ratio (z) = 0.67511 1.03000
#
# Static dielectric constant tensor:
#      x y z
#    x 1.847970 -0.023030 -0.088130 
#    y -0.023030 1.851860 0.035040 
#    z -0.088130 0.035040 1.946900 
# 
# From -- ./inp_files/72604.got.cif
#   From: 2010.05.17/outbox.cif.g08.bks.cpg/sg2_37_cif.got.tgz:72604.got - 2010.06.03 11:33:40.
