data_PCOD9057900
_publ_section_title
;
Structure prediction by ZEFSAII (Michael W. Deem and Ramdas Pophale) SiO2 
 PCOD9057900
Probable space group: P -1
;
_chemical_formula_sum "Si O2"
_cell_formula_units_Z 16
_cell_length_a 9.635614
_cell_length_b 9.001701
_cell_length_c 15.076548
_cell_angle_alpha 115.521620
_cell_angle_beta 141.275063
_cell_angle_gamma 67.608839
_cell_volume 735.917025
_symmetry_space_group_name_H-M "P -1"
_symmetry_group_IT_number 2
_symmetry_cell_setting 'triclinic'
loop_
_space_group_symop_operation_xyz
x,y,z
-x,-y,-z
loop_
_atom_site_type_symbol
_atom_site_label
_atom_site_fract_x
_atom_site_fract_y
_atom_site_fract_z
Si Si1 0.913822 0.087495 0.752336
Si Si2 0.017585 0.549622 0.123547
Si Si3 0.417857 0.000237 0.283306
Si Si4 0.092675 0.096246 0.486237
Si Si5 0.424658 0.378450 0.357196
Si Si6 0.370903 0.993347 0.059580
Si Si7 0.474779 0.366635 0.028095
Si Si8 0.325787 0.694620 0.708728
O O1 0.860869 0.282651 0.766002
O O2 0.733735 0.025421 0.714544
O O3 0.919779 0.004127 0.637802
O O4 0.155107 0.050587 0.909092
O O5 0.162111 0.410175 0.214177
O O6 0.773530 0.596654 0.050370
O O7 0.000000 0.500000 0.000000
O O8 0.482103 0.189332 0.364438
O O9 0.647141 0.884594 0.365896
O O10 0.304292 0.977229 0.125370
O O11 0.927366 0.258285 0.431985
O O12 0.000000 0.000000 0.500000
O O13 0.500000 0.500000 0.500000
O O14 0.547513 0.406109 0.332463
O O15 0.547024 0.133827 0.179159
O O16 0.479287 0.818756 0.033982
O O17 0.639087 0.383289 0.197487
O O18 0.500000 0.500000 0.000000
#
# Coordination Sequence:
#
# PCOD9057900 Si02
#       8
#     2   2   2   2   2   2   2   2
#     4  12  25  43  72  98 139 182 234 288 337 403
#     4  12  25  42  68  97 140 184 220 283 356 404
#     4  11  26  43  70 106 133 183 237 284 334 414
#     4  12  23  42  72  99 135 179 238 278 335 404
#     4  11  24  42  69  99 144 179 228 274 353 412
#     4  11  22  43  73  99 136 178 239 282 342 403
#     4  12  26  42  68 106 138 175 225 289 351 402
#     4  11  22  45  71 103 134 186 231 285 335 416
#
# _framework density 21.741582000000001
#
# number of rings (size 3 to 8) (size 9 to 14) (size 15 to 20)
#    0.000    0.500    6.250    3.375    3.500    0.000 
#    0.000    0.000    0.000    3.000    0.000    0.000 
#    0.000    0.000    0.000    0.000    0.000    0.000 
#
# Total GULP energy -89570.640621 kJ/mol
# GULP energy per Si atom -5598.165039 kJ/mol
# Density = 2.169210 g / cm^3
# Si number density = 21.741582 Si / 1000 Ang^3
#
#
#
# Elastic Constant Matrix: (Units=GPa)
#
#
# Indices 1 2 3 4 5 6 
#
# 1 146.1388 34.4173 31.4060 -4.6410 -25.2781 -2.5447
# 2 34.4173 59.6733 18.6160 -22.8690 -3.7198 -12.4201
# 3 31.4060 18.6160 82.0864 -28.2068 -13.9463 -3.3184
# 4 -4.6410 -22.8690 -28.2068 38.2024 -11.5835 -4.9765
# 5 -25.2781 -3.7198 -13.9463 -11.5835 41.4546 -4.8193
# 6 -2.5447 -12.4201 -3.3184 -4.9765 -4.8193 37.6004
#
#
#
# Elastic Compliance Matrix: (Units=1/GPa)
#
#
# Indices 1 2 3 4 5 6 
#
# 1 0.009320 -0.006467 -0.003468 -0.004877 0.002323 -0.002159
# 2 -0.006467 0.035110 0.009070 0.033452 0.013715 0.018145
# 3 -0.003468 0.009070 0.025111 0.030108 0.016853 0.011123
# 4 -0.004877 0.033452 0.030108 0.082733 0.036649 0.029024
# 5 0.002323 0.013715 0.016853 0.036649 0.044627 0.016745
# 6 -0.002159 0.018145 0.011123 0.029024 0.016745 0.039412
#
#
# Mechanical properties :
#
#
# Convention : Reuss Voigt Hill
#
# Bulk Modulus (GPa) = 14.74663 50.75299 32.74981
# Shear Modulus (GPa) = 19.18304 37.01544 28.09924
#
# Velocity S-wave (km/s) = 2.97361 4.13063 3.59892
# Velocity P-wave (km/s) = 4.31129 6.79293 5.68908
#
# Compressibility (1/GPa) = 0.06781212
#
# Stress axis : x y z
#
# Youngs Moduli (GPa) = 107.29054 28.48200 39.82342
#
# Poissons Ratio (x) = 0.18420 0.13809
# Poissons Ratio (y) = 0.69389 -0.36122
# Poissons Ratio (z) = 0.37204 -0.25835
#
# Static dielectric constant tensor:
#      x y z
#    x 1.782260 0.014670 0.000690 
#    y 0.014670 1.776290 -0.010040 
#    z 0.000690 -0.010040 1.783430 
# 
# From -- ./inp_files/399254.got.cif
#   From: 2010.05.17/outbox.cif.g08.bks.cpg/sg2_200_cif.got.tgz:399254.got - 2010.06.03 11:33:40.
