data_PCOD9057067
_publ_section_title
;
Structure prediction by ZEFSAII (Michael W. Deem and Ramdas Pophale) SiO2 
 PCOD9057067
Probable space group: P -1
;
_chemical_formula_sum "Si O2"
_cell_formula_units_Z 14
_cell_length_a 13.890124
_cell_length_b 10.653310
_cell_length_c 10.554109
_cell_angle_alpha 123.736408
_cell_angle_beta 134.931107
_cell_angle_gamma 30.806287
_cell_volume 560.564297
_symmetry_space_group_name_H-M "P -1"
_symmetry_group_IT_number 2
_symmetry_cell_setting 'triclinic'
loop_
_space_group_symop_operation_xyz
x,y,z
-x,-y,-z
loop_
_atom_site_type_symbol
_atom_site_label
_atom_site_fract_x
_atom_site_fract_y
_atom_site_fract_z
Si Si1 0.816916 0.408183 0.045142
Si Si2 0.382870 0.633868 0.829576
Si Si3 0.208643 0.379132 0.202381
Si Si4 0.630367 0.684735 0.433090
Si Si5 0.932854 0.187893 0.770724
Si Si6 0.819146 0.970081 0.628050
Si Si7 0.662332 0.828637 0.276429
O O1 0.750227 0.637117 0.145627
O O2 0.958205 0.220143 0.188211
O O3 0.586191 0.522122 0.876085
O O4 0.959659 0.244518 0.963730
O O5 0.294859 0.552533 0.651722
O O6 0.500000 0.500000 0.000000
O O7 0.180205 0.929180 0.809730
O O8 0.229158 0.338308 0.349884
O O9 0.198839 0.569478 0.291830
O O10 0.426993 0.116178 0.193344
O O11 0.000000 0.500000 0.000000
O O12 0.625898 0.765243 0.336654
O O13 0.388810 0.879457 0.386927
O O14 0.805162 0.141764 0.640904
O O15 0.827898 0.819391 0.458575
#
# Coordination Sequence:
#
# PCOD9057067 Si02
#       7
#     2   2   2   2   2   2   2
#     4  12  24  41  74 108 140 186 238 297 346 421
#     4  12  22  43  73 108 142 181 241 292 355 416
#     4  11  27  46  70 105 145 192 233 293 365 418
#     4  11  24  45  75 104 142 190 241 296 349 425
#     4  12  26  43  71 103 146 189 232 289 356 428
#     4  11  22  41  69 106 136 184 241 290 349 415
#     4  11  25  45  72 104 143 188 243 294 350 422
#
# _framework density 24.974831999999999
#
# number of rings (size 3 to 8) (size 9 to 14) (size 15 to 20)
#    0.000    0.571    4.286    4.286    4.000    3.429 
#    0.000    0.000    0.000    0.000    0.000    0.000 
#    0.000    0.000    0.000    0.000    0.000    0.000 
#
# Total GULP energy -78459.694472 kJ/mol
# GULP energy per Si atom -5604.263891 kJ/mol
# Density = 2.491799 g / cm^3
# Si number density = 24.974832 Si / 1000 Ang^3
#
#
#
# Elastic Constant Matrix: (Units=GPa)
#
#
# Indices 1 2 3 4 5 6 
#
# 1 47.3274 27.5916 25.5750 -4.0330 27.0984 11.7136
# 2 27.5916 150.9541 25.6800 12.8259 14.1776 7.7010
# 3 25.5750 25.6800 109.3307 10.5730 14.1589 -5.4930
# 4 -4.0330 12.8259 10.5730 49.4325 -1.7941 10.8446
# 5 27.0984 14.1776 14.1589 -1.7941 29.4656 2.3898
# 6 11.7136 7.7010 -5.4930 10.8446 2.3898 38.9133
#
#
#
# Elastic Compliance Matrix: (Units=1/GPa)
#
#
# Indices 1 2 3 4 5 6 
#
# 1 0.062428 -0.005272 -0.009120 0.010848 -0.048284 -0.019094
# 2 -0.005272 0.007735 -0.000469 -0.002425 0.001156 0.000595
# 3 -0.009120 -0.000469 0.011794 -0.004284 0.002234 0.005560
# 4 0.010848 -0.002425 -0.004284 0.024693 -0.004437 -0.009999
# 5 -0.048284 0.001156 0.002234 -0.004437 0.075533 0.011219
# 6 -0.019094 0.000595 0.005560 -0.009999 0.011219 0.034211
#
#
# Mechanical properties :
#
#
# Convention : Reuss Voigt Hill
#
# Bulk Modulus (GPa) = 19.14426 51.70061 35.42244
# Shear Modulus (GPa) = 18.97329 38.81332 28.89331
#
# Velocity S-wave (km/s) = 2.75925 3.94648 3.40501
# Velocity P-wave (km/s) = 4.22295 6.44300 5.44728
#
# Compressibility (1/GPa) = 0.05223498
#
# Stress axis : x y z
#
# Youngs Moduli (GPa) = 16.01845 129.28148 84.78564
#
# Poissons Ratio (x) = 0.68156 0.77328
# Poissons Ratio (y) = 0.08445 0.03975
# Poissons Ratio (z) = 0.14610 0.06062
#
# Static dielectric constant tensor:
#      x y z
#    x 2.056380 0.012910 0.000640 
#    y 0.012910 1.961280 -0.006100 
#    z 0.000640 -0.006100 1.961140 
# 
# From -- ./inp_files/451831.got.cif
#   From: 2010.05.17/outbox.cif.g08.bks.cpg/sg2_226_cif.got.tgz:451831.got - 2010.06.03 11:33:40.
