data_PCOD9057628
_publ_section_title
;
Structure prediction by ZEFSAII (Michael W. Deem and Ramdas Pophale) SiO2 
 PCOD9057628
Probable space group: P -1
;
_chemical_formula_sum "Si O2"
_cell_formula_units_Z 14
_cell_length_a 9.235530
_cell_length_b 21.819484
_cell_length_c 8.931783
_cell_angle_alpha 47.276888
_cell_angle_beta 148.754637
_cell_angle_gamma 135.211763
_cell_volume 644.936857
_symmetry_space_group_name_H-M "P -1"
_symmetry_group_IT_number 2
_symmetry_cell_setting 'triclinic'
loop_
_space_group_symop_operation_xyz
x,y,z
-x,-y,-z
loop_
_atom_site_type_symbol
_atom_site_label
_atom_site_fract_x
_atom_site_fract_y
_atom_site_fract_z
Si Si1 0.686149 0.492622 0.316389
Si Si2 0.840227 0.758936 0.933254
Si Si3 0.348064 0.551781 0.179505
Si Si4 0.813870 0.064342 0.223359
Si Si5 0.770299 0.195315 0.209408
Si Si6 0.301700 0.247419 0.831526
Si Si7 0.696503 0.307100 0.667246
O O1 0.539407 0.546793 0.207654
O O2 0.633376 0.396413 0.504825
O O3 0.000000 0.500000 0.500000
O O4 0.500000 0.500000 0.000000
O O5 0.558086 0.739244 0.604494
O O6 0.058148 0.854663 0.913690
O O7 0.792343 0.760295 0.065528
O O8 0.998134 0.686301 0.157884
O O9 0.500000 0.500000 0.500000
O O10 0.441604 0.656227 0.116038
O O11 0.000000 0.500000 0.000000
O O12 0.810408 0.111397 0.301528
O O13 0.000000 0.000000 0.500000
O O14 0.500000 0.000000 0.000000
O O15 0.042606 0.237458 0.496289
O O16 0.464515 0.176869 0.058018
O O17 0.726931 0.254612 0.931088
#
# Coordination Sequence:
#
# PCOD9057628 Si02
#       7
#     2   2   2   2   2   2   2
#     4  12  25  42  65  95 130 179 239 295 336 385
#     4  11  24  43  71  99 132 179 222 280 344 405
#     4  12  26  42  63  95 137 185 228 287 347 390
#     4  11  23  45  71  99 130 168 217 271 335 420
#     4  11  24  42  69  98 130 177 220 272 339 415
#     4  12  24  43  65 100 139 175 228 282 338 410
#     4  11  22  43  66  94 130 181 237 275 328 413
#
# _framework density 21.707552
#
# number of rings (size 3 to 8) (size 9 to 14) (size 15 to 20)
#    0.000    0.571    0.000   10.286    0.000    3.429 
#    0.000    4.286    0.000    0.000    0.000    0.000 
#    0.000    0.000    0.000    0.000    0.000    0.000 
#
# Total GULP energy -77959.354634 kJ/mol
# GULP energy per Si atom -5568.525331 kJ/mol
# Density = 2.165814 g / cm^3
# Si number density = 21.707552 Si / 1000 Ang^3
#
#
#
# Elastic Constant Matrix: (Units=GPa)
#
#
# Indices 1 2 3 4 5 6 
#
# 1 162.4928 42.4724 54.8806 13.2526 8.5228 -28.9018
# 2 42.4724 96.4965 53.0303 0.5546 2.9667 -10.3048
# 3 54.8806 53.0303 180.9682 19.8898 25.3669 -10.5815
# 4 13.2526 0.5546 19.8898 46.5322 -9.0393 13.1673
# 5 8.5228 2.9667 25.3669 -9.0393 43.4228 -1.4450
# 6 -28.9018 -10.3048 -10.5815 13.1673 -1.4450 38.9110
#
#
#
# Elastic Compliance Matrix: (Units=1/GPa)
#
#
# Indices 1 2 3 4 5 6 
#
# 1 0.008825 -0.002640 -0.000730 -0.004543 -0.001834 0.007126
# 2 -0.002640 0.013500 -0.003809 0.002758 0.002386 -0.000266
# 3 -0.000730 -0.003809 0.008293 -0.004958 -0.005400 0.002182
# 4 -0.004543 0.002758 -0.004958 0.030689 0.009521 -0.014024
# 5 -0.001834 0.002386 -0.005400 0.009521 0.028218 -0.004373
# 6 0.007126 -0.000266 0.002182 -0.014024 -0.004373 0.036099
#
#
# Mechanical properties :
#
#
# Convention : Reuss Voigt Hill
#
# Bulk Modulus (GPa) = 61.49319 82.30268 71.89794
# Shear Modulus (GPa) = 34.38796 45.07814 39.73305
#
# Velocity S-wave (km/s) = 3.98445 4.56193 4.28293
# Velocity P-wave (km/s) = 7.03970 8.10832 7.59283
#
# Compressibility (1/GPa) = 0.01626196
#
# Stress axis : x y z
#
# Youngs Moduli (GPa) = 113.31777 74.07181 120.58869
#
# Poissons Ratio (x) = 0.19553 0.08798
# Poissons Ratio (y) = 0.29912 0.45928
# Poissons Ratio (z) = 0.08268 0.28211
#
# Static dielectric constant tensor:
#      x y z
#    x 1.623320 0.154460 -0.124540 
#    y 0.154460 1.640040 0.238780 
#    z -0.124540 0.238780 1.482170 
# 
# From -- ./inp_files/223125.got.cif
#   From: 2010.05.17/outbox.cif.g08.bks.cpg/sg2_112_cif.got.tgz:223125.got - 2010.06.03 11:33:40.
