data_PCOD9057977
_publ_section_title
;
Structure prediction by ZEFSAII (Michael W. Deem and Ramdas Pophale) SiO2 
 PCOD9057977
Probable space group: P -1
;
_chemical_formula_sum "Si O2"
_cell_formula_units_Z 16
_cell_length_a 18.220129
_cell_length_b 14.335293
_cell_length_c 23.542482
_cell_angle_alpha 19.641990
_cell_angle_beta 157.350299
_cell_angle_gamma 148.174733
_cell_volume 786.881878
_symmetry_space_group_name_H-M "P -1"
_symmetry_group_IT_number 2
_symmetry_cell_setting 'triclinic'
loop_
_space_group_symop_operation_xyz
x,y,z
-x,-y,-z
loop_
_atom_site_type_symbol
_atom_site_label
_atom_site_fract_x
_atom_site_fract_y
_atom_site_fract_z
Si Si1 0.096840 0.675856 0.265359
Si Si2 0.524879 0.819351 0.332946
Si Si3 0.441352 0.801350 0.757374
Si Si4 0.160494 0.114900 0.843198
Si Si5 0.428202 0.909472 0.417321
Si Si6 0.181598 0.217951 0.167024
Si Si7 0.049886 0.627952 0.555920
Si Si8 0.053371 0.286241 0.349997
O O1 0.317068 0.692222 0.429742
O O2 0.003512 0.528596 0.335802
O O3 0.079522 0.497949 0.298745
O O4 0.000000 0.000000 0.000000
O O5 0.500000 0.500000 0.500000
O O6 0.745218 0.816014 0.477478
O O7 0.491375 0.975491 0.279555
O O8 0.372256 0.962269 0.096286
O O9 0.212029 0.822838 0.572504
O O10 0.542765 0.837256 0.749402
O O11 0.500000 0.500000 0.000000
O O12 0.135063 0.389359 0.708074
O O13 0.124779 0.201201 0.702681
O O14 0.994280 0.931295 0.848961
O O15 0.641514 0.781970 0.663288
O O16 0.287426 0.028913 0.299643
O O17 0.095140 0.525261 0.906054
O O18 0.000000 0.000000 0.500000
#
# Coordination Sequence:
#
# PCOD9057977 Si02
#       8
#     2   2   2   2   2   2   2   2
#     4  12  23  45  71 100 132 177 230 273 325 401
#     4  12  26  44  68  95 138 184 217 267 343 405
#     4  12  24  41  66 106 130 167 234 278 317 395
#     4  11  22  44  67 101 138 175 220 277 341 392
#     4  11  24  40  73 100 130 176 226 278 333 391
#     4  11  23  44  66 100 139 175 219 277 345 392
#     4  11  23  40  70 102 132 168 226 287 324 382
#     4  12  27  45  68 100 140 176 220 278 339 397
#
# _framework density 20.333421000000001
#
# number of rings (size 3 to 8) (size 9 to 14) (size 15 to 20)
#    0.000    0.500    6.250    2.250    1.750    1.000 
#    0.000    7.500    0.000    0.000    0.000    0.000 
#    0.000    0.000    0.000    0.000    0.000    0.000 
#
# Total GULP energy -89438.747771 kJ/mol
# GULP energy per Si atom -5589.921736 kJ/mol
# Density = 2.028714 g / cm^3
# Si number density = 20.333421 Si / 1000 Ang^3
#
#
#
# Elastic Constant Matrix: (Units=GPa)
#
#
# Indices 1 2 3 4 5 6 
#
# 1 63.4143 -4.6773 6.7161 0.3341 -16.4920 6.8919
# 2 -4.6773 83.1036 11.8285 0.3407 -8.3784 -3.2407
# 3 6.7161 11.8285 119.6705 10.5297 -17.2752 -10.2271
# 4 0.3341 0.3407 10.5297 35.1482 -0.1328 -2.8513
# 5 -16.4920 -8.3784 -17.2752 -0.1328 28.9011 2.6019
# 6 6.8919 -3.2407 -10.2271 -2.8513 2.6019 37.1035
#
#
#
# Elastic Compliance Matrix: (Units=1/GPa)
#
#
# Indices 1 2 3 4 5 6 
#
# 1 0.019574 0.002152 0.000139 -0.000552 0.012262 -0.004312
# 2 0.002152 0.012715 -0.000725 0.000107 0.004463 0.000206
# 3 0.000139 -0.000725 0.009608 -0.002692 0.005422 0.001972
# 4 -0.000552 0.000107 -0.002692 0.029398 -0.001917 0.001763
# 5 0.012262 0.004463 0.005422 -0.001917 0.046466 -0.003799
# 6 -0.004312 0.000206 0.001972 0.001763 -0.003799 0.028716
#
#
# Mechanical properties :
#
#
# Convention : Reuss Voigt Hill
#
# Bulk Modulus (GPa) = 22.20775 32.65810 27.43293
# Shear Modulus (GPa) = 31.57474 37.05199 34.31337
#
# Velocity S-wave (km/s) = 3.94490 4.27338 4.11242
# Velocity P-wave (km/s) = 5.62984 6.35965 6.00584
#
# Compressibility (1/GPa) = 0.04502933
#
# Stress axis : x y z
#
# Youngs Moduli (GPa) = 51.08862 78.64697 104.07625
#
# Poissons Ratio (x) = -0.16927 -0.01446
# Poissons Ratio (y) = -0.10996 0.07547
# Poissons Ratio (z) = -0.00710 0.05703
#
# Static dielectric constant tensor:
#      x y z
#    x 1.718570 -0.001060 -0.061210 
#    y -0.001060 1.708200 0.036080 
#    z -0.061210 0.036080 1.649320 
# 
# From -- ./inp_files/457414.got.cif
#   From: 2010.05.17/outbox.cif.g08.bks.cpg/sg2_229_cif.got.tgz:457414.got - 2010.06.03 11:33:40.
