data_PCOD9057786
_publ_section_title
;
Structure prediction by ZEFSAII (Michael W. Deem and Ramdas Pophale) SiO2 
 PCOD9057786
Probable space group: P -1
;
_chemical_formula_sum "Si O2"
_cell_formula_units_Z 16
_cell_length_a 9.637757
_cell_length_b 18.223359
_cell_length_c 18.511423
_cell_angle_alpha 148.652108
_cell_angle_beta 27.309631
_cell_angle_gamma 143.155364
_cell_volume 764.225734
_symmetry_space_group_name_H-M "P -1"
_symmetry_group_IT_number 2
_symmetry_cell_setting 'triclinic'
loop_
_space_group_symop_operation_xyz
x,y,z
-x,-y,-z
loop_
_atom_site_type_symbol
_atom_site_label
_atom_site_fract_x
_atom_site_fract_y
_atom_site_fract_z
Si Si1 0.961410 0.767847 0.010849
Si Si2 0.146162 0.480710 0.627828
Si Si3 0.947268 0.393847 0.367389
Si Si4 0.236849 0.913177 0.858913
Si Si5 0.001026 0.693292 0.088119
Si Si6 0.051900 0.972858 0.370346
Si Si7 0.259562 0.774159 0.317250
Si Si8 0.364279 0.614079 0.988726
O O1 0.610524 0.792189 0.196407
O O2 0.097966 0.768281 0.029366
O O3 0.986217 0.607866 0.839850
O O4 0.121543 0.866384 0.954270
O O5 0.500000 0.500000 0.500000
O O6 0.154240 0.501990 0.557205
O O7 0.952697 0.337772 0.628095
O O8 0.741580 0.234273 0.320464
O O9 0.000000 0.500000 0.500000
O O10 0.273495 0.357496 0.161461
O O11 0.577553 0.004424 0.788579
O O12 0.000000 0.000000 0.000000
O O13 0.752787 0.550252 0.071798
O O14 0.890959 0.816350 0.289030
O O15 0.242929 0.640714 0.986965
O O16 0.893144 0.085764 0.495343
O O17 0.000000 0.000000 0.500000
O O18 0.259081 0.711364 0.182525
#
# Coordination Sequence:
#
# PCOD9057786 Si02
#       8
#     2   2   2   2   2   2   2   2
#     4  11  23  43  69  95 130 173 226 275 329 393
#     4  11  23  40  65 100 134 172 218 278 334 389
#     4  11  25  42  67 100 131 166 224 277 329 388
#     4  11  24  47  68  94 133 180 217 268 342 397
#     4  11  25  40  68  98 131 170 224 271 323 392
#     4  12  26  43  65  97 136 177 216 268 333 405
#     4  12  21  44  70  95 132 178 217 270 341 395
#     4  11  22  43  70  99 129 179 219 272 329 396
#
# _framework density 20.936222000000001
#
# number of rings (size 3 to 8) (size 9 to 14) (size 15 to 20)
#    0.000    0.750    5.000    4.125    3.500    1.000 
#    2.250    0.000    0.000    0.000    0.000    0.000 
#    0.000    0.000    0.000    0.000    0.000    0.000 
#
# Total GULP energy -89290.951287 kJ/mol
# GULP energy per Si atom -5580.684455 kJ/mol
# Density = 2.088857 g / cm^3
# Si number density = 20.936222 Si / 1000 Ang^3
#
#
#
# Elastic Constant Matrix: (Units=GPa)
#
#
# Indices 1 2 3 4 5 6 
#
# 1 129.1488 10.9399 18.6322 -1.1099 2.1961 -26.7577
# 2 10.9399 58.8941 19.2041 -3.8338 -13.4257 -15.3579
# 3 18.6322 19.2041 64.4123 10.7490 -13.5229 -4.6754
# 4 -1.1099 -3.8338 10.7490 23.5133 7.5489 -4.6576
# 5 2.1961 -13.4257 -13.5229 7.5489 46.1990 4.3359
# 6 -26.7577 -15.3579 -4.6754 -4.6576 4.3359 36.3546
#
#
#
# Elastic Compliance Matrix: (Units=1/GPa)
#
#
# Indices 1 2 3 4 5 6 
#
# 1 0.010091 0.001382 -0.004216 0.005266 -0.002970 0.008497
# 2 0.001382 0.022965 -0.007511 0.008711 0.001988 0.010632
# 3 -0.004216 -0.007511 0.022771 -0.015587 0.007819 -0.006278
# 4 0.005266 0.008711 -0.015587 0.058458 -0.013205 0.014616
# 5 -0.002970 0.001988 0.007819 -0.013205 0.027307 -0.005289
# 6 0.008497 0.010632 -0.006278 0.014616 -0.005289 0.039948
#
#
# Mechanical properties :
#
#
# Convention : Reuss Voigt Hill
#
# Bulk Modulus (GPa) = 28.46124 38.88973 33.67549
# Shear Modulus (GPa) = 23.37066 34.79197 29.08131
#
# Velocity S-wave (km/s) = 3.34470 4.08095 3.73103
# Velocity P-wave (km/s) = 5.34227 6.38915 5.88901
#
# Compressibility (1/GPa) = 0.03513550
#
# Stress axis : x y z
#
# Youngs Moduli (GPa) = 99.10293 43.54474 43.91520
#
# Poissons Ratio (x) = -0.06018 0.18517
# Poissons Ratio (y) = -0.13697 0.32986
# Poissons Ratio (z) = 0.41786 0.32707
#
# Static dielectric constant tensor:
#      x y z
#    x 1.806510 0.004650 0.023600 
#    y 0.004650 1.757020 0.016400 
#    z 0.023600 0.016400 1.743940 
# 
# From -- ./inp_files/189166.got.cif
#   From: 2010.05.17/outbox.cif.g08.bks.cpg/sg2_95_cif.got.tgz:189166.got - 2010.06.03 11:33:40.
