data_PCOD9057734
_publ_section_title
;
Structure prediction by ZEFSAII (Michael W. Deem and Ramdas Pophale) SiO2 
 PCOD9057734
Probable space group: P -1
;
_chemical_formula_sum "Si O2"
_cell_formula_units_Z 16
_cell_length_a 20.663252
_cell_length_b 8.773268
_cell_length_c 24.588081
_cell_angle_alpha 31.813518
_cell_angle_beta 162.050211
_cell_angle_gamma 141.079161
_cell_volume 711.373118
_symmetry_space_group_name_H-M "P -1"
_symmetry_group_IT_number 2
_symmetry_cell_setting 'triclinic'
loop_
_space_group_symop_operation_xyz
x,y,z
-x,-y,-z
loop_
_atom_site_type_symbol
_atom_site_label
_atom_site_fract_x
_atom_site_fract_y
_atom_site_fract_z
Si Si1 0.922665 0.797853 0.044304
Si Si2 0.930399 0.793712 0.611438
Si Si3 0.731506 0.819121 0.225843
Si Si4 0.747719 0.597443 0.786001
Si Si5 0.525716 0.819922 0.652275
Si Si6 0.419938 0.630966 0.838031
Si Si7 0.130391 0.524955 0.449712
Si Si8 0.223297 0.049492 0.003345
O O1 0.682951 0.772515 0.843439
O O2 0.906360 0.941273 0.047066
O O3 0.074658 0.482866 0.269563
O O4 0.000000 0.000000 0.000000
O O5 0.952081 0.667078 0.605599
O O6 0.122596 0.942830 0.741203
O O7 0.732611 0.057034 0.371687
O O8 0.699358 0.592339 0.221762
O O9 0.831499 0.641835 0.412723
O O10 0.500000 0.000000 0.000000
O O11 0.683042 0.738680 0.750825
O O12 0.610579 0.847283 0.562199
O O13 0.668641 0.285766 0.817892
O O14 0.000000 0.500000 0.000000
O O15 0.350420 0.612746 0.578762
O O16 0.617582 0.720371 0.936565
O O17 0.500000 0.500000 0.000000
O O18 0.951248 0.821182 0.220864
#
# Coordination Sequence:
#
# PCOD9057734 Si02
#       8
#     2   2   2   2   2   2   2   2
#     4  11  26  46  68 101 141 188 240 296 353 423
#     4  11  25  44  69 100 141 186 235 296 358 425
#     4  12  24  44  71 101 136 183 235 293 363 430
#     4  11  23  42  66 101 134 186 238 293 351 423
#     4  11  24  41  70  96 140 184 238 293 357 418
#     4  12  26  45  70 105 144 184 234 298 361 432
#     4  11  22  43  70 100 135 183 236 295 357 425
#     4  11  24  44  68 100 141 183 239 290 360 425
#
# _framework density 22.491712
#
# number of rings (size 3 to 8) (size 9 to 14) (size 15 to 20)
#    0.000    0.750    1.250    6.750    7.000    2.500 
#    4.500    0.000    0.000    0.000    0.000    0.000 
#    0.000    0.000    0.000    0.000    0.000    0.000 
#
# Total GULP energy -89479.256927 kJ/mol
# GULP energy per Si atom -5592.453558 kJ/mol
# Density = 2.244052 g / cm^3
# Si number density = 22.491712 Si / 1000 Ang^3
#
#
#
# Elastic Constant Matrix: (Units=GPa)
#
#
# Indices 1 2 3 4 5 6 
#
# 1 76.4992 40.4337 43.4686 -20.4875 -12.8884 8.0059
# 2 40.4337 133.1518 42.8340 -11.1503 -8.8625 -2.2946
# 3 43.4686 42.8340 144.4998 -35.6416 -6.3646 -11.7617
# 4 -20.4875 -11.1503 -35.6416 41.9437 5.3908 3.1924
# 5 -12.8884 -8.8625 -6.3646 5.3908 43.9129 2.4091
# 6 8.0059 -2.2946 -11.7617 3.1924 2.4091 32.6034
#
#
#
# Elastic Compliance Matrix: (Units=1/GPa)
#
#
# Indices 1 2 3 4 5 6 
#
# 1 0.020678 -0.004374 -0.003982 0.005581 0.004346 -0.007689
# 2 -0.004374 0.009310 -0.001617 -0.001186 0.000439 0.001230
# 3 -0.003982 -0.001617 0.010445 0.006316 -0.000981 0.004086
# 4 0.005581 -0.001186 0.006316 0.031978 -0.001491 -0.002196
# 5 0.004346 0.000439 -0.000981 -0.001491 0.024344 -0.003043
# 6 -0.007689 0.001230 0.004086 -0.002196 -0.003043 0.034560
#
#
# Mechanical properties :
#
#
# Convention : Reuss Voigt Hill
#
# Bulk Modulus (GPa) = 48.81181 67.51375 58.16278
# Shear Modulus (GPa) = 31.62771 38.85297 35.24034
#
# Velocity S-wave (km/s) = 3.75399 4.16075 3.96259
# Velocity P-wave (km/s) = 6.36704 7.29142 6.84485
#
# Compressibility (1/GPa) = 0.02048685
#
# Stress axis : x y z
#
# Youngs Moduli (GPa) = 48.36059 107.41394 95.74274
#
# Poissons Ratio (x) = 0.46986 0.38122
# Poissons Ratio (y) = 0.21154 0.15480
# Poissons Ratio (z) = 0.19256 0.17367
#
# Static dielectric constant tensor:
#      x y z
#    x 1.829490 0.036060 0.021950 
#    y 0.036060 1.846130 0.060610 
#    z 0.021950 0.060610 1.801790 
# 
# From -- ./inp_files/613573.got.cif
#   From: 2010.05.17/outbox.cif.g08.bks.cpg/sg2_307_cif.got.tgz:613573.got - 2010.06.03 11:33:40.
