data_PCOD9057177
_publ_section_title
;
Structure prediction by ZEFSAII (Michael W. Deem and Ramdas Pophale) SiO2 
 PCOD9057177
Probable space group: P -1
;
_chemical_formula_sum "Si O2"
_cell_formula_units_Z 16
_cell_length_a 11.879645
_cell_length_b 11.165693
_cell_length_c 18.346306
_cell_angle_alpha 33.104623
_cell_angle_beta 32.488383
_cell_angle_gamma 33.729068
_cell_volume 645.752417
_symmetry_space_group_name_H-M "P -1"
_symmetry_group_IT_number 2
_symmetry_cell_setting 'triclinic'
loop_
_space_group_symop_operation_xyz
x,y,z
-x,-y,-z
loop_
_atom_site_type_symbol
_atom_site_label
_atom_site_fract_x
_atom_site_fract_y
_atom_site_fract_z
Si Si1 0.722560 0.269387 0.028660
Si Si2 0.268142 0.924709 0.382697
Si Si3 0.505098 0.958703 0.385940
Si Si4 0.698354 0.744323 0.053214
Si Si5 0.724147 0.640666 0.938982
Si Si6 0.643742 0.428294 0.608013
Si Si7 0.194775 0.915351 0.081114
Si Si8 0.941750 0.774297 0.411716
O O1 0.636266 0.115497 0.207114
O O2 0.500000 0.500000 0.000000
O O3 0.838652 0.406411 0.944549
O O4 0.837946 0.117992 0.969756
O O5 0.379538 0.927259 0.397587
O O6 0.367292 0.673383 0.413628
O O7 0.293963 0.126801 0.214697
O O8 0.000000 0.000000 0.500000
O O9 0.653670 0.685114 0.470057
O O10 0.312043 0.093517 0.483370
O O11 0.580171 0.570392 0.230270
O O12 0.838421 0.634893 0.958099
O O13 0.500000 0.000000 0.000000
O O14 0.788622 0.843999 0.021217
O O15 0.451059 0.697071 0.071033
O O16 0.871479 0.239462 0.621408
O O17 0.000191 0.891675 0.249391
O O18 0.000000 0.500000 0.500000
#
# Coordination Sequence:
#
# PCOD9057177 Si02
#       8
#     2   2   2   2   2   2   2   2
#     4  10  19  38  65  92 125 178 223 262 326 406
#     4  12  22  39  70  99 135 173 220 274 339 394
#     4  12  26  41  69 104 131 173 226 273 338 394
#     4  10  17  36  65  88 119 177 218 258 328 394
#     4  10  18  34  67  92 121 180 226 256 330 405
#     4  12  24  43  68  97 137 172 216 283 334 394
#     4  10  18  35  67  87 122 179 221 257 328 394
#     4  12  25  42  66  97 137 175 222 277 331 392
#
# _framework density 24.777297000000001
#
# number of rings (size 3 to 8) (size 9 to 14) (size 15 to 20)
#    0.000    1.000    8.750    1.875    0.000    0.500 
#    0.000    0.625    2.750    5.250    0.000    0.000 
#    0.000    0.000    0.000    0.000    0.000    0.000 
#
# Total GULP energy -89584.644269 kJ/mol
# GULP energy per Si atom -5599.040267 kJ/mol
# Density = 2.472090 g / cm^3
# Si number density = 24.777297 Si / 1000 Ang^3
#
#
#
# Elastic Constant Matrix: (Units=GPa)
#
#
# Indices 1 2 3 4 5 6 
#
# 1 150.2744 35.1447 16.7043 2.1058 17.3681 28.0356
# 2 35.1447 137.7253 48.8058 -2.5717 14.5994 37.5682
# 3 16.7043 48.8058 154.8503 2.3502 15.6832 5.4884
# 4 2.1058 -2.5717 2.3502 41.9479 12.7338 1.6572
# 5 17.3681 14.5994 15.6832 12.7338 31.5246 0.7694
# 6 28.0356 37.5682 5.4884 1.6572 0.7694 46.1671
#
#
#
# Elastic Compliance Matrix: (Units=1/GPa)
#
#
# Indices 1 2 3 4 5 6 
#
# 1 0.008123 -0.000206 -0.000192 0.001188 -0.004649 -0.004708
# 2 -0.000206 0.011188 -0.002779 0.002563 -0.004509 -0.008666
# 3 -0.000192 -0.002779 0.007546 0.000096 -0.002437 0.001518
# 4 0.001188 0.002563 0.000096 0.028061 -0.013136 -0.003607
# 5 -0.004649 -0.004509 -0.002437 -0.013136 0.042730 0.006542
# 6 -0.004708 -0.008666 0.001518 -0.003607 0.006542 0.031411
#
#
# Mechanical properties :
#
#
# Convention : Reuss Voigt Hill
#
# Bulk Modulus (GPa) = 48.77135 71.57328 60.17232
# Shear Modulus (GPa) = 35.15029 46.74094 40.94561
#
# Velocity S-wave (km/s) = 3.77058 4.34803 4.06956
# Velocity P-wave (km/s) = 6.21957 7.35911 6.81320
#
# Compressibility (1/GPa) = 0.02050384
#
# Stress axis : x y z
#
# Youngs Moduli (GPa) = 123.10839 89.38378 132.52002
#
# Poissons Ratio (x) = 0.01838 0.02540
# Poissons Ratio (y) = 0.02532 0.36828
# Poissons Ratio (z) = 0.02360 0.24840
#
# Static dielectric constant tensor:
#      x y z
#    x 2.158220 -0.109980 -0.032500 
#    y -0.109980 2.084130 0.042240 
#    z -0.032500 0.042240 1.932900 
# 
# From -- ./inp_files/597776.got.cif
#   From: 2010.05.17/outbox.cif.g08.bks.cpg/sg2_299_cif.got.tgz:597776.got - 2010.06.03 11:33:40.
