data_PCOD9057723
_publ_section_title
;
Structure prediction by ZEFSAII (Michael W. Deem and Ramdas Pophale) SiO2 
 PCOD9057723
Probable space group: P -1
;
_chemical_formula_sum "Si O2"
_cell_formula_units_Z 16
_cell_length_a 11.401932
_cell_length_b 10.272701
_cell_length_c 11.984778
_cell_angle_alpha 108.889217
_cell_angle_beta 37.651243
_cell_angle_gamma 84.217875
_cell_volume 637.960993
_symmetry_space_group_name_H-M "P -1"
_symmetry_group_IT_number 2
_symmetry_cell_setting 'triclinic'
loop_
_space_group_symop_operation_xyz
x,y,z
-x,-y,-z
loop_
_atom_site_type_symbol
_atom_site_label
_atom_site_fract_x
_atom_site_fract_y
_atom_site_fract_z
Si Si1 0.154242 0.760787 0.942399
Si Si2 0.288269 0.900155 0.693987
Si Si3 0.708515 0.114905 0.732740
Si Si4 0.801551 0.224068 0.485819
Si Si5 0.776454 0.570678 0.268943
Si Si6 0.649498 0.387797 0.009618
Si Si7 0.753136 0.792668 0.803331
Si Si8 0.971123 0.558287 0.357966
O O1 0.214767 0.737336 0.020532
O O2 0.248301 0.854065 0.833672
O O3 0.274181 0.567855 0.753608
O O4 0.868220 0.897770 0.162791
O O5 0.196020 0.824926 0.655740
O O6 0.575192 0.766648 0.432410
O O7 0.696270 0.144852 0.617911
O O8 0.603624 0.294403 0.925269
O O9 0.529480 0.076395 0.905556
O O10 0.000000 0.000000 0.500000
O O11 0.068987 0.154108 0.304413
O O12 0.604805 0.431973 0.711293
O O13 0.829706 0.570750 0.358514
O O14 0.000000 0.500000 0.000000
O O15 0.835018 0.415613 0.825190
O O16 0.802130 0.700392 0.620491
O O17 0.881580 0.631341 0.750035
#
# Coordination Sequence:
#
# PCOD9057723 Si02
#       8
#     2   2   2   2   2   2   2   2
#     4  11  25  45  70 104 140 194 244 297 365 437
#     4  11  26  46  70 106 146 193 243 302 370 432
#     4  12  27  45  68 104 149 189 236 306 373 432
#     4  12  23  47  75 103 144 190 247 301 364 442
#     4  12  24  44  73 104 146 192 244 298 365 435
#     4  12  22  45  71  99 144 191 243 301 368 431
#     4  11  25  42  75 106 139 188 249 297 361 447
#     4  11  22  43  69 109 139 185 251 300 355 438
#
# _framework density 25.079903000000002
#
# number of rings (size 3 to 8) (size 9 to 14) (size 15 to 20)
#    0.000    0.500    5.000    3.750    3.500    1.000 
#    0.000    0.000    0.000    0.000    0.000    0.000 
#    0.000    0.000    0.000    0.000    0.000    0.000 
#
# Total GULP energy -89573.410318 kJ/mol
# GULP energy per Si atom -5598.338145 kJ/mol
# Density = 2.502282 g / cm^3
# Si number density = 25.079903 Si / 1000 Ang^3
#
#
#
# Elastic Constant Matrix: (Units=GPa)
#
#
# Indices 1 2 3 4 5 6 
#
# 1 77.6950 7.0747 12.8571 -10.9672 4.1502 -24.4109
# 2 7.0747 82.4663 48.2379 -16.3061 -8.3636 -13.0590
# 3 12.8571 48.2379 163.4426 -21.9337 -25.7928 -14.4481
# 4 -10.9672 -16.3061 -21.9337 18.7885 -7.9325 -3.8956
# 5 4.1502 -8.3636 -25.7928 -7.9325 29.2927 2.1565
# 6 -24.4109 -13.0590 -14.4481 -3.8956 2.1565 42.0086
#
#
#
# Elastic Compliance Matrix: (Units=1/GPa)
#
#
# Indices 1 2 3 4 5 6 
#
# 1 0.020426 0.004995 0.003001 0.026160 0.007043 0.016519
# 2 0.004995 0.020088 0.000407 0.028326 0.012226 0.011286
# 3 0.003001 0.000407 0.012591 0.025643 0.017155 0.007698
# 4 0.026160 0.028326 0.025643 0.160555 0.067180 0.044266
# 5 0.007043 0.012226 0.017155 0.067180 0.068714 0.016496
# 6 0.016519 0.011286 0.007698 0.044266 0.016496 0.042818
#
#
# Mechanical properties :
#
#
# Convention : Reuss Voigt Hill
#
# Bulk Modulus (GPa) = 14.30398 51.10484 32.70441
# Shear Modulus (GPa) = 15.07436 35.04692 25.06064
#
# Velocity S-wave (km/s) = 2.45430 3.74225 3.16449
# Velocity P-wave (km/s) = 3.70772 6.25249 5.14008
#
# Compressibility (1/GPa) = 0.06991063
#
# Stress axis : x y z
#
# Youngs Moduli (GPa) = 48.95779 49.78152 79.42052
#
# Poissons Ratio (x) = -0.24865 -0.23837
# Poissons Ratio (y) = -0.24454 -0.03230
# Poissons Ratio (z) = -0.14694 -0.02025
#
# Static dielectric constant tensor:
#      x y z
#    x 1.921860 0.005310 -0.093680 
#    y 0.005310 1.996370 -0.005960 
#    z -0.093680 -0.005960 2.077520 
# 
# From -- ./inp_files/428318.got.cif
#   From: 2010.05.17/outbox.cif.g08.bks.cpg/sg2_215_cif.got.tgz:428318.got - 2010.06.03 11:33:40.
