data_PCOD9057435
_publ_section_title
;
Structure prediction by ZEFSAII (Michael W. Deem and Ramdas Pophale) SiO2 
 PCOD9057435
Probable space group: P -1
;
_chemical_formula_sum "Si O2"
_cell_formula_units_Z 12
_cell_length_a 14.638299
_cell_length_b 11.529087
_cell_length_c 8.915229
_cell_angle_alpha 61.065646
_cell_angle_beta 126.419434
_cell_angle_gamma 151.708020
_cell_volume 570.841957
_symmetry_space_group_name_H-M "P -1"
_symmetry_group_IT_number 2
_symmetry_cell_setting 'triclinic'
loop_
_space_group_symop_operation_xyz
x,y,z
-x,-y,-z
loop_
_atom_site_type_symbol
_atom_site_label
_atom_site_fract_x
_atom_site_fract_y
_atom_site_fract_z
Si Si1 0.000849 0.049319 0.224617
Si Si2 0.531506 0.169621 0.503715
Si Si3 0.427080 0.289217 0.146450
Si Si4 0.975768 0.756131 0.568787
Si Si5 0.588844 0.953891 0.192390
Si Si6 0.612249 0.491708 0.894464
O O1 0.024352 0.167945 0.318261
O O2 0.175706 0.260097 0.139781
O O3 0.015843 0.913163 0.387302
O O4 0.780841 0.863552 0.044383
O O5 0.370529 0.108508 0.301652
O O6 0.485757 0.113998 0.667685
O O7 0.756580 0.463056 0.516780
O O8 0.500000 0.000000 0.500000
O O9 0.501656 0.477218 0.216653
O O10 0.594123 0.424578 0.091804
O O11 0.161532 0.829433 0.704422
O O12 0.495320 0.729365 0.165823
O O13 0.500000 0.000000 0.000000
#
# Coordination Sequence:
#
# PCOD9057435 Si02
#       6
#     2   2   2   2   2   2
#     4  11  23  42  74 108 141 176 234 291 344 413
#     4  12  28  47  70 102 143 186 230 290 350 414
#     4  11  24  42  70 107 145 177 230 291 345 411
#     4  11  25  44  72 107 135 183 239 285 345 416
#     4  12  27  46  71 102 142 190 232 285 348 419
#     4  11  22  42  70 103 140 184 226 283 348 406
#
# _framework density 21.021578999999999
#
# number of rings (size 3 to 8) (size 9 to 14) (size 15 to 20)
#    0.000    0.667    3.333    4.500    2.333    5.333 
#    0.000    0.000    0.000    0.000    0.000    0.000 
#    0.000    0.000    0.000    0.000    0.000    0.000 
#
# Total GULP energy -66994.598389 kJ/mol
# GULP energy per Si atom -5582.883199 kJ/mol
# Density = 2.097373 g / cm^3
# Si number density = 21.021579 Si / 1000 Ang^3
#
#
#
# Elastic Constant Matrix: (Units=GPa)
#
#
# Indices 1 2 3 4 5 6 
#
# 1 140.1563 61.8832 67.1350 -9.3907 -20.3105 -13.3753
# 2 61.8832 94.1663 36.2727 -1.2445 -12.8280 5.7388
# 3 67.1350 36.2727 143.3755 -24.2869 0.3428 3.7426
# 4 -9.3907 -1.2445 -24.2869 35.0345 4.2085 -4.5344
# 5 -20.3105 -12.8280 0.3428 4.2085 41.0688 0.1974
# 6 -13.3753 5.7388 3.7426 -4.5344 0.1974 58.1168
#
#
#
# Elastic Compliance Matrix: (Units=1/GPa)
#
#
# Indices 1 2 3 4 5 6 
#
# 1 0.013328 -0.006580 -0.004681 0.000066 0.004549 0.004008
# 2 -0.006580 0.015891 -0.001331 -0.002782 0.002021 -0.003222
# 3 -0.004681 -0.001331 0.010612 0.006325 -0.003462 -0.001124
# 4 0.000066 -0.002782 0.006325 0.033697 -0.004354 0.002527
# 5 0.004549 0.002021 -0.003462 -0.004354 0.027703 0.000637
# 6 0.004008 -0.003222 -0.001124 0.002527 0.000637 0.018715
#
#
# Mechanical properties :
#
#
# Convention : Reuss Voigt Hill
#
# Bulk Modulus (GPa) = 68.26641 78.69777 73.48209
# Shear Modulus (GPa) = 33.33063 41.00451 37.16757
#
# Velocity S-wave (km/s) = 3.98621 4.42134 4.20940
# Velocity P-wave (km/s) = 7.33017 7.97385 7.65878
#
# Compressibility (1/GPa) = 0.01464849
#
# Stress axis : x y z
#
# Youngs Moduli (GPa) = 75.02901 62.92780 94.23070
#
# Poissons Ratio (x) = 0.41404 0.44105
# Poissons Ratio (y) = 0.49366 0.12546
# Poissons Ratio (z) = 0.35118 0.08378
#
# Static dielectric constant tensor:
#      x y z
#    x 1.749210 0.022820 0.012960 
#    y 0.022820 1.783960 0.028850 
#    z 0.012960 0.028850 1.787970 
# 
# From -- ./inp_files/191738.got.cif
#   From: 2010.05.17/outbox.cif.g08.bks.cpg/sg2_96_cif.got.tgz:191738.got - 2010.06.03 11:33:40.
