data_PCOD9057840
_publ_section_title
;
Structure prediction by ZEFSAII (Michael W. Deem and Ramdas Pophale) SiO2 
 PCOD9057840
Probable space group: P -1
;
_chemical_formula_sum "Si O2"
_cell_formula_units_Z 16
_cell_length_a 11.630281
_cell_length_b 10.177060
_cell_length_c 8.013366
_cell_angle_alpha 103.530675
_cell_angle_beta 125.834339
_cell_angle_gamma 53.330556
_cell_volume 606.931232
_symmetry_space_group_name_H-M "P -1"
_symmetry_group_IT_number 2
_symmetry_cell_setting 'triclinic'
loop_
_space_group_symop_operation_xyz
x,y,z
-x,-y,-z
loop_
_atom_site_type_symbol
_atom_site_label
_atom_site_fract_x
_atom_site_fract_y
_atom_site_fract_z
Si Si1 0.173939 0.544997 0.364358
Si Si2 0.852713 0.994516 0.465979
Si Si3 0.756884 0.248086 0.757997
Si Si4 0.866124 0.588188 0.258332
Si Si5 0.006519 0.231223 0.189247
Si Si6 0.489492 0.195510 0.108642
Si Si7 0.343605 0.159912 0.313304
Si Si8 0.452082 0.525371 0.775163
O O1 0.209808 0.628903 0.271785
O O2 0.268047 0.347177 0.369452
O O3 0.257502 0.580072 0.600519
O O4 0.969066 0.632076 0.236495
O O5 0.782520 0.121229 0.602708
O O6 0.693913 0.044520 0.222626
O O7 0.926608 0.828158 0.583450
O O8 0.000000 0.000000 0.500000
O O9 0.567613 0.361530 0.712589
O O10 0.888614 0.175717 0.004182
O O11 0.000000 0.500000 0.500000
O O12 0.884583 0.430807 0.143598
O O13 0.659718 0.732838 0.139689
O O14 0.174413 0.159510 0.193660
O O15 0.414312 0.154149 0.188153
O O16 0.511012 0.342917 0.211903
O O17 0.500000 0.000000 0.500000
O O18 0.500000 0.500000 0.000000
#
# Coordination Sequence:
#
# PCOD9057840 Si02
#       8
#     2   2   2   2   2   2   2   2
#     4  11  23  42  72 108 144 194 252 317 371 449
#     4  12  29  47  74 113 159 197 250 318 389 455
#     4  12  24  45  76 106 146 199 250 313 378 447
#     4  11  25  45  75 104 146 196 259 311 377 446
#     4  11  25  46  69 110 151 197 253 314 377 455
#     4  12  23  48  77 107 148 198 252 315 377 452
#     4  11  22  43  72 105 151 200 254 306 377 459
#     4  12  25  42  78 115 145 186 259 317 375 445
#
# _framework density 26.362128999999999
#
# number of rings (size 3 to 8) (size 9 to 14) (size 15 to 20)
#    0.000    0.500    5.000    3.000    3.500    2.000 
#    0.000    1.875    0.000    0.000    0.000    0.000 
#    0.000    0.000    0.000    0.000    0.000    0.000 
#
# Total GULP energy -89608.043795 kJ/mol
# GULP energy per Si atom -5600.502737 kJ/mol
# Density = 2.630213 g / cm^3
# Si number density = 26.362129 Si / 1000 Ang^3
#
#
#
# Elastic Constant Matrix: (Units=GPa)
#
#
# Indices 1 2 3 4 5 6 
#
# 1 128.3402 21.5224 19.4706 -22.2127 13.6510 -12.9277
# 2 21.5224 105.6448 20.3317 -2.4616 9.1788 -2.9988
# 3 19.4706 20.3317 143.2284 -28.8424 20.1511 -6.4222
# 4 -22.2127 -2.4616 -28.8424 43.7778 -6.7548 1.9583
# 5 13.6510 9.1788 20.1511 -6.7548 50.9210 -3.5328
# 6 -12.9277 -2.9988 -6.4222 1.9583 -3.5328 34.4351
#
#
#
# Elastic Compliance Matrix: (Units=1/GPa)
#
#
# Indices 1 2 3 4 5 6 
#
# 1 0.009244 -0.001606 0.000192 0.004365 -0.001480 0.002966
# 2 -0.001606 0.010109 -0.001329 -0.001282 -0.001036 -0.000004
# 3 0.000192 -0.001329 0.008593 0.005262 -0.002444 0.001009
# 4 0.004365 -0.001282 0.005262 0.028537 0.000831 0.000971
# 5 -0.001480 -0.001036 -0.002444 0.000831 0.021372 0.001044
# 6 0.002966 -0.000004 0.001009 0.000971 0.001044 0.030393
#
#
# Mechanical properties :
#
#
# Convention : Reuss Voigt Hill
#
# Bulk Modulus (GPa) = 44.52559 55.54028 50.03293
# Shear Modulus (GPa) = 41.24728 46.88604 44.06666
#
# Velocity S-wave (km/s) = 3.95985 4.22185 4.09294
# Velocity P-wave (km/s) = 6.15092 6.69920 6.43091
#
# Compressibility (1/GPa) = 0.02245900
#
# Stress axis : x y z
#
# Youngs Moduli (GPa) = 108.18253 98.92551 116.37105
#
# Poissons Ratio (x) = 0.15883 -0.02229
# Poissons Ratio (y) = 0.17369 0.15468
# Poissons Ratio (z) = -0.02072 0.13149
#
# Static dielectric constant tensor:
#      x y z
#    x 2.073320 -0.016120 -0.060330 
#    y -0.016120 2.141690 -0.029880 
#    z -0.060330 -0.029880 2.144110 
# 
# From -- ./inp_files/259118.got.cif
#   From: 2010.05.17/outbox.cif.g08.bks.cpg/sg2_130_cif.got.tgz:259118.got - 2010.06.03 11:33:40.
