data_PCOD9057469
_publ_section_title
;
Structure prediction by ZEFSAII (Michael W. Deem and Ramdas Pophale) SiO2 
 PCOD9057469
Probable space group: P -1
;
_chemical_formula_sum "Si O2"
_cell_formula_units_Z 14
_cell_length_a 26.566752
_cell_length_b 9.758834
_cell_length_c 10.481087
_cell_angle_alpha 45.539509
_cell_angle_beta 154.199376
_cell_angle_gamma 144.801013
_cell_volume 674.952092
_symmetry_space_group_name_H-M "P -1"
_symmetry_group_IT_number 2
_symmetry_cell_setting 'triclinic'
loop_
_space_group_symop_operation_xyz
x,y,z
-x,-y,-z
loop_
_atom_site_type_symbol
_atom_site_label
_atom_site_fract_x
_atom_site_fract_y
_atom_site_fract_z
Si Si1 0.692379 0.366320 0.242116
Si Si2 0.925938 0.991058 0.970544
Si Si3 0.807770 0.556232 0.663658
Si Si4 0.788539 0.269967 0.041325
Si Si5 0.358337 0.223359 0.854283
Si Si6 0.895856 0.591727 0.322729
Si Si7 0.378646 0.129604 0.682333
O O1 0.748819 0.444510 0.463490
O O2 0.809385 0.530863 0.295044
O O3 0.652752 0.104300 0.301769
O O4 0.546228 0.344614 0.898200
O O5 0.755419 0.865502 0.656493
O O6 0.018193 0.267015 0.045528
O O7 0.941489 0.838203 0.206514
O O8 0.000000 0.000000 0.000000
O O9 0.762763 0.733831 0.462774
O O10 0.748661 0.367965 0.767981
O O11 0.799460 0.393945 0.120666
O O12 0.956058 0.375366 0.337018
O O13 0.688130 0.979924 0.013613
O O14 0.372092 0.110668 0.832427
O O15 0.500000 0.500000 0.000000
#
# Coordination Sequence:
#
# PCOD9057469 Si02
#       7
#     2   2   2   2   2   2   2
#     4  11  26  44  66 102 148 183 221 295 363 410
#     4  12  22  41  74 104 134 183 244 289 333 414
#     4  12  25  44  71 108 138 181 237 295 343 407
#     4  11  23  42  74 103 135 187 238 284 346 418
#     4  12  23  45  72 100 139 184 240 286 333 424
#     4  11  22  42  71 103 138 185 235 285 352 421
#     4  11  23  45  68  95 145 190 221 286 360 417
#
# _framework density 20.742213
#
# number of rings (size 3 to 8) (size 9 to 14) (size 15 to 20)
#    0.000    0.571    7.143    0.857    0.000    4.000 
#    2.571    1.429    0.000    0.000    0.000    0.000 
#    0.000    0.000    0.000    0.000    0.000    0.000 
#
# Total GULP energy -78100.983983 kJ/mol
# GULP energy per Si atom -5578.641713 kJ/mol
# Density = 2.069500 g / cm^3
# Si number density = 20.742213 Si / 1000 Ang^3
#
#
#
# Elastic Constant Matrix: (Units=GPa)
#
#
# Indices 1 2 3 4 5 6 
#
# 1 113.7995 40.3040 42.8823 10.8848 -4.6467 1.1176
# 2 40.3040 125.5603 41.7533 0.0476 -23.5303 16.7381
# 3 42.8823 41.7533 82.3003 8.9279 -1.6314 6.8043
# 4 10.8848 0.0476 8.9279 34.7977 -4.1610 -10.2205
# 5 -4.6467 -23.5303 -1.6314 -4.1610 26.8981 -0.1588
# 6 1.1176 16.7381 6.8043 -10.2205 -0.1588 33.6609
#
#
#
# Elastic Compliance Matrix: (Units=1/GPa)
#
#
# Indices 1 2 3 4 5 6 
#
# 1 0.011580 -0.002460 -0.004655 -0.002190 -0.000766 0.001111
# 2 -0.002460 0.013105 -0.004962 0.001933 0.011009 -0.004793
# 3 -0.004655 -0.004962 0.017655 -0.004303 -0.004754 -0.002276
# 4 -0.002190 0.001933 -0.004303 0.034360 0.006429 0.010444
# 5 -0.000766 0.011009 -0.004754 0.006429 0.047369 -0.002313
# 6 0.001111 -0.004793 -0.002276 0.010444 -0.002313 0.035675
#
#
# Mechanical properties :
#
#
# Convention : Reuss Voigt Hill
#
# Bulk Modulus (GPa) = 54.99018 63.50437 59.24727
# Shear Modulus (GPa) = 26.32125 32.18604 29.25364
#
# Velocity S-wave (km/s) = 3.56613 3.94346 3.75953
# Velocity P-wave (km/s) = 6.59736 7.17056 6.88992
#
# Compressibility (1/GPa) = 0.01818507
#
# Stress axis : x y z
#
# Youngs Moduli (GPa) = 86.35509 76.30402 56.64275
#
# Poissons Ratio (x) = 0.18770 0.26369
# Poissons Ratio (y) = 0.21243 0.28108
# Poissons Ratio (z) = 0.40201 0.37864
#
# Static dielectric constant tensor:
#      x y z
#    x 1.736270 0.006060 0.051250 
#    y 0.006060 1.792620 0.088760 
#    z 0.051250 0.088760 1.842210 
# 
# From -- ./inp_files/186305.got.cif
#   From: 2010.05.17/outbox.cif.g08.bks.cpg/sg2_94_cif.got.tgz:186305.got - 2010.06.03 11:33:40.
