data_PCOD9057527
_publ_section_title
;
Structure prediction by ZEFSAII (Michael W. Deem and Ramdas Pophale) SiO2 
 PCOD9057527
Probable space group: P -1
;
_chemical_formula_sum "Si O2"
_cell_formula_units_Z 14
_cell_length_a 5.080667
_cell_length_b 8.687750
_cell_length_c 16.378820
_cell_angle_alpha 116.074429
_cell_angle_beta 86.484612
_cell_angle_gamma 101.585661
_cell_volume 635.845248
_symmetry_space_group_name_H-M "P -1"
_symmetry_group_IT_number 2
_symmetry_cell_setting 'triclinic'
loop_
_space_group_symop_operation_xyz
x,y,z
-x,-y,-z
loop_
_atom_site_type_symbol
_atom_site_label
_atom_site_fract_x
_atom_site_fract_y
_atom_site_fract_z
Si Si1 0.935585 0.481350 0.362158
Si Si2 0.238025 0.501268 0.058035
Si Si3 0.354399 0.650410 0.254878
Si Si4 0.836564 0.741428 0.562323
Si Si5 0.583973 0.025866 0.409763
Si Si6 0.029392 0.169496 0.093835
Si Si7 0.535567 0.301785 0.206649
O O1 0.112672 0.578425 0.306473
O O2 0.120811 0.382206 0.391522
O O3 0.830493 0.620368 0.453931
O O4 0.686358 0.342964 0.299187
O O5 0.265386 0.649655 0.162002
O O6 0.500000 0.500000 0.000000
O O7 0.170019 0.325354 0.070018
O O8 0.000000 0.500000 0.000000
O O9 0.505204 0.838818 0.324376
O O10 0.531842 0.499025 0.221516
O O11 0.586085 0.836208 0.589550
O O12 0.103653 0.890893 0.585056
O O13 0.500000 0.000000 0.500000
O O14 0.764946 0.809808 0.827748
O O15 0.739809 0.206613 0.131652
O O16 0.000000 0.000000 0.000000
#
# Coordination Sequence:
#
# PCOD9057527 Si02
#       7
#     2   2   2   2   2   2   2
#     4  11  24  46  72  97 141 185 234 271 346 409
#     4  11  24  45  65  98 131 176 228 278 341 411
#     4  11  25  44  76  93 139 191 222 280 349 414
#     4  11  28  42  69 105 142 181 229 288 324 412
#     4  12  25  46  68 107 143 180 230 280 348 401
#     4  11  24  45  71  97 132 173 228 287 347 404
#     4  11  22  42  72  99 127 181 232 262 349 413
#
# _framework density 22.017935999999999
#
# number of rings (size 3 to 8) (size 9 to 14) (size 15 to 20)
#    0.000    0.857    4.286    3.429    4.000    1.143 
#    7.714    0.000    0.000    0.000    0.000    0.000 
#    0.000    0.000    0.000    0.000    0.000    0.000 
#
# Total GULP energy -78320.040275 kJ/mol
# GULP energy per Si atom -5594.288591 kJ/mol
# Density = 2.196782 g / cm^3
# Si number density = 22.017936 Si / 1000 Ang^3
#
#
#
# Elastic Constant Matrix: (Units=GPa)
#
#
# Indices 1 2 3 4 5 6 
#
# 1 94.5662 3.0537 39.8870 -6.1324 -4.8512 -15.7315
# 2 3.0537 36.0385 33.1253 -1.1729 -0.0295 -2.0181
# 3 39.8870 33.1253 185.6795 20.5997 19.4997 -8.5129
# 4 -6.1324 -1.1729 20.5997 47.7262 -0.9377 -5.3226
# 5 -4.8512 -0.0295 19.4997 -0.9377 32.2646 2.1413
# 6 -15.7315 -2.0181 -8.5129 -5.3226 2.1413 33.5281
#
#
#
# Elastic Compliance Matrix: (Units=1/GPa)
#
#
# Indices 1 2 3 4 5 6 
#
# 1 0.013743 0.003165 -0.004185 0.004404 0.004328 0.005999
# 2 0.003165 0.035083 -0.007964 0.005038 0.005333 0.002034
# 3 -0.004185 -0.007964 0.008844 -0.004733 -0.006082 -0.000561
# 4 0.004404 0.005038 -0.004733 0.024295 0.003916 0.004775
# 5 0.004328 0.005333 -0.006082 0.003916 0.035494 -0.000837
# 6 0.005999 0.002034 -0.000561 0.004775 -0.000837 0.033432
#
#
# Mechanical properties :
#
#
# Convention : Reuss Voigt Hill
#
# Bulk Modulus (GPa) = 25.18852 52.04625 38.61738
# Shear Modulus (GPa) = 27.45853 38.71834 33.08843
#
# Velocity S-wave (km/s) = 3.53526 4.19799 3.88079
# Velocity P-wave (km/s) = 5.30367 6.86927 6.13660
#
# Compressibility (1/GPa) = 0.03970062
#
# Stress axis : x y z
#
# Youngs Moduli (GPa) = 72.76324 28.50405 113.07726
#
# Poissons Ratio (x) = -0.09022 0.47323
# Poissons Ratio (y) = -0.23030 0.90059
# Poissons Ratio (z) = 0.30452 0.22702
#
# Static dielectric constant tensor:
#      x y z
#    x 1.832860 -0.014420 0.053560 
#    y -0.014420 1.787380 -0.051840 
#    z 0.053560 -0.051840 1.844790 
# 
# From -- ./inp_files/548401.got.cif
#   From: 2010.05.17/outbox.cif.g08.bks.cpg/sg2_275_cif.got.tgz:548401.got - 2010.06.03 11:33:40.
