data_PCOD9057754
_publ_section_title
;
Structure prediction by ZEFSAII (Michael W. Deem and Ramdas Pophale) SiO2 
 PCOD9057754
Probable space group: P -1
;
_chemical_formula_sum "Si O2"
_cell_formula_units_Z 14
_cell_length_a 8.119331
_cell_length_b 10.893072
_cell_length_c 9.731898
_cell_angle_alpha 97.582241
_cell_angle_beta 63.001150
_cell_angle_gamma 129.381598
_cell_volume 577.360386
_symmetry_space_group_name_H-M "P -1"
_symmetry_group_IT_number 2
_symmetry_cell_setting 'triclinic'
loop_
_space_group_symop_operation_xyz
x,y,z
-x,-y,-z
loop_
_atom_site_type_symbol
_atom_site_label
_atom_site_fract_x
_atom_site_fract_y
_atom_site_fract_z
Si Si1 0.359588 0.897173 0.811471
Si Si2 0.821995 0.345613 0.942916
Si Si3 0.565095 0.613105 0.359359
Si Si4 0.711833 0.286373 0.675391
Si Si5 0.252342 0.088318 0.490432
Si Si6 0.945025 0.228460 0.346967
Si Si7 0.494028 0.419665 0.128566
O O1 0.255987 0.820516 0.989574
O O2 0.535965 0.861669 0.686680
O O3 0.124410 0.779087 0.784478
O O4 0.506812 0.091035 0.764221
O O5 0.577435 0.321555 0.040192
O O6 0.876067 0.368851 0.763185
O O7 0.000000 0.500000 0.000000
O O8 0.500000 0.500000 0.500000
O O9 0.396449 0.631243 0.329021
O O10 0.717523 0.782922 0.403473
O O11 0.658843 0.555704 0.203475
O O12 0.868082 0.300833 0.492231
O O13 0.230816 0.960127 0.575253
O O14 0.000000 0.000000 0.500000
O O15 0.221104 0.307019 0.273355
O O16 0.500000 0.500000 0.000000
#
# Coordination Sequence:
#
# PCOD9057754 Si02
#       7
#     2   2   2   2   2   2   2
#     4  11  22  44  74 104 141 185 237 296 354 419
#     4  12  27  48  71 103 149 191 232 291 361 421
#     4  12  24  44  71 106 145 183 237 289 355 419
#     4  11  24  47  73 107 140 187 244 288 355 423
#     4  11  22  43  70 109 139 181 239 295 352 424
#     4  11  23  45  77 103 137 186 239 299 349 422
#     4  12  27  47  68 106 148 186 236 293 356 421
#
# _framework density 24.248287999999999
#
# number of rings (size 3 to 8) (size 9 to 14) (size 15 to 20)
#    0.000    0.571    4.286    4.714    0.000    5.143 
#    0.000    5.714    0.000    0.000    0.000    0.000 
#    0.000    0.000    0.000    0.000    0.000    0.000 
#
# Total GULP energy -78208.714628 kJ/mol
# GULP energy per Si atom -5586.336759 kJ/mol
# Density = 2.419310 g / cm^3
# Si number density = 24.248288 Si / 1000 Ang^3
#
#
#
# Elastic Constant Matrix: (Units=GPa)
#
#
# Indices 1 2 3 4 5 6 
#
# 1 68.8093 5.8059 13.2130 -0.5235 19.7597 -0.5670
# 2 5.8059 90.8647 22.5936 11.0488 17.1263 -1.6987
# 3 13.2130 22.5936 103.5391 5.1267 38.2815 -13.7509
# 4 -0.5235 11.0488 5.1267 48.0130 -0.2277 7.8542
# 5 19.7597 17.1263 38.2815 -0.2277 57.3301 3.0672
# 6 -0.5670 -1.6987 -13.7509 7.8542 3.0672 38.1534
#
#
#
# Elastic Compliance Matrix: (Units=1/GPa)
#
#
# Indices 1 2 3 4 5 6 
#
# 1 0.016149 0.000022 0.000145 0.000006 -0.005709 0.000751
# 2 0.000022 0.012234 -0.001388 -0.002819 -0.002792 0.000850
# 3 0.000145 -0.001388 0.014479 -0.002320 -0.009656 0.006413
# 4 0.000006 -0.002819 -0.002320 0.022696 0.002793 -0.005858
# 5 -0.005709 -0.002792 -0.009656 0.002793 0.027048 -0.006439
# 6 0.000751 0.000850 0.006413 -0.005858 -0.006439 0.030294
#
#
# Mechanical properties :
#
#
# Convention : Reuss Voigt Hill
#
# Bulk Modulus (GPa) = 24.74038 38.49312 31.61675
# Shear Modulus (GPa) = 36.01911 43.47268 39.74589
#
# Velocity S-wave (km/s) = 3.85831 4.23876 4.05300
# Velocity P-wave (km/s) = 5.48396 6.31388 5.91350
#
# Compressibility (1/GPa) = 0.04041976
#
# Stress axis : x y z
#
# Youngs Moduli (GPa) = 61.92321 81.73960 69.06503
#
# Poissons Ratio (x) = -0.00176 -0.01000
# Poissons Ratio (y) = -0.00134 0.09583
# Poissons Ratio (z) = -0.00897 0.11342
#
# Static dielectric constant tensor:
#      x y z
#    x 2.118630 -0.097900 0.051030 
#    y -0.097900 2.075720 -0.039180 
#    z 0.051030 -0.039180 2.017290 
# 
# From -- ./inp_files/180103.got.cif
#   From: 2010.05.17/outbox.cif.g08.bks.cpg/sg2_91_cif.got.tgz:180103.got - 2010.06.03 11:33:40.
