data_PCOD9057830
_publ_section_title
;
Structure prediction by ZEFSAII (Michael W. Deem and Ramdas Pophale) SiO2 
 PCOD9057830
Probable space group: P -1
;
_chemical_formula_sum "Si O2"
_cell_formula_units_Z 16
_cell_length_a 12.141574
_cell_length_b 9.284788
_cell_length_c 17.569223
_cell_angle_alpha 148.110907
_cell_angle_beta 129.077806
_cell_angle_gamma 53.076042
_cell_volume 801.808187
_symmetry_space_group_name_H-M "P -1"
_symmetry_group_IT_number 2
_symmetry_cell_setting 'triclinic'
loop_
_space_group_symop_operation_xyz
x,y,z
-x,-y,-z
loop_
_atom_site_type_symbol
_atom_site_label
_atom_site_fract_x
_atom_site_fract_y
_atom_site_fract_z
Si Si1 0.846328 0.840426 0.662257
Si Si2 0.118783 0.200029 0.625043
Si Si3 0.697527 0.699456 0.688802
Si Si4 0.858378 0.448952 0.957348
Si Si5 0.648606 0.032580 0.117819
Si Si6 0.979122 0.701117 0.882667
Si Si7 0.619289 0.137015 0.330705
Si Si8 0.172388 0.523627 0.649578
O O1 0.777273 0.809454 0.700798
O O2 0.791283 0.637045 0.486200
O O3 0.017044 0.722142 0.676994
O O4 0.814267 0.167400 0.778409
O O5 0.164318 0.272513 0.592419
O O6 0.040646 0.490509 0.750343
O O7 0.261003 0.102495 0.691938
O O8 0.000000 0.000000 0.500000
O O9 0.809081 0.681431 0.800090
O O10 0.663014 0.405519 0.512434
O O11 0.544578 0.876234 0.723087
O O12 0.000000 0.500000 0.000000
O O13 0.920824 0.380500 0.038162
O O14 0.745365 0.728710 0.027940
O O15 0.630665 0.138918 0.245215
O O16 0.719000 0.256176 0.199592
O O17 0.500000 0.000000 0.000000
O O18 0.000000 0.000000 0.000000
#
# Coordination Sequence:
#
# PCOD9057830 Si02
#       8
#     2   2   2   2   2   2   2   2
#     4  11  22  43  72 102 134 179 233 290 345 407
#     4  12  24  44  72 106 133 181 241 286 344 414
#     4  11  23  44  71 101 138 177 229 289 346 405
#     4  12  26  42  70 105 138 178 234 286 344 416
#     4  12  28  49  67 101 148 189 225 286 361 416
#     4  12  24  42  71 102 137 176 233 287 341 413
#     4  11  25  45  70 100 140 182 229 284 347 418
#     4  11  24  44  73 100 141 180 234 290 349 412
#
# _framework density 19.954896999999999
#
# number of rings (size 3 to 8) (size 9 to 14) (size 15 to 20)
#    0.000    0.500    7.500    0.000    5.250    1.000 
#    2.250    3.125    0.000    0.000    0.000    0.000 
#    0.000    0.000    0.000    0.000    0.000    0.000 
#
# Total GULP energy -89236.010319 kJ/mol
# GULP energy per Si atom -5577.250645 kJ/mol
# Density = 1.990948 g / cm^3
# Si number density = 19.954897 Si / 1000 Ang^3
#
#
#
# Elastic Constant Matrix: (Units=GPa)
#
#
# Indices 1 2 3 4 5 6 
#
# 1 93.2900 45.6450 38.4972 10.2774 7.0846 -12.3231
# 2 45.6450 114.4191 46.3989 -2.8170 12.0080 -15.3432
# 3 38.4972 46.3989 115.5659 10.4397 16.3265 -10.3978
# 4 10.2774 -2.8170 10.4397 27.7783 -2.1925 6.4810
# 5 7.0846 12.0080 16.3265 -2.1925 25.3088 -2.9746
# 6 -12.3231 -15.3432 -10.3978 6.4810 -2.9746 36.5577
#
#
#
# Elastic Compliance Matrix: (Units=1/GPa)
#
#
# Indices 1 2 3 4 5 6 
#
# 1 0.015139 -0.004771 -0.002156 -0.006152 -0.000703 0.003521
# 2 -0.004771 0.012544 -0.003340 0.003699 -0.001919 0.001895
# 3 -0.002156 -0.003340 0.012147 -0.004974 -0.005876 0.001730
# 4 -0.006152 0.003699 -0.004974 0.043104 0.005840 -0.009102
# 5 -0.000703 -0.001919 -0.005876 0.005840 0.044904 -0.000095
# 6 0.003521 0.001895 0.001730 -0.009102 -0.000095 0.031434
#
#
# Mechanical properties :
#
#
# Convention : Reuss Voigt Hill
#
# Bulk Modulus (GPa) = 51.81999 64.92859 58.37429
# Shear Modulus (GPa) = 26.84735 30.77789 28.81262
#
# Velocity S-wave (km/s) = 3.67195 3.93157 3.80397
# Velocity P-wave (km/s) = 6.63344 7.29506 6.97210
#
# Compressibility (1/GPa) = 0.01929757
#
# Stress axis : x y z
#
# Youngs Moduli (GPa) = 66.05264 79.72095 82.32414
#
# Poissons Ratio (x) = 0.38033 0.17749
# Poissons Ratio (y) = 0.31512 0.27493
# Poissons Ratio (z) = 0.14241 0.26623
#
# Static dielectric constant tensor:
#      x y z
#    x 1.531450 -0.163400 -0.046060 
#    y -0.163400 1.367580 -0.168090 
#    z -0.046060 -0.168090 1.622540 
# 
# From -- ./inp_files/244253.got.cif
#   From: 2010.05.17/outbox.cif.g08.bks.cpg/sg2_123_cif.got.tgz:244253.got - 2010.06.03 11:33:40.
