data_PCOD9057452
_publ_section_title
;
Structure prediction by ZEFSAII (Michael W. Deem and Ramdas Pophale) SiO2 
 PCOD9057452
Probable space group: P -1
;
_chemical_formula_sum "Si O2"
_cell_formula_units_Z 14
_cell_length_a 11.403789
_cell_length_b 5.429614
_cell_length_c 12.802495
_cell_angle_alpha 81.530397
_cell_angle_beta 111.615679
_cell_angle_gamma 130.989239
_cell_volume 551.232088
_symmetry_space_group_name_H-M "P -1"
_symmetry_group_IT_number 2
_symmetry_cell_setting 'triclinic'
loop_
_space_group_symop_operation_xyz
x,y,z
-x,-y,-z
loop_
_atom_site_type_symbol
_atom_site_label
_atom_site_fract_x
_atom_site_fract_y
_atom_site_fract_z
Si Si1 0.622736 0.585223 0.174675
Si Si2 0.070854 0.974578 0.630106
Si Si3 0.334357 0.503842 0.145632
Si Si4 0.932411 0.077596 0.783136
Si Si5 0.496323 0.732949 0.407113
Si Si6 0.778945 0.257870 0.587490
Si Si7 0.732246 0.267366 0.086669
O O1 0.426964 0.382555 0.135263
O O2 0.662164 0.383176 0.139029
O O3 0.731565 0.736515 0.308180
O O4 0.687352 0.924762 0.118515
O O5 0.971913 0.585126 0.621634
O O6 0.000000 0.000000 0.500000
O O7 0.004490 0.022621 0.710864
O O8 0.445373 0.688128 0.273113
O O9 0.148830 0.208497 0.141751
O O10 0.330153 0.713610 0.045995
O O11 0.782310 0.042999 0.686683
O O12 0.070039 0.430197 0.858038
O O13 0.500000 0.500000 0.500000
O O14 0.347036 0.700056 0.412399
O O15 0.687924 0.071898 0.461988
#
# Coordination Sequence:
#
# PCOD9057452 Si02
#       7
#     2   2   2   2   2   2   2
#     4  11  27  47  73 107 150 190 242 301 363 428
#     4  11  25  44  68 102 145 190 233 292 366 438
#     4  12  25  45  75 103 140 191 243 301 358 431
#     4  11  24  46  71 106 139 182 247 300 355 429
#     4  11  24  41  65 103 143 172 231 300 356 416
#     4  11  22  42  70  96 143 181 232 294 357 425
#     4  11  26  52  70 107 147 194 242 300 362 432
#
# _framework density 25.397651
#
# number of rings (size 3 to 8) (size 9 to 14) (size 15 to 20)
#    0.000    0.857    4.286    1.286    4.000    5.143 
#    0.000    2.857    0.000    0.000    0.000    0.000 
#    0.000    0.000    0.000    0.000    0.000    0.000 
#
# Total GULP energy -78282.148777 kJ/mol
# GULP energy per Si atom -5591.582055 kJ/mol
# Density = 2.533984 g / cm^3
# Si number density = 25.397651 Si / 1000 Ang^3
#
#
#
# Elastic Constant Matrix: (Units=GPa)
#
#
# Indices 1 2 3 4 5 6 
#
# 1 65.3686 -2.3371 10.3250 1.8843 10.7228 -3.7893
# 2 -2.3371 62.8300 33.5397 18.9470 -10.9614 6.6272
# 3 10.3250 33.5397 166.1174 14.5360 15.7904 -4.2624
# 4 1.8843 18.9470 14.5360 35.2894 3.7773 9.2674
# 5 10.7228 -10.9614 15.7904 3.7773 32.9790 0.9002
# 6 -3.7893 6.6272 -4.2624 9.2674 0.9002 33.7978
#
#
#
# Elastic Compliance Matrix: (Units=1/GPa)
#
#
# Indices 1 2 3 4 5 6 
#
# 1 0.016342 -0.000103 -0.000394 -0.000662 -0.005141 0.002121
# 2 -0.000103 0.024556 -0.005144 -0.011669 0.012066 -0.002597
# 3 -0.000394 -0.005144 0.007674 -0.000386 -0.005271 0.002178
# 4 -0.000662 -0.011669 -0.000386 0.037701 -0.007579 -0.007971
# 5 -0.005141 0.012066 -0.005271 -0.007579 0.039466 -0.002580
# 6 0.002121 -0.002597 0.002178 -0.007971 -0.002580 0.032864
#
#
# Mechanical properties :
#
#
# Convention : Reuss Voigt Hill
#
# Bulk Modulus (GPa) = 26.81703 41.93013 34.37358
# Shear Modulus (GPa) = 27.42519 37.26581 32.34550
#
# Velocity S-wave (km/s) = 3.28964 3.83468 3.57257
# Velocity P-wave (km/s) = 5.00108 6.01263 5.53003
#
# Compressibility (1/GPa) = 0.03728973
#
# Stress axis : x y z
#
# Youngs Moduli (GPa) = 61.19298 40.72331 130.31682
#
# Poissons Ratio (x) = 0.00419 0.05133
# Poissons Ratio (y) = 0.00630 0.67034
# Poissons Ratio (z) = 0.02410 0.20948
#
# Static dielectric constant tensor:
#      x y z
#    x 2.082090 0.024900 -0.040390 
#    y 0.024900 2.137760 0.010420 
#    z -0.040390 0.010420 2.010230 
# 
# From -- ./inp_files/70218.got.cif
#   From: 2010.05.17/outbox.cif.g08.bks.cpg/sg2_36_cif.got.tgz:70218.got - 2010.06.03 11:33:40.
