data_PCOD9057196
_publ_section_title
;
Structure prediction by ZEFSAII (Michael W. Deem and Ramdas Pophale) SiO2 
 PCOD9057196
Probable space group: P -1
;
_chemical_formula_sum "Si O2"
_cell_formula_units_Z 14
_cell_length_a 8.154229
_cell_length_b 12.246960
_cell_length_c 13.240705
_cell_angle_alpha 40.850931
_cell_angle_beta 94.458306
_cell_angle_gamma 124.068271
_cell_volume 551.358102
_symmetry_space_group_name_H-M "P -1"
_symmetry_group_IT_number 2
_symmetry_cell_setting 'triclinic'
loop_
_space_group_symop_operation_xyz
x,y,z
-x,-y,-z
loop_
_atom_site_type_symbol
_atom_site_label
_atom_site_fract_x
_atom_site_fract_y
_atom_site_fract_z
Si Si1 0.750966 0.650989 0.018541
Si Si2 0.039322 0.635929 0.802247
Si Si3 0.181692 0.111012 0.834530
Si Si4 0.361054 0.212898 0.468111
Si Si5 0.542130 0.280614 0.086228
Si Si6 0.243228 0.736006 0.527346
Si Si7 0.766156 0.578092 0.548594
O O1 0.513468 0.410021 0.244407
O O2 0.697867 0.521981 0.001054
O O3 0.708053 0.814780 0.890341
O O4 0.030656 0.856235 0.937408
O O5 0.189419 0.674673 0.687704
O O6 0.739532 0.411179 0.913254
O O7 0.168546 0.916412 0.631859
O O8 0.000000 0.500000 0.000000
O O9 0.472635 0.284318 0.750701
O O10 0.209196 0.305135 0.638108
O O11 0.000000 0.000000 0.000000
O O12 0.596620 0.300554 0.475610
O O13 0.222218 0.254859 0.489582
O O14 0.448495 0.043822 0.303658
O O15 0.981499 0.603668 0.558280
#
# Coordination Sequence:
#
# PCOD9057196 Si02
#       7
#     2   2   2   2   2   2   2
#     4  11  22  41  72  99 142 184 226 295 351 403
#     4  12  24  39  65 104 150 189 222 287 364 406
#     4  11  23  46  73  99 143 182 235 295 343 409
#     4  12  24  44  69 104 142 183 233 287 347 427
#     4  11  23  41  68 107 142 179 233 291 349 427
#     4  12  25  45  69 106 147 179 236 291 342 426
#     4  11  26  45  74 101 132 195 233 282 357 407
#
# _framework density 25.391846999999999
#
# number of rings (size 3 to 8) (size 9 to 14) (size 15 to 20)
#    0.000    0.571    5.714    3.000    2.000    1.143 
#    0.000    3.571    0.000    0.000    0.000    0.000 
#    0.000    0.000    0.000    0.000    0.000    0.000 
#
# Total GULP energy -78291.331402 kJ/mol
# GULP energy per Si atom -5592.237957 kJ/mol
# Density = 2.533405 g / cm^3
# Si number density = 25.391847 Si / 1000 Ang^3
#
#
#
# Elastic Constant Matrix: (Units=GPa)
#
#
# Indices 1 2 3 4 5 6 
#
# 1 94.8970 4.4774 14.2955 4.0681 -12.4409 23.3781
# 2 4.4774 67.9904 28.0858 -21.7764 -7.7228 11.5919
# 3 14.2955 28.0858 157.5167 -2.0613 -18.7669 -0.2827
# 4 4.0681 -21.7764 -2.0613 41.9836 10.6790 -1.0837
# 5 -12.4409 -7.7228 -18.7669 10.6790 46.3921 -6.1280
# 6 23.3781 11.5919 -0.2827 -1.0837 -6.1280 38.1769
#
#
#
# Elastic Compliance Matrix: (Units=1/GPa)
#
#
# Indices 1 2 3 4 5 6 
#
# 1 0.012998 0.000588 -0.001016 -0.001860 0.002572 -0.007785
# 2 0.000588 0.020576 -0.003742 0.010576 -0.001228 -0.006532
# 3 -0.001016 -0.003742 0.007429 -0.002158 0.002900 0.002218
# 4 -0.001860 0.010576 -0.002158 0.031120 -0.007084 -0.002342
# 5 0.002572 -0.001228 0.002900 -0.007084 0.025196 0.002663
# 6 -0.007785 -0.006532 0.002218 -0.002342 0.002663 0.033322
#
#
# Mechanical properties :
#
#
# Convention : Reuss Voigt Hill
#
# Bulk Modulus (GPa) = 30.61593 46.01353 38.31473
# Shear Modulus (GPa) = 33.36219 43.54688 38.45453
#
# Velocity S-wave (km/s) = 3.62870 4.14574 3.89581
# Velocity P-wave (km/s) = 5.44428 6.40913 5.94631
#
# Compressibility (1/GPa) = 0.03266273
#
# Stress axis : x y z
#
# Youngs Moduli (GPa) = 76.93510 48.59920 134.60484
#
# Poissons Ratio (x) = -0.02856 0.13680
# Poissons Ratio (y) = -0.04522 0.50367
# Poissons Ratio (z) = 0.07819 0.18185
#
# Static dielectric constant tensor:
#      x y z
#    x 2.211360 0.098020 -0.014500 
#    y 0.098020 2.071990 0.017760 
#    z -0.014500 0.017760 1.958320 
# 
# From -- ./inp_files/505279.got.cif
#   From: 2010.05.17/outbox.cif.g08.bks.cpg/sg2_253_cif.got.tgz:505279.got - 2010.06.03 11:33:40.
