data_PCOD9057745
_publ_section_title
;
Structure prediction by ZEFSAII (Michael W. Deem and Ramdas Pophale) SiO2 
 PCOD9057745
Probable space group: P -1
;
_chemical_formula_sum "Si O2"
_cell_formula_units_Z 15
_cell_length_a 11.628374
_cell_length_b 8.631159
_cell_length_c 9.070609
_cell_angle_alpha 82.187904
_cell_angle_beta 51.684780
_cell_angle_gamma 70.628370
_cell_volume 670.863257
_symmetry_space_group_name_H-M "P -1"
_symmetry_group_IT_number 2
_symmetry_cell_setting 'triclinic'
loop_
_space_group_symop_operation_xyz
x,y,z
-x,-y,-z
loop_
_atom_site_type_symbol
_atom_site_label
_atom_site_fract_x
_atom_site_fract_y
_atom_site_fract_z
Si Si1 0.086772 0.807729 0.429085
Si Si2 0.000000 0.500000 0.000000
Si Si3 0.603437 0.211383 0.646882
Si Si4 0.572621 0.630573 0.989104
Si Si5 0.847687 0.715241 0.827452
Si Si6 0.580640 0.032348 0.110259
Si Si7 0.247107 0.881953 0.761351
Si Si8 0.010999 0.776862 0.157210
O O1 0.255383 0.776909 0.366701
O O2 0.989095 0.719443 0.614410
O O3 0.078372 0.771278 0.268250
O O4 0.000000 0.000000 0.500000
O O5 0.033853 0.380160 0.838478
O O6 0.904338 0.655062 0.953088
O O7 0.459374 0.353497 0.811474
O O8 0.651058 0.217336 0.440424
O O9 0.552227 0.048848 0.734264
O O10 0.500000 0.500000 0.000000
O O11 0.752720 0.608210 0.837960
O O12 0.486869 0.803850 0.953728
O O13 0.720630 0.897307 0.930741
O O14 0.648981 0.076426 0.200943
O O15 0.129790 0.052154 0.767653
O O16 0.142276 0.786295 0.934744
#
# Coordination Sequence:
#
# PCOD9057745 Si02
#       8
#     2   1   2   2   2   2   2   2
#     4  12  22  42  75 106 135 185 250 290 345 428
#     4  12  26  46  66 104 150 180 234 294 360 408
#     4  11  23  41  70 103 138 179 240 287 347 430
#     4  11  26  47  68 103 142 184 232 295 359 420
#     4  11  25  46  73 103 140 191 233 287 359 421
#     4  11  23  46  72  99 143 189 231 289 352 433
#     4  11  22  43  70 103 134 191 240 283 359 414
#     4  11  25  41  69 102 147 185 230 304 348 415
#
# _framework density 22.359252000000001
#
# number of rings (size 3 to 8) (size 9 to 14) (size 15 to 20)
#    0.000    0.800    2.667    6.000    3.733    0.533 
#    2.400    0.667    0.000    0.000    0.000    0.000 
#    0.000    0.000    0.000    0.000    0.000    0.000 
#
# Total GULP energy -83679.064866 kJ/mol
# GULP energy per Si atom -5578.604324 kJ/mol
# Density = 2.230836 g / cm^3
# Si number density = 22.359252 Si / 1000 Ang^3
#
#
#
# Elastic Constant Matrix: (Units=GPa)
#
#
# Indices 1 2 3 4 5 6 
#
# 1 124.1114 4.6849 34.7525 -22.1729 5.6346 6.0173
# 2 4.6849 55.4170 9.5432 -2.4437 1.7331 -2.1748
# 3 34.7525 9.5432 101.0790 -8.4952 -5.4736 8.6961
# 4 -22.1729 -2.4437 -8.4952 18.1910 10.6416 5.1469
# 5 5.6346 1.7331 -5.4736 10.6416 46.3143 0.9265
# 6 6.0173 -2.1748 8.6961 5.1469 0.9265 30.9765
#
#
#
# Elastic Compliance Matrix: (Units=1/GPa)
#
#
# Indices 1 2 3 4 5 6 
#
# 1 0.012771 0.000250 -0.002723 0.019307 -0.006227 -0.004721
# 2 0.000250 0.018551 -0.001837 0.002434 -0.001529 0.001411
# 3 -0.002723 -0.001837 0.011512 0.001901 0.001388 -0.003189
# 4 0.019307 0.002434 0.001901 0.099852 -0.024759 -0.019964
# 5 -0.006227 -0.001529 0.001388 -0.024759 0.028179 0.003984
# 6 -0.004721 0.001411 -0.003189 -0.019964 0.003984 0.037392
#
#
# Mechanical properties :
#
#
# Convention : Reuss Voigt Hill
#
# Bulk Modulus (GPa) = 29.22757 42.06319 35.64538
# Shear Modulus (GPa) = 21.90279 34.53816 28.22048
#
# Velocity S-wave (km/s) = 3.13323 3.93452 3.55651
# Velocity P-wave (km/s) = 5.11758 6.28442 5.73077
#
# Compressibility (1/GPa) = 0.03421427
#
# Stress axis : x y z
#
# Youngs Moduli (GPa) = 78.30239 53.90617 86.86467
#
# Poissons Ratio (x) = -0.01348 0.23652
# Poissons Ratio (y) = -0.01958 0.15957
# Poissons Ratio (z) = 0.21321 0.09903
#
# Static dielectric constant tensor:
#      x y z
#    x 1.827560 0.025440 -0.040870 
#    y 0.025440 1.880630 -0.003930 
#    z -0.040870 -0.003930 1.848940 
# 
# From -- ./inp_files/238141.got.cif
#   From: 2010.05.17/outbox.cif.g08.bks.cpg/sg2_120_cif.got.tgz:238141.got - 2010.06.03 11:33:40.
