data_PCOD9057954
_publ_section_title
;
Structure prediction by ZEFSAII (Michael W. Deem and Ramdas Pophale) SiO2 
 PCOD9057954
Probable space group: P -1
;
_chemical_formula_sum "Si O2"
_cell_formula_units_Z 16
_cell_length_a 16.880534
_cell_length_b 13.912631
_cell_length_c 19.232211
_cell_angle_alpha 149.130120
_cell_angle_beta 20.649992
_cell_angle_gamma 143.851881
_cell_volume 817.051312
_symmetry_space_group_name_H-M "P -1"
_symmetry_group_IT_number 2
_symmetry_cell_setting 'triclinic'
loop_
_space_group_symop_operation_xyz
x,y,z
-x,-y,-z
loop_
_atom_site_type_symbol
_atom_site_label
_atom_site_fract_x
_atom_site_fract_y
_atom_site_fract_z
Si Si1 0.351383 0.318637 0.495337
Si Si2 0.946691 0.881623 0.287680
Si Si3 0.373479 0.238341 0.642991
Si Si4 0.610777 0.900644 0.913904
Si Si5 0.726349 0.935838 0.116882
Si Si6 0.552671 0.075509 0.790411
Si Si7 0.277124 0.434901 0.477034
Si Si8 0.901708 0.740628 0.982244
O O1 0.500000 0.500000 0.500000
O O2 0.118480 0.283449 0.706371
O O3 0.301199 0.315600 0.453544
O O4 0.494464 0.148346 0.301576
O O5 0.844122 0.809791 0.255187
O O6 0.801339 0.059970 0.544302
O O7 0.198737 0.952220 0.125335
O O8 0.511934 0.419243 0.613382
O O9 0.538571 0.064210 0.387867
O O10 0.291714 0.270263 0.807962
O O11 0.715399 0.709824 0.681937
O O12 0.459610 0.852874 0.076381
O O13 0.500000 0.000000 0.000000
O O14 0.620041 0.856853 0.083521
O O15 0.802860 0.781427 0.012707
O O16 0.936557 0.078890 0.020346
O O17 0.057742 0.560434 0.740773
#
# Coordination Sequence:
#
# PCOD9057954 Si02
#       8
#     2   2   2   2   2   2   2   2
#     4  10  17  37  58  81 120 146 184 248 283 335
#     4   9  21  35  61  83 113 155 196 231 293 346
#     4  10  19  38  61  89 113 152 192 237 295 350
#     4  12  23  39  57  83 118 164 198 231 286 355
#     4   9  18  37  61  87 116 146 193 247 285 351
#     4   9  20  37  58  80 117 154 194 234 287 342
#     4  11  23  37  54  87 125 147 194 244 284 343
#     4  10  20  34  59  89 117 149 189 244 302 328
#
# _framework density 19.582614
#
# number of rings (size 3 to 8) (size 9 to 14) (size 15 to 20)
#    0.750    1.250    2.500    1.875    0.000    4.000 
#    0.000    2.500    0.000    3.750    0.000    0.000 
#    0.000    0.000    0.000    0.000    0.000    0.000 
#
# Total GULP energy -89154.142458 kJ/mol
# GULP energy per Si atom -5572.133904 kJ/mol
# Density = 1.953804 g / cm^3
# Si number density = 19.582614 Si / 1000 Ang^3
#
#
#
# Elastic Constant Matrix: (Units=GPa)
#
#
# Indices 1 2 3 4 5 6 
#
# 1 89.7043 5.6701 22.9543 -2.7819 -7.2332 -20.2392
# 2 5.6701 29.9978 10.9394 -4.8919 -5.7747 1.2027
# 3 22.9543 10.9394 33.5243 -7.4854 2.6006 -5.8828
# 4 -2.7819 -4.8919 -7.4854 16.2478 5.1748 3.4481
# 5 -7.2332 -5.7747 2.6006 5.1748 31.1995 -3.6532
# 6 -20.2392 1.2027 -5.8828 3.4481 -3.6532 27.7231
#
#
#
# Elastic Compliance Matrix: (Units=1/GPa)
#
#
# Indices 1 2 3 4 5 6 
#
# 1 0.017364 0.001069 -0.012422 -0.007484 0.007901 0.011966
# 2 0.001069 0.040678 -0.014323 0.004059 0.007889 -0.003489
# 3 -0.012422 -0.014323 0.048172 0.020507 -0.013243 -0.002521
# 4 -0.007484 0.004059 0.020507 0.079341 -0.017428 -0.013453
# 5 0.007901 0.007889 -0.013243 -0.017428 0.040524 0.010124
# 6 0.011966 -0.003489 -0.002521 -0.013453 0.010124 0.047431
#
#
# Mechanical properties :
#
#
# Convention : Reuss Voigt Hill
#
# Bulk Modulus (GPa) = 18.22810 25.81711 22.02260
# Shear Modulus (GPa) = 14.57099 22.61159 18.59129
#
# Velocity S-wave (km/s) = 2.73074 3.40174 3.08454
# Velocity P-wave (km/s) = 4.38988 5.35177 4.89451
#
# Compressibility (1/GPa) = 0.05486037
#
# Stress axis : x y z
#
# Youngs Moduli (GPa) = 57.59166 24.58361 20.75894
#
# Poissons Ratio (x) = -0.02627 0.25787
# Poissons Ratio (y) = -0.06155 0.29733
# Poissons Ratio (z) = 0.71540 0.35212
#
# Static dielectric constant tensor:
#      x y z
#    x 1.704560 -0.011280 0.029620 
#    y -0.011280 1.684480 -0.025180 
#    z 0.029620 -0.025180 1.734070 
# 
# From -- ./inp_files/600303.got.cif
#   From: 2010.05.17/outbox.cif.g08.bks.cpg/sg2_301_cif.got.tgz:600303.got - 2010.06.03 11:33:40.
