data_PCOD9057334
_publ_section_title
;
Structure prediction by ZEFSAII (Michael W. Deem and Ramdas Pophale) SiO2 
 PCOD9057334
Probable space group: P -1
;
_chemical_formula_sum "Si O2"
_cell_formula_units_Z 16
_cell_length_a 5.510187
_cell_length_b 12.972655
_cell_length_c 9.314711
_cell_angle_alpha 68.563881
_cell_angle_beta 68.654650
_cell_angle_gamma 76.610216
_cell_volume 573.517504
_symmetry_space_group_name_H-M "P -1"
_symmetry_group_IT_number 2
_symmetry_cell_setting 'triclinic'
loop_
_space_group_symop_operation_xyz
x,y,z
-x,-y,-z
loop_
_atom_site_type_symbol
_atom_site_label
_atom_site_fract_x
_atom_site_fract_y
_atom_site_fract_z
Si Si1 0.657093 0.402627 0.245315
Si Si2 0.297184 0.062962 0.308987
Si Si3 0.695161 0.717555 0.246362
Si Si4 0.006989 0.761191 0.906699
Si Si5 0.533196 0.160820 0.498317
Si Si6 0.247412 0.906109 0.007208
Si Si7 0.860742 0.283886 0.668178
Si Si8 0.941213 0.553550 0.641710
O O1 0.615789 0.281167 0.381588
O O2 0.360642 0.451901 0.246062
O O3 0.862574 0.361145 0.098716
O O4 0.825188 0.469789 0.282714
O O5 0.073513 0.152753 0.247808
O O6 0.415672 0.113983 0.401840
O O7 0.495897 0.045932 0.135815
O O8 0.260200 0.938560 0.432508
O O9 0.653966 0.809907 0.336195
O O10 0.432805 0.659172 0.332176
O O11 0.987368 0.667511 0.255508
O O12 0.742034 0.755897 0.056692
O O13 0.203693 0.816955 0.937866
O O14 0.209640 0.836944 0.197859
O O15 0.000000 0.000000 0.000000
O O16 0.027587 0.315464 0.478373
O O17 0.000000 0.500000 0.500000
#
# Coordination Sequence:
#
# PCOD9057334 Si02
#       8
#     2   2   2   2   2   2   2   2
#     4  12  25  45  73 102 145 182 235 296 372 428
#     4  11  23  41  61  99 152 188 261 287 347 410
#     4  11  23  41  69  97 135 192 236 281 349 420
#     4  11  25  41  66  99 142 203 237 290 357 423
#     4  11  23  41  65 103 140 199 237 306 343 416
#     4  11  24  38  65 101 145 200 247 290 340 421
#     4  11  22  42  68 101 138 181 236 294 351 416
#     4  12  26  47  79 109 136 181 239 304 378 448
#
# _framework density 27.898015000000001
#
# number of rings (size 3 to 8) (size 9 to 14) (size 15 to 20)
#    0.000    0.750    5.000    2.625    1.750    1.500 
#    0.000    0.000    0.000   10.500    0.000    0.000 
#    0.000    0.000    0.000    0.000    0.000    0.000 
#
# Total GULP energy -89305.133256 kJ/mol
# GULP energy per Si atom -5581.570828 kJ/mol
# Density = 2.783452 g / cm^3
# Si number density = 27.898015 Si / 1000 Ang^3
#
#
#
# Elastic Constant Matrix: (Units=GPa)
#
#
# Indices 1 2 3 4 5 6 
#
# 1 145.8561 5.3452 22.8010 2.7814 5.3739 -0.2231
# 2 5.3452 62.0306 14.7381 17.0118 5.0681 -5.0679
# 3 22.8010 14.7381 121.4232 13.2570 -11.0052 -1.8771
# 4 2.7814 17.0118 13.2570 40.9699 0.4543 -2.7971
# 5 5.3739 5.0681 -11.0052 0.4543 58.4868 5.4933
# 6 -0.2231 -5.0679 -1.8771 -2.7971 5.4933 58.3859
#
#
#
# Elastic Compliance Matrix: (Units=1/GPa)
#
#
# Indices 1 2 3 4 5 6 
#
# 1 0.007115 -0.000224 -0.001398 0.000076 -0.000903 0.000051
# 2 -0.000224 0.018758 -0.001614 -0.007132 -0.001987 0.001421
# 3 -0.001398 -0.001614 0.009117 -0.002217 0.002015 -0.000148
# 4 0.000076 -0.007132 -0.002217 0.028128 -0.000087 0.000666
# 5 -0.000903 -0.001987 0.002015 -0.000087 0.017902 -0.001800
# 6 0.000051 0.001421 -0.000148 0.000666 -0.001800 0.017447
#
#
# Mechanical properties :
#
#
# Convention : Reuss Voigt Hill
#
# Bulk Modulus (GPa) = 35.06636 46.11985 40.59310
# Shear Modulus (GPa) = 43.68902 50.66356 47.17629
#
# Velocity S-wave (km/s) = 3.96160 4.26611 4.11667
# Velocity P-wave (km/s) = 5.78986 6.39013 6.09738
#
# Compressibility (1/GPa) = 0.02851736
#
# Stress axis : x y z
#
# Youngs Moduli (GPa) = 140.55333 53.30973 109.69068
#
# Poissons Ratio (x) = 0.01193 0.15337
# Poissons Ratio (y) = 0.03144 0.17706
# Poissons Ratio (z) = 0.19652 0.08605
#
# Static dielectric constant tensor:
#      x y z
#    x 2.258640 -0.098640 -0.066650 
#    y -0.098640 2.350420 -0.063590 
#    z -0.066650 -0.063590 2.295760 
# 
# From -- ./inp_files/135087.got.cif
#   From: 2010.05.17/outbox.cif.g08.bks.cpg/sg2_68_cif.got.tgz:135087.got - 2010.06.03 11:33:40.
