data_PCOD9057645
_publ_section_title
;
Structure prediction by ZEFSAII (Michael W. Deem and Ramdas Pophale) SiO2 
 PCOD9057645
Probable space group: P -1
;
_chemical_formula_sum "Si O2"
_cell_formula_units_Z 16
_cell_length_a 9.956935
_cell_length_b 5.323165
_cell_length_c 13.049837
_cell_angle_alpha 72.793936
_cell_angle_beta 98.731119
_cell_angle_gamma 105.458548
_cell_volume 634.813686
_symmetry_space_group_name_H-M "P -1"
_symmetry_group_IT_number 2
_symmetry_cell_setting 'triclinic'
loop_
_space_group_symop_operation_xyz
x,y,z
-x,-y,-z
loop_
_atom_site_type_symbol
_atom_site_label
_atom_site_fract_x
_atom_site_fract_y
_atom_site_fract_z
Si Si1 0.934184 0.992639 0.105389
Si Si2 0.397109 0.685171 0.870633
Si Si3 0.530129 0.599308 0.283384
Si Si4 0.312975 0.162562 0.026425
Si Si5 0.229390 0.994905 0.661033
Si Si6 0.362070 0.098132 0.444344
Si Si7 0.990916 0.571624 0.767477
Si Si8 0.280345 0.835401 0.255978
O O1 0.994149 0.261968 0.144735
O O2 0.950324 0.705658 0.191363
O O3 0.246721 0.032853 0.140531
O O4 0.771696 0.990108 0.061411
O O5 0.472193 0.525430 0.814189
O O6 0.303232 0.465241 0.961883
O O7 0.305866 0.819830 0.766872
O O8 0.524371 0.825909 0.941738
O O9 0.438436 0.395241 0.378613
O O10 0.439486 0.822879 0.252690
O O11 0.692046 0.708667 0.321105
O O12 0.000000 0.000000 0.000000
O O13 0.072394 0.815208 0.674175
O O14 0.270624 0.038406 0.542519
O O15 0.500000 0.000000 0.500000
O O16 0.279435 0.947105 0.355978
O O17 0.829611 0.449234 0.735646
#
# Coordination Sequence:
#
# PCOD9057645 Si02
#       8
#     2   2   2   2   2   2   2   2
#     4  12  26  48  74 104 150 209 246 296 368 458
#     4  11  23  41  69 109 143 185 243 314 373 431
#     4  12  23  43  73 106 138 194 246 310 376 438
#     4  11  22  43  67 105 146 188 243 306 367 443
#     4  12  25  47  73 107 147 193 249 314 373 444
#     4  12  24  47  75 106 141 189 256 312 377 435
#     4  12  30  49  73 113 154 199 251 304 382 448
#     4  12  27  45  72 108 147 197 246 307 369 459
#
# _framework density 25.204246000000001
#
# number of rings (size 3 to 8) (size 9 to 14) (size 15 to 20)
#    0.000    0.250    7.500    1.500    3.500    1.000 
#    0.000    0.625    0.000    0.000    0.000    0.000 
#    0.000    0.000    0.000    0.000    0.000    0.000 
#
# Total GULP energy -89325.312153 kJ/mol
# GULP energy per Si atom -5582.832010 kJ/mol
# Density = 2.514688 g / cm^3
# Si number density = 25.204246 Si / 1000 Ang^3
#
#
#
# Elastic Constant Matrix: (Units=GPa)
#
#
# Indices 1 2 3 4 5 6 
#
# 1 36.9632 21.8164 12.4658 -1.1040 -5.6505 15.2061
# 2 21.8164 149.5812 55.4649 9.1731 -8.9208 28.8620
# 3 12.4658 55.4649 153.1915 -0.1649 -20.1479 -5.1789
# 4 -1.1040 9.1731 -0.1649 46.1744 3.6509 -7.8892
# 5 -5.6505 -8.9208 -20.1479 3.6509 44.3261 -7.3192
# 6 15.2061 28.8620 -5.1789 -7.8892 -7.3192 50.0301
#
#
#
# Elastic Compliance Matrix: (Units=1/GPa)
#
#
# Indices 1 2 3 4 5 6 
#
# 1 0.032853 -0.002274 -0.001957 -0.000374 0.001431 -0.008726
# 2 -0.002274 0.009595 -0.003579 -0.002905 -0.000700 -0.005775
# 3 -0.001957 -0.003579 0.008594 0.001141 0.003544 0.004248
# 4 -0.000374 -0.002905 0.001141 0.023243 -0.001135 0.005406
# 5 0.001431 -0.000700 0.003544 -0.001135 0.024934 0.003805
# 6 -0.008726 -0.005775 0.004248 0.005406 0.003805 0.027821
#
#
# Mechanical properties :
#
#
# Convention : Reuss Voigt Hill
#
# Bulk Modulus (GPa) = 28.23194 57.69224 42.96209
# Shear Modulus (GPa) = 32.36922 44.77205 38.57063
#
# Velocity S-wave (km/s) = 3.58757 4.21927 3.91618
# Velocity P-wave (km/s) = 5.32789 6.83198 6.12627
#
# Compressibility (1/GPa) = 0.03542087
#
# Stress axis : x y z
#
# Youngs Moduli (GPa) = 30.43827 104.22195 116.36129
#
# Poissons Ratio (x) = 0.23700 0.22775
# Poissons Ratio (y) = 0.06922 0.41650
# Poissons Ratio (z) = 0.05958 0.37305
#
# Static dielectric constant tensor:
#      x y z
#    x 2.091470 -0.075910 0.019580 
#    y -0.075910 2.211450 -0.166090 
#    z 0.019580 -0.166090 1.963840 
# 
# From -- ./inp_files/510266.got.cif
#   From: 2010.05.17/outbox.cif.g08.bks.cpg/sg2_256_cif.got.tgz:510266.got - 2010.06.03 11:33:40.
