data_PCOD9057707
_publ_section_title
;
Structure prediction by ZEFSAII (Michael W. Deem and Ramdas Pophale) SiO2 
 PCOD9057707
Probable space group: P -1
;
_chemical_formula_sum "Si O2"
_cell_formula_units_Z 14
_cell_length_a 11.870920
_cell_length_b 14.981479
_cell_length_c 5.560749
_cell_angle_alpha 115.882938
_cell_angle_beta 91.213235
_cell_angle_gamma 133.830235
_cell_volume 556.450892
_symmetry_space_group_name_H-M "P -1"
_symmetry_group_IT_number 2
_symmetry_cell_setting 'triclinic'
loop_
_space_group_symop_operation_xyz
x,y,z
-x,-y,-z
loop_
_atom_site_type_symbol
_atom_site_label
_atom_site_fract_x
_atom_site_fract_y
_atom_site_fract_z
Si Si1 0.540916 0.270733 0.958569
Si Si2 0.162444 0.394909 0.898637
Si Si3 0.759960 0.923413 0.932078
Si Si4 0.591863 0.987257 0.733761
Si Si5 0.886084 0.857593 0.515070
Si Si6 0.836560 0.438806 0.557741
Si Si7 0.213147 0.773128 0.379076
O O1 0.669136 0.437921 0.029434
O O2 0.364917 0.193858 0.989187
O O3 0.663337 0.313331 0.233213
O O4 0.472179 0.136868 0.621825
O O5 0.182624 0.291121 0.777782
O O6 0.968959 0.292246 0.649671
O O7 0.148155 0.437814 0.208949
O O8 0.692502 0.983997 0.915007
O O9 0.745793 0.832986 0.612911
O O10 0.966658 0.072145 0.194271
O O11 0.403642 0.914246 0.694500
O O12 0.730213 0.155300 0.802250
O O13 0.000000 0.000000 0.500000
O O14 0.825212 0.367064 0.718956
O O15 0.000000 0.500000 0.500000
#
# Coordination Sequence:
#
# PCOD9057707 Si02
#       7
#     2   2   2   2   2   2   2
#     4  12  23  42  69 104 147 181 240 291 345 428
#     4  12  25  45  70 105 145 190 230 297 357 419
#     4  11  24  48  75 103 136 188 241 294 360 419
#     4  11  24  44  69 106 148 184 237 296 347 419
#     4  11  27  51  76 101 140 182 243 305 355 421
#     4  12  24  43  70 106 150 192 237 280 355 428
#     4  11  22  43  69 102 146 189 231 289 348 415
#
# _framework density 25.159452999999999
#
# number of rings (size 3 to 8) (size 9 to 14) (size 15 to 20)
#    0.000    0.571    4.286    3.857    0.000    4.571 
#   10.286    5.000    0.000    0.000    0.000    0.000 
#    0.000    0.000    0.000    0.000    0.000    0.000 
#
# Total GULP energy -78346.800458 kJ/mol
# GULP energy per Si atom -5596.200033 kJ/mol
# Density = 2.510219 g / cm^3
# Si number density = 25.159453 Si / 1000 Ang^3
#
#
#
# Elastic Constant Matrix: (Units=GPa)
#
#
# Indices 1 2 3 4 5 6 
#
# 1 124.9548 28.6544 37.7209 0.9292 -34.1678 3.4777
# 2 28.6544 105.3011 12.0019 12.4552 -24.2425 -0.4966
# 3 37.7209 12.0019 109.9874 10.2151 -20.2531 -8.0399
# 4 0.9292 12.4552 10.2151 21.0616 -6.3571 -0.7662
# 5 -34.1678 -24.2425 -20.2531 -6.3571 68.1571 1.6584
# 6 3.4777 -0.4966 -8.0399 -0.7662 1.6584 51.4836
#
#
#
# Elastic Compliance Matrix: (Units=1/GPa)
#
#
# Indices 1 2 3 4 5 6 
#
# 1 0.010479 -0.001989 -0.003048 0.003348 0.003984 -0.001282
# 2 -0.001989 0.011295 0.000501 -0.006044 0.002602 0.000148
# 3 -0.003048 0.000501 0.010933 -0.004979 0.001391 0.001799
# 4 0.003348 -0.006044 -0.004979 0.054250 0.003118 -0.000355
# 5 0.003984 0.002602 0.001391 0.003118 0.018312 -0.000570
# 6 -0.001282 0.000148 0.001799 -0.000355 -0.000570 0.019806
#
#
# Mechanical properties :
#
#
# Convention : Reuss Voigt Hill
#
# Bulk Modulus (GPa) = 42.31037 55.22197 48.76617
# Shear Modulus (GPa) = 35.20496 45.59820 40.40158
#
# Velocity S-wave (km/s) = 3.74474 4.26181 4.01162
# Velocity P-wave (km/s) = 5.96246 6.79807 6.39393
#
# Compressibility (1/GPa) = 0.02363487
#
# Stress axis : x y z
#
# Youngs Moduli (GPa) = 95.42732 88.53153 91.46928
#
# Poissons Ratio (x) = 0.17610 0.27879
# Poissons Ratio (y) = 0.18982 -0.04582
# Poissons Ratio (z) = 0.29086 -0.04435
#
# Static dielectric constant tensor:
#      x y z
#    x 1.982940 0.028880 -0.005070 
#    y 0.028880 1.998660 -0.033900 
#    z -0.005070 -0.033900 2.078150 
# 
# From -- ./inp_files/78639.got.cif
#   From: 2010.05.17/outbox.cif.g08.bks.cpg/sg2_40_cif.got.tgz:78639.got - 2010.06.03 11:33:40.
