data_PCOD9057549
_publ_section_title
;
Structure prediction by ZEFSAII (Michael W. Deem and Ramdas Pophale) SiO2 
 PCOD9057549
Probable space group: P -1
;
_chemical_formula_sum "Si O2"
_cell_formula_units_Z 14
_cell_length_a 16.419729
_cell_length_b 6.441045
_cell_length_c 20.782058
_cell_angle_alpha 123.651697
_cell_angle_beta 153.854975
_cell_angle_gamma 45.819113
_cell_volume 676.553567
_symmetry_space_group_name_H-M "P -1"
_symmetry_group_IT_number 2
_symmetry_cell_setting 'triclinic'
loop_
_space_group_symop_operation_xyz
x,y,z
-x,-y,-z
loop_
_atom_site_type_symbol
_atom_site_label
_atom_site_fract_x
_atom_site_fract_y
_atom_site_fract_z
Si Si1 0.184377 0.460867 0.174937
Si Si2 0.938593 0.352440 0.738632
Si Si3 0.859559 0.218511 0.379409
Si Si4 0.477862 0.725597 0.413245
Si Si5 0.584194 0.802829 0.363436
Si Si6 0.735709 0.785576 0.159802
Si Si7 0.032299 0.739969 0.677073
O O1 0.093676 0.498104 0.189802
O O2 0.276533 0.681813 0.277053
O O3 0.399996 0.127687 0.263318
O O4 0.000000 0.500000 0.000000
O O5 0.701570 0.457444 0.557701
O O6 0.082086 0.404674 0.798748
O O7 0.056815 0.999003 0.766159
O O8 0.677707 0.538132 0.333112
O O9 0.973413 0.258823 0.404625
O O10 0.775794 0.028034 0.257044
O O11 0.000000 0.000000 0.500000
O O12 0.491921 0.725821 0.346455
O O13 0.500000 0.000000 0.500000
O O14 0.798127 0.794447 0.539561
O O15 0.775155 0.565616 0.207954
O O16 0.500000 0.000000 0.000000
#
# Coordination Sequence:
#
# PCOD9057549 Si02
#       7
#     2   2   2   2   2   2   2
#     4  12  29  44  67 109 145 182 229 304 369 410
#     4  11  23  45  69 100 132 186 244 278 350 443
#     4  11  24  41  68 106 134 181 240 287 350 429
#     4  12  23  44  75  99 133 189 247 278 339 433
#     4  12  23  41  71 100 137 184 232 293 352 427
#     4  11  26  43  68 102 136 182 236 299 352 414
#     4  11  22  42  73  95 137 186 238 290 349 421
#
# _framework density 20.693114000000001
#
# number of rings (size 3 to 8) (size 9 to 14) (size 15 to 20)
#    0.000    0.571    5.714    2.571    0.000    6.286 
#    0.000    0.000    0.000    0.000    0.000    0.000 
#    0.000    0.000    0.000    0.000    0.000    0.000 
#
# Total GULP energy -78083.714382 kJ/mol
# GULP energy per Si atom -5577.408170 kJ/mol
# Density = 2.064602 g / cm^3
# Si number density = 20.693114 Si / 1000 Ang^3
#
#
#
# Elastic Constant Matrix: (Units=GPa)
#
#
# Indices 1 2 3 4 5 6 
#
# 1 99.7417 31.5429 42.6476 4.6132 -11.9621 -5.8873
# 2 31.5429 112.7567 16.9192 -11.9743 -0.8044 -5.7527
# 3 42.6476 16.9192 129.0889 -23.5096 -5.3627 8.3287
# 4 4.6132 -11.9743 -23.5096 24.5315 2.8007 -4.9334
# 5 -11.9621 -0.8044 -5.3627 2.8007 9.1458 -0.1919
# 6 -5.8873 -5.7527 8.3287 -4.9334 -0.1919 35.4530
#
#
#
# Elastic Compliance Matrix: (Units=1/GPa)
#
#
# Indices 1 2 3 4 5 6 
#
# 1 0.018741 -0.005529 -0.007443 -0.015775 0.024532 0.001901
# 2 -0.005529 0.011198 0.001606 0.009329 -0.008125 0.001776
# 3 -0.007443 0.001606 0.012485 0.014534 -0.006764 -0.001923
# 4 -0.015775 0.009329 0.014534 0.066749 -0.031633 0.004597
# 5 0.024532 -0.008125 -0.006764 -0.031633 0.146447 0.000735
# 6 0.001901 0.001776 -0.001923 0.004597 0.000735 0.029906
#
#
# Mechanical properties :
#
#
# Convention : Reuss Voigt Hill
#
# Bulk Modulus (GPa) = 50.78396 58.20074 54.49235
# Shear Modulus (GPa) = 15.88199 30.52456 23.20327
#
# Velocity S-wave (km/s) = 2.77339 3.84488 3.35222
# Velocity P-wave (km/s) = 5.90342 6.92080 6.43226
#
# Compressibility (1/GPa) = 0.01969126
#
# Stress axis : x y z
#
# Youngs Moduli (GPa) = 53.35916 89.30379 80.09488
#
# Poissons Ratio (x) = 0.49376 0.59617
# Poissons Ratio (y) = 0.29502 -0.12863
# Poissons Ratio (z) = 0.39717 -0.14342
#
# Static dielectric constant tensor:
#      x y z
#    x 1.615860 -0.049150 0.036230 
#    y -0.049150 1.757410 -0.007210 
#    z 0.036230 -0.007210 1.701370 
# 
# From -- ./inp_files/49297.got.cif
#   From: 2010.05.17/outbox.cif.g08.bks.cpg/sg2_25_cif.got.tgz:49297.got - 2010.06.03 11:33:40.
