data_PCOD9057316
_publ_section_title
;
Structure prediction by ZEFSAII (Michael W. Deem and Ramdas Pophale) SiO2 
 PCOD9057316
Probable space group: P -1
;
_chemical_formula_sum "Si O2"
_cell_formula_units_Z 16
_cell_length_a 14.300553
_cell_length_b 14.710353
_cell_length_c 14.306259
_cell_angle_alpha 150.647260
_cell_angle_beta 150.015177
_cell_angle_gamma 37.412108
_cell_volume 727.718349
_symmetry_space_group_name_H-M "P -1"
_symmetry_group_IT_number 2
_symmetry_cell_setting 'triclinic'
loop_
_space_group_symop_operation_xyz
x,y,z
-x,-y,-z
loop_
_atom_site_type_symbol
_atom_site_label
_atom_site_fract_x
_atom_site_fract_y
_atom_site_fract_z
Si Si1 0.806818 0.303657 0.397747
Si Si2 0.198661 0.548953 0.131866
Si Si3 0.871269 0.570102 0.538090
Si Si4 0.017988 0.209450 0.672666
Si Si5 0.564289 0.614015 0.570333
Si Si6 0.345383 0.012340 0.083260
Si Si7 0.506472 0.119408 0.516577
Si Si8 0.932331 0.212500 0.943131
O O1 0.850486 0.380753 0.405343
O O2 0.970339 0.202687 0.515693
O O3 0.744836 0.490192 0.572180
O O4 0.638027 0.183506 0.131529
O O5 0.121386 0.658491 0.257856
O O6 0.405002 0.599075 0.342542
O O7 0.085650 0.645529 0.032932
O O8 0.191656 0.327433 0.935799
O O9 0.663482 0.698276 0.458600
O O10 0.000000 0.500000 0.500000
O O11 0.996917 0.686968 0.815377
O O12 0.000000 0.000000 0.500000
O O13 0.500000 0.500000 0.500000
O O14 0.594847 0.828158 0.790353
O O15 0.448828 0.022467 0.282066
O O16 0.116860 0.056459 0.941869
O O17 0.500000 0.000000 0.500000
O O18 0.725120 0.154629 0.727478
#
# Coordination Sequence:
#
# PCOD9057316 Si02
#       8
#     2   2   2   2   2   2   2   2
#     4  12  24  46  67 101 144 183 236 293 358 424
#     4  11  22  42  67  95 140 186 230 289 346 424
#     4  11  26  47  74 107 145 188 238 299 367 423
#     4  11  24  39  66 103 136 182 236 284 351 421
#     4  12  24  45  69  97 145 189 235 293 358 420
#     4  11  26  45  70 104 144 187 237 295 358 425
#     4  11  26  48  72 107 140 186 243 297 364 428
#     4  11  22  48  74  94 148 191 232 298 358 422
#
# _framework density 21.986526999999999
#
# number of rings (size 3 to 8) (size 9 to 14) (size 15 to 20)
#    0.000    0.750    6.250    0.750    7.000    3.000 
#    4.500    0.000    0.000    0.000    0.000    0.000 
#    0.000    0.000    0.000    0.000    0.000    0.000 
#
# Total GULP energy -89166.882571 kJ/mol
# GULP energy per Si atom -5572.930161 kJ/mol
# Density = 2.193648 g / cm^3
# Si number density = 21.986527 Si / 1000 Ang^3
#
#
#
# Elastic Constant Matrix: (Units=GPa)
#
#
# Indices 1 2 3 4 5 6 
#
# 1 95.4000 36.2992 38.9239 -2.2754 13.3341 27.7093
# 2 36.2992 90.6174 59.4675 -7.4959 15.6707 25.0792
# 3 38.9239 59.4675 164.0601 5.2304 24.3081 4.0112
# 4 -2.2754 -7.4959 5.2304 44.3268 -0.1935 12.9471
# 5 13.3341 15.6707 24.3081 -0.1935 42.1437 0.9982
# 6 27.7093 25.0792 4.0112 12.9471 0.9982 36.9117
#
#
#
# Elastic Compliance Matrix: (Units=1/GPa)
#
#
# Indices 1 2 3 4 5 6 
#
# 1 0.016325 0.000642 -0.003485 0.005478 -0.003033 -0.014152
# 2 0.000642 0.022192 -0.007532 0.009956 -0.003636 -0.018136
# 3 -0.003485 -0.007532 0.009909 -0.005115 -0.002037 0.008506
# 4 0.005478 0.009956 -0.005115 0.031330 -0.001837 -0.021261
# 5 -0.003033 -0.003636 -0.002037 -0.001837 0.027091 0.004881
# 6 -0.014152 -0.018136 0.008506 -0.021261 0.004881 0.056439
#
#
# Mechanical properties :
#
#
# Convention : Reuss Voigt Hill
#
# Bulk Modulus (GPa) = 36.13104 68.82875 52.47989
# Shear Modulus (GPa) = 25.87166 39.03555 32.45360
#
# Velocity S-wave (km/s) = 3.43404 4.21816 3.84613
# Velocity P-wave (km/s) = 5.67383 7.42272 6.60640
#
# Compressibility (1/GPa) = 0.02767704
#
# Stress axis : x y z
#
# Youngs Moduli (GPa) = 61.25578 45.06032 100.91587
#
# Poissons Ratio (x) = -0.02894 0.35171
# Poissons Ratio (y) = -0.03934 0.76008
# Poissons Ratio (z) = 0.21348 0.33939
#
# Static dielectric constant tensor:
#      x y z
#    x 1.916260 -0.037880 -0.005570 
#    y -0.037880 2.223490 0.039250 
#    z -0.005570 0.039250 1.876720 
# 
# From -- ./inp_files/534638.got.cif
#   From: 2010.05.17/outbox.cif.g08.bks.cpg/sg2_268_cif.got.tgz:534638.got - 2010.06.03 11:33:40.
