data_PCOD9057975
_publ_section_title
;
Structure prediction by ZEFSAII (Michael W. Deem and Ramdas Pophale) SiO2 
 PCOD9057975
Probable space group: P -1
;
_chemical_formula_sum "Si O2"
_cell_formula_units_Z 16
_cell_length_a 13.343977
_cell_length_b 9.829164
_cell_length_c 11.184646
_cell_angle_alpha 85.361276
_cell_angle_beta 145.473657
_cell_angle_gamma 85.377202
_cell_volume 800.101894
_symmetry_space_group_name_H-M "P -1"
_symmetry_group_IT_number 2
_symmetry_cell_setting 'triclinic'
loop_
_space_group_symop_operation_xyz
x,y,z
-x,-y,-z
loop_
_atom_site_type_symbol
_atom_site_label
_atom_site_fract_x
_atom_site_fract_y
_atom_site_fract_z
Si Si1 0.154885 0.693543 0.362328
Si Si2 0.449637 0.043081 0.312053
Si Si3 0.700511 0.415047 0.744604
Si Si4 0.487719 0.605072 0.871274
Si Si5 0.767934 0.156800 0.002256
Si Si6 0.226803 0.365179 0.030286
Si Si7 0.832624 0.999094 0.563283
Si Si8 0.363066 0.900057 0.860597
O O1 0.202457 0.663155 0.272233
O O2 0.319781 0.609093 0.615392
O O3 0.135479 0.856765 0.361929
O O4 0.965056 0.655235 0.200276
O O5 0.363528 0.211565 0.205209
O O6 0.500000 0.000000 0.500000
O O7 0.301811 0.964788 0.125225
O O8 0.637700 0.990829 0.425355
O O9 0.500000 0.500000 0.500000
O O10 0.690284 0.300932 0.843891
O O11 0.794167 0.529743 0.885639
O O12 0.671552 0.571015 0.977422
O O13 0.456051 0.761554 0.884526
O O14 0.500000 0.500000 0.000000
O O15 0.698006 0.149323 0.069362
O O16 0.988302 0.122763 0.220879
O O17 0.805553 0.016495 0.393072
O O18 0.500000 0.000000 0.000000
#
# Coordination Sequence:
#
# PCOD9057975 Si02
#       8
#     2   2   2   2   2   2   2   2
#     4  11  24  43  70  97 135 177 219 277 328 399
#     4  12  24  42  71  99 132 178 219 269 338 401
#     4  12  25  46  68  99 140 174 223 278 332 394
#     4  11  24  46  69  93 134 179 223 269 334 398
#     4  12  25  43  70  99 136 175 222 278 332 400
#     4  12  23  46  68  97 136 176 219 275 334 389
#     4  11  23  44  68 101 136 175 222 273 337 394
#     4  11  22  44  67 100 130 171 223 278 329 388
#
# _framework density 19.997451999999999
#
# number of rings (size 3 to 8) (size 9 to 14) (size 15 to 20)
#    0.000    0.500    6.250    3.000    1.750    1.500 
#    4.500    0.000    0.000    0.000    0.000    0.000 
#    0.000    0.000    0.000    0.000    0.000    0.000 
#
# Total GULP energy -89473.174938 kJ/mol
# GULP energy per Si atom -5592.073434 kJ/mol
# Density = 1.995194 g / cm^3
# Si number density = 19.997452 Si / 1000 Ang^3
#
#
#
# Elastic Constant Matrix: (Units=GPa)
#
#
# Indices 1 2 3 4 5 6 
#
# 1 119.3447 18.4543 63.2319 -11.2236 -13.7030 6.8020
# 2 18.4543 78.8869 35.3573 6.0546 -9.7003 4.6630
# 3 63.2319 35.3573 103.3345 1.5934 0.6549 8.7826
# 4 -11.2236 6.0546 1.5934 29.3466 6.7849 -12.3967
# 5 -13.7030 -9.7003 0.6549 6.7849 38.5569 6.4224
# 6 6.8020 4.6630 8.7826 -12.3967 6.4224 27.9331
#
#
#
# Elastic Compliance Matrix: (Units=1/GPa)
#
#
# Indices 1 2 3 4 5 6 
#
# 1 0.013923 0.000922 -0.008967 0.004749 0.004436 0.000363
# 2 0.000922 0.016733 -0.005734 -0.006811 0.006799 -0.005801
# 3 -0.008967 -0.005734 0.017470 -0.003631 -0.003772 -0.003096
# 4 0.004749 -0.006811 -0.003631 0.052281 -0.013742 0.027484
# 5 0.004436 0.006799 -0.003772 -0.013742 0.034202 -0.014992
# 6 0.000363 -0.005801 -0.003096 0.027484 -0.014992 0.053298
#
#
# Mechanical properties :
#
#
# Convention : Reuss Voigt Hill
#
# Bulk Modulus (GPa) = 48.62553 59.51700 54.07127
# Shear Modulus (GPa) = 22.49001 31.46880 26.97941
#
# Velocity S-wave (km/s) = 3.35721 3.97122 3.67705
# Velocity P-wave (km/s) = 6.27666 7.13122 6.71754
#
# Compressibility (1/GPa) = 0.02056533
#
# Stress axis : x y z
#
# Youngs Moduli (GPa) = 71.82395 59.76367 57.24246
#
# Poissons Ratio (x) = -0.05508 0.51330
# Poissons Ratio (y) = -0.06619 0.32824
# Poissons Ratio (z) = 0.64406 0.34270
#
# Static dielectric constant tensor:
#      x y z
#    x 1.715530 -0.010160 -0.002100 
#    y -0.010160 1.698620 -0.005580 
#    z -0.002100 -0.005580 1.688830 
# 
# From -- ./inp_files/447560.got.cif
#   From: 2010.05.17/outbox.cif.g08.bks.cpg/sg2_224_cif.got.tgz:447560.got - 2010.06.03 11:33:40.
