data_PCOD9057769
_publ_section_title
;
Structure prediction by ZEFSAII (Michael W. Deem and Ramdas Pophale) SiO2 
 PCOD9057769
Probable space group: P -1
;
_chemical_formula_sum "Si O2"
_cell_formula_units_Z 16
_cell_length_a 13.409467
_cell_length_b 16.764975
_cell_length_c 9.450097
_cell_angle_alpha 138.937886
_cell_angle_beta 143.144634
_cell_angle_gamma 34.266178
_cell_volume 689.876731
_symmetry_space_group_name_H-M "P -1"
_symmetry_group_IT_number 2
_symmetry_cell_setting 'triclinic'
loop_
_space_group_symop_operation_xyz
x,y,z
-x,-y,-z
loop_
_atom_site_type_symbol
_atom_site_label
_atom_site_fract_x
_atom_site_fract_y
_atom_site_fract_z
Si Si1 0.182711 0.569680 0.112447
Si Si2 0.388559 0.454688 0.919837
Si Si3 0.392242 0.360011 0.321875
Si Si4 0.233329 0.923436 0.702162
Si Si5 0.906548 0.465479 0.542816
Si Si6 0.798846 0.829259 0.162622
Si Si7 0.879947 0.871454 0.622819
Si Si8 0.720229 0.135688 0.991541
O O1 0.287693 0.568988 0.087424
O O2 0.045412 0.514149 0.826996
O O3 0.346236 0.450880 0.248005
O O4 0.032006 0.716454 0.226308
O O5 0.213948 0.461110 0.639470
O O6 0.536251 0.293747 0.939367
O O7 0.500000 0.500000 0.000000
O O8 0.625844 0.230668 0.425441
O O9 0.270512 0.477777 0.464693
O O10 0.291971 0.267437 0.073398
O O11 0.289318 0.035658 0.864069
O O12 0.279283 0.890608 0.876200
O O13 0.000000 0.000000 0.500000
O O14 0.039635 0.289957 0.444131
O O15 0.784969 0.885708 0.380691
O O16 0.078229 0.870543 0.819471
O O17 0.739485 0.003870 0.747198
#
# Coordination Sequence:
#
# PCOD9057769 Si02
#       8
#     2   2   2   2   2   2   2   2
#     4  11  23  45  72  98 140 171 235 284 332 403
#     4  12  26  44  68  99 138 182 227 275 340 405
#     4  11  23  45  72  98 140 171 235 284 332 403
#     4  12  26  44  68  99 138 182 227 275 340 405
#     4  11  23  44  71 103 130 184 223 282 344 392
#     4  11  23  44  71 103 130 184 223 282 344 392
#     4  11  22  43  70  96 140 177 227 279 338 400
#     4  11  26  44  62  99 142 179 222 280 337 406
#
# _framework density 23.192549
#
# number of rings (size 3 to 8) (size 9 to 14) (size 15 to 20)
#    0.000    0.750    6.250    1.500    3.500    1.000 
#    0.000    3.750    0.000    0.000    0.000    0.000 
#    0.000    0.000    0.000    0.000    0.000    0.000 
#
# Total GULP energy -89599.973125 kJ/mol
# GULP energy per Si atom -5599.998320 kJ/mol
# Density = 2.313976 g / cm^3
# Si number density = 23.192549 Si / 1000 Ang^3
#
#
#
# Elastic Constant Matrix: (Units=GPa)
#
#
# Indices 1 2 3 4 5 6 
#
# 1 90.7741 41.1114 36.7257 -6.5783 -15.7430 -1.0875
# 2 41.1114 136.6438 55.2593 -2.2958 -20.8369 9.2508
# 3 36.7257 55.2593 106.5199 17.5752 -13.1287 12.7759
# 4 -6.5783 -2.2958 17.5752 38.1680 -3.0729 -13.1384
# 5 -15.7430 -20.8369 -13.1287 -3.0729 38.3315 -3.9116
# 6 -1.0875 9.2508 12.7759 -13.1384 -3.9116 40.5613
#
#
#
# Elastic Compliance Matrix: (Units=1/GPa)
#
#
# Indices 1 2 3 4 5 6 
#
# 1 0.015600 -0.001940 -0.005703 0.007463 0.004560 0.005514
# 2 -0.001940 0.010410 -0.004831 0.002927 0.003481 0.000379
# 3 -0.005703 -0.004831 0.016681 -0.011881 -0.001050 -0.008255
# 4 0.007463 0.002927 -0.011881 0.039253 0.005419 0.016512
# 5 0.004560 0.003481 -0.001050 0.005419 0.030372 0.004343
# 6 0.005514 0.000379 -0.008255 0.016512 0.004343 0.033083
#
#
# Mechanical properties :
#
#
# Convention : Reuss Voigt Hill
#
# Bulk Modulus (GPa) = 56.35768 66.68117 61.51943
# Shear Modulus (GPa) = 28.36698 36.80157 32.58428
#
# Velocity S-wave (km/s) = 3.50109 3.98777 3.75233
# Velocity P-wave (km/s) = 6.37935 7.07224 6.73471
#
# Compressibility (1/GPa) = 0.01774381
#
# Stress axis : x y z
#
# Youngs Moduli (GPa) = 64.10234 96.06278 59.94704
#
# Poissons Ratio (x) = 0.18633 0.34188
# Poissons Ratio (y) = 0.12434 0.28960
# Poissons Ratio (z) = 0.36558 0.46408
#
# Static dielectric constant tensor:
#      x y z
#    x 1.910450 -0.028160 0.056410 
#    y -0.028160 1.835200 -0.005090 
#    z 0.056410 -0.005090 1.877280 
# 
# From -- ./inp_files/318172.got.cif
#   From: 2010.05.17/outbox.cif.g08.bks.cpg/sg2_160_cif.got.tgz:318172.got - 2010.06.03 11:33:40.
