data_PCOD9057153
_publ_section_title
;
Structure prediction by ZEFSAII (Michael W. Deem and Ramdas Pophale) SiO2 
 PCOD9057153
Probable space group: P -1
;
_chemical_formula_sum "Si O2"
_cell_formula_units_Z 16
_cell_length_a 11.832286
_cell_length_b 14.361919
_cell_length_c 8.973600
_cell_angle_alpha 81.037618
_cell_angle_beta 108.902489
_cell_angle_gamma 149.240127
_cell_volume 713.771613
_symmetry_space_group_name_H-M "P -1"
_symmetry_group_IT_number 2
_symmetry_cell_setting 'triclinic'
loop_
_space_group_symop_operation_xyz
x,y,z
-x,-y,-z
loop_
_atom_site_type_symbol
_atom_site_label
_atom_site_fract_x
_atom_site_fract_y
_atom_site_fract_z
Si Si1 0.689104 0.964425 0.874719
Si Si2 0.303028 0.303470 0.371493
Si Si3 0.994270 0.690870 0.550864
Si Si4 0.639191 0.710434 0.936504
Si Si5 0.344915 0.804551 0.535305
Si Si6 0.856410 0.696964 0.201247
Si Si7 0.238655 0.994384 0.767341
Si Si8 0.561464 0.307785 0.607735
O O1 0.717906 0.870694 0.909130
O O2 0.449240 0.832259 0.725298
O O3 0.899940 0.152026 0.819418
O O4 0.710985 0.004617 0.045642
O O5 0.500000 0.500000 0.500000
O O6 0.331395 0.326217 0.198039
O O7 0.364328 0.237653 0.458260
O O8 0.026979 0.141178 0.322771
O O9 0.888011 0.693182 0.387872
O O10 0.805161 0.532623 0.635367
O O11 0.082591 0.664610 0.494348
O O12 0.218147 0.891377 0.675257
O O13 0.358221 0.513953 0.897614
O O14 0.775052 0.747606 0.115060
O O15 0.381167 0.747970 0.443844
O O16 0.500000 0.000000 0.500000
O O17 0.446029 0.203837 0.742282
#
# Coordination Sequence:
#
# PCOD9057153 Si02
#       8
#     2   2   2   2   2   2   2   2
#     4  12  25  44  69 103 139 183 233 292 348 409
#     4  12  23  44  69 104 145 181 223 285 354 425
#     4  12  25  47  71 104 138 189 241 287 345 412
#     4  11  24  41  67 107 138 182 233 282 353 420
#     4  12  24  47  78  98 133 188 249 291 335 413
#     4  11  22  41  71  95 141 179 232 287 340 416
#     4  12  27  42  69 105 144 183 225 291 357 420
#     4  12  25  47  71 103 141 187 236 282 354 416
#
# _framework density 22.416134
#
# number of rings (size 3 to 8) (size 9 to 14) (size 15 to 20)
#    0.000    0.250    7.500    1.125    0.000    4.500 
#    0.000    0.625    0.000    0.000    0.000    0.000 
#    0.000    0.000    0.000    0.000    0.000    0.000 
#
# Total GULP energy -89464.301689 kJ/mol
# GULP energy per Si atom -5591.518856 kJ/mol
# Density = 2.236511 g / cm^3
# Si number density = 22.416134 Si / 1000 Ang^3
#
#
#
# Elastic Constant Matrix: (Units=GPa)
#
#
# Indices 1 2 3 4 5 6 
#
# 1 72.7235 10.1608 11.4249 -3.2452 -6.0457 4.7454
# 2 10.1608 114.1632 20.8437 -24.9803 1.3347 9.6710
# 3 11.4249 20.8437 93.6387 -3.4701 3.0318 -2.4471
# 4 -3.2452 -24.9803 -3.4701 20.6901 0.4221 -0.9433
# 5 -6.0457 1.3347 3.0318 0.4221 13.8046 7.0926
# 6 4.7454 9.6710 -2.4471 -0.9433 7.0926 27.3044
#
#
#
# Elastic Compliance Matrix: (Units=1/GPa)
#
#
# Indices 1 2 3 4 5 6 
#
# 1 0.015371 -0.000387 -0.002207 0.001130 0.009928 -0.005272
# 2 -0.000387 0.012840 -0.002408 0.014816 0.000940 -0.004428
# 3 -0.002207 -0.002408 0.011706 -0.001023 -0.005111 0.003578
# 4 0.001130 0.014816 -0.001023 0.066118 -0.001228 -0.002933
# 5 0.009928 0.000940 -0.005111 -0.001228 0.091365 -0.026292
# 6 -0.005272 -0.004428 0.003578 -0.002933 -0.026292 0.046158
#
#
# Mechanical properties :
#
#
# Convention : Reuss Voigt Hill
#
# Bulk Modulus (GPa) = 33.43042 40.59824 37.01433
# Shear Modulus (GPa) = 18.97301 28.23288 23.60294
#
# Velocity S-wave (km/s) = 2.91245 3.55278 3.24843
# Velocity P-wave (km/s) = 5.12404 5.91440 5.53335
#
# Compressibility (1/GPa) = 0.02991287
#
# Stress axis : x y z
#
# Youngs Moduli (GPa) = 65.05649 77.88379 85.42888
#
# Poissons Ratio (x) = 0.03017 0.18850
# Poissons Ratio (y) = 0.02520 0.20570
# Poissons Ratio (z) = 0.14355 0.18754
#
# Static dielectric constant tensor:
#      x y z
#    x 1.866840 0.005910 -0.000780 
#    y 0.005910 1.856570 0.014970 
#    z -0.000780 0.014970 1.792430 
# 
# From -- ./inp_files/272978.got.cif
#   From: 2010.05.17/outbox.cif.g08.bks.cpg/sg2_137_cif.got.tgz:272978.got - 2010.06.03 11:33:40.
