data_PCOD9057768
_publ_section_title
;
Structure prediction by ZEFSAII (Michael W. Deem and Ramdas Pophale) SiO2 
 PCOD9057768
Probable space group: P -1
;
_chemical_formula_sum "Si O2"
_cell_formula_units_Z 13
_cell_length_a 8.822652
_cell_length_b 12.160132
_cell_length_c 7.689491
_cell_angle_alpha 53.892653
_cell_angle_beta 85.293317
_cell_angle_gamma 65.208757
_cell_volume 589.558236
_symmetry_space_group_name_H-M "P -1"
_symmetry_group_IT_number 2
_symmetry_cell_setting 'triclinic'
loop_
_space_group_symop_operation_xyz
x,y,z
-x,-y,-z
loop_
_atom_site_type_symbol
_atom_site_label
_atom_site_fract_x
_atom_site_fract_y
_atom_site_fract_z
Si Si1 0.739020 0.367760 0.618894
Si Si2 0.861442 0.812269 0.278436
Si Si3 0.401736 0.867662 0.146167
Si Si4 0.000000 0.500000 0.000000
Si Si5 0.415739 0.139642 0.508866
Si Si6 0.650599 0.520086 0.867909
Si Si7 0.734767 0.650720 0.176403
O O1 0.644950 0.267183 0.677000
O O2 0.683393 0.443340 0.744408
O O3 0.712813 0.501489 0.362368
O O4 0.939113 0.250400 0.697343
O O5 0.781724 0.821919 0.468060
O O6 0.818616 0.688568 0.300874
O O7 0.757666 0.978463 0.046096
O O8 0.487026 0.899963 0.277251
O O9 0.546313 0.792575 0.053055
O O10 0.160530 0.540921 0.007122
O O11 0.866910 0.620447 0.039891
O O12 0.413772 0.297009 0.306635
O O13 0.500000 0.000000 0.500000
O O14 0.500000 0.500000 0.000000
#
# Coordination Sequence:
#
# PCOD9057768 Si02
#       7
#     2   2   2   1   2   2   2
#     4  12  23  46  69 100 139 178 241 290 353 419
#     4  11  23  45  67  98 136 190 227 279 361 426
#     4  11  25  43  72  97 138 188 229 288 357 426
#     4  12  26  40  74 106 140 176 240 300 354 400
#     4  11  26  45  67  98 139 183 236 284 354 424
#     4  12  27  45  72 108 141 185 239 300 349 420
#     4  11  22  43  70  96 135 184 233 285 349 420
#
# _framework density 22.050408999999998
#
# number of rings (size 3 to 8) (size 9 to 14) (size 15 to 20)
#    0.000    0.615    4.615    5.077    8.615    0.000 
#    0.000    0.769    0.000    0.000    0.000    0.000 
#    0.000    0.000    0.000    0.000    0.000    0.000 
#
# Total GULP energy -72446.057317 kJ/mol
# GULP energy per Si atom -5572.773640 kJ/mol
# Density = 2.200022 g / cm^3
# Si number density = 22.050409 Si / 1000 Ang^3
#
#
#
# Elastic Constant Matrix: (Units=GPa)
#
#
# Indices 1 2 3 4 5 6 
#
# 1 149.8075 68.7527 46.8618 -14.2814 -8.8826 -29.1262
# 2 68.7527 190.3385 52.1719 -4.1305 -11.0495 -29.1507
# 3 46.8618 52.1719 91.7808 -19.9150 -9.9210 -23.4330
# 4 -14.2814 -4.1305 -19.9150 32.0752 -2.2132 4.8344
# 5 -8.8826 -11.0495 -9.9210 -2.2132 18.2765 3.6249
# 6 -29.1262 -29.1507 -23.4330 4.8344 3.6249 42.8774
#
#
#
# Elastic Compliance Matrix: (Units=1/GPa)
#
#
# Indices 1 2 3 4 5 6 
#
# 1 0.009239 -0.002133 -0.001981 0.002224 0.001731 0.003346
# 2 -0.002133 0.007107 -0.002740 -0.001960 0.001136 0.002010
# 3 -0.001981 -0.002740 0.017460 0.009388 0.007068 0.004678
# 4 0.002224 -0.001960 0.009388 0.038381 0.009606 0.000170
# 5 0.001731 0.001136 0.007068 0.009606 0.061334 -0.000457
# 6 0.003346 0.002010 0.004678 0.000170 -0.000457 0.029538
#
#
# Mechanical properties :
#
#
# Convention : Reuss Voigt Hill
#
# Bulk Modulus (GPa) = 49.75612 85.27772 67.51692
# Shear Modulus (GPa) = 27.25318 36.25517 31.75418
#
# Velocity S-wave (km/s) = 3.51942 4.05927 3.79894
# Velocity P-wave (km/s) = 6.25530 7.79283 7.06601
#
# Compressibility (1/GPa) = 0.02009803
#
# Stress axis : x y z
#
# Youngs Moduli (GPa) = 108.23614 140.71472 57.27503
#
# Poissons Ratio (x) = 0.30016 0.11344
# Poissons Ratio (y) = 0.23088 0.15692
# Poissons Ratio (z) = 0.21438 0.38553
#
# Static dielectric constant tensor:
#      x y z
#    x 1.831450 -0.014650 0.038460 
#    y -0.014650 1.809550 0.025380 
#    z 0.038460 0.025380 1.931050 
# 
# From -- ./inp_files/145164.got.cif
#   From: 2010.05.17/outbox.cif.g08.bks.cpg/sg2_73_cif.got.tgz:145164.got - 2010.06.03 11:33:40.
