data_PCOD9057672
_publ_section_title
;
Structure prediction by ZEFSAII (Michael W. Deem and Ramdas Pophale) SiO2 
 PCOD9057672
Probable space group: P -1
;
_chemical_formula_sum "Si O2"
_cell_formula_units_Z 14
_cell_length_a 11.221286
_cell_length_b 8.330006
_cell_length_c 20.313571
_cell_angle_alpha 60.230784
_cell_angle_beta 147.956660
_cell_angle_gamma 137.886183
_cell_volume 627.146221
_symmetry_space_group_name_H-M "P -1"
_symmetry_group_IT_number 2
_symmetry_cell_setting 'triclinic'
loop_
_space_group_symop_operation_xyz
x,y,z
-x,-y,-z
loop_
_atom_site_type_symbol
_atom_site_label
_atom_site_fract_x
_atom_site_fract_y
_atom_site_fract_z
Si Si1 0.706476 0.957522 0.892850
Si Si2 0.213211 0.741874 0.598984
Si Si3 0.254588 0.570728 0.184974
Si Si4 0.159712 0.075234 0.695808
Si Si5 0.400856 0.073126 0.498104
Si Si6 0.305625 0.383702 0.523647
Si Si7 0.581175 0.018966 0.957265
O O1 0.425652 0.763142 0.748836
O O2 0.750410 0.208570 0.855103
O O3 0.628476 0.888764 0.948835
O O4 0.000000 0.000000 0.000000
O O5 0.000000 0.500000 0.500000
O O6 0.951797 0.704016 0.525120
O O7 0.426890 0.981270 0.598750
O O8 0.520792 0.665601 0.237379
O O9 0.392268 0.544455 0.318519
O O10 0.921342 0.310906 0.057653
O O11 0.277837 0.948307 0.802021
O O12 0.970071 0.094911 0.651726
O O13 0.891681 0.871220 0.560064
O O14 0.586567 0.372056 0.514817
O O15 0.500000 0.000000 0.500000
O O16 0.500000 0.000000 0.000000
#
# Coordination Sequence:
#
# PCOD9057672 Si02
#       7
#     2   2   2   2   2   2   2
#     4  11  26  47  72 105 144 195 249 300 376 442
#     4  12  25  45  73 105 149 189 239 307 379 429
#     4  11  23  45  75 103 143 200 242 298 369 442
#     4  11  22  43  68 101 141 190 245 294 360 443
#     4  12  26  40  69 114 144 186 244 306 369 430
#     4  12  23  46  72 104 142 190 247 301 357 439
#     4  11  25  45  71 107 144 194 250 301 365 447
#
# _framework density 22.323340999999999
#
# number of rings (size 3 to 8) (size 9 to 14) (size 15 to 20)
#    0.000    0.571    5.714    4.286    2.000    3.429 
#    0.000    0.714    0.000    0.000    0.000    0.000 
#    0.000    0.000    0.000    0.000    0.000    0.000 
#
# Total GULP energy -77994.185272 kJ/mol
# GULP energy per Si atom -5571.013234 kJ/mol
# Density = 2.227253 g / cm^3
# Si number density = 22.323341 Si / 1000 Ang^3
#
#
#
# Elastic Constant Matrix: (Units=GPa)
#
#
# Indices 1 2 3 4 5 6 
#
# 1 189.2139 37.3719 58.6758 0.4677 20.3002 12.6836
# 2 37.3719 75.4380 22.8959 11.6995 1.1920 19.9409
# 3 58.6758 22.8959 132.7979 7.6559 10.4710 -14.0044
# 4 0.4677 11.6995 7.6559 28.7781 -1.5690 2.2755
# 5 20.3002 1.1920 10.4710 -1.5690 51.1388 -2.5592
# 6 12.6836 19.9409 -14.0044 2.2755 -2.5592 35.0177
#
#
#
# Elastic Compliance Matrix: (Units=1/GPa)
#
#
# Indices 1 2 3 4 5 6 
#
# 1 0.007037 -0.002048 -0.002973 0.001612 -0.002230 -0.002839
# 2 -0.002048 0.019080 -0.003223 -0.005980 0.000294 -0.011002
# 3 -0.002973 -0.003223 0.010309 -0.001977 -0.000560 0.007122
# 4 0.001612 -0.005980 -0.001977 0.037764 0.001046 -0.000347
# 5 -0.002230 0.000294 -0.000560 0.001046 0.020673 0.001859
# 6 -0.002839 -0.011002 0.007122 -0.000347 0.001859 0.038857
#
#
# Mechanical properties :
#
#
# Convention : Reuss Voigt Hill
#
# Bulk Modulus (GPa) = 50.15732 70.59297 60.37514
# Shear Modulus (GPa) = 31.87688 41.55400 36.71544
#
# Velocity S-wave (km/s) = 3.78294 4.31914 4.05990
# Velocity P-wave (km/s) = 6.44966 7.52097 7.00582
#
# Compressibility (1/GPa) = 0.01993727
#
# Stress axis : x y z
#
# Youngs Moduli (GPa) = 142.10789 52.41097 97.00602
#
# Poissons Ratio (x) = 0.10735 0.28836
# Poissons Ratio (y) = 0.29107 0.31268
# Poissons Ratio (z) = 0.42243 0.16894
#
# Static dielectric constant tensor:
#      x y z
#    x 1.982780 0.017570 -0.003420 
#    y 0.017570 1.940400 -0.053850 
#    z -0.003420 -0.053850 1.767330 
# 
# From -- ./inp_files/255986.got.cif
#   From: 2010.05.17/outbox.cif.g08.bks.cpg/sg2_128_cif.got.tgz:255986.got - 2010.06.03 11:33:40.
