data_PCOD9057255
_publ_section_title
;
Structure prediction by ZEFSAII (Michael W. Deem and Ramdas Pophale) SiO2 
 PCOD9057255
Probable space group: P -1
;
_chemical_formula_sum "Si O2"
_cell_formula_units_Z 16
_cell_length_a 18.019187
_cell_length_b 6.504673
_cell_length_c 8.908145
_cell_angle_alpha 75.530624
_cell_angle_beta 105.545245
_cell_angle_gamma 58.197301
_cell_volume 751.067257
_symmetry_space_group_name_H-M "P -1"
_symmetry_group_IT_number 2
_symmetry_cell_setting 'triclinic'
loop_
_space_group_symop_operation_xyz
x,y,z
-x,-y,-z
loop_
_atom_site_type_symbol
_atom_site_label
_atom_site_fract_x
_atom_site_fract_y
_atom_site_fract_z
Si Si1 0.101358 0.274109 0.185663
Si Si2 0.099648 0.906246 0.493290
Si Si3 0.406982 0.304199 0.457496
Si Si4 0.259425 0.867528 0.769039
Si Si5 0.284550 0.894465 0.133659
Si Si6 0.777747 0.651234 0.531874
Si Si7 0.463183 0.328348 0.992253
Si Si8 0.560448 0.033732 0.812182
O O1 0.149722 0.379298 0.293497
O O2 0.081599 0.116767 0.318827
O O3 0.185501 0.060452 0.149395
O O4 0.000000 0.500000 0.000000
O O5 0.162905 0.908688 0.657685
O O6 0.160864 0.611999 0.497091
O O7 0.000000 0.000000 0.500000
O O8 0.358678 0.578812 0.286853
O O9 0.316227 0.310452 0.456365
O O10 0.464390 0.303392 0.631768
O O11 0.500000 0.000000 0.500000
O O12 0.351691 0.554860 0.830508
O O13 0.261504 0.080642 0.636083
O O14 0.264461 0.902967 0.943559
O O15 0.340098 0.022238 0.171276
O O16 0.547506 0.091777 0.971482
O O17 0.500000 0.500000 0.000000
O O18 0.450669 0.200492 0.152483
#
# Coordination Sequence:
#
# PCOD9057255 Si02
#       8
#     2   2   2   2   2   2   2   2
#     4  11  28  49  74 105 146 183 237 305 364 431
#     4  11  27  49  76 102 138 190 241 299 366 425
#     4  12  25  44  72 102 150 195 234 293 361 427
#     4  11  26  42  73 102 145 181 245 293 349 433
#     4  12  26  46  68 113 146 189 243 298 365 431
#     4  11  26  49  72 107 143 190 242 291 360 438
#     4  11  22  42  65 104 138 190 240 287 340 420
#     4  11  25  39  69  99 145 189 239 289 353 417
#
# _framework density 21.303018999999999
#
# number of rings (size 3 to 8) (size 9 to 14) (size 15 to 20)
#    0.000    0.750    2.500    3.375   10.500    2.500 
#    0.000    0.000    0.000    0.000    0.000    0.000 
#    0.000    0.000    0.000    0.000    0.000    0.000 
#
# Total GULP energy -89347.677873 kJ/mol
# GULP energy per Si atom -5584.229867 kJ/mol
# Density = 2.125453 g / cm^3
# Si number density = 21.303019 Si / 1000 Ang^3
#
#
#
# Elastic Constant Matrix: (Units=GPa)
#
#
# Indices 1 2 3 4 5 6 
#
# 1 181.6605 41.0374 66.1716 -8.5726 -5.4586 -9.3377
# 2 41.0374 76.0740 34.7179 -2.5984 -10.1864 -12.4597
# 3 66.1716 34.7179 151.2682 -11.1733 8.7989 5.9143
# 4 -8.5726 -2.5984 -11.1733 31.4401 -0.7204 -2.1645
# 5 -5.4586 -10.1864 8.7989 -0.7204 25.7282 -2.9116
# 6 -9.3377 -12.4597 5.9143 -2.1645 -2.9116 32.4232
#
#
#
# Elastic Compliance Matrix: (Units=1/GPa)
#
#
# Indices 1 2 3 4 5 6 
#
# 1 0.007185 -0.001951 -0.002819 0.000984 0.001979 0.002077
# 2 -0.001951 0.018807 -0.004318 0.000277 0.009458 0.008321
# 3 -0.002819 -0.004318 0.009499 0.001794 -0.006030 -0.004626
# 4 0.000984 0.000277 0.001794 0.032917 0.000892 0.002340
# 5 0.001979 0.009458 -0.006030 0.000892 0.046196 0.009512
# 6 0.002077 0.008321 -0.004626 0.002340 0.009512 0.036492
#
#
# Mechanical properties :
#
#
# Convention : Reuss Voigt Hill
#
# Bulk Modulus (GPa) = 57.75175 76.98405 67.36790
# Shear Modulus (GPa) = 28.56442 35.72335 32.14388
#
# Velocity S-wave (km/s) = 3.66575 4.09946 3.88866
# Velocity P-wave (km/s) = 6.71457 7.65660 7.20101
#
# Compressibility (1/GPa) = 0.01731549
#
# Stress axis : x y z
#
# Youngs Moduli (GPa) = 139.18031 53.17226 105.27361
#
# Poissons Ratio (x) = 0.10371 0.29676
# Poissons Ratio (y) = 0.27148 0.45459
# Poissons Ratio (z) = 0.39234 0.22961
#
# Static dielectric constant tensor:
#      x y z
#    x 1.753870 0.070540 -0.171850 
#    y 0.070540 1.879810 0.284280 
#    z -0.171850 0.284280 1.670670 
# 
# From -- ./inp_files/323461.got.cif
#   From: 2010.05.17/outbox.cif.g08.bks.cpg/sg2_162_cif.got.tgz:323461.got - 2010.06.03 11:33:40.
