data_PCOD9057274
_publ_section_title
;
Structure prediction by ZEFSAII (Michael W. Deem and Ramdas Pophale) SiO2 
 PCOD9057274
Probable space group: P -1
;
_chemical_formula_sum "Si O2"
_cell_formula_units_Z 16
_cell_length_a 18.380971
_cell_length_b 11.626653
_cell_length_c 9.428718
_cell_angle_alpha 52.071203
_cell_angle_beta 49.995457
_cell_angle_gamma 28.399092
_cell_volume 727.370732
_symmetry_space_group_name_H-M "P -1"
_symmetry_group_IT_number 2
_symmetry_cell_setting 'triclinic'
loop_
_space_group_symop_operation_xyz
x,y,z
-x,-y,-z
loop_
_atom_site_type_symbol
_atom_site_label
_atom_site_fract_x
_atom_site_fract_y
_atom_site_fract_z
Si Si1 0.561638 0.862383 0.177903
Si Si2 0.202774 0.692216 0.624811
Si Si3 0.953991 0.635196 0.313069
Si Si4 0.148122 0.307290 0.065982
Si Si5 0.616821 0.967260 0.455601
Si Si6 0.852179 0.008586 0.758138
Si Si7 0.856507 0.081972 0.179392
Si Si8 0.634295 0.265564 0.103375
O O1 0.663466 0.586330 0.277909
O O2 0.414659 0.022740 0.346673
O O3 0.689909 0.825053 0.096156
O O4 0.500000 0.000000 0.000000
O O5 0.230120 0.756744 0.400998
O O6 0.168488 0.843464 0.683850
O O7 0.037921 0.812880 0.701235
O O8 0.803704 0.730078 0.367396
O O9 0.899128 0.862408 0.258036
O O10 0.000000 0.500000 0.500000
O O11 0.095147 0.460374 0.155752
O O12 0.169269 0.110387 0.217117
O O13 0.000000 0.500000 0.000000
O O14 0.500000 0.000000 0.500000
O O15 0.577862 0.181469 0.300774
O O16 0.777363 0.069272 0.959675
O O17 0.696035 0.296698 0.125716
O O18 0.000000 0.000000 0.000000
O O19 0.500000 0.500000 0.000000
#
# Coordination Sequence:
#
# PCOD9057274 Si02
#       8
#     2   2   2   2   2   2   2   2
#     4  12  26  45  68 103 141 182 233 290 358 415
#     4  11  24  42  70 102 140 181 235 291 347 423
#     4  11  24  42  65  98 131 175 226 280 340 406
#     4  12  22  42  71  97 135 183 232 288 340 416
#     4  11  25  44  65  98 135 176 229 280 344 412
#     4  11  23  43  70 104 135 184 238 287 351 416
#     4  11  22  42  65  99 136 178 231 282 342 415
#     4  11  24  44  68  98 142 181 228 283 353 421
#
# _framework density 21.997036999999999
#
# number of rings (size 3 to 8) (size 9 to 14) (size 15 to 20)
#    0.000    0.750    2.500    6.000    0.000    4.000 
#    0.000    3.750    0.000    0.000    0.000    0.000 
#    0.000    0.000    0.000    0.000    0.000    0.000 
#
# Total GULP energy -89421.052379 kJ/mol
# GULP energy per Si atom -5588.815774 kJ/mol
# Density = 2.194697 g / cm^3
# Si number density = 21.997037 Si / 1000 Ang^3
#
#
#
# Elastic Constant Matrix: (Units=GPa)
#
#
# Indices 1 2 3 4 5 6 
#
# 1 102.5572 7.8205 32.5105 -7.5142 -13.1146 -7.2189
# 2 7.8205 52.4307 24.6070 -10.9189 -6.2763 -6.0980
# 3 32.5105 24.6070 145.8131 -9.5018 1.4654 -6.4816
# 4 -7.5142 -10.9189 -9.5018 40.5320 -4.7398 8.2950
# 5 -13.1146 -6.2763 1.4654 -4.7398 40.7003 5.0283
# 6 -7.2189 -6.0980 -6.4816 8.2950 5.0283 34.3973
#
#
#
# Elastic Compliance Matrix: (Units=1/GPa)
#
#
# Indices 1 2 3 4 5 6 
#
# 1 0.011190 0.000442 -0.002444 0.001878 0.003863 0.000949
# 2 0.000442 0.022473 -0.003509 0.005501 0.004193 0.001476
# 3 -0.002444 -0.003509 0.008049 0.000174 -0.001670 0.000584
# 4 0.001878 0.005501 0.000174 0.028475 0.005539 -0.006274
# 5 0.003863 0.004193 -0.001670 0.005539 0.027678 -0.004142
# 6 0.000949 0.001476 0.000584 -0.006274 -0.004142 0.031761
#
#
# Mechanical properties :
#
#
# Convention : Reuss Voigt Hill
#
# Bulk Modulus (GPa) = 32.58360 47.85300 40.21830
# Shear Modulus (GPa) = 33.13928 38.85013 35.99471
#
# Velocity S-wave (km/s) = 3.88562 4.20712 4.04956
# Velocity P-wave (km/s) = 5.91402 6.73805 6.33944
#
# Compressibility (1/GPa) = 0.03069029
#
# Stress axis : x y z
#
# Youngs Moduli (GPa) = 89.36507 44.49783 124.23612
#
# Poissons Ratio (x) = -0.01966 0.30360
# Poissons Ratio (y) = -0.03948 0.43594
# Poissons Ratio (z) = 0.21839 0.15614
#
# Static dielectric constant tensor:
#      x y z
#    x 1.726670 -0.347380 -0.162580 
#    y -0.347380 0.316590 -0.809180 
#    z -0.162580 -0.809180 1.371090 
# 
# From -- ./inp_files/332841.got.cif
#   From: 2010.05.17/outbox.cif.g08.bks.cpg/sg2_167_cif.got.tgz:332841.got - 2010.06.03 11:33:40.
