data_PCOD9057665
_publ_section_title
;
Structure prediction by ZEFSAII (Michael W. Deem and Ramdas Pophale) SiO2 
 PCOD9057665
Probable space group: P -1
;
_chemical_formula_sum "Si O2"
_cell_formula_units_Z 14
_cell_length_a 8.938087
_cell_length_b 17.338956
_cell_length_c 11.745615
_cell_angle_alpha 28.276432
_cell_angle_beta 44.974394
_cell_angle_gamma 44.761227
_cell_volume 588.528877
_symmetry_space_group_name_H-M "P -1"
_symmetry_group_IT_number 2
_symmetry_cell_setting 'triclinic'
loop_
_space_group_symop_operation_xyz
x,y,z
-x,-y,-z
loop_
_atom_site_type_symbol
_atom_site_label
_atom_site_fract_x
_atom_site_fract_y
_atom_site_fract_z
Si Si1 0.549668 0.680329 0.738638
Si Si2 0.996294 0.601136 0.488433
Si Si3 0.900705 0.031366 0.387601
Si Si4 0.721078 0.458685 0.361552
Si Si5 0.344906 0.239371 0.176351
Si Si6 0.309295 0.914138 0.175431
Si Si7 0.235451 0.880129 0.004292
O O1 0.315489 0.815489 0.684511
O O2 0.656984 0.696762 0.779844
O O3 0.738270 0.691235 0.531968
O O4 0.500000 0.500000 0.000000
O O5 0.092768 0.534930 0.650025
O O6 0.166014 0.712356 0.228772
O O7 0.000000 0.500000 0.500000
O O8 0.826634 0.866411 0.610194
O O9 0.000000 0.000000 0.500000
O O10 0.085561 0.038527 0.184676
O O11 0.500000 0.500000 0.500000
O O12 0.719887 0.277724 0.537320
O O13 0.700395 0.605128 0.089348
O O14 0.584825 0.108587 0.198001
O O15 0.346515 0.892858 0.048271
O O16 0.500000 0.000000 0.000000
O O17 0.000000 0.000000 0.000000
#
# Coordination Sequence:
#
# PCOD9057665 Si02
#       7
#     2   2   2   2   2   2   2
#     4  12  29  48  74 112 152 200 251 316 385 446
#     4  11  25  46  72 105 150 195 249 307 370 453
#     4  12  29  48  74 112 152 200 251 316 385 446
#     4  11  25  45  78 112 144 202 256 313 377 441
#     4  12  24  49  76 106 155 191 256 316 376 452
#     4  11  25  46  72 105 150 195 249 307 370 453
#     4  11  22  43  68 100 136 199 244 297 368 437
#
# _framework density 23.788126999999999
#
# number of rings (size 3 to 8) (size 9 to 14) (size 15 to 20)
#    0.000    0.571    2.857    5.571    4.000    2.286 
#    0.000    0.000    0.000    0.000    0.000    0.000 
#    0.000    0.000    0.000    0.000    0.000    0.000 
#
# Total GULP energy -78134.320793 kJ/mol
# GULP energy per Si atom -5581.022914 kJ/mol
# Density = 2.373398 g / cm^3
# Si number density = 23.788127 Si / 1000 Ang^3
#
#
#
# Elastic Constant Matrix: (Units=GPa)
#
#
# Indices 1 2 3 4 5 6 
#
# 1 179.0372 82.8864 63.7575 -18.7200 -32.1152 31.2764
# 2 82.8864 179.8399 46.0662 21.2972 -17.1641 -7.2032
# 3 63.7575 46.0662 84.4577 -5.1776 -17.6024 2.7908
# 4 -18.7200 21.2972 -5.1776 47.4670 -5.2138 -9.4174
# 5 -32.1152 -17.1641 -17.6024 -5.2138 44.7138 -4.8932
# 6 31.2764 -7.2032 2.7908 -9.4174 -4.8932 54.7615
#
#
#
# Elastic Compliance Matrix: (Units=1/GPa)
#
#
# Indices 1 2 3 4 5 6 
#
# 1 0.012018 -0.004714 -0.004937 0.005702 0.004907 -0.005813
# 2 -0.004714 0.008916 -0.001969 -0.005616 -0.001075 0.002904
# 3 -0.004937 -0.001969 0.017274 0.001581 0.002925 0.002214
# 4 0.005702 -0.005616 0.001581 0.026857 0.005810 0.001062
# 5 0.004907 -0.001075 0.002925 0.005810 0.027344 0.000349
# 6 -0.005813 0.002904 0.002214 0.001062 0.000349 0.022064
#
#
# Mechanical properties :
#
#
# Convention : Reuss Voigt Hill
#
# Bulk Modulus (GPa) = 66.80427 92.08390 79.44408
# Shear Modulus (GPa) = 35.03788 46.09678 40.56733
#
# Velocity S-wave (km/s) = 3.84202 4.40683 4.13408
# Velocity P-wave (km/s) = 6.91560 8.04286 7.50044
#
# Compressibility (1/GPa) = 0.01496910
#
# Stress axis : x y z
#
# Youngs Moduli (GPa) = 83.20957 112.15413 57.88899
#
# Poissons Ratio (x) = 0.52870 0.28578
# Poissons Ratio (y) = 0.39226 0.11398
# Poissons Ratio (z) = 0.41078 0.22083
#
# Static dielectric constant tensor:
#      x y z
#    x 1.773200 -0.101620 0.120780 
#    y -0.101620 1.848400 -0.041180 
#    z 0.120780 -0.041180 1.927660 
# 
# From -- ./inp_files/401618.got.cif
#   From: 2010.05.17/outbox.cif.g08.bks.cpg/sg2_201_cif.got.tgz:401618.got - 2010.06.03 11:33:40.
