data_PCOD9057518
_publ_section_title
;
Structure prediction by ZEFSAII (Michael W. Deem and Ramdas Pophale) SiO2 
 PCOD9057518
Probable space group: P -1
;
_chemical_formula_sum "Si O2"
_cell_formula_units_Z 15
_cell_length_a 12.535609
_cell_length_b 20.100660
_cell_length_c 14.260294
_cell_angle_alpha 19.709281
_cell_angle_beta 38.239709
_cell_angle_gamma 30.501523
_cell_volume 608.088391
_symmetry_space_group_name_H-M "P -1"
_symmetry_group_IT_number 2
_symmetry_cell_setting 'triclinic'
loop_
_space_group_symop_operation_xyz
x,y,z
-x,-y,-z
loop_
_atom_site_type_symbol
_atom_site_label
_atom_site_fract_x
_atom_site_fract_y
_atom_site_fract_z
Si Si1 0.447351 0.337010 0.808245
Si Si2 0.037556 0.491377 0.112745
Si Si3 0.296710 0.917041 0.663353
Si Si4 0.038196 0.919270 0.473334
Si Si5 0.314001 0.052197 0.994138
Si Si6 0.777808 0.609516 0.684805
Si Si7 0.000000 0.500000 0.500000
Si Si8 0.230708 0.916478 0.920311
O O1 0.500000 0.500000 0.500000
O O2 0.591833 0.083066 0.990207
O O3 0.202514 0.432250 0.837260
O O4 0.560192 0.289878 0.893669
O O5 0.067640 0.541574 0.133475
O O6 0.210463 0.202740 0.355338
O O7 0.077596 0.657055 0.801966
O O8 0.542005 0.724812 0.729549
O O9 0.245629 0.862859 0.871599
O O10 0.170872 0.915703 0.664393
O O11 0.204784 0.941375 0.271433
O O12 0.000000 0.000000 0.500000
O O13 0.500000 0.000000 0.000000
O O14 0.163697 0.332139 0.694992
O O15 0.814587 0.526922 0.661326
O O16 0.785914 0.841107 0.369776
O O17 0.000000 0.000000 0.000000
#
# Coordination Sequence:
#
# PCOD9057518 Si02
#       8
#     2   2   2   2   2   2   1   2
#     4  12  24  45  80 115 149 202 256 321 393 457
#     4  11  24  48  76 113 151 198 256 323 390 463
#     4  11  26  46  76 110 156 197 255 319 395 465
#     4  12  26  47  74 111 154 197 256 314 391 475
#     4  12  28  51  77 110 155 207 260 322 395 474
#     4  11  24  46  74 106 145 207 249 320 386 460
#     4  12  26  50  78 102 158 200 268 312 396 472
#     4  11  22  42  72 109 152 190 255 317 374 462
#
# _framework density 24.667466000000001
#
# number of rings (size 3 to 8) (size 9 to 14) (size 15 to 20)
#    0.000    0.533    1.333    8.400    1.867    3.200 
#    2.400    1.333    0.000    0.000    0.000    0.000 
#    0.000    0.000    0.000    0.000    0.000    0.000 
#
# Total GULP energy -83668.845189 kJ/mol
# GULP energy per Si atom -5577.923013 kJ/mol
# Density = 2.461132 g / cm^3
# Si number density = 24.667466 Si / 1000 Ang^3
#
#
#
# Elastic Constant Matrix: (Units=GPa)
#
#
# Indices 1 2 3 4 5 6 
#
# 1 187.7333 76.0766 63.0380 24.0275 47.3030 -8.9545
# 2 76.0766 168.4516 42.0421 35.4836 25.8571 -13.0264
# 3 63.0380 42.0421 101.0640 20.6635 46.4250 -12.4817
# 4 24.0275 35.4836 20.6635 33.0250 7.0339 2.8698
# 5 47.3030 25.8571 46.4250 7.0339 50.6891 -0.8719
# 6 -8.9545 -13.0264 -12.4817 2.8698 -0.8719 53.4496
#
#
#
# Elastic Compliance Matrix: (Units=1/GPa)
#
#
# Indices 1 2 3 4 5 6 
#
# 1 0.008197 -0.002179 -0.001582 -0.001640 -0.004852 0.000482
# 2 -0.002179 0.008985 0.000352 -0.008127 -0.001705 0.002316
# 3 -0.001582 0.000352 0.020694 -0.009126 -0.016306 0.004877
# 4 -0.001640 -0.008127 -0.009126 0.044857 0.007696 -0.006670
# 5 -0.004852 -0.001705 -0.016306 0.007696 0.038909 -0.004815
# 6 0.000482 0.002316 0.004877 -0.006670 -0.004815 0.020773
#
#
# Mechanical properties :
#
#
# Convention : Reuss Voigt Hill
#
# Bulk Modulus (GPa) = 32.19848 91.06250 61.63049
# Shear Modulus (GPa) = 31.33121 45.83889 38.58505
#
# Velocity S-wave (km/s) = 3.56777 4.31545 3.95930
# Velocity P-wave (km/s) = 5.48209 7.86301 6.77792
#
# Compressibility (1/GPa) = 0.03105737
#
# Stress axis : x y z
#
# Youngs Moduli (GPa) = 122.00036 111.29051 48.32423
#
# Poissons Ratio (x) = 0.24254 0.07646
# Poissons Ratio (y) = 0.26588 -0.01702
# Poissons Ratio (z) = 0.19302 -0.03921
#
# Static dielectric constant tensor:
#      x y z
#    x 1.954050 0.064320 -0.024170 
#    y 0.064320 2.105160 -0.071780 
#    z -0.024170 -0.071780 2.028780 
# 
# From -- ./inp_files/524010.got.cif
#   From: 2010.05.17/outbox.cif.g08.bks.cpg/sg2_263_cif.got.tgz:524010.got - 2010.06.03 11:33:40.
