data_PCOD9057835
_publ_section_title
;
Structure prediction by ZEFSAII (Michael W. Deem and Ramdas Pophale) SiO2 
 PCOD9057835
Probable space group: P -1
;
_chemical_formula_sum "Si O2"
_cell_formula_units_Z 16
_cell_length_a 9.478747
_cell_length_b 14.144395
_cell_length_c 9.382711
_cell_angle_alpha 77.980748
_cell_angle_beta 62.986666
_cell_angle_gamma 39.666134
_cell_volume 692.899406
_symmetry_space_group_name_H-M "P -1"
_symmetry_group_IT_number 2
_symmetry_cell_setting 'triclinic'
loop_
_space_group_symop_operation_xyz
x,y,z
-x,-y,-z
loop_
_atom_site_type_symbol
_atom_site_label
_atom_site_fract_x
_atom_site_fract_y
_atom_site_fract_z
Si Si1 0.628809 0.802865 0.944500
Si Si2 0.467411 0.049220 0.760995
Si Si3 0.254021 0.588004 0.421467
Si Si4 0.960000 0.667783 0.263509
Si Si5 0.185779 0.468321 0.733282
Si Si6 0.835386 0.118247 0.909367
Si Si7 0.942791 0.929161 0.465692
Si Si8 0.415505 0.448369 0.905062
O O1 0.893790 0.625957 0.854642
O O2 0.598707 0.889351 0.798232
O O3 0.636791 0.856248 0.073063
O O4 0.371099 0.865006 0.041473
O O5 0.233895 0.153908 0.730151
O O6 0.673948 0.018940 0.606053
O O7 0.283348 0.504511 0.568674
O O8 0.497006 0.500461 0.242819
O O9 0.068809 0.622017 0.385397
O O10 0.132318 0.749807 0.464909
O O11 0.815737 0.636134 0.304802
O O12 0.182585 0.571126 0.077053
O O13 0.339913 0.407214 0.828260
O O14 0.648547 0.299749 0.939784
O O15 0.023276 0.056120 0.716933
O O16 0.000000 0.000000 0.000000
O O17 0.000000 0.000000 0.500000
#
# Coordination Sequence:
#
# PCOD9057835 Si02
#       8
#     2   2   2   2   2   2   2   2
#     4  11  22  43  72 104 137 186 242 283 342 424
#     4  11  24  42  70 104 139 186 240 287 343 419
#     4  11  27  45  67 108 145 179 233 294 357 411
#     4  12  25  44  72 104 145 183 230 297 353 407
#     4  12  23  47  76 103 140 190 238 285 342 435
#     4  11  25  44  71 103 138 180 234 291 352 410
#     4  11  24  46  71  98 143 187 234 286 349 421
#     4  11  24  47  73 100 140 191 233 283 354 423
#
# _framework density 23.091374999999999
#
# number of rings (size 3 to 8) (size 9 to 14) (size 15 to 20)
#    0.000    0.750    5.000    2.250    5.250    1.500 
#    2.250    0.000    0.000    0.000    0.000    0.000 
#    0.000    0.000    0.000    0.000    0.000    0.000 
#
# Total GULP energy -89526.056299 kJ/mol
# GULP energy per Si atom -5595.378519 kJ/mol
# Density = 2.303882 g / cm^3
# Si number density = 23.091375 Si / 1000 Ang^3
#
#
#
# Elastic Constant Matrix: (Units=GPa)
#
#
# Indices 1 2 3 4 5 6 
#
# 1 96.4736 30.8544 24.2044 -15.8424 4.9278 7.8759
# 2 30.8544 106.9552 59.8497 -20.6586 -2.9324 -16.8633
# 3 24.2044 59.8497 121.5310 -22.4442 -28.7845 -0.2766
# 4 -15.8424 -20.6586 -22.4442 39.2072 0.1883 5.0564
# 5 4.9278 -2.9324 -28.7845 0.1883 36.2500 -5.1384
# 6 7.8759 -16.8633 -0.2766 5.0564 -5.1384 33.7511
#
#
#
# Elastic Compliance Matrix: (Units=1/GPa)
#
#
# Indices 1 2 3 4 5 6 
#
# 1 0.013020 -0.003458 -0.001150 0.003558 -0.003816 -0.005890
# 2 -0.003458 0.016170 -0.007703 0.001686 -0.003201 0.008083
# 3 -0.001150 -0.007703 0.015944 0.004853 0.011832 -0.002375
# 4 0.003558 0.001686 0.004853 0.031138 0.002750 -0.004194
# 5 -0.003816 -0.003201 0.011832 0.002750 0.037900 0.004746
# 6 -0.005890 0.008083 -0.002375 -0.004194 0.004746 0.036373
#
#
# Mechanical properties :
#
#
# Convention : Reuss Voigt Hill
#
# Bulk Modulus (GPa) = 48.75307 61.64187 55.19747
# Shear Modulus (GPa) = 27.47179 35.84508 31.65844
#
# Velocity S-wave (km/s) = 3.45294 3.94422 3.70673
# Velocity P-wave (km/s) = 6.08737 6.89167 6.50197
#
# Compressibility (1/GPa) = 0.02051153
#
# Stress axis : x y z
#
# Youngs Moduli (GPa) = 76.80319 61.84257 62.71952
#
# Poissons Ratio (x) = 0.21388 0.07214
# Poissons Ratio (y) = 0.26562 0.48312
# Poissons Ratio (z) = 0.08833 0.47636
#
# Static dielectric constant tensor:
#      x y z
#    x 1.924280 0.046400 -0.000220 
#    y 0.046400 1.871140 -0.002970 
#    z -0.000220 -0.002970 1.821410 
# 
# From -- ./inp_files/206807.got.cif
#   From: 2010.05.17/outbox.cif.g08.bks.cpg/sg2_104_cif.got.tgz:206807.got - 2010.06.03 11:33:40.
