data_PCOD9057715
_publ_section_title
;
Structure prediction by ZEFSAII (Michael W. Deem and Ramdas Pophale) SiO2 
 PCOD9057715
Probable space group: P -1
;
_chemical_formula_sum "Si O2"
_cell_formula_units_Z 16
_cell_length_a 15.387504
_cell_length_b 9.762507
_cell_length_c 9.176601
_cell_angle_alpha 121.375171
_cell_angle_beta 142.062279
_cell_angle_gamma 64.816152
_cell_volume 723.298349
_symmetry_space_group_name_H-M "P -1"
_symmetry_group_IT_number 2
_symmetry_cell_setting 'triclinic'
loop_
_space_group_symop_operation_xyz
x,y,z
-x,-y,-z
loop_
_atom_site_type_symbol
_atom_site_label
_atom_site_fract_x
_atom_site_fract_y
_atom_site_fract_z
Si Si1 0.821919 0.711721 0.882600
Si Si2 0.768394 0.232585 0.725254
Si Si3 0.461855 0.314009 0.322658
Si Si4 0.423319 0.289358 0.910375
Si Si5 0.931732 0.354130 0.237555
Si Si6 0.301281 0.645298 0.863881
Si Si7 0.120482 0.652989 0.349443
Si Si8 0.820620 0.879847 0.662872
O O1 0.680667 0.721164 0.797510
O O2 0.852260 0.532013 0.762948
O O3 0.809922 0.823254 0.785300
O O4 0.964684 0.732467 0.174744
O O5 0.601417 0.229361 0.529364
O O6 0.784594 0.250645 0.583835
O O7 0.842368 0.067277 0.779943
O O8 0.860780 0.378495 0.996279
O O9 0.500000 0.500000 0.500000
O O10 0.445480 0.280207 0.109057
O O11 0.353550 0.466358 0.881475
O O12 0.319404 0.161575 0.635786
O O13 0.566029 0.278118 0.996634
O O14 0.788555 0.286434 0.082506
O O15 0.000000 0.500000 0.500000
O O16 0.058127 0.227791 0.313442
O O17 0.179536 0.650614 0.586305
#
# Coordination Sequence:
#
# PCOD9057715 Si02
#       8
#     2   2   2   2   2   2   2   2
#     4  11  24  41  71 103 138 185 240 286 343 422
#     4  12  27  48  71 103 149 183 228 296 362 410
#     4  12  25  43  73 104 137 186 246 290 333 417
#     4  11  24  43  67 104 145 179 231 295 351 399
#     4  12  25  44  74 105 133 188 238 284 341 430
#     4  11  23  41  71 103 134 182 241 291 330 415
#     4  11  22  43  69 104 138 182 238 291 342 409
#     4  12  27  47  70 105 150 185 223 296 367 409
#
# _framework density 22.120885000000001
#
# number of rings (size 3 to 8) (size 9 to 14) (size 15 to 20)
#    0.000    0.500    6.250    1.125    7.000    1.000 
#    0.000    0.625    0.000    0.000    0.000    0.000 
#    0.000    0.000    0.000    0.000    0.000    0.000 
#
# Total GULP energy -89338.604370 kJ/mol
# GULP energy per Si atom -5583.662773 kJ/mol
# Density = 2.207054 g / cm^3
# Si number density = 22.120885 Si / 1000 Ang^3
#
#
#
# Elastic Constant Matrix: (Units=GPa)
#
#
# Indices 1 2 3 4 5 6 
#
# 1 117.7247 21.8217 19.9249 -5.4940 21.2722 -1.4228
# 2 21.8217 51.8638 28.6405 -16.2787 -8.4804 4.1523
# 3 19.9249 28.6405 127.5970 -10.2673 1.4558 -5.6778
# 4 -5.4940 -16.2787 -10.2673 28.9224 0.9055 -0.6333
# 5 21.2722 -8.4804 1.4558 0.9055 38.9813 -11.7521
# 6 -1.4228 4.1523 -5.6778 -0.6333 -11.7521 25.4514
#
#
#
# Elastic Compliance Matrix: (Units=1/GPa)
#
#
# Indices 1 2 3 4 5 6 
#
# 1 0.011008 -0.005830 -0.000514 -0.001174 -0.007900 -0.002225
# 2 -0.005830 0.030523 -0.005004 0.013969 0.009123 -0.001862
# 3 -0.000514 -0.005004 0.009198 0.000421 -0.000351 0.002688
# 4 -0.001174 0.013969 0.000421 0.042281 0.002696 0.000046
# 5 -0.007900 0.009123 -0.000351 0.002696 0.036378 0.014856
# 6 -0.002225 -0.001862 0.002688 0.000046 0.014856 0.046930
#
#
# Mechanical properties :
#
#
# Convention : Reuss Voigt Hill
#
# Bulk Modulus (GPa) = 35.67101 48.66221 42.16661
# Shear Modulus (GPa) = 23.99730 33.79093 28.89411
#
# Velocity S-wave (km/s) = 3.29724 3.91264 3.61805
# Velocity P-wave (km/s) = 5.53681 6.51596 6.04624
#
# Compressibility (1/GPa) = 0.02803397
#
# Stress axis : x y z
#
# Youngs Moduli (GPa) = 90.84558 32.76253 108.71906
#
# Poissons Ratio (x) = 0.19100 0.05585
# Poissons Ratio (y) = 0.52962 0.54399
# Poissons Ratio (z) = 0.04666 0.16393
#
# Static dielectric constant tensor:
#      x y z
#    x 1.948840 0.052570 -0.102160 
#    y 0.052570 1.814550 -0.028420 
#    z -0.102160 -0.028420 2.016790 
# 
# From -- ./inp_files/299384.got.cif
#   From: 2010.05.17/outbox.cif.g08.bks.cpg/sg2_150_cif.got.tgz:299384.got - 2010.06.03 11:33:40.
