data_PCOD9057048
_publ_section_title
;
Structure prediction by ZEFSAII (Michael W. Deem and Ramdas Pophale) SiO2 
 PCOD9057048
Probable space group: P -1
;
_chemical_formula_sum "Si O2"
_cell_formula_units_Z 14
_cell_length_a 12.607567
_cell_length_b 16.013053
_cell_length_c 9.081891
_cell_angle_alpha 55.227764
_cell_angle_beta 47.233357
_cell_angle_gamma 25.943282
_cell_volume 584.211074
_symmetry_space_group_name_H-M "P -1"
_symmetry_group_IT_number 2
_symmetry_cell_setting 'triclinic'
loop_
_space_group_symop_operation_xyz
x,y,z
-x,-y,-z
loop_
_atom_site_type_symbol
_atom_site_label
_atom_site_fract_x
_atom_site_fract_y
_atom_site_fract_z
Si Si1 0.830263 0.605193 0.907592
Si Si2 0.549973 0.008864 0.225429
Si Si3 0.763906 0.226481 0.498044
Si Si4 0.736029 0.322442 0.766130
Si Si5 0.326264 0.947551 0.642108
Si Si6 0.322141 0.415540 0.495620
Si Si7 0.826236 0.379739 0.063014
O O1 0.596306 0.829946 0.914866
O O2 0.055530 0.506410 0.676774
O O3 0.744785 0.542150 0.021775
O O4 0.000000 0.500000 0.000000
O O5 0.388190 0.000229 0.410964
O O6 0.546800 0.080616 0.302560
O O7 0.866163 0.799233 0.105683
O O8 0.737717 0.280585 0.636342
O O9 0.499940 0.333318 0.558844
O O10 0.825315 0.290652 0.276792
O O11 0.000000 0.000000 0.500000
O O12 0.786090 0.412091 0.626933
O O13 0.422736 0.497410 0.935070
O O14 0.005011 0.116966 0.794353
O O15 0.477591 0.757995 0.632768
#
# Coordination Sequence:
#
# PCOD9057048 Si02
#       7
#     2   2   2   2   2   2   2
#     4  12  25  41  69 102 137 173 226 288 343 397
#     4  11  27  45  67 102 139 178 234 284 329 400
#     4  11  23  42  71  98 141 177 221 277 346 408
#     4  11  23  44  68 100 137 179 221 278 345 407
#     4  11  24  46  70  97 137 187 230 275 336 408
#     4  11  22  41  69 100 130 188 222 271 345 406
#     4  11  26  42  67 104 138 171 225 291 337 393
#
# _framework density 23.963941999999999
#
# number of rings (size 3 to 8) (size 9 to 14) (size 15 to 20)
#    0.000    0.857    4.286    3.429    4.000    2.857 
#    0.000    5.000    0.000    0.000    0.000    0.000 
#    0.000    0.000    0.000    0.000    0.000    0.000 
#
# Total GULP energy -78319.088945 kJ/mol
# GULP energy per Si atom -5594.220639 kJ/mol
# Density = 2.390940 g / cm^3
# Si number density = 23.963942 Si / 1000 Ang^3
#
#
#
# Elastic Constant Matrix: (Units=GPa)
#
#
# Indices 1 2 3 4 5 6 
#
# 1 32.5230 -14.8718 16.5041 -12.2653 -15.2796 2.7526
# 2 -14.8718 121.6295 30.2392 18.2803 -16.8852 7.2030
# 3 16.5041 30.2392 57.7551 -3.5921 -28.9314 -5.3085
# 4 -12.2653 18.2803 -3.5921 26.4116 -2.4669 -17.0820
# 5 -15.2796 -16.8852 -28.9314 -2.4669 37.5877 4.1496
# 6 2.7526 7.2030 -5.3085 -17.0820 4.1496 41.7711
#
#
#
# Elastic Compliance Matrix: (Units=1/GPa)
#
#
# Indices 1 2 3 4 5 6 
#
# 1 0.058003 0.009151 -0.008867 0.021514 0.022270 0.000058
# 2 0.009151 0.015418 -0.011694 -0.014994 0.001883 -0.011067
# 3 -0.008867 -0.011694 0.038970 0.020084 0.020945 0.013686
# 4 0.021514 -0.014994 0.020084 0.086911 0.019047 0.037370
# 5 0.022270 0.001883 0.020945 0.019047 0.053505 0.003344
# 6 0.000058 -0.011067 0.013686 0.037370 0.003344 0.042534
#
#
# Mechanical properties :
#
#
# Convention : Reuss Voigt Hill
#
# Bulk Modulus (GPa) = 11.16431 30.62785 20.89608
# Shear Modulus (GPa) = 14.36705 33.15649 23.76177
#
# Velocity S-wave (km/s) = 2.45118 3.72371 3.15233
# Velocity P-wave (km/s) = 3.56089 5.59434 4.68917
#
# Compressibility (1/GPa) = 0.08957113
#
# Stress axis : x y z
#
# Youngs Moduli (GPa) = 17.24054 64.85801 25.66056
#
# Poissons Ratio (x) = -0.59353 0.22754
# Poissons Ratio (y) = -0.15777 0.30008
# Poissons Ratio (z) = 0.15287 0.75847
#
# Static dielectric constant tensor:
#      x y z
#    x 3.051130 0.088650 -0.517630 
#    y 0.088650 1.889760 -0.033060 
#    z -0.517630 -0.033060 2.243710 
# 
# From -- ./inp_files/269846.got.cif
#   From: 2010.05.17/outbox.cif.g08.bks.cpg/sg2_135_cif.got.tgz:269846.got - 2010.06.03 11:33:40.
