data_PCOD9057985
_publ_section_title
;
Structure prediction by ZEFSAII (Michael W. Deem and Ramdas Pophale) SiO2 
 PCOD9057985
Probable space group: P -1
;
_chemical_formula_sum "Si O2"
_cell_formula_units_Z 16
_cell_length_a 14.437015
_cell_length_b 12.515072
_cell_length_c 7.648165
_cell_angle_alpha 79.060903
_cell_angle_beta 74.859122
_cell_angle_gamma 30.717643
_cell_volume 679.670611
_symmetry_space_group_name_H-M "P -1"
_symmetry_group_IT_number 2
_symmetry_cell_setting 'triclinic'
loop_
_space_group_symop_operation_xyz
x,y,z
-x,-y,-z
loop_
_atom_site_type_symbol
_atom_site_label
_atom_site_fract_x
_atom_site_fract_y
_atom_site_fract_z
Si Si1 0.181058 0.936383 0.277507
Si Si2 0.980913 0.499196 0.805101
Si Si3 0.675785 0.239497 0.097980
Si Si4 0.706531 0.948473 0.684448
Si Si5 0.368831 0.218048 0.577679
Si Si6 0.060938 0.188791 0.716559
Si Si7 0.322672 0.488172 0.345445
Si Si8 0.757609 0.288734 0.375924
O O1 0.228382 0.831645 0.469686
O O2 0.246503 0.997652 0.226728
O O3 0.274120 0.783508 0.118014
O O4 0.961635 0.140306 0.300315
O O5 0.808330 0.737908 0.749666
O O6 0.980553 0.371995 0.799212
O O7 0.166779 0.369446 0.669965
O O8 0.000000 0.500000 0.000000
O O9 0.476140 0.378735 0.170080
O O10 0.686371 0.325034 0.209597
O O11 0.826807 0.003839 0.159984
O O12 0.800140 0.898771 0.472121
O O13 0.488178 0.143682 0.707564
O O14 0.349790 0.335658 0.418588
O O15 0.500000 0.000000 0.500000
O O16 0.888470 0.294373 0.679305
O O17 0.352251 0.521070 0.506180
#
# Coordination Sequence:
#
# PCOD9057985 Si02
#       8
#     2   2   2   2   2   2   2   2
#     4  11  23  43  70  97 134 176 222 274 333 393
#     4  12  26  41  64 101 134 170 225 276 325 396
#     4  12  25  43  69 101 131 174 226 276 327 397
#     4  12  22  43  69  93 132 176 221 271 329 395
#     4  12  23  41  70  96 127 181 219 263 339 392
#     4  12  22  43  68  95 131 176 218 270 334 391
#     4  12  24  41  70  98 130 175 224 272 331 399
#     4  11  22  44  67  96 135 178 219 270 339 392
#
# _framework density 23.540816
#
# number of rings (size 3 to 8) (size 9 to 14) (size 15 to 20)
#    0.000    0.250    6.250    3.375    0.000    2.000 
#    0.000    1.250    0.000    0.000    0.000    0.000 
#    0.000    0.000    0.000    0.000    0.000    0.000 
#
# Total GULP energy -89696.016608 kJ/mol
# GULP energy per Si atom -5606.001038 kJ/mol
# Density = 2.348724 g / cm^3
# Si number density = 23.540816 Si / 1000 Ang^3
#
#
#
# Elastic Constant Matrix: (Units=GPa)
#
#
# Indices 1 2 3 4 5 6 
#
# 1 100.5414 17.7257 4.9392 3.4904 9.9141 -2.8851
# 2 17.7257 103.5905 -8.4178 -16.4626 -3.2933 -0.4215
# 3 4.9392 -8.4178 67.8270 11.7317 21.7142 -1.8240
# 4 3.4904 -16.4626 11.7317 28.3686 -2.2068 1.4016
# 5 9.9141 -3.2933 21.7142 -2.2068 30.0812 9.7637
# 6 -2.8851 -0.4215 -1.8240 1.4016 9.7637 50.8437
#
#
#
# Elastic Compliance Matrix: (Units=1/GPa)
#
#
# Indices 1 2 3 4 5 6 
#
# 1 0.011117 -0.002608 0.001541 -0.004079 -0.005986 0.001927
# 2 -0.002608 0.011348 -0.000912 0.007616 0.003642 -0.000996
# 3 0.001541 -0.000912 0.023069 -0.012046 -0.019779 0.005038
# 4 -0.004079 0.007616 -0.012046 0.046634 0.015898 -0.004939
# 5 -0.005986 0.003642 -0.019779 0.015898 0.054957 -0.012011
# 6 0.001927 -0.000996 0.005038 -0.004939 -0.012011 0.022393
#
#
# Mechanical properties :
#
#
# Convention : Reuss Voigt Hill
#
# Bulk Modulus (GPa) = 24.05233 33.38368 28.71800
# Shear Modulus (GPa) = 26.69025 39.03948 32.86487
#
# Velocity S-wave (km/s) = 3.37083 4.07673 3.74047
# Velocity P-wave (km/s) = 5.03879 6.03089 5.55703
#
# Compressibility (1/GPa) = 0.04157602
#
# Stress axis : x y z
#
# Youngs Moduli (GPa) = 89.94881 88.12476 43.34799
#
# Poissons Ratio (x) = 0.22982 -0.06678
# Poissons Ratio (y) = 0.23458 0.03952
# Poissons Ratio (z) = -0.13857 0.08034
#
# Static dielectric constant tensor:
#      x y z
#    x 1.932260 0.006850 0.036160 
#    y 0.006850 1.875480 -0.010040 
#    z 0.036160 -0.010040 1.866790 
# 
# From -- ./inp_files/307306.got.cif
#   From: 2010.05.17/outbox.cif.g08.bks.cpg/sg2_154_cif.got.tgz:307306.got - 2010.06.03 11:33:40.
