data_PCOD9057165
_publ_section_title
;
Structure prediction by ZEFSAII (Michael W. Deem and Ramdas Pophale) SiO2 
 PCOD9057165
Probable space group: P -1
;
_chemical_formula_sum "Si O2"
_cell_formula_units_Z 14
_cell_length_a 7.600083
_cell_length_b 21.528919
_cell_length_c 16.441759
_cell_angle_alpha 157.786668
_cell_angle_beta 137.223381
_cell_angle_gamma 35.313609
_cell_volume 585.077157
_symmetry_space_group_name_H-M "P -1"
_symmetry_group_IT_number 2
_symmetry_cell_setting 'triclinic'
loop_
_space_group_symop_operation_xyz
x,y,z
-x,-y,-z
loop_
_atom_site_type_symbol
_atom_site_label
_atom_site_fract_x
_atom_site_fract_y
_atom_site_fract_z
Si Si1 0.328056 0.382145 0.580686
Si Si2 0.556890 0.341325 0.139728
Si Si3 0.765306 0.006669 0.363376
Si Si4 0.906022 0.630360 0.209784
Si Si5 0.801306 0.300088 0.336971
Si Si6 0.817195 0.946038 0.682539
Si Si7 0.690297 0.354815 0.961823
O O1 0.361528 0.495192 0.653638
O O2 0.630330 0.180765 0.464479
O O3 0.060657 0.338607 0.439517
O O4 0.291083 0.518709 0.808491
O O5 0.692134 0.234849 0.142327
O O6 0.186868 0.462081 0.155857
O O7 0.726146 0.168260 0.921282
O O8 0.483719 0.033139 0.352305
O O9 0.000000 0.000000 0.500000
O O10 0.971661 0.809756 0.146548
O O11 0.894600 0.820188 0.473954
O O12 0.545689 0.713675 0.187652
O O13 0.000000 0.500000 0.000000
O O14 0.500000 0.500000 0.500000
O O15 0.921294 0.171831 0.303443
O O16 0.500000 0.500000 0.000000
#
# Coordination Sequence:
#
# PCOD9057165 Si02
#       7
#     2   2   2   2   2   2   2
#     4  11  26  45  67 104 143 187 231 297 358 411
#     4  12  26  46  71 104 146 184 236 302 355 412
#     4  11  22  41  71  99 142 189 239 280 344 432
#     4  12  25  44  68 108 148 184 224 291 366 425
#     4  11  24  49  76  97 138 192 247 291 346 425
#     4  11  25  45  75 105 137 193 242 289 356 423
#     4  12  22  41  70 101 139 189 238 279 347 429
#
# _framework density 23.928467000000001
#
# number of rings (size 3 to 8) (size 9 to 14) (size 15 to 20)
#    0.000    0.571    5.714    2.571    2.000    1.714 
#    0.000    0.714    0.000    0.000    0.000    0.000 
#    0.000    0.000    0.000    0.000    0.000    0.000 
#
# Total GULP energy -78104.534676 kJ/mol
# GULP energy per Si atom -5578.895334 kJ/mol
# Density = 2.387400 g / cm^3
# Si number density = 23.928467 Si / 1000 Ang^3
#
#
#
# Elastic Constant Matrix: (Units=GPa)
#
#
# Indices 1 2 3 4 5 6 
#
# 1 68.3015 18.7004 20.0796 10.2561 -5.8516 -11.1061
# 2 18.7004 148.9200 34.6495 5.2155 -3.3056 -3.1752
# 3 20.0796 34.6495 127.8018 18.1391 -20.5677 -5.8484
# 4 10.2561 5.2155 18.1391 51.7991 2.4921 -10.3284
# 5 -5.8516 -3.3056 -20.5677 2.4921 35.3359 8.6208
# 6 -11.1061 -3.1752 -5.8484 -10.3284 8.6208 32.4784
#
#
#
# Elastic Compliance Matrix: (Units=1/GPa)
#
#
# Indices 1 2 3 4 5 6 
#
# 1 0.016586 -0.001532 -0.001637 -0.001689 0.000669 0.004513
# 2 -0.001532 0.007325 -0.001898 0.000292 -0.000727 0.000137
# 3 -0.001637 -0.001898 0.010005 -0.003618 0.006044 -0.001699
# 4 -0.001689 0.000292 -0.003618 0.022660 -0.005797 0.007544
# 5 0.000669 -0.000727 0.006044 -0.005797 0.034660 -0.009797
# 6 0.004513 0.000137 -0.001699 0.007544 -0.009797 0.037040
#
#
# Mechanical properties :
#
#
# Convention : Reuss Voigt Hill
#
# Bulk Modulus (GPa) = 42.04492 54.65360 48.34926
# Shear Modulus (GPa) = 34.16769 42.02892 38.09830
#
# Velocity S-wave (km/s) = 3.78287 4.19554 3.99454
# Velocity P-wave (km/s) = 6.05717 6.80882 6.44397
#
# Compressibility (1/GPa) = 0.02378409
#
# Stress axis : x y z
#
# Youngs Moduli (GPa) = 60.29093 136.51090 99.95233
#
# Poissons Ratio (x) = 0.20910 0.16360
# Poissons Ratio (y) = 0.09235 0.18967
# Poissons Ratio (z) = 0.09868 0.25905
#
# Static dielectric constant tensor:
#      x y z
#    x 1.968380 0.036840 -0.026920 
#    y 0.036840 1.871680 -0.015970 
#    z -0.026920 -0.015970 1.948320 
# 
# From -- ./inp_files/563327.got.cif
#   From: 2010.05.17/outbox.cif.g08.bks.cpg/sg2_282_cif.got.tgz:563327.got - 2010.06.03 11:33:40.
