data_PCOD9057138
_publ_section_title
;
Structure prediction by ZEFSAII (Michael W. Deem and Ramdas Pophale) SiO2 
 PCOD9057138
Probable space group: P -1
;
_chemical_formula_sum "Si O2"
_cell_formula_units_Z 15
_cell_length_a 13.682735
_cell_length_b 12.410990
_cell_length_c 8.365988
_cell_angle_alpha 44.555937
_cell_angle_beta 49.949345
_cell_angle_gamma 41.926928
_cell_volume 646.265938
_symmetry_space_group_name_H-M "P -1"
_symmetry_group_IT_number 2
_symmetry_cell_setting 'triclinic'
loop_
_space_group_symop_operation_xyz
x,y,z
-x,-y,-z
loop_
_atom_site_type_symbol
_atom_site_label
_atom_site_fract_x
_atom_site_fract_y
_atom_site_fract_z
Si Si1 0.381283 0.125050 0.127453
Si Si2 0.242548 0.765600 0.153088
Si Si3 0.115586 0.303925 0.013180
Si Si4 0.660684 0.652523 0.495070
Si Si5 0.975961 0.088028 0.260654
Si Si6 0.484259 0.385310 0.778133
Si Si7 0.650766 0.280082 0.256104
Si Si8 0.500000 0.000000 0.500000
O O1 0.439602 0.050481 0.322156
O O2 0.218101 0.170940 0.191409
O O3 0.381232 0.310220 0.921838
O O4 0.500000 0.000000 0.000000
O O5 0.264466 0.566372 0.331295
O O6 0.347546 0.765220 0.184942
O O7 0.077108 0.931564 0.191190
O O8 0.306533 0.791874 0.892432
O O9 0.230751 0.320067 0.760564
O O10 0.032132 0.226657 0.079550
O O11 0.000000 0.500000 0.000000
O O12 0.493380 0.720676 0.530821
O O13 0.621098 0.785125 0.546829
O O14 0.802070 0.184456 0.297330
O O15 0.000000 0.000000 0.500000
O O16 0.500000 0.500000 0.500000
O O17 0.413811 0.507223 0.882311
#
# Coordination Sequence:
#
# PCOD9057138 Si02
#       8
#     2   2   2   2   2   2   2   1
#     4  12  24  44  73 110 151 196 254 312 377 454
#     4  11  23  45  72 107 147 192 245 310 377 443
#     4  12  27  49  74 110 155 200 250 317 390 451
#     4  11  25  47  77 108 147 195 256 311 370 456
#     4  12  27  46  70 105 147 198 247 304 382 450
#     4  11  22  41  71 104 139 189 248 305 367 447
#     4  11  24  45  74 105 144 193 250 303 369 453
#     4  12  26  44  78 114 152 192 262 310 388 440
#
# _framework density 23.210259000000001
#
# number of rings (size 3 to 8) (size 9 to 14) (size 15 to 20)
#    0.000    0.533    1.333    8.400    3.733    0.000 
#    0.000    1.333    0.000    0.000    0.000    0.000 
#    0.000    0.000    0.000    0.000    0.000    0.000 
#
# Total GULP energy -83623.493924 kJ/mol
# GULP energy per Si atom -5574.899595 kJ/mol
# Density = 2.315743 g / cm^3
# Si number density = 23.210259 Si / 1000 Ang^3
#
#
#
# Elastic Constant Matrix: (Units=GPa)
#
#
# Indices 1 2 3 4 5 6 
#
# 1 120.9215 45.8701 39.4066 10.6092 7.5558 0.3626
# 2 45.8701 165.0750 38.3074 14.7730 -17.1505 15.9878
# 3 39.4066 38.3074 116.6611 9.7658 -9.7802 2.5225
# 4 10.6092 14.7730 9.7658 31.9280 5.9179 -2.5544
# 5 7.5558 -17.1505 -9.7802 5.9179 39.8455 -2.0798
# 6 0.3626 15.9878 2.5225 -2.5544 -2.0798 54.6725
#
#
#
# Elastic Compliance Matrix: (Units=1/GPa)
#
#
# Indices 1 2 3 4 5 6 
#
# 1 0.010520 -0.002631 -0.002964 -0.000628 -0.003727 0.000665
# 2 -0.002631 0.007984 -0.001055 -0.003433 0.004067 -0.002274
# 3 -0.002964 -0.001055 0.010362 -0.002260 0.002979 -0.000142
# 4 -0.000628 -0.003433 -0.002260 0.035311 -0.007027 0.002495
# 5 -0.003727 0.004067 0.002979 -0.007027 0.029302 -0.000516
# 6 0.000665 -0.002274 -0.000142 0.002495 -0.000516 0.019055
#
#
# Mechanical properties :
#
#
# Convention : Reuss Voigt Hill
#
# Bulk Modulus (GPa) = 64.24675 72.20286 68.22480
# Shear Modulus (GPa) = 38.16175 43.89411 41.02793
#
# Velocity S-wave (km/s) = 4.05924 4.35345 4.20892
# Velocity P-wave (km/s) = 7.05056 7.51304 7.28547
#
# Compressibility (1/GPa) = 0.01556499
#
# Stress axis : x y z
#
# Youngs Moduli (GPa) = 95.06088 125.25234 96.51093
#
# Poissons Ratio (x) = 0.32951 0.28604
# Poissons Ratio (y) = 0.25008 0.10186
# Poissons Ratio (z) = 0.28174 0.13220
#
# Static dielectric constant tensor:
#      x y z
#    x 1.887520 0.001290 -0.026120 
#    y 0.001290 1.899380 -0.045480 
#    z -0.026120 -0.045480 1.960830 
# 
# From -- ./inp_files/241529.got.cif
#   From: 2010.05.17/outbox.cif.g08.bks.cpg/sg2_121_cif.got.tgz:241529.got - 2010.06.03 11:33:40.
