data_PCOD9057413
_publ_section_title
;
Structure prediction by ZEFSAII (Michael W. Deem and Ramdas Pophale) SiO2 
 PCOD9057413
Probable space group: P -1
;
_chemical_formula_sum "Si O2"
_cell_formula_units_Z 16
_cell_length_a 10.904974
_cell_length_b 19.833867
_cell_length_c 15.871273
_cell_angle_alpha 32.075342
_cell_angle_beta 23.582691
_cell_angle_gamma 42.720374
_cell_volume 714.966370
_symmetry_space_group_name_H-M "P -1"
_symmetry_group_IT_number 2
_symmetry_cell_setting 'triclinic'
loop_
_space_group_symop_operation_xyz
x,y,z
-x,-y,-z
loop_
_atom_site_type_symbol
_atom_site_label
_atom_site_fract_x
_atom_site_fract_y
_atom_site_fract_z
Si Si1 0.303774 0.956612 0.950636
Si Si2 0.628855 0.320937 0.935982
Si Si3 0.580275 0.951495 0.409110
Si Si4 0.706460 0.622002 0.607282
Si Si5 0.401011 0.753405 0.507246
Si Si6 0.735542 0.302522 0.074055
Si Si7 0.688752 0.742964 0.950156
Si Si8 0.578333 0.537194 0.507824
O O1 0.497988 0.854881 0.975077
O O2 0.393276 0.973201 0.776368
O O3 0.402799 0.100002 0.777810
O O4 0.927838 0.918748 0.233512
O O5 0.646324 0.471204 0.784351
O O6 0.928516 0.318719 0.691212
O O7 0.690917 0.261885 0.048376
O O8 0.323487 0.262050 0.138995
O O9 0.302869 0.825129 0.709604
O O10 0.500000 0.000000 0.500000
O O11 0.540774 0.688511 0.567459
O O12 0.554456 0.638515 0.774474
O O13 0.424562 0.652126 0.523467
O O14 0.043386 0.764852 0.733402
O O15 0.054138 0.403979 0.776644
O O16 0.525874 0.597889 0.234288
O O17 0.500000 0.500000 0.500000
#
# Coordination Sequence:
#
# PCOD9057413 Si02
#       8
#     2   2   2   2   2   2   2   2
#     4  11  26  48  74 105 147 193 244 302 357 437
#     4  11  23  41  68 108 143 176 240 302 354 417
#     4  11  24  44  75 107 145 193 245 294 367 434
#     4  11  22  42  69  98 140 189 231 295 354 428
#     4  12  24  50  73  98 149 203 238 294 371 433
#     4  12  23  42  73 106 142 185 239 298 364 423
#     4  12  26  46  73 107 149 192 243 299 369 429
#     4  12  27  46  74 109 147 190 252 299 363 444
#
# _framework density 22.378672999999999
#
# number of rings (size 3 to 8) (size 9 to 14) (size 15 to 20)
#    0.000    0.500    3.750    4.875    3.500    1.000 
#    2.250    0.625    0.000    0.000    0.000    0.000 
#    0.000    0.000    0.000    0.000    0.000    0.000 
#
# Total GULP energy -89405.260017 kJ/mol
# GULP energy per Si atom -5587.828751 kJ/mol
# Density = 2.232774 g / cm^3
# Si number density = 22.378673 Si / 1000 Ang^3
#
#
#
# Elastic Constant Matrix: (Units=GPa)
#
#
# Indices 1 2 3 4 5 6 
#
# 1 82.2302 21.8533 7.5741 0.1298 -9.2792 8.3391
# 2 21.8533 131.7333 36.2213 -7.3011 10.8579 0.2181
# 3 7.5741 36.2213 90.5698 -8.8063 -7.4104 -16.1963
# 4 0.1298 -7.3011 -8.8063 42.8289 2.6698 1.5250
# 5 -9.2792 10.8579 -7.4104 2.6698 26.0544 8.6987
# 6 8.3391 0.2181 -16.1963 1.5250 8.6987 44.3615
#
#
#
# Elastic Compliance Matrix: (Units=1/GPa)
#
#
# Indices 1 2 3 4 5 6 
#
# 1 0.014288 -0.003000 -0.000207 -0.000932 0.007792 -0.004243
# 2 -0.003000 0.009804 -0.004032 0.001248 -0.006522 0.000280
# 3 -0.000207 -0.004032 0.013938 0.001779 0.003949 0.004312
# 4 -0.000932 0.001248 0.001779 0.024097 -0.003009 0.000580
# 5 0.007792 -0.006522 0.003949 -0.003009 0.048440 -0.009386
# 6 -0.004243 0.000280 0.004312 0.000580 -0.009386 0.026733
#
#
# Mechanical properties :
#
#
# Convention : Reuss Voigt Hill
#
# Bulk Modulus (GPa) = 42.45928 48.42566 45.44247
# Shear Modulus (GPa) = 31.32254 38.57462 34.94858
#
# Velocity S-wave (km/s) = 3.74526 4.15628 3.95611
# Velocity P-wave (km/s) = 6.14141 6.68723 6.42012
#
# Compressibility (1/GPa) = 0.02355198
#
# Stress axis : x y z
#
# Youngs Moduli (GPa) = 69.98677 102.00122 71.74471
#
# Poissons Ratio (x) = 0.30604 0.01483
# Poissons Ratio (y) = 0.20999 0.28929
# Poissons Ratio (z) = 0.01447 0.41129
#
# Static dielectric constant tensor:
#      x y z
#    x 1.812100 0.012610 0.035250 
#    y 0.012610 1.916560 -0.056370 
#    z 0.035250 -0.056370 1.832370 
# 
# From -- ./inp_files/570732.got.cif
#   From: 2010.05.17/outbox.cif.g08.bks.cpg/sg2_286_cif.got.tgz:570732.got - 2010.06.03 11:33:40.
