data_PCOD9057782
_publ_section_title
;
Structure prediction by ZEFSAII (Michael W. Deem and Ramdas Pophale) SiO2 
 PCOD9057782
Probable space group: P -1
;
_chemical_formula_sum "Si O2"
_cell_formula_units_Z 10
_cell_length_a 7.389574
_cell_length_b 8.012840
_cell_length_c 10.509639
_cell_angle_alpha 112.450259
_cell_angle_beta 96.196634
_cell_angle_gamma 119.682628
_cell_volume 464.211147
_symmetry_space_group_name_H-M "P -1"
_symmetry_group_IT_number 2
_symmetry_cell_setting 'triclinic'
loop_
_space_group_symop_operation_xyz
x,y,z
-x,-y,-z
loop_
_atom_site_type_symbol
_atom_site_label
_atom_site_fract_x
_atom_site_fract_y
_atom_site_fract_z
Si Si1 0.350802 0.090945 0.041384
Si Si2 0.121651 0.056656 0.759032
Si Si3 0.651547 0.606911 0.668699
Si Si4 0.896199 0.252669 0.882780
Si Si5 0.487398 0.841111 0.346677
O O1 0.286176 0.142390 0.918425
O O2 0.869776 0.117193 0.967389
O O3 0.432816 0.286659 0.207591
O O4 0.500000 0.000000 0.000000
O O5 0.039001 0.214586 0.785924
O O6 0.266988 0.072793 0.657267
O O7 0.900352 0.810061 0.700848
O O8 0.500000 0.500000 0.500000
O O9 0.638547 0.409262 0.683463
O O10 0.654872 0.153080 0.776087
O O11 0.000000 0.500000 0.000000
O O12 0.500000 0.000000 0.500000
#
# Coordination Sequence:
#
# PCOD9057782 Si02
#       5
#     2   2   2   2   2
#     4  11  22  43  70  98 136 179 222 274 339 402
#     4  11  25  46  69  98 141 178 223 284 334 401
#     4  11  26  46  69 102 138 176 229 279 339 407
#     4  11  23  41  69 102 130 175 231 275 335 403
#     4  12  26  45  68 100 137 179 228 277 340 402
#
# _framework density 21.541922
#
# number of rings (size 3 to 8) (size 9 to 14) (size 15 to 20)
#    0.000    0.800    2.000    7.200    2.800    5.600 
#    0.000    0.000    0.000    0.000    0.000    0.000 
#    0.000    0.000    0.000    0.000    0.000    0.000 
#
# Total GULP energy -55909.945459 kJ/mol
# GULP energy per Si atom -5590.994546 kJ/mol
# Density = 2.149289 g / cm^3
# Si number density = 21.541922 Si / 1000 Ang^3
#
#
#
# Elastic Constant Matrix: (Units=GPa)
#
#
# Indices 1 2 3 4 5 6 
#
# 1 149.4773 26.9655 49.4804 14.5676 -42.0765 10.1365
# 2 26.9655 83.9854 39.0074 18.0146 -25.6012 -7.0912
# 3 49.4804 39.0074 135.6441 20.1211 -29.1979 10.7397
# 4 14.5676 18.0146 20.1211 32.2627 -10.7854 -5.1818
# 5 -42.0765 -25.6012 -29.1979 -10.7854 48.2535 -3.5642
# 6 10.1365 -7.0912 10.7397 -5.1818 -3.5642 35.2717
#
#
#
# Elastic Compliance Matrix: (Units=1/GPa)
#
#
# Indices 1 2 3 4 5 6 
#
# 1 0.009378 -0.000084 -0.001632 -0.001186 0.006754 -0.001707
# 2 -0.000084 0.016573 -0.003069 -0.004562 0.006156 0.004242
# 3 -0.001632 -0.003069 0.010117 -0.003779 0.001961 -0.003586
# 4 -0.001186 -0.004562 -0.003779 0.038623 0.003378 0.006590
# 5 0.006754 0.006156 0.001961 0.003378 0.032001 0.002429
# 6 -0.001707 0.004242 -0.003586 0.006590 0.002429 0.032000
#
#
# Mechanical properties :
#
#
# Convention : Reuss Voigt Hill
#
# Bulk Modulus (GPa) = 37.73968 66.66816 52.20392
# Shear Modulus (GPa) = 31.82821 40.06781 35.94801
#
# Velocity S-wave (km/s) = 3.84800 4.31744 4.08946
# Velocity P-wave (km/s) = 6.10737 7.47456 6.82528
#
# Compressibility (1/GPa) = 0.02649731
#
# Stress axis : x y z
#
# Youngs Moduli (GPa) = 106.63388 60.34053 98.84701
#
# Poissons Ratio (x) = 0.00506 0.16130
# Poissons Ratio (y) = 0.00894 0.30338
# Poissons Ratio (z) = 0.17400 0.18520
#
# Static dielectric constant tensor:
#      x y z
#    x 1.816490 0.017090 -0.020670 
#    y 0.017090 1.799090 -0.027450 
#    z -0.020670 -0.027450 1.733220 
# 
# From -- ./inp_files/360496.got.cif
#   From: 2010.05.17/outbox.cif.g08.bks.cpg/sg2_181_cif.got.tgz:360496.got - 2010.06.03 11:33:40.
