data_PCOD9057457
_publ_section_title
;
Structure prediction by ZEFSAII (Michael W. Deem and Ramdas Pophale) SiO2 
 PCOD9057457
Probable space group: P -1
;
_chemical_formula_sum "Si O2"
_cell_formula_units_Z 16
_cell_length_a 11.541035
_cell_length_b 11.780557
_cell_length_c 18.538992
_cell_angle_alpha 132.721859
_cell_angle_beta 26.296376
_cell_angle_gamma 141.785591
_cell_volume 687.658140
_symmetry_space_group_name_H-M "P -1"
_symmetry_group_IT_number 2
_symmetry_cell_setting 'triclinic'
loop_
_space_group_symop_operation_xyz
x,y,z
-x,-y,-z
loop_
_atom_site_type_symbol
_atom_site_label
_atom_site_fract_x
_atom_site_fract_y
_atom_site_fract_z
Si Si1 0.627420 0.031337 0.860734
Si Si2 0.247195 0.593760 0.113299
Si Si3 0.157810 0.712256 0.365540
Si Si4 0.706063 0.894496 0.525753
Si Si5 0.682270 0.312840 0.217036
Si Si6 0.324490 0.469832 0.223724
Si Si7 0.472350 0.484295 0.717257
Si Si8 0.405391 0.807479 0.504325
O O1 0.674637 0.220529 0.889549
O O2 0.963747 0.055737 0.669992
O O3 0.393247 0.856969 0.865110
O O4 0.500000 0.000000 0.000000
O O5 0.130953 0.609967 0.262673
O O6 0.984583 0.409701 0.139950
O O7 0.555690 0.589984 0.935826
O O8 0.375606 0.670032 0.273503
O O9 0.823453 0.615089 0.547525
O O10 0.272848 0.921856 0.380733
O O11 0.596043 0.762066 0.600032
O O12 0.462147 0.819972 0.563891
O O13 0.717265 0.469304 0.210832
O O14 0.499082 0.459534 0.191732
O O15 0.953680 0.332346 0.377442
O O16 0.398569 0.279134 0.667894
O O17 0.500000 0.000000 0.500000
#
# Coordination Sequence:
#
# PCOD9057457 Si02
#       8
#     2   2   2   2   2   2   2   2
#     4  12  27  46  72 107 149 183 232 309 357 417
#     4  12  27  46  69 107 149 186 236 294 362 418
#     4  11  22  45  72  99 140 191 231 297 349 414
#     4  12  24  47  74 107 140 184 250 293 347 435
#     4  12  25  47  74 107 141 196 238 284 365 428
#     4  11  25  46  68 103 146 185 236 299 353 418
#     4  11  22  42  70  99 139 183 243 291 350 418
#     4  11  24  41  72 106 134 191 242 289 354 420
#
# _framework density 23.267375000000001
#
# number of rings (size 3 to 8) (size 9 to 14) (size 15 to 20)
#    0.000    0.500    2.500    7.500    1.750    4.500 
#    2.250    1.250    0.000    0.000    0.000    0.000 
#    0.000    0.000    0.000    0.000    0.000    0.000 
#
# Total GULP energy -89499.007526 kJ/mol
# GULP energy per Si atom -5593.687970 kJ/mol
# Density = 2.321442 g / cm^3
# Si number density = 23.267375 Si / 1000 Ang^3
#
#
#
# Elastic Constant Matrix: (Units=GPa)
#
#
# Indices 1 2 3 4 5 6 
#
# 1 97.0451 19.0045 15.1427 -1.2105 27.4646 -2.0792
# 2 19.0045 99.1362 14.0700 9.8368 1.3296 -9.9584
# 3 15.1427 14.0700 99.2763 6.0171 24.1559 -3.5444
# 4 -1.2105 9.8368 6.0171 22.5566 -6.0112 5.7095
# 5 27.4646 1.3296 24.1559 -6.0112 41.7606 5.4580
# 6 -2.0792 -9.9584 -3.5444 5.7095 5.4580 45.2885
#
#
#
# Elastic Compliance Matrix: (Units=1/GPa)
#
#
# Indices 1 2 3 4 5 6 
#
# 1 0.013340 -0.002242 0.000743 -0.001427 -0.009534 0.001507
# 2 -0.002242 0.011493 -0.000965 -0.005501 0.000485 0.002984
# 3 0.000743 -0.000965 0.012761 -0.006034 -0.009057 0.002673
# 4 -0.001427 -0.005501 -0.006034 0.054546 0.013800 -0.010287
# 5 -0.009534 0.000485 -0.009057 0.013800 0.038395 -0.007407
# 6 0.001507 0.002984 0.002673 -0.010287 -0.007407 0.025205
#
#
# Mechanical properties :
#
#
# Convention : Reuss Voigt Hill
#
# Bulk Modulus (GPa) = 30.61212 43.54355 37.07784
# Shear Modulus (GPa) = 29.14486 38.40385 33.77435
#
# Velocity S-wave (km/s) = 3.54306 4.06710 3.81409
# Velocity P-wave (km/s) = 5.47018 6.38828 5.94697
#
# Compressibility (1/GPa) = 0.03266680
#
# Stress axis : x y z
#
# Youngs Moduli (GPa) = 74.96058 87.00998 78.36179
#
# Poissons Ratio (x) = 0.19508 -0.05823
# Poissons Ratio (y) = 0.16807 0.07561
# Poissons Ratio (z) = -0.05570 0.08396
#
# Static dielectric constant tensor:
#      x y z
#    x 1.922600 -0.024410 0.001800 
#    y -0.024410 1.881700 0.003630 
#    z 0.001800 0.003630 1.878360 
# 
# From -- ./inp_files/568806.got.cif
#   From: 2010.05.17/outbox.cif.g08.bks.cpg/sg2_285_cif.got.tgz:568806.got - 2010.06.03 11:33:40.
