data_PCOD9057565
_publ_section_title
;
Structure prediction by ZEFSAII (Michael W. Deem and Ramdas Pophale) SiO2 
 PCOD9057565
Probable space group: P -1
;
_chemical_formula_sum "Si O2"
_cell_formula_units_Z 16
_cell_length_a 8.996302
_cell_length_b 9.429404
_cell_length_c 24.033907
_cell_angle_alpha 44.185968
_cell_angle_beta 30.486281
_cell_angle_gamma 55.697217
_cell_volume 712.350912
_symmetry_space_group_name_H-M "P -1"
_symmetry_group_IT_number 2
_symmetry_cell_setting 'triclinic'
loop_
_space_group_symop_operation_xyz
x,y,z
-x,-y,-z
loop_
_atom_site_type_symbol
_atom_site_label
_atom_site_fract_x
_atom_site_fract_y
_atom_site_fract_z
Si Si1 0.761420 0.458984 0.260443
Si Si2 0.285831 0.897384 0.709328
Si Si3 0.833833 0.516425 0.491198
Si Si4 0.695701 0.312577 0.489028
Si Si5 0.223715 0.855115 0.190228
Si Si6 0.159019 0.150122 0.952407
Si Si7 0.783729 0.467857 0.813182
Si Si8 0.736238 0.329740 0.113319
O O1 0.740374 0.238196 0.299622
O O2 0.491495 0.448208 0.394018
O O3 0.741117 0.627882 0.171588
O O4 0.062324 0.536854 0.175543
O O5 0.402145 0.766230 0.758255
O O6 0.504842 0.111378 0.582126
O O7 0.960219 0.957026 0.809760
O O8 0.790454 0.312949 0.523304
O O9 0.000000 0.500000 0.500000
O O10 0.026117 0.693960 0.341761
O O11 0.500000 0.500000 0.500000
O O12 0.983391 0.374581 0.341916
O O13 0.548127 0.909837 0.096840
O O14 0.247485 0.737364 0.157083
O O15 0.897576 0.166132 0.075633
O O16 0.000000 0.000000 0.000000
O O17 0.482069 0.562124 0.884266
O O18 0.000000 0.500000 0.000000
#
# Coordination Sequence:
#
# PCOD9057565 Si02
#       8
#     2   2   2   2   2   2   2   2
#     4  12  25  45  70 107 138 176 231 290 344 404
#     4  12  26  44  73 103 141 180 228 289 346 408
#     4  11  22  42  75 100 142 176 223 283 344 418
#     4  11  22  45  69 106 137 177 224 273 354 425
#     4  11  23  46  72 102 134 186 225 278 357 415
#     4  12  29  47  69  99 136 181 243 282 338 412
#     4  11  24  46  74  97 144 180 227 285 345 416
#     4  12  27  50  66  96 141 186 235 289 337 400
#
# _framework density 22.460840000000001
#
# number of rings (size 3 to 8) (size 9 to 14) (size 15 to 20)
#    0.000    0.500    7.500    0.000    7.000    4.500 
#    0.000    0.000    0.000    0.000    0.000    0.000 
#    0.000    0.000    0.000    0.000    0.000    0.000 
#
# Total GULP energy -89490.448943 kJ/mol
# GULP energy per Si atom -5593.153059 kJ/mol
# Density = 2.240972 g / cm^3
# Si number density = 22.460840 Si / 1000 Ang^3
#
#
#
# Elastic Constant Matrix: (Units=GPa)
#
#
# Indices 1 2 3 4 5 6 
#
# 1 133.0339 29.7134 15.0468 -2.6962 -18.1915 11.1019
# 2 29.7134 76.8278 14.9791 -6.4348 -14.5961 24.8695
# 3 15.0468 14.9791 61.2467 -1.4467 -10.9464 0.2696
# 4 -2.6962 -6.4348 -1.4467 35.0727 0.0814 -6.4582
# 5 -18.1915 -14.5961 -10.9464 0.0814 45.8022 0.1157
# 6 11.1019 24.8695 0.2696 -6.4582 0.1157 47.5929
#
#
#
# Elastic Compliance Matrix: (Units=1/GPa)
#
#
# Indices 1 2 3 4 5 6 
#
# 1 0.008565 -0.002409 -0.001086 0.000031 0.002376 -0.000735
# 2 -0.002409 0.018306 -0.003069 0.001416 0.004163 -0.008804
# 3 -0.001086 -0.003069 0.017857 0.000416 0.002853 0.001805
# 4 0.000031 0.001416 0.000416 0.029386 0.000502 0.003237
# 5 0.002376 0.004163 0.002853 0.000502 0.024791 -0.002738
# 6 -0.000735 -0.008804 0.001805 0.003237 -0.002738 0.026219
#
#
# Mechanical properties :
#
#
# Convention : Reuss Voigt Hill
#
# Bulk Modulus (GPa) = 31.64693 43.39854 37.52273
# Shear Modulus (GPa) = 33.60562 39.78484 36.69523
#
# Velocity S-wave (km/s) = 3.87225 4.21324 4.04634
# Velocity P-wave (km/s) = 5.84062 6.55991 6.21069
#
# Compressibility (1/GPa) = 0.03159865
#
# Stress axis : x y z
#
# Youngs Moduli (GPa) = 116.75947 54.62823 56.00170
#
# Poissons Ratio (x) = 0.13159 0.06084
# Poissons Ratio (y) = 0.28125 0.17187
# Poissons Ratio (z) = 0.12684 0.16765
#
# Static dielectric constant tensor:
#      x y z
#    x 1.855800 -0.048700 0.001270 
#    y -0.048700 1.790950 -0.033620 
#    z 0.001270 -0.033620 1.838950 
# 
# From -- ./inp_files/383317.got.cif
#   From: 2010.05.17/outbox.cif.g08.bks.cpg/sg2_192_cif.got.tgz:383317.got - 2010.06.03 11:33:40.
