data_PCOD9057969
_publ_section_title
;
Structure prediction by ZEFSAII (Michael W. Deem and Ramdas Pophale) SiO2 
 PCOD9057969
Probable space group: P -1
;
_chemical_formula_sum "Si O2"
_cell_formula_units_Z 16
_cell_length_a 12.073309
_cell_length_b 5.289291
_cell_length_c 19.503125
_cell_angle_alpha 107.701669
_cell_angle_beta 45.367205
_cell_angle_gamma 119.321045
_cell_volume 771.145464
_symmetry_space_group_name_H-M "P -1"
_symmetry_group_IT_number 2
_symmetry_cell_setting 'triclinic'
loop_
_space_group_symop_operation_xyz
x,y,z
-x,-y,-z
loop_
_atom_site_type_symbol
_atom_site_label
_atom_site_fract_x
_atom_site_fract_y
_atom_site_fract_z
Si Si1 0.560711 0.515112 0.714831
Si Si2 0.816673 0.886514 0.157605
Si Si3 0.974585 0.401241 0.704156
Si Si4 0.028984 0.004795 0.204734
Si Si5 0.353369 0.996261 0.013128
Si Si6 0.409479 0.852459 0.201989
Si Si7 0.090175 0.346831 0.498360
Si Si8 0.075924 0.417428 0.027535
O O1 0.379226 0.271181 0.750543
O O2 0.604631 0.383341 0.753978
O O3 0.714375 0.558528 0.600348
O O4 0.547873 0.823517 0.759696
O O5 0.831514 0.765663 0.065469
O O6 0.928253 0.843242 0.167236
O O7 0.917785 0.227536 0.127965
O O8 0.017964 0.726839 0.736137
O O9 0.772307 0.246306 0.763853
O O10 0.065899 0.409882 0.592981
O O11 0.009269 0.209639 0.731980
O O12 0.231189 0.132882 0.110003
O O13 0.445743 0.129670 0.913280
O O14 0.218733 0.670930 0.027815
O O15 0.500000 0.000000 0.000000
O O16 0.000000 0.500000 0.500000
O O17 0.000000 0.000000 0.500000
O O18 0.000000 0.500000 0.000000
#
# Coordination Sequence:
#
# PCOD9057969 Si02
#       8
#     2   2   2   2   2   2   2   2
#     4  12  25  45  71 105 131 174 236 294 336 413
#     4  11  26  41  68  94 138 191 239 278 341 412
#     4  12  25  45  68 101 141 177 224 288 354 417
#     4  12  27  44  65  98 145 190 223 279 348 418
#     4  12  25  41  67 105 144 187 230 284 350 412
#     4  12  25  41  68 104 141 173 226 283 349 413
#     4  12  23  45  75 104 133 173 228 292 364 411
#     4  11  22  44  66  94 140 192 243 280 331 418
#
# _framework density 20.748355
#
# number of rings (size 3 to 8) (size 9 to 14) (size 15 to 20)
#    0.000    0.250    6.250    3.000    1.750    1.500 
#    0.000    1.250    0.000    0.000    0.000    0.000 
#    0.000    0.000    0.000    0.000    0.000    0.000 
#
# Total GULP energy -89490.403752 kJ/mol
# GULP energy per Si atom -5593.150234 kJ/mol
# Density = 2.070113 g / cm^3
# Si number density = 20.748355 Si / 1000 Ang^3
#
#
#
# Elastic Constant Matrix: (Units=GPa)
#
#
# Indices 1 2 3 4 5 6 
#
# 1 108.6141 31.9563 26.9642 -12.8300 6.8198 5.6661
# 2 31.9563 103.3167 45.5102 -4.6981 9.8407 -0.8116
# 3 26.9642 45.5102 167.1044 -6.5030 0.9394 -7.1378
# 4 -12.8300 -4.6981 -6.5030 37.8700 8.8269 -2.1407
# 5 6.8198 9.8407 0.9394 8.8269 34.8154 -11.8359
# 6 5.6661 -0.8116 -7.1378 -2.1407 -11.8359 40.5844
#
#
#
# Elastic Compliance Matrix: (Units=1/GPa)
#
#
# Indices 1 2 3 4 5 6 
#
# 1 0.010983 -0.002475 -0.001037 0.003852 -0.003254 -0.002511
# 2 -0.002475 0.012063 -0.002868 0.000902 -0.003366 -0.000852
# 3 -0.001037 -0.002868 0.007010 0.000282 0.001340 0.001726
# 4 0.003852 0.000902 0.000282 0.029912 -0.009129 -0.001555
# 5 -0.003254 -0.003366 0.001340 -0.009129 0.036230 0.010707
# 6 -0.002511 -0.000852 0.001726 -0.001555 0.010707 0.028318
#
#
# Mechanical properties :
#
#
# Convention : Reuss Voigt Hill
#
# Bulk Modulus (GPa) = 57.81994 65.32185 61.57090
# Shear Modulus (GPa) = 34.95506 40.96093 37.95799
#
# Velocity S-wave (km/s) = 4.10898 4.44799 4.28184
# Velocity P-wave (km/s) = 7.10207 7.61123 7.36105
#
# Compressibility (1/GPa) = 0.01729507
#
# Stress axis : x y z
#
# Youngs Moduli (GPa) = 91.05045 82.89970 142.65373
#
# Poissons Ratio (x) = 0.20515 0.14797
# Poissons Ratio (y) = 0.22532 0.40917
# Poissons Ratio (z) = 0.09445 0.23778
#
# Static dielectric constant tensor:
#      x y z
#    x 1.766200 -0.021860 -0.001770 
#    y -0.021860 1.815650 0.035850 
#    z -0.001770 0.035850 1.748540 
# 
# From -- ./inp_files/127417.got.cif
#   From: 2010.05.17/outbox.cif.g08.bks.cpg/sg2_64_cif.got.tgz:127417.got - 2010.06.03 11:33:40.
