data_PCOD9057037
_publ_section_title
;
Structure prediction by ZEFSAII (Michael W. Deem and Ramdas Pophale) SiO2 
 PCOD9057037
Probable space group: P -1
;
_chemical_formula_sum "Si O2"
_cell_formula_units_Z 16
_cell_length_a 7.789837
_cell_length_b 17.480167
_cell_length_c 8.337350
_cell_angle_alpha 91.890667
_cell_angle_beta 130.120540
_cell_angle_gamma 115.815166
_cell_volume 695.687961
_symmetry_space_group_name_H-M "P -1"
_symmetry_group_IT_number 2
_symmetry_cell_setting 'triclinic'
loop_
_space_group_symop_operation_xyz
x,y,z
-x,-y,-z
loop_
_atom_site_type_symbol
_atom_site_label
_atom_site_fract_x
_atom_site_fract_y
_atom_site_fract_z
Si Si1 0.893681 0.003199 0.261245
Si Si2 0.286007 0.858681 0.863469
Si Si3 0.186951 0.442532 0.747695
Si Si4 0.959104 0.230119 0.596961
Si Si5 0.340451 0.270883 0.092781
Si Si6 0.074201 0.585302 0.730023
Si Si7 0.134732 0.725853 0.046066
Si Si8 0.575612 0.839647 0.592245
O O1 0.782292 0.067489 0.205355
O O2 0.153804 0.060989 0.301628
O O3 0.000000 0.000000 0.500000
O O4 0.609516 0.902966 0.029260
O O5 0.059762 0.773958 0.604980
O O6 0.230184 0.818572 0.004769
O O7 0.058686 0.492273 0.754496
O O8 0.029927 0.332409 0.685127
O O9 0.171760 0.447873 0.546261
O O10 0.500000 0.500000 0.000000
O O11 0.647721 0.148247 0.462715
O O12 0.165199 0.218695 0.819722
O O13 0.647654 0.349895 0.211558
O O14 0.354343 0.210162 0.235879
O O15 0.161318 0.305358 0.061141
O O16 0.098003 0.646654 0.898768
O O17 0.392136 0.767130 0.328823
#
# Coordination Sequence:
#
# PCOD9057037 Si02
#       8
#     2   2   2   2   2   2   2   2
#     4  11  24  41  66  96 132 170 219 277 328 399
#     4  11  23  42  67  97 128 174 223 267 337 398
#     4  11  22  41  68  98 132 175 223 277 327 389
#     4  11  24  42  69  96 131 176 223 271 334 396
#     4  11  23  41  66  99 136 175 223 276 323 399
#     4  11  24  42  70  97 134 179 223 273 335 386
#     4  11  23  41  70 101 129 179 227 267 333 401
#     4  11  23  42  67  96 134 171 222 274 331 398
#
# _framework density 22.998818
#
# number of rings (size 3 to 8) (size 9 to 14) (size 15 to 20)
#    0.000    1.000    6.250    0.000    1.750    2.500 
#    0.000    6.250    2.750    0.000    0.000    0.000 
#    0.000    0.000    0.000    0.000    0.000    0.000 
#
# Total GULP energy -89323.276356 kJ/mol
# GULP energy per Si atom -5582.704772 kJ/mol
# Density = 2.294647 g / cm^3
# Si number density = 22.998818 Si / 1000 Ang^3
#
#
#
# Elastic Constant Matrix: (Units=GPa)
#
#
# Indices 1 2 3 4 5 6 
#
# 1 50.5877 11.7235 16.2743 3.4956 8.0543 4.3651
# 2 11.7235 78.9529 25.3873 -31.0822 2.8844 -3.3190
# 3 16.2743 25.3873 149.2636 -36.1707 4.2748 0.7988
# 4 3.4956 -31.0822 -36.1707 35.0652 2.8370 5.5396
# 5 8.0543 2.8844 4.2748 2.8370 35.0132 4.1034
# 6 4.3651 -3.3190 0.7988 5.5396 4.1034 34.5967
#
#
#
# Elastic Compliance Matrix: (Units=1/GPa)
#
#
# Indices 1 2 3 4 5 6 
#
# 1 0.024414 -0.007242 -0.004487 -0.013027 -0.003276 -0.001197
# 2 -0.007242 0.022167 0.002788 0.023518 -0.002346 -0.000512
# 3 -0.004487 0.002788 0.010066 0.013637 -0.001365 -0.001420
# 4 -0.013027 0.023518 0.013637 0.066162 -0.005218 -0.006390
# 5 -0.003276 -0.002346 -0.001365 -0.005218 0.030396 -0.002550
# 6 -0.001197 -0.000512 -0.001420 -0.006390 -0.002550 0.030365
#
#
# Mechanical properties :
#
#
# Convention : Reuss Voigt Hill
#
# Bulk Modulus (GPa) = 25.79495 42.84160 34.31828
# Shear Modulus (GPa) = 23.32390 35.96297 29.64343
#
# Velocity S-wave (km/s) = 3.18800 3.95864 3.59404
# Velocity P-wave (km/s) = 4.97908 6.28988 5.67247
#
# Compressibility (1/GPa) = 0.03876727
#
# Stress axis : x y z
#
# Youngs Moduli (GPa) = 40.95967 45.11143 99.34670
#
# Poissons Ratio (x) = 0.32668 0.44574
# Poissons Ratio (y) = 0.29661 -0.27700
# Poissons Ratio (z) = 0.18378 -0.12578
#
# Static dielectric constant tensor:
#      x y z
#    x 1.923000 -0.006740 -0.041590 
#    y -0.006740 1.907170 0.041300 
#    z -0.041590 0.041300 1.917560 
# 
# From -- ./inp_files/215235.got.cif
#   From: 2010.05.17/outbox.cif.g08.bks.cpg/sg2_108_cif.got.tgz:215235.got - 2010.06.03 11:33:40.
