data_PCOD9057937
_publ_section_title
;
Structure prediction by ZEFSAII (Michael W. Deem and Ramdas Pophale) SiO2 
 PCOD9057937
Probable space group: P -1
;
_chemical_formula_sum "Si O2"
_cell_formula_units_Z 12
_cell_length_a 8.814766
_cell_length_b 8.837466
_cell_length_c 9.867828
_cell_angle_alpha 101.135059
_cell_angle_beta 108.575784
_cell_angle_gamma 50.906494
_cell_volume 565.493507
_symmetry_space_group_name_H-M "P -1"
_symmetry_group_IT_number 2
_symmetry_cell_setting 'triclinic'
loop_
_space_group_symop_operation_xyz
x,y,z
-x,-y,-z
loop_
_atom_site_type_symbol
_atom_site_label
_atom_site_fract_x
_atom_site_fract_y
_atom_site_fract_z
Si Si1 0.034429 0.539887 0.366557
Si Si2 0.641375 0.379547 0.892219
Si Si3 0.742370 0.944995 0.433744
Si Si4 0.007326 0.356069 0.085181
Si Si5 0.652590 0.021387 0.732823
Si Si6 0.531652 0.620214 0.632207
O O1 0.268105 0.410092 0.368945
O O2 0.000000 0.500000 0.500000
O O3 0.939376 0.766298 0.382736
O O4 0.930055 0.485505 0.222373
O O5 0.571295 0.528481 0.774395
O O6 0.637022 0.205352 0.812287
O O7 0.500000 0.500000 0.000000
O O8 0.864584 0.304356 0.984030
O O9 0.761364 0.949271 0.603055
O O10 0.567687 0.921480 0.348071
O O11 0.656940 0.154528 0.389279
O O12 0.221542 0.153751 0.152778
O O13 0.000000 0.500000 0.000000
O O14 0.500000 0.500000 0.500000
#
# Coordination Sequence:
#
# PCOD9057937 Si02
#       6
#     2   2   2   2   2   2
#     4  12  24  44  76 103 136 189 234 282 349 415
#     4  12  27  45  68 103 146 185 228 290 356 413
#     4  11  22  43  76 101 134 184 239 284 346 407
#     4  12  24  45  69 100 147 183 228 290 347 414
#     4  11  22  44  70 103 138 184 234 290 343 414
#     4  12  26  47  70 106 142 176 239 295 334 418
#
# _framework density 21.220400999999999
#
# number of rings (size 3 to 8) (size 9 to 14) (size 15 to 20)
#    0.000    0.333    6.667    2.500    2.333    2.000 
#    3.000    3.333    0.000    0.000    0.000    0.000 
#    0.000    0.000    0.000    0.000    0.000    0.000 
#
# Total GULP energy -67131.083912 kJ/mol
# GULP energy per Si atom -5594.256993 kJ/mol
# Density = 2.117210 g / cm^3
# Si number density = 21.220401 Si / 1000 Ang^3
#
#
#
# Elastic Constant Matrix: (Units=GPa)
#
#
# Indices 1 2 3 4 5 6 
#
# 1 46.7416 8.7290 33.5919 -0.0027 3.5000 19.6669
# 2 8.7290 136.6258 36.5216 -1.5148 -0.6651 18.6925
# 3 33.5919 36.5216 146.8769 -1.2375 -4.8982 19.9797
# 4 -0.0027 -1.5148 -1.2375 46.2692 13.6162 7.1657
# 5 3.5000 -0.6651 -4.8982 13.6162 41.8070 6.1522
# 6 19.6669 18.6925 19.9797 7.1657 6.1522 31.0600
#
#
#
# Elastic Compliance Matrix: (Units=1/GPa)
#
#
# Indices 1 2 3 4 5 6 
#
# 1 0.033134 0.001995 -0.005506 0.003369 -0.001676 -0.019085
# 2 0.001995 0.008431 -0.001793 0.001005 0.000233 -0.005461
# 3 -0.005506 -0.001793 0.008757 -0.000111 0.001697 -0.001378
# 4 0.003369 0.001005 -0.000111 0.024885 -0.007361 -0.006950
# 5 -0.001676 0.000233 0.001697 -0.007361 0.027229 -0.003866
# 6 -0.019085 -0.005461 -0.001378 -0.006950 -0.003866 0.050822
#
#
# Mechanical properties :
#
#
# Convention : Reuss Voigt Hill
#
# Bulk Modulus (GPa) = 25.18036 54.21435 39.69735
# Shear Modulus (GPa) = 28.23208 40.58736 34.40972
#
# Velocity S-wave (km/s) = 3.65145 4.37814 4.03120
# Velocity P-wave (km/s) = 5.44696 7.15270 6.35730
#
# Compressibility (1/GPa) = 0.03971350
#
# Stress axis : x y z
#
# Youngs Moduli (GPa) = 30.18048 118.61404 114.19900
#
# Poissons Ratio (x) = -0.23664 0.62872
# Poissons Ratio (y) = -0.06021 0.20481
# Poissons Ratio (z) = 0.16616 0.21273
#
# Static dielectric constant tensor:
#      x y z
#    x 1.774930 0.017290 0.020190 
#    y 0.017290 1.790410 -0.024680 
#    z 0.020190 -0.024680 1.755540 
# 
# From -- ./inp_files/148773.got.cif
#   From: 2010.05.17/outbox.cif.g08.bks.cpg/sg2_75_cif.got.tgz:148773.got - 2010.06.03 11:33:40.
