data_PCOD9057784
_publ_section_title
;
Structure prediction by ZEFSAII (Michael W. Deem and Ramdas Pophale) SiO2 
 PCOD9057784
Probable space group: P -1
;
_chemical_formula_sum "Si O2"
_cell_formula_units_Z 16
_cell_length_a 8.146707
_cell_length_b 15.185891
_cell_length_c 6.077078
_cell_angle_alpha 112.571819
_cell_angle_beta 93.994458
_cell_angle_gamma 80.888125
_cell_volume 685.442203
_symmetry_space_group_name_H-M "P -1"
_symmetry_group_IT_number 2
_symmetry_cell_setting 'triclinic'
loop_
_space_group_symop_operation_xyz
x,y,z
-x,-y,-z
loop_
_atom_site_type_symbol
_atom_site_label
_atom_site_fract_x
_atom_site_fract_y
_atom_site_fract_z
Si Si1 0.517756 0.575377 0.379223
Si Si2 0.526589 0.905699 0.558521
Si Si3 0.698820 0.397557 0.996027
Si Si4 0.888748 0.867800 0.742924
Si Si5 0.219342 0.928857 0.862106
Si Si6 0.977967 0.550488 0.799651
Si Si7 0.726828 0.709194 0.769560
Si Si8 0.423112 0.789754 0.065220
O O1 0.500000 0.500000 0.500000
O O2 0.634002 0.508011 0.156680
O O3 0.615660 0.661907 0.536998
O O4 0.343770 0.610203 0.273353
O O5 0.723108 0.882340 0.592656
O O6 0.397604 0.926845 0.764485
O O7 0.456800 0.821286 0.342126
O O8 0.500000 0.000000 0.500000
O O9 0.882296 0.381000 0.090817
O O10 0.606526 0.320478 0.039921
O O11 0.873243 0.763821 0.743936
O O12 0.071790 0.880675 0.684365
O O13 0.850523 0.959677 0.991354
O O14 0.272175 0.862379 0.017522
O O15 0.802876 0.618592 0.836184
O O16 0.000000 0.500000 0.500000
O O17 0.000000 0.500000 0.000000
O O18 0.597241 0.788639 0.954635
#
# Coordination Sequence:
#
# PCOD9057784 Si02
#       8
#     2   2   2   2   2   2   2   2
#     4  11  22  43  70  98 138 187 246 310 377 443
#     4  12  24  45  71 107 147 192 241 307 378 446
#     4  11  25  41  69 102 136 188 249 305 379 452
#     4  11  24  47  77 105 146 194 251 303 381 456
#     4  11  25  49  71 105 150 191 239 317 372 449
#     4  12  28  49  72 107 154 200 255 328 393 456
#     4  12  24  46  75 106 145 201 255 313 385 470
#     4  12  25  44  72 105 143 191 252 299 378 455
#
# _framework density 23.342597000000001
#
# number of rings (size 3 to 8) (size 9 to 14) (size 15 to 20)
#    0.000    0.500    5.000    3.375    1.750    1.500 
#    6.750    0.000    0.000    0.000    0.000    0.000 
#    0.000    0.000    0.000    0.000    0.000    0.000 
#
# Total GULP energy -89194.706972 kJ/mol
# GULP energy per Si atom -5574.669186 kJ/mol
# Density = 2.328947 g / cm^3
# Si number density = 23.342597 Si / 1000 Ang^3
#
#
#
# Elastic Constant Matrix: (Units=GPa)
#
#
# Indices 1 2 3 4 5 6 
#
# 1 104.9146 25.7211 30.4560 -15.6915 32.1275 -4.2275
# 2 25.7211 111.7712 36.2082 -17.0937 11.6492 1.3269
# 3 30.4560 36.2082 69.8715 -3.7566 23.4708 3.0391
# 4 -15.6915 -17.0937 -3.7566 38.0878 -5.5449 7.8183
# 5 32.1275 11.6492 23.4708 -5.5449 34.5220 -1.9108
# 6 -4.2275 1.3269 3.0391 7.8183 -1.9108 37.6873
#
#
#
# Elastic Compliance Matrix: (Units=1/GPa)
#
#
# Indices 1 2 3 4 5 6 
#
# 1 0.014246 -0.001009 -0.001787 0.003524 -0.011110 0.000483
# 2 -0.001009 0.011626 -0.005865 0.004662 0.001700 -0.000930
# 3 -0.001787 -0.005865 0.022060 -0.002541 -0.011867 -0.001847
# 4 0.003524 0.004662 -0.002541 0.030985 0.001524 -0.005914
# 5 -0.011110 0.001700 -0.011867 0.001524 0.047141 0.001725
# 6 0.000483 -0.000930 -0.001847 -0.005914 0.001725 0.028085
#
#
# Mechanical properties :
#
#
# Convention : Reuss Voigt Hill
#
# Bulk Modulus (GPa) = 32.66724 52.36979 42.51851
# Shear Modulus (GPa) = 27.52299 35.00421 31.26360
#
# Velocity S-wave (km/s) = 3.43751 3.87665 3.66367
# Velocity P-wave (km/s) = 5.45714 6.52088 6.01258
#
# Compressibility (1/GPa) = 0.03061171
#
# Stress axis : x y z
#
# Youngs Moduli (GPa) = 70.19419 86.01599 45.33092
#
# Poissons Ratio (x) = 0.08675 0.08099
# Poissons Ratio (y) = 0.07079 0.26587
# Poissons Ratio (z) = 0.12541 0.50449
#
# Static dielectric constant tensor:
#      x y z
#    x 2.109730 -0.154230 -0.119690 
#    y -0.154230 2.350470 0.102710 
#    z -0.119690 0.102710 2.117000 
# 
# From -- ./inp_files/39948.got.cif
#   From: 2010.05.17/outbox.cif.g08.bks.cpg/sg2_20_cif.got.tgz:39948.got - 2010.06.03 11:33:40.
