data_PCOD9057512
_publ_section_title
;
Structure prediction by ZEFSAII (Michael W. Deem and Ramdas Pophale) SiO2 
 PCOD9057512
Probable space group: P -1
;
_chemical_formula_sum "Si O2"
_cell_formula_units_Z 16
_cell_length_a 13.734211
_cell_length_b 11.259028
_cell_length_c 10.845306
_cell_angle_alpha 64.763349
_cell_angle_beta 31.660585
_cell_angle_gamma 52.592032
_cell_volume 682.466078
_symmetry_space_group_name_H-M "P -1"
_symmetry_group_IT_number 2
_symmetry_cell_setting 'triclinic'
loop_
_space_group_symop_operation_xyz
x,y,z
-x,-y,-z
loop_
_atom_site_type_symbol
_atom_site_label
_atom_site_fract_x
_atom_site_fract_y
_atom_site_fract_z
Si Si1 0.525207 0.807692 0.859322
Si Si2 0.904452 0.544556 0.222239
Si Si3 0.529190 0.359739 0.446635
Si Si4 0.895008 0.694783 0.675851
Si Si5 0.286835 0.651726 0.118221
Si Si6 0.218298 0.981892 0.321547
Si Si7 0.977025 0.232904 0.890973
Si Si8 0.658842 0.041235 0.525734
O O1 0.768480 0.683237 0.697367
O O2 0.539648 0.946003 0.722414
O O3 0.380772 0.764648 0.952150
O O4 0.405214 0.846118 0.103056
O O5 0.668133 0.563045 0.471587
O O6 0.056462 0.418950 0.214633
O O7 0.895435 0.697457 0.209511
O O8 0.000000 0.500000 0.000000
O O9 0.500000 0.500000 0.500000
O O10 0.504396 0.220645 0.587297
O O11 0.777834 0.264770 0.177954
O O12 0.112302 0.684677 0.396882
O O13 0.764617 0.868987 0.788360
O O14 0.157248 0.665927 0.127846
O O15 0.500000 0.500000 0.000000
O O16 0.228821 0.963409 0.464141
O O17 0.000000 0.000000 0.500000
O O18 0.152378 0.063368 0.729493
#
# Coordination Sequence:
#
# PCOD9057512 Si02
#       8
#     2   2   2   2   2   2   2   2
#     4  11  24  45  74 110 149 190 243 307 376 442
#     4  12  29  48  73 109 148 203 250 301 367 448
#     4  12  29  51  74 103 148 205 250 304 373 447
#     4  11  24  44  70 109 145 184 248 296 370 439
#     4  12  25  43  75 112 148 196 238 309 380 440
#     4  11  22  42  72 106 142 189 237 299 375 438
#     4  12  26  51  73 111 150 190 258 304 376 440
#     4  11  26  47  75 109 148 192 255 310 370 439
#
# _framework density 23.444388
#
# number of rings (size 3 to 8) (size 9 to 14) (size 15 to 20)
#    0.000    0.500    5.000    3.375    8.750    2.500 
#    2.250    0.000    0.000    0.000    0.000    0.000 
#    0.000    0.000    0.000    0.000    0.000    0.000 
#
# Total GULP energy -89389.414503 kJ/mol
# GULP energy per Si atom -5586.838406 kJ/mol
# Density = 2.339103 g / cm^3
# Si number density = 23.444388 Si / 1000 Ang^3
#
#
#
# Elastic Constant Matrix: (Units=GPa)
#
#
# Indices 1 2 3 4 5 6 
#
# 1 108.5390 33.9342 29.3527 -5.5314 -17.0709 24.9408
# 2 33.9342 91.7254 14.1070 5.2732 11.5313 -3.4415
# 3 29.3527 14.1070 100.9865 6.9133 -15.7809 18.1868
# 4 -5.5314 5.2732 6.9133 33.6162 0.4190 3.3790
# 5 -17.0709 11.5313 -15.7809 0.4190 40.7419 -2.3703
# 6 24.9408 -3.4415 18.1868 3.3790 -2.3703 29.4397
#
#
#
# Elastic Compliance Matrix: (Units=1/GPa)
#
#
# Indices 1 2 3 4 5 6 
#
# 1 0.016877 -0.008170 -0.000099 0.005497 0.008408 -0.015146
# 2 -0.008170 0.016028 -0.002739 -0.004226 -0.008378 0.010297
# 3 -0.000099 -0.002739 0.012559 -0.001490 0.005183 -0.007407
# 4 0.005497 -0.004226 -0.001490 0.032376 0.002137 -0.007774
# 5 0.008408 -0.008378 0.005183 0.002137 0.031902 -0.008981
# 6 -0.015146 0.010297 -0.007407 -0.007774 -0.008981 0.052748
#
#
# Mechanical properties :
#
#
# Convention : Reuss Voigt Hill
#
# Bulk Modulus (GPa) = 42.64449 50.67095 46.65772
# Shear Modulus (GPa) = 25.99807 35.68337 30.84072
#
# Velocity S-wave (km/s) = 3.33367 3.90557 3.63089
# Velocity P-wave (km/s) = 5.74864 6.48060 6.12556
#
# Compressibility (1/GPa) = 0.02344969
#
# Stress axis : x y z
#
# Youngs Moduli (GPa) = 59.25201 62.38963 79.62128
#
# Poissons Ratio (x) = 0.50971 0.00789
# Poissons Ratio (y) = 0.48407 0.21806
# Poissons Ratio (z) = 0.00587 0.17087
#
# Static dielectric constant tensor:
#      x y z
#    x 1.906650 -0.018090 -0.040720 
#    y -0.018090 1.989400 0.037090 
#    z -0.040720 0.037090 2.030630 
# 
# From -- ./inp_files/451212.got.cif
#   From: 2010.05.17/outbox.cif.g08.bks.cpg/sg2_226_cif.got.tgz:451212.got - 2010.06.03 11:33:40.
