data_PCOD9057180
_publ_section_title
;
Structure prediction by ZEFSAII (Michael W. Deem and Ramdas Pophale) SiO2 
 PCOD9057180
Probable space group: P -1
;
_chemical_formula_sum "Si O2"
_cell_formula_units_Z 16
_cell_length_a 14.415235
_cell_length_b 14.189019
_cell_length_c 13.114527
_cell_angle_alpha 49.367049
_cell_angle_beta 135.837988
_cell_angle_gamma 160.369930
_cell_volume 624.379997
_symmetry_space_group_name_H-M "P -1"
_symmetry_group_IT_number 2
_symmetry_cell_setting 'triclinic'
loop_
_space_group_symop_operation_xyz
x,y,z
-x,-y,-z
loop_
_atom_site_type_symbol
_atom_site_label
_atom_site_fract_x
_atom_site_fract_y
_atom_site_fract_z
Si Si1 0.831308 0.884523 0.254029
Si Si2 0.506300 0.411639 0.445244
Si Si3 0.723496 0.160301 0.756555
Si Si4 0.517326 0.211761 0.433908
Si Si5 0.306627 0.603032 0.774339
Si Si6 0.978696 0.727653 0.754104
Si Si7 0.909333 0.833948 0.136016
Si Si8 0.584037 0.161542 0.859745
O O1 0.148822 0.093859 0.398193
O O2 0.865653 0.056930 0.188875
O O3 0.808287 0.827513 0.159005
O O4 0.565002 0.591741 0.309078
O O5 0.618805 0.398646 0.465153
O O6 0.706404 0.567353 0.593452
O O7 0.602744 0.919941 0.824005
O O8 0.705213 0.195451 0.831277
O O9 0.515663 0.078657 0.582307
O O10 0.046940 0.430690 0.767223
O O11 0.730290 0.386004 0.380154
O O12 0.201079 0.998966 0.290325
O O13 0.311895 0.458970 0.871850
O O14 0.246524 0.933293 0.737619
O O15 0.823043 0.471313 0.852269
O O16 0.000000 0.000000 0.000000
O O17 0.500000 0.000000 0.000000
#
# Coordination Sequence:
#
# PCOD9057180 Si02
#       8
#     2   2   2   2   2   2   2   2
#     4  11  24  43  70 103 139 182 231 286 343 423
#     4  11  22  41  72 105 140 173 231 289 354 402
#     4  12  27  44  77 105 140 185 241 296 357 413
#     4  11  24  45  73 106 147 185 234 298 355 416
#     4  12  25  46  72 107 142 187 236 293 353 420
#     4  12  24  46  74 100 140 186 230 289 355 411
#     4  11  27  46  68 104 150 188 235 285 353 427
#     4  12  28  48  70 103 143 183 239 294 350 421
#
# _framework density 25.625422
#
# number of rings (size 3 to 8) (size 9 to 14) (size 15 to 20)
#    0.000    0.500    3.750    4.125    3.500    2.500 
#    0.000    0.000    0.000    0.000    0.000    0.000 
#    0.000    0.000    0.000    0.000    0.000    0.000 
#
# Total GULP energy -89717.607924 kJ/mol
# GULP energy per Si atom -5607.350495 kJ/mol
# Density = 2.556710 g / cm^3
# Si number density = 25.625422 Si / 1000 Ang^3
#
#
#
# Elastic Constant Matrix: (Units=GPa)
#
#
# Indices 1 2 3 4 5 6 
#
# 1 183.9425 33.1613 35.0949 -22.2502 -14.9297 -3.3464
# 2 33.1613 102.6174 22.8247 -24.1997 -0.9008 -3.8780
# 3 35.0949 22.8247 110.5365 -24.0477 -5.9055 -18.8945
# 4 -22.2502 -24.1997 -24.0477 49.9585 -3.6890 10.7321
# 5 -14.9297 -0.9008 -5.9055 -3.6890 33.2455 -10.1958
# 6 -3.3464 -3.8780 -18.8945 10.7321 -10.1958 48.2696
#
#
#
# Elastic Compliance Matrix: (Units=1/GPa)
#
#
# Indices 1 2 3 4 5 6 
#
# 1 0.006353 -0.001336 -0.001186 0.001806 0.002826 0.000064
# 2 -0.001336 0.011466 -0.001068 0.004571 -0.000168 -0.000641
# 3 -0.001186 -0.001068 0.011328 0.003759 0.003122 0.004090
# 4 0.001806 0.004571 0.003759 0.025753 0.003536 -0.003015
# 5 0.002826 -0.000168 0.003122 0.003536 0.034730 0.007954
# 6 0.000064 -0.000641 0.004090 -0.003015 0.007954 0.024621
#
#
# Mechanical properties :
#
#
# Convention : Reuss Voigt Hill
#
# Bulk Modulus (GPa) = 45.52350 64.36202 54.94276
# Shear Modulus (GPa) = 38.83407 46.69576 42.76492
#
# Velocity S-wave (km/s) = 3.89710 4.27341 4.08958
# Velocity P-wave (km/s) = 6.16875 7.03707 6.61716
#
# Compressibility (1/GPa) = 0.02196668
#
# Stress axis : x y z
#
# Youngs Moduli (GPa) = 157.41466 87.21224 88.28048
#
# Poissons Ratio (x) = 0.11651 0.10472
# Poissons Ratio (y) = 0.21029 0.09426
# Poissons Ratio (z) = 0.18673 0.09312
#
# Static dielectric constant tensor:
#      x y z
#    x 2.037410 0.010800 0.077810 
#    y 0.010800 1.990650 0.064860 
#    z 0.077810 0.064860 2.054230 
# 
# From -- ./inp_files/534276.got.cif
#   From: 2010.05.17/outbox.cif.g08.bks.cpg/sg2_268_cif.got.tgz:534276.got - 2010.06.03 11:33:40.
