data_PCOD9057065
_publ_section_title
;
Structure prediction by ZEFSAII (Michael W. Deem and Ramdas Pophale) SiO2 
 PCOD9057065
Probable space group: P -1
;
_chemical_formula_sum "Si O2"
_cell_formula_units_Z 16
_cell_length_a 8.781685
_cell_length_b 9.550617
_cell_length_c 16.425003
_cell_angle_alpha 145.704285
_cell_angle_beta 72.483069
_cell_angle_gamma 94.128986
_cell_volume 699.071889
_symmetry_space_group_name_H-M "P -1"
_symmetry_group_IT_number 2
_symmetry_cell_setting 'triclinic'
loop_
_space_group_symop_operation_xyz
x,y,z
-x,-y,-z
loop_
_atom_site_type_symbol
_atom_site_label
_atom_site_fract_x
_atom_site_fract_y
_atom_site_fract_z
Si Si1 0.564362 0.113208 0.644405
Si Si2 0.993706 0.122280 0.811025
Si Si3 0.978149 0.564450 0.896378
Si Si4 0.131042 0.710333 0.351456
Si Si5 0.337157 0.443571 0.720652
Si Si6 0.396258 0.800824 0.137345
Si Si7 0.492406 0.138619 0.155588
Si Si8 0.867125 0.431982 0.544929
O O1 0.696163 0.229613 0.634086
O O2 0.393243 0.345955 0.758397
O O3 0.616943 0.071630 0.709815
O O4 0.577641 0.827790 0.471743
O O5 0.793925 0.145263 0.843245
O O6 0.015369 0.337875 0.849198
O O7 0.042216 0.180402 0.922663
O O8 0.122802 0.850094 0.626967
O O9 0.137243 0.522308 0.792137
O O10 0.847661 0.491941 0.823134
O O11 0.071294 0.600961 0.388259
O O12 0.000000 0.000000 0.500000
O O13 0.388045 0.683494 0.791823
O O14 0.506059 0.917732 0.115695
O O15 0.500000 0.500000 0.000000
O O16 0.314470 0.351359 0.313963
O O17 0.500000 0.000000 0.000000
O O18 0.000000 0.500000 0.500000
#
# Coordination Sequence:
#
# PCOD9057065 Si02
#       8
#     2   2   2   2   2   2   2   2
#     4  11  22  41  69 105 136 193 244 297 357 442
#     4  11  23  43  71 112 141 188 247 310 362 428
#     4  11  23  40  75 104 148 186 245 303 357 436
#     4  12  21  43  71 105 142 194 249 292 358 438
#     4  11  24  42  69 104 148 188 238 299 375 436
#     4  12  25  46  76 104 143 196 255 302 366 448
#     4  12  27  47  72 103 152 198 240 304 382 441
#     4  12  25  45  75 104 148 194 246 302 372 436
#
# _framework density 22.887488999999999
#
# number of rings (size 3 to 8) (size 9 to 14) (size 15 to 20)
#    0.000    0.500    6.250    2.250    1.750    0.500 
#    0.000    0.625    2.750    0.000    0.000    0.000 
#    0.000    0.000    0.000    0.000    0.000    0.000 
#
# Total GULP energy -89334.332330 kJ/mol
# GULP energy per Si atom -5583.395771 kJ/mol
# Density = 2.283540 g / cm^3
# Si number density = 22.887489 Si / 1000 Ang^3
#
#
#
# Elastic Constant Matrix: (Units=GPa)
#
#
# Indices 1 2 3 4 5 6 
#
# 1 77.3285 21.0607 34.8056 9.5002 7.8416 18.1163
# 2 21.0607 138.1748 38.7832 -7.0575 14.0866 23.9330
# 3 34.8056 38.7832 146.3402 3.3748 15.0775 -8.5107
# 4 9.5002 -7.0575 3.3748 30.1110 -6.3772 1.5443
# 5 7.8416 14.0866 15.0775 -6.3772 38.0649 -0.8411
# 6 18.1163 23.9330 -8.5107 1.5443 -0.8411 37.5012
#
#
#
# Elastic Compliance Matrix: (Units=1/GPa)
#
#
# Indices 1 2 3 4 5 6 
#
# 1 0.018167 0.000244 -0.004507 -0.005335 -0.003158 -0.009806
# 2 0.000244 0.009553 -0.002822 0.002366 -0.002226 -0.007002
# 3 -0.004507 -0.002822 0.009203 -0.000941 -0.001696 0.006068
# 4 -0.005335 0.002366 -0.000941 0.037018 0.006787 -0.000518
# 5 -0.003158 -0.002226 -0.001696 0.006787 0.029619 0.002946
# 6 -0.009806 -0.007002 0.006068 -0.000518 0.002946 0.037336
#
#
# Mechanical properties :
#
#
# Convention : Reuss Voigt Hill
#
# Bulk Modulus (GPa) = 43.95311 61.23805 52.59558
# Shear Modulus (GPa) = 30.74072 38.94837 34.84454
#
# Velocity S-wave (km/s) = 3.66884 4.12968 3.90606
# Velocity P-wave (km/s) = 6.09860 7.03940 6.58582
#
# Compressibility (1/GPa) = 0.02275152
#
# Stress axis : x y z
#
# Youngs Moduli (GPa) = 55.04412 104.68162 108.66382
#
# Poissons Ratio (x) = -0.02555 0.48980
# Poissons Ratio (y) = -0.01343 0.30667
# Poissons Ratio (z) = 0.24811 0.29543
#
# Static dielectric constant tensor:
#      x y z
#    x 2.066000 -0.078550 0.017980 
#    y -0.078550 1.877970 0.025000 
#    z 0.017980 0.025000 1.932630 
# 
# From -- ./inp_files/495814.got.cif
#   From: 2010.05.17/outbox.cif.g08.bks.cpg/sg2_248_cif.got.tgz:495814.got - 2010.06.03 11:33:40.
