data_PCOD9057071
_publ_section_title
;
Structure prediction by ZEFSAII (Michael W. Deem and Ramdas Pophale) SiO2 
 PCOD9057071
Probable space group: P -1
;
_chemical_formula_sum "Si O2"
_cell_formula_units_Z 16
_cell_length_a 14.804197
_cell_length_b 15.891658
_cell_length_c 11.412492
_cell_angle_alpha 68.351508
_cell_angle_beta 151.164364
_cell_angle_gamma 133.432740
_cell_volume 701.254879
_symmetry_space_group_name_H-M "P -1"
_symmetry_group_IT_number 2
_symmetry_cell_setting 'triclinic'
loop_
_space_group_symop_operation_xyz
x,y,z
-x,-y,-z
loop_
_atom_site_type_symbol
_atom_site_label
_atom_site_fract_x
_atom_site_fract_y
_atom_site_fract_z
Si Si1 0.924251 0.365758 0.361559
Si Si2 0.130565 0.310639 0.454386
Si Si3 0.000287 0.914661 0.208921
Si Si4 0.986781 0.435751 0.794143
Si Si5 0.848674 0.647421 0.147705
Si Si6 0.225562 0.152554 0.754193
Si Si7 0.641547 0.650417 0.537733
Si Si8 0.577712 0.782535 0.573105
O O1 0.877721 0.274326 0.251920
O O2 0.093428 0.517102 0.413451
O O3 0.121162 0.396861 0.674291
O O4 0.591498 0.268964 0.086318
O O5 0.169076 0.233188 0.608637
O O6 0.087213 0.268015 0.290950
O O7 0.473707 0.498396 0.760207
O O8 0.987282 0.801282 0.245146
O O9 0.873414 0.895346 0.199654
O O10 0.760768 0.856678 0.866686
O O11 0.334227 0.094849 0.464947
O O12 0.787843 0.365143 0.723459
O O13 0.962234 0.331745 0.750274
O O14 0.361724 0.590021 0.175492
O O15 0.000000 0.000000 0.500000
O O16 0.500000 0.500000 0.500000
O O17 0.701707 0.743049 0.663908
#
# Coordination Sequence:
#
# PCOD9057071 Si02
#       8
#     2   2   2   2   2   2   2   2
#     4  12  23  41  73 105 135 180 226 289 352 398
#     4  11  24  42  71 106 136 178 226 288 339 406
#     4  11  25  44  67  96 143 186 219 283 344 405
#     4  11  23  39  70 103 131 177 235 279 336 409
#     4  11  22  41  69 107 141 170 230 286 345 413
#     4  12  26  47  67  98 144 176 230 284 347 411
#     4  11  22  43  65 100 139 177 225 288 334 398
#     4  11  24  43  68  97 139 188 227 275 342 407
#
# _framework density 22.816240000000001
#
# number of rings (size 3 to 8) (size 9 to 14) (size 15 to 20)
#    0.000    0.750    3.750    5.625    1.750    1.000 
#    0.000    1.250    0.000    0.000    0.000    0.000 
#    0.000    0.000    0.000    0.000    0.000    0.000 
#
# Total GULP energy -89558.954240 kJ/mol
# GULP energy per Si atom -5597.434640 kJ/mol
# Density = 2.276431 g / cm^3
# Si number density = 22.816240 Si / 1000 Ang^3
#
#
#
# Elastic Constant Matrix: (Units=GPa)
#
#
# Indices 1 2 3 4 5 6 
#
# 1 210.3607 59.8148 20.2169 5.1773 2.0914 2.5269
# 2 59.8148 133.2932 18.5457 1.8833 7.3054 -0.1510
# 3 20.2169 18.5457 16.4966 -1.0399 2.3212 -0.6930
# 4 5.1773 1.8833 -1.0399 23.3598 -3.1403 -0.4789
# 5 2.0914 7.3054 2.3212 -3.1403 31.3412 -0.3599
# 6 2.5269 -0.1510 -0.6930 -0.4789 -0.3599 42.9226
#
#
#
# Elastic Compliance Matrix: (Units=1/GPa)
#
#
# Indices 1 2 3 4 5 6 
#
# 1 0.005823 -0.001894 -0.005151 -0.001337 0.000295 -0.000445
# 2 -0.001894 0.009610 -0.008318 -0.000940 -0.001592 -0.000013
# 3 -0.005151 -0.008318 0.077066 0.004882 -0.002918 0.001548
# 4 -0.001337 -0.000940 0.004882 0.043998 0.004363 0.000682
# 5 0.000295 -0.001592 -0.002918 0.004363 0.032914 0.000255
# 6 -0.000445 -0.000013 0.001548 0.000682 0.000255 0.023359
#
#
# Mechanical properties :
#
#
# Convention : Reuss Voigt Hill
#
# Bulk Modulus (GPa) = 16.18851 61.92280 39.05565
# Shear Modulus (GPa) = 20.48442 36.96291 28.72367
#
# Velocity S-wave (km/s) = 2.99958 4.02932 3.55197
# Velocity P-wave (km/s) = 4.37118 6.98899 5.82894
#
# Compressibility (1/GPa) = 0.06177222
#
# Stress axis : x y z
#
# Youngs Moduli (GPa) = 171.74360 104.05750 12.97585
#
# Poissons Ratio (x) = 0.19709 0.06684
# Poissons Ratio (y) = 0.32529 0.10794
# Poissons Ratio (z) = 0.88465 0.86559
#
# Static dielectric constant tensor:
#      x y z
#    x 1.871990 0.003770 -0.002170 
#    y 0.003770 1.852560 0.025360 
#    z -0.002170 0.025360 1.891380 
# 
# From -- ./inp_files/455663.got.cif
#   From: 2010.05.17/outbox.cif.g08.bks.cpg/sg2_228_cif.got.tgz:455663.got - 2010.06.03 11:33:40.
