data_PCOD9057354
_publ_section_title
;
Structure prediction by ZEFSAII (Michael W. Deem and Ramdas Pophale) SiO2 
 PCOD9057354
Probable space group: P -1
;
_chemical_formula_sum "Si O2"
_cell_formula_units_Z 16
_cell_length_a 25.968857
_cell_length_b 16.143179
_cell_length_c 8.992849
_cell_angle_alpha 30.912511
_cell_angle_beta 137.142803
_cell_angle_gamma 157.660928
_cell_volume 699.890512
_symmetry_space_group_name_H-M "P -1"
_symmetry_group_IT_number 2
_symmetry_cell_setting 'triclinic'
loop_
_space_group_symop_operation_xyz
x,y,z
-x,-y,-z
loop_
_atom_site_type_symbol
_atom_site_label
_atom_site_fract_x
_atom_site_fract_y
_atom_site_fract_z
Si Si1 0.736786 0.234560 0.863675
Si Si2 0.446343 0.734368 0.856335
Si Si3 0.446586 0.240823 0.216700
Si Si4 0.941526 0.892279 0.211656
Si Si5 0.792303 0.060309 0.046526
Si Si6 0.762580 0.674570 0.701020
Si Si7 0.010377 0.699833 0.155440
Si Si8 0.700504 0.240486 0.118938
O O1 0.807574 0.530856 0.504815
O O2 0.578073 0.917085 0.955633
O O3 0.828824 0.259278 0.941769
O O4 0.717037 0.202449 0.047710
O O5 0.437064 0.606342 0.890845
O O6 0.500000 0.000000 0.500000
O O7 0.307321 0.495029 0.028083
O O8 0.414113 0.050998 0.567748
O O9 0.500000 0.500000 0.000000
O O10 0.305350 0.027158 0.149258
O O11 0.068453 0.046159 0.346908
O O12 0.914208 0.025049 0.010017
O O13 0.000000 0.000000 0.000000
O O14 0.719661 0.777898 0.408919
O O15 0.916662 0.194931 0.011623
O O16 0.694858 0.424301 0.827896
O O17 0.000000 0.500000 0.500000
O O18 0.850540 0.473550 0.154540
#
# Coordination Sequence:
#
# PCOD9057354 Si02
#       8
#     2   2   2   2   2   2   2   2
#     4  11  26  42  68 101 135 169 223 278 327 388
#     4  11  24  46  68  94 135 177 217 272 331 394
#     4  11  26  43  67  95 136 173 223 266 330 395
#     4  11  24  42  69 100 135 173 223 272 331 394
#     4  11  25  44  67  99 135 171 218 276 329 391
#     4  11  25  43  69  96 133 176 221 272 330 390
#     4  11  22  42  68  95 133 175 216 268 328 390
#     4  11  24  45  66  98 134 173 217 278 325 392
#
# _framework density 22.860720000000001
#
# number of rings (size 3 to 8) (size 9 to 14) (size 15 to 20)
#    0.000    1.000    2.500    3.000    7.000    9.500 
#    0.000    0.000    0.000    0.000    0.000    0.000 
#    0.000    0.000    0.000    0.000    0.000    0.000 
#
# Total GULP energy -89432.793756 kJ/mol
# GULP energy per Si atom -5589.549610 kJ/mol
# Density = 2.280869 g / cm^3
# Si number density = 22.860720 Si / 1000 Ang^3
#
#
#
# Elastic Constant Matrix: (Units=GPa)
#
#
# Indices 1 2 3 4 5 6 
#
# 1 148.0748 17.9528 41.3277 -14.7761 21.7249 -34.6509
# 2 17.9528 43.8672 15.3044 -5.5479 -0.4675 -11.8108
# 3 41.3277 15.3044 110.3979 4.7845 15.1994 -25.3044
# 4 -14.7761 -5.5479 4.7845 28.2346 -2.5879 0.7937
# 5 21.7249 -0.4675 15.1994 -2.5879 47.3083 -7.7804
# 6 -34.6509 -11.8108 -25.3044 0.7937 -7.7804 40.5385
#
#
#
# Elastic Compliance Matrix: (Units=1/GPa)
#
#
# Indices 1 2 3 4 5 6 
#
# 1 0.009731 -0.001057 -0.001924 0.004800 -0.002575 0.006221
# 2 -0.001057 0.026313 -0.002577 0.005151 0.002774 0.005586
# 3 -0.001924 -0.002577 0.011659 -0.003831 -0.002356 0.004505
# 4 0.004800 0.005151 -0.003831 0.039669 0.001702 0.002762
# 5 -0.002575 0.002774 -0.002356 0.001702 0.023462 0.001606
# 6 0.006221 0.005586 0.004505 0.002762 0.001606 0.034679
#
#
# Mechanical properties :
#
#
# Convention : Reuss Voigt Hill
#
# Bulk Modulus (GPa) = 27.33212 50.16773 38.74993
# Shear Modulus (GPa) = 29.61683 38.39994 34.00839
#
# Velocity S-wave (km/s) = 3.60326 4.10290 3.86117
# Velocity P-wave (km/s) = 5.41232 6.66616 6.07169
#
# Compressibility (1/GPa) = 0.03658699
#
# Stress axis : x y z
#
# Youngs Moduli (GPa) = 102.76514 38.00474 85.77317
#
# Poissons Ratio (x) = 0.04016 0.16502
# Poissons Ratio (y) = 0.10860 0.22103
# Poissons Ratio (z) = 0.19771 0.09793
#
# Static dielectric constant tensor:
#      x y z
#    x 1.800730 -0.030090 0.010140 
#    y -0.030090 1.881330 0.016750 
#    z 0.010140 0.016750 1.873910 
# 
# From -- ./inp_files/178695.got.cif
#   From: 2010.05.17/outbox.cif.g08.bks.cpg/sg2_90_cif.got.tgz:178695.got - 2010.06.03 11:33:40.
