data_PCOD9057459
_publ_section_title
;
Structure prediction by ZEFSAII (Michael W. Deem and Ramdas Pophale) SiO2 
 PCOD9057459
Probable space group: P -1
;
_chemical_formula_sum "Si O2"
_cell_formula_units_Z 16
_cell_length_a 15.279468
_cell_length_b 19.654222
_cell_length_c 9.537294
_cell_angle_alpha 144.451684
_cell_angle_beta 133.741490
_cell_angle_gamma 22.538503
_cell_volume 614.632518
_symmetry_space_group_name_H-M "P -1"
_symmetry_group_IT_number 2
_symmetry_cell_setting 'triclinic'
loop_
_space_group_symop_operation_xyz
x,y,z
-x,-y,-z
loop_
_atom_site_type_symbol
_atom_site_label
_atom_site_fract_x
_atom_site_fract_y
_atom_site_fract_z
Si Si1 0.578002 0.151150 0.090546
Si Si2 0.736171 0.319218 0.122697
Si Si3 0.435341 0.186516 0.274216
Si Si4 0.748380 0.244944 0.568611
Si Si5 0.166835 0.188829 0.729392
Si Si6 0.986012 0.673189 0.652883
Si Si7 0.258437 0.295884 0.786180
Si Si8 0.934074 0.165040 0.378700
O O1 0.804341 0.878705 0.907111
O O2 0.469181 0.212293 0.919692
O O3 0.402768 0.272743 0.231187
O O4 0.660054 0.213768 0.316187
O O5 0.450554 0.566259 0.217694
O O6 0.874855 0.322901 0.238060
O O7 0.770482 0.266254 0.238385
O O8 0.868050 0.099748 0.831543
O O9 0.207377 0.404765 0.480498
O O10 0.669269 0.025926 0.349404
O O11 0.500000 0.000000 0.000000
O O12 0.805524 0.296612 0.604217
O O13 0.000000 0.000000 0.500000
O O14 0.304300 0.165280 0.744378
O O15 0.042753 0.198161 0.509570
O O16 0.974239 0.430584 0.995562
O O17 0.817261 0.730002 0.464372
#
# Coordination Sequence:
#
# PCOD9057459 Si02
#       8
#     2   2   2   2   2   2   2   2
#     4  12  25  44  70 102 136 180 227 277 341 406
#     4  11  24  45  71  98 137 179 226 286 336 392
#     4  12  23  43  68  96 139 176 222 273 334 405
#     4  12  26  45  70 100 138 182 225 277 345 403
#     4  11  22  42  71 101 132 183 222 279 341 401
#     4  12  24  45  70 101 140 178 224 280 342 401
#     4  11  22  43  72  99 139 177 222 282 343 392
#     4  11  24  44  71 101 133 176 238 277 332 404
#
# _framework density 26.031814000000001
#
# number of rings (size 3 to 8) (size 9 to 14) (size 15 to 20)
#    0.000    0.500    6.250    3.000    0.000    2.000 
#    0.000    0.000    0.000    0.000    0.000    0.000 
#    0.000    0.000    0.000    0.000    0.000    0.000 
#
# Total GULP energy -89324.610567 kJ/mol
# GULP energy per Si atom -5582.788160 kJ/mol
# Density = 2.597256 g / cm^3
# Si number density = 26.031814 Si / 1000 Ang^3
#
#
#
# Elastic Constant Matrix: (Units=GPa)
#
#
# Indices 1 2 3 4 5 6 
#
# 1 57.5289 21.1826 15.9655 1.4550 0.6065 -10.9425
# 2 21.1826 100.8321 28.2178 22.5705 -2.0635 -9.5016
# 3 15.9655 28.2178 135.0776 32.7507 13.7926 -19.2718
# 4 1.4550 22.5705 32.7507 44.0907 -11.2093 -1.5070
# 5 0.6065 -2.0635 13.7926 -11.2093 33.5193 2.9985
# 6 -10.9425 -9.5016 -19.2718 -1.5070 2.9985 33.0420
#
#
#
# Elastic Compliance Matrix: (Units=1/GPa)
#
#
# Indices 1 2 3 4 5 6 
#
# 1 0.020102 -0.003963 -0.001662 0.002920 0.000639 0.004624
# 2 -0.003963 0.012380 -0.000132 -0.006404 -0.001433 0.002009
# 3 -0.001662 -0.000132 0.012270 -0.011138 -0.009370 0.006911
# 4 0.002920 -0.006404 -0.011138 0.038367 0.017612 -0.007219
# 5 0.000639 -0.001433 -0.009370 0.017612 0.040241 -0.008514
# 6 0.004624 0.002009 0.006911 -0.007219 -0.008514 0.036847
#
#
# Mechanical properties :
#
#
# Convention : Reuss Voigt Hill
#
# Bulk Modulus (GPa) = 30.08483 47.13004 38.60744
# Shear Modulus (GPa) = 27.35224 37.33525 32.34374
#
# Velocity S-wave (km/s) = 3.24500 3.79121 3.52869
# Velocity P-wave (km/s) = 5.06183 6.10807 5.60939
#
# Compressibility (1/GPa) = 0.03323934
#
# Stress axis : x y z
#
# Youngs Moduli (GPa) = 49.74706 80.77224 81.49714
#
# Poissons Ratio (x) = 0.32008 0.13542
# Poissons Ratio (y) = 0.19714 0.01077
# Poissons Ratio (z) = 0.08266 0.01068
#
# Static dielectric constant tensor:
#      x y z
#    x 2.073270 -0.018370 -0.009140 
#    y -0.018370 2.234600 -0.060290 
#    z -0.009140 -0.060290 2.021370 
# 
# From -- ./inp_files/467399.got.cif
#   From: 2010.05.17/outbox.cif.g08.bks.cpg/sg2_234_cif.got.tgz:467399.got - 2010.06.03 11:33:40.
