data_PCOD9057548
_publ_section_title
;
Structure prediction by ZEFSAII (Michael W. Deem and Ramdas Pophale) SiO2 
 PCOD9057548
Probable space group: P -1
;
_chemical_formula_sum "Si O2"
_cell_formula_units_Z 16
_cell_length_a 13.442095
_cell_length_b 10.618397
_cell_length_c 7.454895
_cell_angle_alpha 47.576431
_cell_angle_beta 77.346712
_cell_angle_gamma 55.950513
_cell_volume 628.522231
_symmetry_space_group_name_H-M "P -1"
_symmetry_group_IT_number 2
_symmetry_cell_setting 'triclinic'
loop_
_space_group_symop_operation_xyz
x,y,z
-x,-y,-z
loop_
_atom_site_type_symbol
_atom_site_label
_atom_site_fract_x
_atom_site_fract_y
_atom_site_fract_z
Si Si1 0.724169 0.115593 0.552893
Si Si2 0.533717 0.158133 0.111157
Si Si3 0.075341 0.675381 0.686260
Si Si4 0.136294 0.273501 0.922282
Si Si5 0.451102 0.257840 0.417945
Si Si6 0.779556 0.103147 0.945369
Si Si7 0.326472 0.368522 0.701544
Si Si8 0.894649 0.143347 0.183521
O O1 0.587620 0.187419 0.488884
O O2 0.784605 0.172756 0.322679
O O3 0.815071 0.863905 0.782916
O O4 0.726737 0.185205 0.687809
O O5 0.444819 0.310090 0.161737
O O6 0.557628 0.938198 0.364530
O O7 0.661426 0.139711 0.063700
O O8 0.454857 0.240555 0.881353
O O9 0.045325 0.516932 0.770202
O O10 0.219201 0.547432 0.695408
O O11 0.068395 0.717497 0.862906
O O12 0.003765 0.900815 0.407234
O O13 0.117764 0.143844 0.906792
O O14 0.264052 0.241184 0.828808
O O15 0.354791 0.419461 0.447018
O O16 0.850222 0.173533 0.969420
#
# Coordination Sequence:
#
# PCOD9057548 Si02
#       8
#     2   2   2   2   2   2   2   2
#     4  10  19  34  59  89 112 145 187 239 275 327
#     4  11  17  27  56  88 113 145 181 223 283 341
#     4   9  22  42  59  74 117 163 175 238 283 336
#     4   8  18  36  58  83 112 149 181 233 287 309
#     4  11  17  27  56  88 113 145 181 223 283 341
#     4  10  19  34  59  89 112 145 187 239 275 327
#     4  10  17  37  52  77 119 147 177 225 281 330
#     4  11  22  40  61  79 112 153 199 219 288 338
#
# _framework density 25.456538999999999
#
# number of rings (size 3 to 8) (size 9 to 14) (size 15 to 20)
#    1.500    0.500    5.000    0.375    0.000    1.000 
#    0.000    6.250    2.750    0.000    0.000    0.000 
#    0.000    0.000    0.000    0.000    0.000    0.000 
#
# Total GULP energy -89315.278704 kJ/mol
# GULP energy per Si atom -5582.204919 kJ/mol
# Density = 2.539860 g / cm^3
# Si number density = 25.456539 Si / 1000 Ang^3
#
#
#
# Elastic Constant Matrix: (Units=GPa)
#
#
# Indices 1 2 3 4 5 6 
#
# 1 77.7827 9.9605 11.6120 2.4195 6.5982 -0.1137
# 2 9.9605 126.1747 32.7847 16.9813 6.4837 0.9899
# 3 11.6120 32.7847 48.9833 3.3927 7.4748 13.7493
# 4 2.4195 16.9813 3.3927 41.2783 3.1862 -1.7004
# 5 6.5982 6.4837 7.4748 3.1862 30.2692 7.3151
# 6 -0.1137 0.9899 13.7493 -1.7004 7.3151 40.9729
#
#
#
# Elastic Compliance Matrix: (Units=1/GPa)
#
#
# Indices 1 2 3 4 5 6 
#
# 1 0.013566 -0.000094 -0.003189 -0.000238 -0.002498 0.001546
# 2 -0.000094 0.010263 -0.007106 -0.003503 -0.000560 0.002091
# 3 -0.003189 -0.007106 0.028836 0.000585 -0.002792 -0.008991
# 4 -0.000238 -0.003503 0.000585 0.025876 -0.002402 0.001390
# 5 -0.002498 -0.000560 -0.002792 -0.002402 0.035993 -0.005582
# 6 0.001546 0.002091 -0.008991 0.001390 -0.005582 0.028431
#
#
# Mechanical properties :
#
#
# Convention : Reuss Voigt Hill
#
# Bulk Modulus (GPa) = 31.36038 40.18390 35.77214
# Shear Modulus (GPa) = 28.67425 35.74298 32.20862
#
# Velocity S-wave (km/s) = 3.35983 3.75117 3.56088
# Velocity P-wave (km/s) = 5.23423 5.88058 5.56680
#
# Compressibility (1/GPa) = 0.03188736
#
# Stress axis : x y z
#
# Youngs Moduli (GPa) = 73.71331 97.43653 34.67846
#
# Poissons Ratio (x) = 0.00916 0.11060
# Poissons Ratio (y) = 0.00693 0.24641
# Poissons Ratio (z) = 0.23510 0.69235
#
# Static dielectric constant tensor:
#      x y z
#    x 2.038680 0.056220 -0.088660 
#    y 0.056220 2.121820 -0.053960 
#    z -0.088660 -0.053960 1.977180 
# 
# From -- ./inp_files/304799.got.cif
#   From: 2010.05.17/outbox.cif.g08.bks.cpg/sg2_153_cif.got.tgz:304799.got - 2010.06.03 11:33:40.
