data_PCOD9057630
_publ_section_title
;
Structure prediction by ZEFSAII (Michael W. Deem and Ramdas Pophale) SiO2 
 PCOD9057630
Probable space group: P -1
;
_chemical_formula_sum "Si O2"
_cell_formula_units_Z 16
_cell_length_a 14.594404
_cell_length_b 8.691039
_cell_length_c 8.450290
_cell_angle_alpha 65.182323
_cell_angle_beta 116.880082
_cell_angle_gamma 74.887433
_cell_volume 720.992090
_symmetry_space_group_name_H-M "P -1"
_symmetry_group_IT_number 2
_symmetry_cell_setting 'triclinic'
loop_
_space_group_symop_operation_xyz
x,y,z
-x,-y,-z
loop_
_atom_site_type_symbol
_atom_site_label
_atom_site_fract_x
_atom_site_fract_y
_atom_site_fract_z
Si Si1 0.921434 0.326301 0.882138
Si Si2 0.775316 0.541926 0.965280
Si Si3 0.616899 0.858796 0.262092
Si Si4 0.152458 0.889881 0.274917
Si Si5 0.043256 0.799405 0.524324
Si Si6 0.115948 0.354057 0.538246
Si Si7 0.655678 0.005242 0.566482
Si Si8 0.442954 0.374905 0.446277
O O1 0.892297 0.409857 0.998592
O O2 0.829754 0.255875 0.792425
O O3 0.906615 0.504646 0.688871
O O4 0.054894 0.123763 0.052397
O O5 0.666851 0.523600 0.814944
O O6 0.726094 0.779944 0.802291
O O7 0.837046 0.417579 0.227489
O O8 0.736819 0.762697 0.283136
O O9 0.604348 0.687940 0.411425
O O10 0.627458 0.970890 0.378586
O O11 0.500000 0.000000 0.000000
O O12 0.086197 0.829754 0.376079
O O13 0.266061 0.892901 0.424850
O O14 0.917325 0.809307 0.435989
O O15 0.000000 0.000000 0.500000
O O16 0.000000 0.500000 0.500000
O O17 0.543523 0.163192 0.525309
O O18 0.500000 0.500000 0.500000
#
# Coordination Sequence:
#
# PCOD9057630 Si02
#       8
#     2   2   2   2   2   2   2   2
#     4  11  22  43  66  95 140 184 227 284 360 411
#     4  11  23  43  69  97 140 181 235 288 353 419
#     4  11  26  47  70 101 144 187 238 296 360 430
#     4  11  24  41  66 103 139 178 233 293 347 425
#     4  12  25  40  65 104 138 175 232 294 352 414
#     4  12  25  43  69 101 141 186 234 291 362 427
#     4  11  24  46  73 100 140 193 240 285 365 431
#     4  11  25  47  73 102 136 191 244 292 354 434
#
# _framework density 22.191642999999999
#
# number of rings (size 3 to 8) (size 9 to 14) (size 15 to 20)
#    0.000    0.750    5.000    3.750    0.000    6.000 
#    0.000    1.250    0.000    0.000    0.000    0.000 
#    0.000    0.000    0.000    0.000    0.000    0.000 
#
# Total GULP energy -89231.229453 kJ/mol
# GULP energy per Si atom -5576.951841 kJ/mol
# Density = 2.214113 g / cm^3
# Si number density = 22.191643 Si / 1000 Ang^3
#
#
#
# Elastic Constant Matrix: (Units=GPa)
#
#
# Indices 1 2 3 4 5 6 
#
# 1 117.7263 39.3256 35.3862 -0.2287 28.4987 19.2085
# 2 39.3256 94.5102 -10.5779 -7.0454 17.0045 -9.4696
# 3 35.3862 -10.5779 96.1061 -2.5722 20.1481 -8.5184
# 4 -0.2287 -7.0454 -2.5722 22.3673 3.2718 9.5318
# 5 28.4987 17.0045 20.1481 3.2718 20.4026 -1.4846
# 6 19.2085 -9.4696 -8.5184 9.5318 -1.4846 42.0061
#
#
#
# Elastic Compliance Matrix: (Units=1/GPa)
#
#
# Indices 1 2 3 4 5 6 
#
# 1 0.018109 -0.005577 -0.004426 0.005856 -0.018117 -0.012405
# 2 -0.005577 0.017570 0.007869 0.005942 -0.015124 0.006224
# 3 -0.004426 0.007869 0.017240 0.004614 -0.017731 0.005620
# 4 0.005856 0.005942 0.004614 0.057401 -0.027943 -0.014415
# 5 -0.018117 -0.015124 -0.017731 -0.027943 0.109752 0.011499
# 6 -0.012405 0.006224 0.005620 -0.014415 0.011499 0.035699
#
#
# Mechanical properties :
#
#
# Convention : Reuss Voigt Hill
#
# Bulk Modulus (GPa) = 20.55534 48.51230 34.53382
# Shear Modulus (GPa) = 18.09916 33.23577 25.66747
#
# Velocity S-wave (km/s) = 2.85894 3.87417 3.40461
# Velocity P-wave (km/s) = 4.49231 6.47459 5.57231
#
# Compressibility (1/GPa) = 0.04864916
#
# Stress axis : x y z
#
# Youngs Moduli (GPa) = 55.22167 56.91573 58.00531
#
# Poissons Ratio (x) = 0.31743 0.25674
# Poissons Ratio (y) = 0.30798 -0.45642
# Poissons Ratio (z) = 0.24442 -0.44785
#
# Static dielectric constant tensor:
#      x y z
#    x 1.825170 -0.042200 0.051140 
#    y -0.042200 1.995530 0.059760 
#    z 0.051140 0.059760 1.851910 
# 
# From -- ./inp_files/297708.got.cif
#   From: 2010.05.17/outbox.cif.g08.bks.cpg/sg2_149_cif.got.tgz:297708.got - 2010.06.03 11:33:40.
