data_PCOD9057007
_publ_section_title
;
Structure prediction by ZEFSAII (Michael W. Deem and Ramdas Pophale) SiO2 
 PCOD9057007
Probable space group: P -1
;
_chemical_formula_sum "Si O2"
_cell_formula_units_Z 14
_cell_length_a 13.942731
_cell_length_b 11.626779
_cell_length_c 19.040533
_cell_angle_alpha 151.180798
_cell_angle_beta 25.445884
_cell_angle_gamma 146.117988
_cell_volume 627.834997
_symmetry_space_group_name_H-M "P -1"
_symmetry_group_IT_number 2
_symmetry_cell_setting 'triclinic'
loop_
_space_group_symop_operation_xyz
x,y,z
-x,-y,-z
loop_
_atom_site_type_symbol
_atom_site_label
_atom_site_fract_x
_atom_site_fract_y
_atom_site_fract_z
Si Si1 0.518885 0.695657 0.888265
Si Si2 0.573083 0.373029 0.813270
Si Si3 0.805512 0.640216 0.442564
Si Si4 0.027331 0.198708 0.437198
Si Si5 0.989087 0.343742 0.840476
Si Si6 0.663096 0.186237 0.139768
Si Si7 0.223737 0.914103 0.833160
O O1 0.511366 0.514716 0.862041
O O2 0.728130 0.680439 0.690729
O O3 0.277428 0.652713 0.987031
O O4 0.576126 0.967536 0.027506
O O5 0.835986 0.351603 0.626982
O O6 0.434947 0.099560 0.761869
O O7 0.500000 0.500000 0.000000
O O8 0.948279 0.799060 0.493451
O O9 0.559636 0.710243 0.635671
O O10 0.776778 0.360655 0.335507
O O11 0.929295 0.655248 0.294596
O O12 0.971854 0.918252 0.298075
O O13 0.146693 0.592622 0.896420
O O14 0.759507 0.082534 0.091179
O O15 0.000000 0.000000 0.000000
#
# Coordination Sequence:
#
# PCOD9057007 Si02
#       7
#     2   2   2   2   2   2   2
#     4  12  26  44  64  99 139 172 217 269 330 400
#     4  12  23  43  70  91 127 176 222 268 328 382
#     4  11  23  41  69  98 132 167 226 275 318 389
#     4  12  25  43  65  99 136 173 215 271 331 391
#     4  11  23  43  70  97 129 174 223 268 326 385
#     4  11  23  42  69  99 132 170 221 274 325 386
#     4  11  22  41  68 102 123 165 228 278 318 381
#
# _framework density 22.298853999999999
#
# number of rings (size 3 to 8) (size 9 to 14) (size 15 to 20)
#    0.000    0.571    2.857    8.143    0.000    0.571 
#    2.571    0.714    0.000    0.000    0.000    0.000 
#    0.000    0.000    0.000    0.000    0.000    0.000 
#
# Total GULP energy -78437.148594 kJ/mol
# GULP energy per Si atom -5602.653471 kJ/mol
# Density = 2.224810 g / cm^3
# Si number density = 22.298854 Si / 1000 Ang^3
#
#
#
# Elastic Constant Matrix: (Units=GPa)
#
#
# Indices 1 2 3 4 5 6 
#
# 1 106.6947 22.5581 36.8218 3.0212 -22.3511 2.6058
# 2 22.5581 126.9147 28.2143 1.4111 -1.3553 1.9501
# 3 36.8218 28.2143 146.4311 -8.6828 -28.1306 2.2483
# 4 3.0212 1.4111 -8.6828 37.4894 0.8987 -0.7063
# 5 -22.3511 -1.3553 -28.1306 0.8987 34.8056 0.9788
# 6 2.6058 1.9501 2.2483 -0.7063 0.9788 45.9014
#
#
#
# Elastic Compliance Matrix: (Units=1/GPa)
#
#
# Indices 1 2 3 4 5 6 
#
# 1 0.011590 -0.001641 -0.001470 -0.001375 0.006246 -0.000671
# 2 -0.001641 0.008524 -0.001650 -0.000525 -0.002038 -0.000153
# 3 -0.001470 -0.001650 0.008811 0.002069 0.006071 -0.000376
# 4 -0.001375 -0.000525 0.002069 0.027291 0.000052 0.000418
# 5 0.006246 -0.002038 0.006071 0.000052 0.037606 -0.001366
# 6 -0.000671 -0.000153 -0.000376 0.000418 -0.001366 0.021884
#
#
# Mechanical properties :
#
#
# Convention : Reuss Voigt Hill
#
# Bulk Modulus (GPa) = 51.53497 61.69210 56.61354
# Shear Modulus (GPa) = 37.96610 43.13570 40.55090
#
# Velocity S-wave (km/s) = 4.13074 4.40299 4.26904
# Velocity P-wave (km/s) = 6.77583 7.31947 7.05289
#
# Compressibility (1/GPa) = 0.01940430
#
# Stress axis : x y z
#
# Youngs Moduli (GPa) = 86.27812 117.31270 113.49066
#
# Poissons Ratio (x) = 0.19252 0.16680
# Poissons Ratio (y) = 0.14159 0.18726
# Poissons Ratio (z) = 0.12681 0.19357
#
# Static dielectric constant tensor:
#      x y z
#    x 1.857820 0.025570 0.041330 
#    y 0.025570 1.850060 -0.005800 
#    z 0.041330 -0.005800 1.826440 
# 
# From -- ./inp_files/158687.got.cif
#   From: 2010.05.17/outbox.cif.g08.bks.cpg/sg2_80_cif.got.tgz:158687.got - 2010.06.03 11:33:40.
