data_PCOD9057100
_publ_section_title
;
Structure prediction by ZEFSAII (Michael W. Deem and Ramdas Pophale) SiO2 
 PCOD9057100
Probable space group: P -1
;
_chemical_formula_sum "Si O2"
_cell_formula_units_Z 16
_cell_length_a 15.610744
_cell_length_b 11.912236
_cell_length_c 9.067376
_cell_angle_alpha 139.830311
_cell_angle_beta 48.563915
_cell_angle_gamma 132.610196
_cell_volume 762.535637
_symmetry_space_group_name_H-M "P -1"
_symmetry_group_IT_number 2
_symmetry_cell_setting 'triclinic'
loop_
_space_group_symop_operation_xyz
x,y,z
-x,-y,-z
loop_
_atom_site_type_symbol
_atom_site_label
_atom_site_fract_x
_atom_site_fract_y
_atom_site_fract_z
Si Si1 0.863024 0.949019 0.541324
Si Si2 0.567092 0.973791 0.691125
Si Si3 0.879190 0.494852 0.718246
Si Si4 0.294233 0.888663 0.598362
Si Si5 0.874971 0.905093 0.132570
Si Si6 0.746836 0.359113 0.990543
Si Si7 0.290587 0.847199 0.910664
Si Si8 0.375347 0.369003 0.585387
O O1 0.878489 0.964087 0.360192
O O2 0.747675 0.751043 0.486504
O O3 0.000000 0.000000 0.500000
O O4 0.806396 0.077636 0.827312
O O5 0.434934 0.961272 0.886364
O O6 0.590815 0.784705 0.514319
O O7 0.583082 0.018396 0.544057
O O8 0.673894 0.146450 0.814633
O O9 0.772630 0.318306 0.596346
O O10 0.875933 0.443122 0.844938
O O11 0.000000 0.500000 0.500000
O O12 0.856156 0.687628 0.925583
O O13 0.286064 0.858479 0.751722
O O14 0.220164 0.021776 0.768286
O O15 0.000000 0.000000 0.000000
O O16 0.740184 0.349189 0.165481
O O17 0.670617 0.479637 0.134213
O O18 0.500000 0.500000 0.500000
#
# Coordination Sequence:
#
# PCOD9057100 Si02
#       8
#     2   2   2   2   2   2   2   2
#     4  12  26  46  71 110 145 183 235 301 366 417
#     4  11  22  45  73 100 141 191 241 289 364 425
#     4  11  23  42  70  94 128 187 241 284 351 434
#     4  11  24  44  67 101 140 186 240 287 359 427
#     4  12  23  46  71  94 139 195 233 288 362 438
#     4  11  22  41  70 102 135 180 244 292 356 426
#     4  12  24  43  68 107 144 184 232 303 353 423
#     4  12  22  43  77 104 137 187 237 292 358 427
#
# _framework density 20.982627999999998
#
# number of rings (size 3 to 8) (size 9 to 14) (size 15 to 20)
#    0.000    0.500    6.250    3.000    0.000    0.000 
#    4.500    1.250    0.000    5.250    0.000    0.000 
#    0.000    0.000    0.000    0.000    0.000    0.000 
#
# Total GULP energy -89105.346985 kJ/mol
# GULP energy per Si atom -5569.084187 kJ/mol
# Density = 2.093487 g / cm^3
# Si number density = 20.982628 Si / 1000 Ang^3
#
#
#
# Elastic Constant Matrix: (Units=GPa)
#
#
# Indices 1 2 3 4 5 6 
#
# 1 98.6078 53.4573 36.7238 -10.4401 3.3347 -6.4719
# 2 53.4573 183.6699 65.2383 -19.8218 -6.4942 -13.2189
# 3 36.7238 65.2383 112.8598 -16.2277 -14.7226 -11.9452
# 4 -10.4401 -19.8218 -16.2277 55.0449 0.5931 -8.8517
# 5 3.3347 -6.4942 -14.7226 0.5931 28.3199 -12.0835
# 6 -6.4719 -13.2189 -11.9452 -8.8517 -12.0835 33.2964
#
#
#
# Elastic Compliance Matrix: (Units=1/GPa)
#
#
# Indices 1 2 3 4 5 6 
#
# 1 0.012992 -0.002840 -0.003254 0.000322 -0.004431 -0.001292
# 2 -0.002840 0.007699 -0.002755 0.001827 0.001755 0.002639
# 3 -0.003254 -0.002755 0.014335 0.003838 0.010668 0.008308
# 4 0.000322 0.001827 0.003838 0.021586 0.006267 0.010177
# 5 -0.004431 0.001755 0.010668 0.006267 0.051971 0.024189
# 6 -0.001292 0.002639 0.008308 0.010177 0.024189 0.045294
#
#
# Mechanical properties :
#
#
# Convention : Reuss Voigt Hill
#
# Bulk Modulus (GPa) = 57.71551 78.44182 68.07866
# Shear Modulus (GPa) = 28.19242 39.31346 33.75294
#
# Velocity S-wave (km/s) = 3.66950 4.33323 4.01510
# Velocity P-wave (km/s) = 6.74683 7.90577 7.34918
#
# Compressibility (1/GPa) = 0.01732637
#
# Stress axis : x y z
#
# Youngs Moduli (GPa) = 76.96998 129.88664 69.75984
#
# Poissons Ratio (x) = 0.36894 0.22701
# Poissons Ratio (y) = 0.21863 0.19220
# Poissons Ratio (z) = 0.25047 0.35786
#
# Static dielectric constant tensor:
#      x y z
#    x 1.795580 -0.119530 -0.012630 
#    y -0.119530 1.673480 -0.107730 
#    z -0.012630 -0.107730 1.790180 
# 
# From -- ./inp_files/308691.got.cif
#   From: 2010.05.17/outbox.cif.g08.bks.cpg/sg2_155_cif.got.tgz:308691.got - 2010.06.03 11:33:40.
