data_PCOD9057134
_publ_section_title
;
Structure prediction by ZEFSAII (Michael W. Deem and Ramdas Pophale) SiO2 
 PCOD9057134
Probable space group: P -1
;
_chemical_formula_sum "Si O2"
_cell_formula_units_Z 16
_cell_length_a 7.963511
_cell_length_b 10.135415
_cell_length_c 12.702411
_cell_angle_alpha 39.415820
_cell_angle_beta 98.344133
_cell_angle_gamma 85.524025
_cell_volume 613.875094
_symmetry_space_group_name_H-M "P -1"
_symmetry_group_IT_number 2
_symmetry_cell_setting 'triclinic'
loop_
_space_group_symop_operation_xyz
x,y,z
-x,-y,-z
loop_
_atom_site_type_symbol
_atom_site_label
_atom_site_fract_x
_atom_site_fract_y
_atom_site_fract_z
Si Si1 0.815605 0.953279 0.773571
Si Si2 0.077414 0.675546 0.508120
Si Si3 0.741521 0.766543 0.265042
Si Si4 0.998372 0.487093 0.171678
Si Si5 0.564860 0.962378 0.328049
Si Si6 0.625967 0.549894 0.727801
Si Si7 0.655021 0.349991 0.181374
Si Si8 0.212602 0.910272 0.088407
O O1 0.886204 0.095331 0.609876
O O2 0.638224 0.908692 0.747266
O O3 0.757500 0.114064 0.770064
O O4 0.941967 0.734374 0.970612
O O5 0.248370 0.481438 0.603100
O O6 0.013421 0.567670 0.670710
O O7 0.926027 0.734017 0.367316
O O8 0.601322 0.923110 0.232843
O O9 0.727539 0.894319 0.076547
O O10 0.845174 0.393938 0.168562
O O11 0.208876 0.411326 0.214893
O O12 0.597508 0.727083 0.525119
O O13 0.680703 0.101462 0.303324
O O14 0.444932 0.595323 0.749234
O O15 0.698628 0.308556 0.833915
O O16 0.500000 0.500000 0.000000
O O17 0.000000 0.000000 0.000000
#
# Coordination Sequence:
#
# PCOD9057134 Si02
#       8
#     2   2   2   2   2   2   2   2
#     4  12  25  43  74 108 151 189 240 305 372 443
#     4  11  22  42  73 110 141 186 245 292 363 455
#     4  11  22  41  71 102 148 188 227 302 370 428
#     4  12  25  50  78 107 148 199 246 301 374 441
#     4  12  27  48  68 106 148 189 249 311 360 428
#     4  12  26  48  79 107 145 199 245 305 374 440
#     4  12  28  51  73 106 148 191 257 313 357 434
#     4  12  22  42  73 111 149 189 241 300 371 453
#
# _framework density 26.063935000000001
#
# number of rings (size 3 to 8) (size 9 to 14) (size 15 to 20)
#    0.000    0.250    6.250    2.625    0.000    4.500 
#    2.250    0.000    0.000    0.000    0.000    0.000 
#    0.000    0.000    0.000    0.000    0.000    0.000 
#
# Total GULP energy -89571.427488 kJ/mol
# GULP energy per Si atom -5598.214218 kJ/mol
# Density = 2.600461 g / cm^3
# Si number density = 26.063935 Si / 1000 Ang^3
#
#
#
# Elastic Constant Matrix: (Units=GPa)
#
#
# Indices 1 2 3 4 5 6 
#
# 1 77.8674 30.7569 9.4173 -7.0772 5.5104 9.5326
# 2 30.7569 72.3660 30.7071 -9.1541 -7.2922 -16.8032
# 3 9.4173 30.7071 153.9176 -3.6319 -16.8069 -6.0792
# 4 -7.0772 -9.1541 -3.6319 22.1561 8.0577 7.2449
# 5 5.5104 -7.2922 -16.8069 8.0577 36.4402 2.0335
# 6 9.5326 -16.8032 -6.0792 7.2449 2.0335 37.5939
#
#
#
# Elastic Compliance Matrix: (Units=1/GPa)
#
#
# Indices 1 2 3 4 5 6 
#
# 1 0.019365 -0.010349 -0.000028 0.007615 -0.006100 -0.010678
# 2 -0.010349 0.022705 -0.002977 0.000188 0.004022 0.012037
# 3 -0.000028 -0.002977 0.007399 -0.001118 0.003073 -0.000078
# 4 0.007615 0.000188 -0.001118 0.056310 -0.013403 -0.012155
# 5 -0.006100 0.004022 0.003073 -0.013403 0.033292 0.004623
# 6 -0.010678 0.012037 -0.000078 -0.012155 0.004623 0.036768
#
#
# Mechanical properties :
#
#
# Convention : Reuss Voigt Hill
#
# Bulk Modulus (GPa) = 43.93992 49.54594 46.74293
# Shear Modulus (GPa) = 23.79436 34.78937 29.29186
#
# Velocity S-wave (km/s) = 3.02474 3.65741 3.35602
# Velocity P-wave (km/s) = 5.39387 6.07340 5.74370
#
# Compressibility (1/GPa) = 0.02275835
#
# Stress axis : x y z
#
# Youngs Moduli (GPa) = 51.64042 44.04363 135.15784
#
# Poissons Ratio (x) = 0.45582 0.00382
# Poissons Ratio (y) = 0.53444 0.40242
# Poissons Ratio (z) = 0.00146 0.13114
#
# Static dielectric constant tensor:
#      x y z
#    x 2.137510 -0.004950 0.010030 
#    y -0.004950 2.132900 -0.017630 
#    z 0.010030 -0.017630 1.957570 
# 
# From -- ./inp_files/499707.got.cif
#   From: 2010.05.17/outbox.cif.g08.bks.cpg/sg2_250_cif.got.tgz:499707.got - 2010.06.03 11:33:40.
