data_PCOD9057346
_publ_section_title
;
Structure prediction by ZEFSAII (Michael W. Deem and Ramdas Pophale) SiO2 
 PCOD9057346
Probable space group: P -1
;
_chemical_formula_sum "Si O2"
_cell_formula_units_Z 16
_cell_length_a 9.489143
_cell_length_b 16.142110
_cell_length_c 9.345051
_cell_angle_alpha 147.934794
_cell_angle_beta 83.815300
_cell_angle_gamma 105.953016
_cell_volume 708.340372
_symmetry_space_group_name_H-M "P -1"
_symmetry_group_IT_number 2
_symmetry_cell_setting 'triclinic'
loop_
_space_group_symop_operation_xyz
x,y,z
-x,-y,-z
loop_
_atom_site_type_symbol
_atom_site_label
_atom_site_fract_x
_atom_site_fract_y
_atom_site_fract_z
Si Si1 0.821680 0.745037 0.651428
Si Si2 0.996782 0.497153 0.667754
Si Si3 0.375981 0.351501 0.710316
Si Si4 0.165361 0.524926 0.081117
Si Si5 0.185337 0.870854 0.184869
Si Si6 0.287184 0.879858 0.481502
Si Si7 0.023598 0.993390 0.764018
Si Si8 0.446545 0.012269 0.184420
O O1 0.913598 0.620545 0.464661
O O2 0.658586 0.647702 0.456367
O O3 0.855565 0.836947 0.934715
O O4 0.901574 0.897019 0.755745
O O5 0.000000 0.500000 0.500000
O O6 0.844949 0.445011 0.703428
O O7 0.086490 0.687512 0.976067
O O8 0.411814 0.181861 0.470873
O O9 0.500000 0.500000 0.000000
O O10 0.223347 0.372328 0.822558
O O11 0.275462 0.689775 0.231530
O O12 0.000000 0.500000 0.000000
O O13 0.298771 0.941476 0.407467
O O14 0.071092 0.963088 0.287952
O O15 0.288182 0.870824 0.035983
O O16 0.419484 0.990456 0.730385
O O17 0.125931 0.886849 0.557578
O O18 0.500000 0.000000 0.000000
#
# Coordination Sequence:
#
# PCOD9057346 Si02
#       8
#     2   2   2   2   2   2   2   2
#     4  11  22  42  68 105 147 187 240 294 366 429
#     4  12  25  42  71 109 150 178 237 307 368 430
#     4  12  24  44  74 106 142 194 252 291 356 449
#     4  12  23  43  75 107 139 190 234 302 368 421
#     4  12  26  44  72 108 141 188 244 308 363 432
#     4  12  24  45  72 102 148 186 242 299 366 430
#     4  11  23  41  76 106 143 186 246 305 368 432
#     4  12  29  49  72 102 149 203 248 291 372 447
#
# _framework density 22.588010000000001
#
# number of rings (size 3 to 8) (size 9 to 14) (size 15 to 20)
#    0.000    0.250    7.500    1.500    3.500    1.000 
#    0.000    0.000    0.000    3.000    0.000    0.000 
#    0.000    0.000    0.000    0.000    0.000    0.000 
#
# Total GULP energy -89304.038887 kJ/mol
# GULP energy per Si atom -5581.502430 kJ/mol
# Density = 2.253660 g / cm^3
# Si number density = 22.588010 Si / 1000 Ang^3
#
#
#
# Elastic Constant Matrix: (Units=GPa)
#
#
# Indices 1 2 3 4 5 6 
#
# 1 108.5167 32.5197 32.5151 -12.3091 -0.3819 -21.9598
# 2 32.5197 97.3906 23.8516 -16.0426 -2.4160 -25.9224
# 3 32.5151 23.8516 92.0587 -7.0239 -0.2079 -23.1788
# 4 -12.3091 -16.0426 -7.0239 43.5917 -8.7087 2.4154
# 5 -0.3819 -2.4160 -0.2079 -8.7087 37.8106 -3.2024
# 6 -21.9598 -25.9224 -23.1788 2.4154 -3.2024 33.5066
#
#
#
# Elastic Compliance Matrix: (Units=1/GPa)
#
#
# Indices 1 2 3 4 5 6 
#
# 1 0.011607 -0.001692 -0.002330 0.002202 0.000894 0.004613
# 2 -0.001692 0.014348 -0.000305 0.004779 0.002821 0.009705
# 3 -0.002330 -0.000305 0.013825 0.001220 0.000975 0.007806
# 4 0.002202 0.004779 0.001220 0.026628 0.006867 0.004721
# 5 0.000894 0.002821 0.000975 0.006867 0.028706 0.005691
# 6 0.004613 0.009705 0.007806 0.004721 0.005691 0.045981
#
#
# Mechanical properties :
#
#
# Convention : Reuss Voigt Hill
#
# Bulk Modulus (GPa) = 32.12713 52.85986 42.49349
# Shear Modulus (GPa) = 31.22583 36.92043 34.07313
#
# Velocity S-wave (km/s) = 3.72211 4.04730 3.88810
# Velocity P-wave (km/s) = 5.72067 6.73004 6.24578
#
# Compressibility (1/GPa) = 0.03112634
#
# Stress axis : x y z
#
# Youngs Moduli (GPa) = 86.15673 69.69490 72.33134
#
# Poissons Ratio (x) = 0.11795 0.16850
# Poissons Ratio (y) = 0.14581 0.02207
# Poissons Ratio (z) = 0.20071 0.02126
#
# Static dielectric constant tensor:
#      x y z
#    x 1.861000 0.025320 0.055700 
#    y 0.025320 1.869140 -0.061210 
#    z 0.055700 -0.061210 1.950310 
# 
# From -- ./inp_files/209398.got.cif
#   From: 2010.05.17/outbox.cif.g08.bks.cpg/sg2_105_cif.got.tgz:209398.got - 2010.06.03 11:33:40.
