data_PCOD9057845
_publ_section_title
;
Structure prediction by ZEFSAII (Michael W. Deem and Ramdas Pophale) SiO2 
 PCOD9057845
Probable space group: P -1
;
_chemical_formula_sum "Si O2"
_cell_formula_units_Z 16
_cell_length_a 9.273092
_cell_length_b 11.881590
_cell_length_c 17.251005
_cell_angle_alpha 29.395460
_cell_angle_beta 130.599042
_cell_angle_gamma 115.652112
_cell_volume 660.931665
_symmetry_space_group_name_H-M "P -1"
_symmetry_group_IT_number 2
_symmetry_cell_setting 'triclinic'
loop_
_space_group_symop_operation_xyz
x,y,z
-x,-y,-z
loop_
_atom_site_type_symbol
_atom_site_label
_atom_site_fract_x
_atom_site_fract_y
_atom_site_fract_z
Si Si1 0.361309 0.050061 0.692946
Si Si2 0.015582 0.870554 0.744941
Si Si3 0.392751 0.977419 0.055456
Si Si4 0.035055 0.968518 0.121868
Si Si5 0.411143 0.789398 0.572636
Si Si6 0.493415 0.602333 0.544162
Si Si7 0.995777 0.419809 0.941647
Si Si8 0.529897 0.685126 0.838072
O O1 0.524842 0.942026 0.884655
O O2 0.357208 0.321435 0.507033
O O3 0.166493 0.988085 0.689399
O O4 0.428474 0.932052 0.702648
O O5 0.099088 0.672087 0.962529
O O6 0.934444 0.715662 0.747156
O O7 0.830727 0.078195 0.597989
O O8 0.453250 0.686865 0.267088
O O9 0.500000 0.000000 0.000000
O O10 0.153902 0.110244 0.873567
O O11 0.260803 0.780051 0.334348
O O12 0.985911 0.241703 0.976167
O O13 0.000000 0.000000 0.000000
O O14 0.509407 0.654740 0.609968
O O15 0.441091 0.642844 0.751045
O O16 0.500000 0.000000 0.500000
O O17 0.239575 0.345188 0.078555
O O18 0.500000 0.500000 0.000000
#
# Coordination Sequence:
#
# PCOD9057845 Si02
#       8
#     2   2   2   2   2   2   2   2
#     4  12  24  48  72 108 150 186 254 308 364 450
#     4  11  24  41  74 106 148 188 240 305 367 435
#     4  12  30  49  79 108 146 201 253 311 380 440
#     4  12  24  48  78 108 147 205 249 297 376 439
#     4  12  24  47  72 104 146 196 239 302 381 432
#     4  12  27  52  76 106 153 196 255 314 366 454
#     4  11  22  43  72 108 150 186 240 303 363 440
#     4  12  24  44  71 105 151 189 235 302 373 442
#
# _framework density 24.208252000000002
#
# number of rings (size 3 to 8) (size 9 to 14) (size 15 to 20)
#    0.000    0.250    7.500    1.125    3.500    1.000 
#    2.250    0.000    0.000    0.000    0.000    0.000 
#    0.000    0.000    0.000    0.000    0.000    0.000 
#
# Total GULP energy -89384.543177 kJ/mol
# GULP energy per Si atom -5586.533949 kJ/mol
# Density = 2.415315 g / cm^3
# Si number density = 24.208252 Si / 1000 Ang^3
#
#
#
# Elastic Constant Matrix: (Units=GPa)
#
#
# Indices 1 2 3 4 5 6 
#
# 1 158.9963 36.1141 31.4923 -0.1328 -20.1308 11.2096
# 2 36.1141 113.4071 32.8681 9.3984 -6.3985 -24.1078
# 3 31.4923 32.8681 80.8390 6.1769 -25.4047 8.5083
# 4 -0.1328 9.3984 6.1769 37.8909 -0.3776 -1.7963
# 5 -20.1308 -6.3985 -25.4047 -0.3776 43.6996 3.5020
# 6 11.2096 -24.1078 8.5083 -1.7963 3.5020 48.8470
#
#
#
# Elastic Compliance Matrix: (Units=1/GPa)
#
#
# Indices 1 2 3 4 5 6 
#
# 1 0.007668 -0.002853 -0.000582 0.000705 0.003044 -0.003259
# 2 -0.002853 0.013271 -0.006179 -0.001929 -0.003659 0.008472
# 3 -0.000582 -0.006179 0.019338 -0.001853 0.010624 -0.007114
# 4 0.000705 -0.001929 -0.001853 0.027179 -0.000822 0.000267
# 5 0.003044 -0.003659 0.010624 -0.000822 0.030445 -0.006567
# 6 -0.003259 0.008472 -0.007114 0.000267 -0.006567 0.027121
#
#
# Mechanical properties :
#
#
# Convention : Reuss Voigt Hill
#
# Bulk Modulus (GPa) = 47.50278 61.57681 54.53980
# Shear Modulus (GPa) = 33.05418 42.93870 37.99644
#
# Velocity S-wave (km/s) = 3.69915 4.21613 3.96607
# Velocity P-wave (km/s) = 6.15712 7.01373 6.59934
#
# Compressibility (1/GPa) = 0.02105140
#
# Stress axis : x y z
#
# Youngs Moduli (GPa) = 130.40561 75.34976 51.71163
#
# Poissons Ratio (x) = 0.21496 0.03009
# Poissons Ratio (y) = 0.37202 0.31951
# Poissons Ratio (z) = 0.07587 0.46556
#
# Static dielectric constant tensor:
#      x y z
#    x 1.972770 0.007630 0.023560 
#    y 0.007630 2.102610 -0.008730 
#    z 0.023560 -0.008730 2.055140 
# 
# From -- ./inp_files/559583.got.cif
#   From: 2010.05.17/outbox.cif.g08.bks.cpg/sg2_280_cif.got.tgz:559583.got - 2010.06.03 11:33:40.
