data_PCOD9057740
_publ_section_title
;
Structure prediction by ZEFSAII (Michael W. Deem and Ramdas Pophale) SiO2 
 PCOD9057740
Probable space group: P -1
;
_chemical_formula_sum "Si O2"
_cell_formula_units_Z 16
_cell_length_a 10.756012
_cell_length_b 9.851184
_cell_length_c 12.490011
_cell_angle_alpha 45.041119
_cell_angle_beta 64.298417
_cell_angle_gamma 40.260322
_cell_volume 588.875559
_symmetry_space_group_name_H-M "P -1"
_symmetry_group_IT_number 2
_symmetry_cell_setting 'triclinic'
loop_
_space_group_symop_operation_xyz
x,y,z
-x,-y,-z
loop_
_atom_site_type_symbol
_atom_site_label
_atom_site_fract_x
_atom_site_fract_y
_atom_site_fract_z
Si Si1 0.329743 0.276706 0.524556
Si Si2 0.604376 0.196711 0.317206
Si Si3 0.935547 0.658425 0.773632
Si Si4 0.282453 0.874422 0.250065
Si Si5 0.527080 0.172252 0.136838
Si Si6 0.630212 0.679397 0.115567
Si Si7 0.928348 0.878296 0.037579
Si Si8 0.993564 0.172180 0.555121
O O1 0.438537 0.342036 0.387928
O O2 0.118373 0.555215 0.486560
O O3 0.315945 0.104437 0.550160
O O4 0.464188 0.054493 0.693452
O O5 0.502855 0.323328 0.169141
O O6 0.805622 0.110524 0.310250
O O7 0.151550 0.486295 0.838482
O O8 0.931654 0.805986 0.593116
O O9 0.784689 0.868400 0.804922
O O10 0.512687 0.654234 0.254428
O O11 0.181731 0.809175 0.395755
O O12 0.165462 0.983669 0.120002
O O13 0.400901 0.344186 0.983856
O O14 0.074695 0.551513 0.146136
O O15 0.752505 0.975274 0.123538
O O16 0.500000 0.000000 0.000000
O O17 0.000000 0.000000 0.000000
#
# Coordination Sequence:
#
# PCOD9057740 Si02
#       8
#     2   2   2   2   2   2   2   2
#     4   9  19  39  62 101 139 185 226 282 358 404
#     4   9  20  38  64 103 141 177 237 283 350 418
#     4  12  25  47  72 103 140 194 229 285 358 414
#     4  11  27  44  69 107 140 187 241 283 346 424
#     4   9  18  40  65 100 137 182 226 290 345 414
#     4  11  22  44  70  94 141 185 236 283 341 424
#     4  11  22  43  70 101 139 180 235 291 343 413
#     4  12  23  41  70 103 142 182 232 296 348 413
#
# _framework density 27.170425999999999
#
# number of rings (size 3 to 8) (size 9 to 14) (size 15 to 20)
#    0.750    0.750    3.750    1.875    0.000    4.500 
#    0.000    3.750    0.000    7.500    0.000    0.000 
#    0.000    0.000    0.000    0.000    0.000    0.000 
#
# Total GULP energy -89628.114926 kJ/mol
# GULP energy per Si atom -5601.757183 kJ/mol
# Density = 2.710858 g / cm^3
# Si number density = 27.170426 Si / 1000 Ang^3
#
#
#
# Elastic Constant Matrix: (Units=GPa)
#
#
# Indices 1 2 3 4 5 6 
#
# 1 136.8187 43.3474 49.3549 12.0543 7.2260 2.9914
# 2 43.3474 119.6091 58.2860 26.0812 11.7423 -6.7499
# 3 49.3549 58.2860 134.8353 10.6705 14.5927 1.9093
# 4 12.0543 26.0812 10.6705 42.7435 -2.8676 -0.2315
# 5 7.2260 11.7423 14.5927 -2.8676 46.9175 -6.9899
# 6 2.9914 -6.7499 1.9093 -0.2315 -6.9899 39.0764
#
#
#
# Elastic Compliance Matrix: (Units=1/GPa)
#
#
# Indices 1 2 3 4 5 6 
#
# 1 0.008859 -0.001948 -0.002287 -0.000768 -0.000357 -0.000971
# 2 -0.001948 0.012750 -0.004153 -0.006293 -0.001653 0.002222
# 3 -0.002287 -0.004153 0.010244 0.000482 -0.001973 -0.001393
# 4 -0.000768 -0.006293 0.000482 0.027543 0.003179 -0.000320
# 5 -0.000357 -0.001653 -0.001973 0.003179 0.023187 0.004005
# 6 -0.000971 0.002222 -0.001393 -0.000320 0.004005 0.026831
#
#
# Mechanical properties :
#
#
# Convention : Reuss Voigt Hill
#
# Bulk Modulus (GPa) = 66.33137 77.02664 71.67901
# Shear Modulus (GPa) = 38.10471 41.76580 39.93526
#
# Velocity S-wave (km/s) = 3.74897 3.92494 3.83796
# Velocity P-wave (km/s) = 6.57311 6.99651 6.78811
#
# Compressibility (1/GPa) = 0.01507582
#
# Stress axis : x y z
#
# Youngs Moduli (GPa) = 112.87843 78.43025 97.61758
#
# Poissons Ratio (x) = 0.15281 0.22329
# Poissons Ratio (y) = 0.21992 0.40541
# Poissons Ratio (z) = 0.25820 0.32572
#
# Static dielectric constant tensor:
#      x y z
#    x 2.255560 0.025800 -0.048500 
#    y 0.025800 2.077910 -0.011930 
#    z -0.048500 -0.011930 2.112600 
# 
# From -- ./inp_files/83215.got.cif
#   From: 2010.05.17/outbox.cif.g08.bks.cpg/sg2_42_cif.got.tgz:83215.got - 2010.06.03 11:33:40.
