data_PCOD9057612
_publ_section_title
;
Structure prediction by ZEFSAII (Michael W. Deem and Ramdas Pophale) SiO2 
 PCOD9057612
Probable space group: P -1
;
_chemical_formula_sum "Si O2"
_cell_formula_units_Z 14
_cell_length_a 7.965752
_cell_length_b 9.214816
_cell_length_c 10.024508
_cell_angle_alpha 61.985722
_cell_angle_beta 65.832459
_cell_angle_gamma 84.316007
_cell_volume 588.689117
_symmetry_space_group_name_H-M "P -1"
_symmetry_group_IT_number 2
_symmetry_cell_setting 'triclinic'
loop_
_space_group_symop_operation_xyz
x,y,z
-x,-y,-z
loop_
_atom_site_type_symbol
_atom_site_label
_atom_site_fract_x
_atom_site_fract_y
_atom_site_fract_z
Si Si1 0.564581 0.323013 0.068989
Si Si2 0.977492 0.695123 0.406061
Si Si3 0.278751 0.225809 0.796335
Si Si4 0.703774 0.094233 0.920186
Si Si5 0.807641 0.471389 0.153602
Si Si6 0.295761 0.134073 0.413032
Si Si7 0.384666 0.784533 0.499721
O O1 0.695146 0.344462 0.144592
O O2 0.388694 0.196510 0.217619
O O3 0.500000 0.500000 0.000000
O O4 0.673375 0.258335 0.940923
O O5 0.159943 0.828389 0.272100
O O6 0.000000 0.500000 0.500000
O O7 0.857646 0.723993 0.298087
O O8 0.866416 0.761662 0.537135
O O9 0.266322 0.353149 0.867807
O O10 0.488005 0.234901 0.664126
O O11 0.217963 0.041166 0.950475
O O12 0.500000 0.000000 0.000000
O O13 0.757603 0.376126 0.350537
O O14 0.000000 0.500000 0.000000
O O15 0.447546 0.175756 0.463803
O O16 0.267296 0.938448 0.489806
#
# Coordination Sequence:
#
# PCOD9057612 Si02
#       7
#     2   2   2   2   2   2   2
#     4  11  22  43  65  92 136 178 219 275 343 405
#     4  11  25  44  71 102 142 183 230 284 348 412
#     4  11  23  44  70 101 135 185 229 284 340 413
#     4  12  26  44  70 105 141 179 232 285 348 413
#     4  11  24  37  65 101 134 170 226 279 338 407
#     4   9  19  38  65  92 124 174 222 273 332 401
#     4   9  19  38  64  94 127 171 223 272 339 403
#
# _framework density 23.781652000000001
#
# number of rings (size 3 to 8) (size 9 to 14) (size 15 to 20)
#    0.000    1.429    1.429    3.429    4.000    3.429 
#    0.000    0.714    0.000    0.000    0.000    0.000 
#    0.000    0.000    0.000    0.000    0.000    0.000 
#
# Total GULP energy -78145.846369 kJ/mol
# GULP energy per Si atom -5581.846169 kJ/mol
# Density = 2.372752 g / cm^3
# Si number density = 23.781652 Si / 1000 Ang^3
#
#
#
# Elastic Constant Matrix: (Units=GPa)
#
#
# Indices 1 2 3 4 5 6 
#
# 1 72.0272 15.0852 15.8706 -7.5398 -8.2767 -3.5518
# 2 15.0852 139.5719 41.2072 4.0891 -21.8927 -27.1579
# 3 15.8706 41.2072 126.2775 -5.9804 -32.4197 -20.3822
# 4 -7.5398 4.0891 -5.9804 57.2086 -5.4230 8.0012
# 5 -8.2767 -21.8927 -32.4197 -5.4230 28.6508 -0.4421
# 6 -3.5518 -27.1579 -20.3822 8.0012 -0.4421 35.2406
#
#
#
# Elastic Compliance Matrix: (Units=1/GPa)
#
#
# Indices 1 2 3 4 5 6 
#
# 1 0.014836 -0.000999 -0.000609 0.002287 0.003264 -0.000105
# 2 -0.000999 0.009999 -0.000086 -0.001289 0.007133 0.007938
# 3 -0.000609 -0.000086 0.013149 0.001711 0.015074 0.007278
# 4 0.002287 -0.001289 0.001711 0.019108 0.005166 -0.004047
# 5 0.003264 0.007133 0.015074 0.005166 0.059549 0.014119
# 6 -0.000105 0.007938 0.007278 -0.004047 0.014119 0.039788
#
#
# Mechanical properties :
#
#
# Convention : Reuss Voigt Hill
#
# Bulk Modulus (GPa) = 28.90453 53.57807 41.24130
# Shear Modulus (GPa) = 29.17974 41.93423 35.55699
#
# Velocity S-wave (km/s) = 3.50664 4.20372 3.87090
# Velocity P-wave (km/s) = 5.34564 6.79263 6.11210
#
# Compressibility (1/GPa) = 0.03459666
#
# Stress axis : x y z
#
# Youngs Moduli (GPa) = 67.40135 100.00672 76.04895
#
# Poissons Ratio (x) = 0.09992 0.04633
# Poissons Ratio (y) = 0.06734 0.00654
# Poissons Ratio (z) = 0.04106 0.00859
#
# Static dielectric constant tensor:
#      x y z
#    x 1.983410 -0.132720 0.094820 
#    y -0.132720 1.102130 0.208980 
#    z 0.094820 0.208980 1.933860 
# 
# From -- ./inp_files/381195.got.cif
#   From: 2010.05.17/outbox.cif.g08.bks.cpg/sg2_191_cif.got.tgz:381195.got - 2010.06.03 11:33:40.
