data_PCOD9057410
_publ_section_title
;
Structure prediction by ZEFSAII (Michael W. Deem and Ramdas Pophale) SiO2 
 PCOD9057410
Probable space group: P -1
;
_chemical_formula_sum "Si O2"
_cell_formula_units_Z 14
_cell_length_a 6.363765
_cell_length_b 25.018994
_cell_length_c 15.539123
_cell_angle_alpha 17.113877
_cell_angle_beta 129.910871
_cell_angle_gamma 129.497364
_cell_volume 555.572937
_symmetry_space_group_name_H-M "P -1"
_symmetry_group_IT_number 2
_symmetry_cell_setting 'triclinic'
loop_
_space_group_symop_operation_xyz
x,y,z
-x,-y,-z
loop_
_atom_site_type_symbol
_atom_site_label
_atom_site_fract_x
_atom_site_fract_y
_atom_site_fract_z
Si Si1 0.778438 0.067840 0.711259
Si Si2 0.572583 0.364862 0.302578
Si Si3 0.965787 0.246819 0.805765
Si Si4 0.624813 0.728983 0.424728
Si Si5 0.986128 0.673454 0.112793
Si Si6 0.584391 0.180120 0.300577
Si Si7 0.169829 0.571924 0.154519
O O1 0.584062 0.158494 0.588133
O O2 0.689372 0.140532 0.483382
O O3 0.086342 0.151701 0.688622
O O4 0.815694 0.856405 0.031510
O O5 0.387146 0.359234 0.347173
O O6 0.882069 0.448322 0.278488
O O7 0.500000 0.500000 0.000000
O O8 0.655687 0.179932 0.798747
O O9 0.001899 0.462338 0.466487
O O10 0.981809 0.216500 0.959155
O O11 0.614623 0.571936 0.589973
O O12 0.203411 0.697983 0.053711
O O13 0.694685 0.719349 0.926918
O O14 0.500000 0.000000 0.500000
O O15 0.816537 0.300215 0.122060
#
# Coordination Sequence:
#
# PCOD9057410 Si02
#       7
#     2   2   2   2   2   2   2
#     4  11  25  42  70 101 133 175 222 277 338 389
#     4  11  22  42  69  98 135 174 222 277 332 394
#     4  11  23  47  66  99 138 178 221 276 331 401
#     4  11  23  44  67  99 136 174 222 276 329 403
#     4  11  24  46  71  94 138 180 224 274 333 397
#     4  12  24  46  68  99 135 172 226 282 326 397
#     4  11  22  42  71  97 127 181 224 269 337 391
#
# _framework density 25.199210000000001
#
# number of rings (size 3 to 8) (size 9 to 14) (size 15 to 20)
#    0.000    0.857    4.286    3.000    0.000    4.000 
#    5.143    0.000    0.000    0.000    0.000    0.000 
#    0.000    0.000    0.000    0.000    0.000    0.000 
#
# Total GULP energy -78332.826028 kJ/mol
# GULP energy per Si atom -5595.201859 kJ/mol
# Density = 2.514186 g / cm^3
# Si number density = 25.199210 Si / 1000 Ang^3
#
#
#
# Elastic Constant Matrix: (Units=GPa)
#
#
# Indices 1 2 3 4 5 6 
#
# 1 77.4936 8.1698 24.3498 -10.1459 15.5293 -32.0586
# 2 8.1698 84.2015 12.4913 8.7725 11.3150 -14.7946
# 3 24.3498 12.4913 78.0327 -4.4208 32.4886 -12.7370
# 4 -10.1459 8.7725 -4.4208 43.4853 -7.0946 6.7896
# 5 15.5293 11.3150 32.4886 -7.0946 38.6777 -9.6252
# 6 -32.0586 -14.7946 -12.7370 6.7896 -9.6252 44.2702
#
#
#
# Elastic Compliance Matrix: (Units=1/GPa)
#
#
# Indices 1 2 3 4 5 6 
#
# 1 0.019862 0.000930 -0.003336 0.001763 -0.001871 0.013057
# 2 0.000930 0.013591 -0.000436 -0.003906 -0.003471 0.004934
# 3 -0.003336 -0.000436 0.020518 -0.001220 -0.015978 0.000055
# 4 0.001763 -0.003906 -0.001220 0.025431 0.005348 -0.003117
# 5 -0.001871 -0.003471 -0.015978 0.005348 0.042341 0.001273
# 6 0.013057 0.004934 0.000055 -0.003117 0.001273 0.034463
#
#
# Mechanical properties :
#
#
# Convention : Reuss Voigt Hill
#
# Bulk Modulus (GPa) = 20.71032 36.63885 28.67458
# Shear Modulus (GPa) = 28.09191 38.26776 33.17984
#
# Velocity S-wave (km/s) = 3.34247 3.90116 3.63257
# Velocity P-wave (km/s) = 4.80964 5.90452 5.38498
#
# Compressibility (1/GPa) = 0.04828511
#
# Stress axis : x y z
#
# Youngs Moduli (GPa) = 50.34748 73.57722 48.73716
#
# Poissons Ratio (x) = -0.06840 0.16261
# Poissons Ratio (y) = -0.04681 0.02127
# Poissons Ratio (z) = 0.16798 0.03211
#
# Static dielectric constant tensor:
#      x y z
#    x 1.988140 -0.049210 0.006220 
#    y -0.049210 2.045750 -0.038350 
#    z 0.006220 -0.038350 2.024660 
# 
# From -- ./inp_files/68238.got.cif
#   From: 2010.05.17/outbox.cif.g08.bks.cpg/sg2_35_cif.got.tgz:68238.got - 2010.06.03 11:33:40.
