data_PCOD9057545
_publ_section_title
;
Structure prediction by ZEFSAII (Michael W. Deem and Ramdas Pophale) SiO2 
 PCOD9057545
Probable space group: P -1
;
_chemical_formula_sum "Si O2"
_cell_formula_units_Z 12
_cell_length_a 14.228576
_cell_length_b 8.523009
_cell_length_c 10.058095
_cell_angle_alpha 60.856638
_cell_angle_beta 29.709044
_cell_angle_gamma 72.497860
_cell_volume 506.483135
_symmetry_space_group_name_H-M "P -1"
_symmetry_group_IT_number 2
_symmetry_cell_setting 'triclinic'
loop_
_space_group_symop_operation_xyz
x,y,z
-x,-y,-z
loop_
_atom_site_type_symbol
_atom_site_label
_atom_site_fract_x
_atom_site_fract_y
_atom_site_fract_z
Si Si1 0.028536 0.399025 0.368646
Si Si2 0.272129 0.908666 0.276698
Si Si3 0.069506 0.097291 0.637760
Si Si4 0.642450 0.006902 0.146917
Si Si5 0.576889 0.669300 0.732183
Si Si6 0.571402 0.393120 0.338439
O O1 0.101388 0.232324 0.413125
O O2 0.000000 0.500000 0.500000
O O3 0.833217 0.301808 0.562375
O O4 0.200732 0.524584 0.015532
O O5 0.274525 0.022932 0.088619
O O6 0.444299 0.816364 0.832254
O O7 0.500000 0.000000 0.000000
O O8 0.208013 0.210284 0.535657
O O9 0.839692 0.046423 0.976569
O O10 0.146775 0.932092 0.550046
O O11 0.518199 0.175039 0.531240
O O12 0.553959 0.589602 0.645662
O O13 0.500000 0.500000 0.000000
O O14 0.500000 0.500000 0.500000
#
# Coordination Sequence:
#
# PCOD9057545 Si02
#       6
#     2   2   2   2   2   2
#     4  11  24  45  75 107 147 203 249 307 377 459
#     4  11  22  42  73 107 147 201 258 305 370 469
#     4  11  23  43  73 105 144 197 262 300 378 458
#     4  11  25  45  74 107 153 194 244 326 390 434
#     4  12  26  45  76 107 147 204 264 303 372 471
#     4  12  25  47  75 112 157 193 247 328 394 436
#
# _framework density 23.692791
#
# number of rings (size 3 to 8) (size 9 to 14) (size 15 to 20)
#    0.000    0.667    3.333    6.500    0.000    0.667 
#    0.000    0.833    0.000    0.000    0.000    0.000 
#    0.000    0.000    0.000    0.000    0.000    0.000 
#
# Total GULP energy -67059.971736 kJ/mol
# GULP energy per Si atom -5588.330978 kJ/mol
# Density = 2.363886 g / cm^3
# Si number density = 23.692791 Si / 1000 Ang^3
#
#
#
# Elastic Constant Matrix: (Units=GPa)
#
#
# Indices 1 2 3 4 5 6 
#
# 1 93.4427 67.7245 45.5205 -7.6051 -0.2441 27.2476
# 2 67.7245 165.6660 99.1095 -16.7870 -0.0946 32.8657
# 3 45.5205 99.1095 166.7394 -29.5685 -0.3050 12.3279
# 4 -7.6051 -16.7870 -29.5685 55.0526 8.2329 1.2132
# 5 -0.2441 -0.0946 -0.3050 8.2329 50.9187 -12.1363
# 6 27.2476 32.8657 12.3279 1.2132 -12.1363 54.8478
#
#
#
# Elastic Compliance Matrix: (Units=1/GPa)
#
#
# Indices 1 2 3 4 5 6 
#
# 1 0.016380 -0.004999 -0.001032 0.000486 -0.001255 -0.005198
# 2 -0.004999 0.012177 -0.005546 0.000274 -0.000982 -0.003790
# 3 -0.001032 -0.005546 0.010106 0.003591 -0.000191 0.001443
# 4 0.000486 0.000274 0.003591 0.020892 -0.003962 -0.002552
# 5 -0.001255 -0.000982 -0.000191 -0.003962 0.021737 0.006152
# 6 -0.005198 -0.003790 0.001443 -0.002552 0.006152 0.024179
#
#
# Mechanical properties :
#
#
# Convention : Reuss Voigt Hill
#
# Bulk Modulus (GPa) = 64.48382 94.50634 79.49508
# Shear Modulus (GPa) = 37.37086 46.39672 41.88379
#
# Velocity S-wave (km/s) = 3.97584 4.43003 4.20907
# Velocity P-wave (km/s) = 6.95357 8.13275 7.56617
#
# Compressibility (1/GPa) = 0.01550777
#
# Stress axis : x y z
#
# Youngs Moduli (GPa) = 61.05169 82.12331 98.95571
#
# Poissons Ratio (x) = 0.41051 0.10214
# Poissons Ratio (y) = 0.30518 0.54883
# Poissons Ratio (z) = 0.06302 0.45547
#
# Static dielectric constant tensor:
#      x y z
#    x 1.919940 -0.009920 -0.041960 
#    y -0.009920 2.074270 0.066390 
#    z -0.041960 0.066390 1.951630 
# 
# From -- ./inp_files/163886.got.cif
#   From: 2010.05.17/outbox.cif.g08.bks.cpg/sg2_82_cif.got.tgz:163886.got - 2010.06.03 11:33:40.
