data_PCOD9057692
_publ_section_title
;
Structure prediction by ZEFSAII (Michael W. Deem and Ramdas Pophale) SiO2 
 PCOD9057692
Probable space group: P -1
;
_chemical_formula_sum "Si O2"
_cell_formula_units_Z 14
_cell_length_a 9.077143
_cell_length_b 13.863559
_cell_length_c 8.897136
_cell_angle_alpha 78.045365
_cell_angle_beta 130.300819
_cell_angle_gamma 128.754902
_cell_volume 628.006336
_symmetry_space_group_name_H-M "P -1"
_symmetry_group_IT_number 2
_symmetry_cell_setting 'triclinic'
loop_
_space_group_symop_operation_xyz
x,y,z
-x,-y,-z
loop_
_atom_site_type_symbol
_atom_site_label
_atom_site_fract_x
_atom_site_fract_y
_atom_site_fract_z
Si Si1 0.862649 0.733405 0.756526
Si Si2 0.127897 0.760465 0.300891
Si Si3 0.547271 0.091472 0.795271
Si Si4 0.178260 0.153117 0.043524
Si Si5 0.821339 0.520209 0.957683
Si Si6 0.881833 0.221060 0.363243
Si Si7 0.453073 0.745754 0.020382
O O1 0.883699 0.748103 0.586197
O O2 0.166643 0.840275 0.975726
O O3 0.730576 0.772583 0.759120
O O4 0.757102 0.591999 0.787180
O O5 0.400230 0.864830 0.359242
O O6 0.105221 0.742388 0.468638
O O7 0.977115 0.810145 0.147487
O O8 0.984923 0.623731 0.166327
O O9 0.351043 0.936744 0.739453
O O10 0.459180 0.155113 0.816220
O O11 0.383714 0.192723 0.042347
O O12 0.000000 0.000000 0.000000
O O13 0.587458 0.379173 0.914652
O O14 0.000000 0.500000 0.000000
O O15 0.813553 0.294256 0.196267
#
# Coordination Sequence:
#
# PCOD9057692 Si02
#       7
#     2   2   2   2   2   2   2
#     4   9  19  33  54  75 110 146 174 222 260 317
#     4  10  22  34  53  81 114 138 168 235 272 302
#     4   9  17  32  52  77 103 142 182 215 257 319
#     4  10  20  37  55  79 108 143 183 212 264 329
#     4  10  17  37  56  78 105 141 191 214 252 322
#     4  11  19  33  54  83 108 137 180 226 273 302
#     4  11  19  33  62  78 100 149 186 214 254 324
#
# _framework density 22.292769
#
# number of rings (size 3 to 8) (size 9 to 14) (size 15 to 20)
#    0.000    2.286    4.286    4.714    0.000    2.857 
#    0.000    4.286    0.000    1.714    0.000    0.000 
#    0.000    0.000    0.000    0.000    0.000    0.000 
#
# Total GULP energy -78100.299979 kJ/mol
# GULP energy per Si atom -5578.592856 kJ/mol
# Density = 2.224203 g / cm^3
# Si number density = 22.292769 Si / 1000 Ang^3
#
#
#
# Elastic Constant Matrix: (Units=GPa)
#
#
# Indices 1 2 3 4 5 6 
#
# 1 117.5736 17.6023 22.7523 1.2292 -53.3415 -4.2858
# 2 17.6023 122.9385 24.8468 3.6199 -16.8663 -9.8108
# 3 22.7523 24.8468 64.0832 -4.9748 -35.8403 -4.5248
# 4 1.2292 3.6199 -4.9748 11.5316 1.0564 -7.5214
# 5 -53.3415 -16.8663 -35.8403 1.0564 45.4982 -4.1537
# 6 -4.2858 -9.8108 -4.5248 -7.5214 -4.1537 40.3693
#
#
#
# Elastic Compliance Matrix: (Units=1/GPa)
#
#
# Indices 1 2 3 4 5 6 
#
# 1 0.025491 -0.000453 0.016980 0.007525 0.043869 0.010415
# 2 -0.000453 0.009128 -0.003337 -0.003524 0.000413 0.001182
# 3 0.016980 -0.003337 0.044326 0.023805 0.054494 0.016002
# 4 0.007525 -0.003524 0.023805 0.111963 0.026055 0.026152
# 5 0.043869 0.000413 0.054494 0.026055 0.118433 0.027906
# 6 0.010415 0.001182 0.016002 0.026152 0.027906 0.035702
#
#
# Mechanical properties :
#
#
# Convention : Reuss Voigt Hill
#
# Bulk Modulus (GPa) = 9.49463 48.33315 28.91389
# Shear Modulus (GPa) = 14.13339 35.43938 24.78639
#
# Velocity S-wave (km/s) = 2.52065 3.99146 3.33807
# Velocity P-wave (km/s) = 3.56929 6.55519 5.27780
#
# Compressibility (1/GPa) = 0.10532273
#
# Stress axis : x y z
#
# Youngs Moduli (GPa) = 39.22952 109.54884 22.56034
#
# Poissons Ratio (x) = 0.04968 -0.38307
# Poissons Ratio (y) = 0.01779 0.07529
# Poissons Ratio (z) = -0.66611 0.36561
#
# Static dielectric constant tensor:
#      x y z
#    x 1.932530 0.008500 -0.015360 
#    y 0.008500 1.790190 -0.000630 
#    z -0.015360 -0.000630 1.908230 
# 
# From -- ./inp_files/178274.got.cif
#   From: 2010.05.17/outbox.cif.g08.bks.cpg/sg2_90_cif.got.tgz:178274.got - 2010.06.03 11:33:40.
