data_PCOD9057277
_publ_section_title
;
Structure prediction by ZEFSAII (Michael W. Deem and Ramdas Pophale) SiO2 
 PCOD9057277
Probable space group: P -1
;
_chemical_formula_sum "Si O2"
_cell_formula_units_Z 15
_cell_length_a 15.011730
_cell_length_b 14.464631
_cell_length_c 9.530049
_cell_angle_alpha 50.718625
_cell_angle_beta 132.318331
_cell_angle_gamma 150.441520
_cell_volume 748.391970
_symmetry_space_group_name_H-M "P -1"
_symmetry_group_IT_number 2
_symmetry_cell_setting 'triclinic'
loop_
_space_group_symop_operation_xyz
x,y,z
-x,-y,-z
loop_
_atom_site_type_symbol
_atom_site_label
_atom_site_fract_x
_atom_site_fract_y
_atom_site_fract_z
Si Si1 0.000000 0.500000 0.000000
Si Si2 0.666897 0.724143 0.972413
Si Si3 0.662409 0.932440 0.557123
Si Si4 0.449125 0.823452 0.155402
Si Si5 0.451415 0.159269 0.054521
Si Si6 0.917816 0.281756 0.852907
Si Si7 0.928732 0.711841 0.253019
Si Si8 0.699069 0.300988 0.425580
O O1 0.228641 0.653235 0.129073
O O2 0.986823 0.580213 0.047533
O O3 0.851999 0.784963 0.131126
O O4 0.500000 0.500000 0.000000
O O5 0.678498 0.814206 0.758788
O O6 0.615406 0.775163 0.994301
O O7 0.585049 0.883012 0.366501
O O8 0.499080 0.869272 0.538459
O O9 0.868862 0.148529 0.590168
O O10 0.491719 0.780396 0.102926
O O11 0.500000 0.000000 0.000000
O O12 0.634389 0.246624 0.247764
O O13 0.272587 0.932544 0.093188
O O14 0.852134 0.328726 0.622659
O O15 0.040555 0.284791 0.884811
O O16 0.780726 0.496601 0.350760
#
# Coordination Sequence:
#
# PCOD9057277 Si02
#       8
#     1   2   2   2   2   2   2   2
#     4  12  26  40  66  96 150 172 220 266 360 412
#     4  11  23  48  71  99 134 182 239 288 328 401
#     4  11  24  42  70 100 138 177 233 279 340 406
#     4  12  26  45  66 103 146 184 215 285 350 413
#     4  11  23  44  70  96 144 176 227 286 343 395
#     4  12  24  40  69 105 135 182 224 287 346 417
#     4  12  24  41  76 100 134 180 235 285 342 396
#     4  11  22  42  66 102 135 172 231 284 343 409
#
# _framework density 20.042973
#
# number of rings (size 3 to 8) (size 9 to 14) (size 15 to 20)
#    0.000    0.533    8.000    2.000    3.733    0.000 
#    0.000    1.333    2.933    0.000    0.000    0.000 
#    0.000    0.000    0.000    0.000    0.000    0.000 
#
# Total GULP energy -83578.933455 kJ/mol
# GULP energy per Si atom -5571.928897 kJ/mol
# Density = 1.999735 g / cm^3
# Si number density = 20.042973 Si / 1000 Ang^3
#
#
#
# Elastic Constant Matrix: (Units=GPa)
#
#
# Indices 1 2 3 4 5 6 
#
# 1 113.0257 31.9026 51.7441 11.3730 -8.7222 -12.0737
# 2 31.9026 96.6689 31.5644 27.4103 1.0607 -1.8842
# 3 51.7441 31.5644 81.4775 17.9450 -7.6966 -11.0868
# 4 11.3730 27.4103 17.9450 30.0089 -9.8880 -7.1846
# 5 -8.7222 1.0607 -7.6966 -9.8880 35.9295 3.7393
# 6 -12.0737 -1.8842 -11.0868 -7.1846 3.7393 31.2606
#
#
#
# Elastic Compliance Matrix: (Units=1/GPa)
#
#
# Indices 1 2 3 4 5 6 
#
# 1 0.013197 -0.002910 -0.007429 0.003560 0.002384 0.002820
# 2 -0.002910 0.016299 -0.002143 -0.015191 -0.005438 -0.003743
# 3 -0.007429 -0.002143 0.019563 -0.006173 0.000496 0.002462
# 4 0.003560 -0.015191 -0.006173 0.056630 0.014582 0.009541
# 5 0.002384 -0.005438 0.000496 0.014582 0.032669 0.000213
# 6 0.002820 -0.003743 0.002462 0.009541 0.000213 0.035893
#
#
# Mechanical properties :
#
#
# Convention : Reuss Voigt Hill
#
# Bulk Modulus (GPa) = 41.50383 57.95493 49.72938
# Shear Modulus (GPa) = 24.12598 31.17054 27.64826
#
# Velocity S-wave (km/s) = 3.47322 3.94786 3.71812
# Velocity P-wave (km/s) = 6.06933 7.05400 6.58011
#
# Compressibility (1/GPa) = 0.02409416
#
# Stress axis : x y z
#
# Youngs Moduli (GPa) = 75.77533 61.35420 51.11794
#
# Poissons Ratio (x) = 0.17855 0.37974
# Poissons Ratio (y) = 0.22052 0.10956
# Poissons Ratio (z) = 0.56291 0.13150
#
# Static dielectric constant tensor:
#      x y z
#    x 1.763040 0.021040 0.019520 
#    y 0.021040 1.739890 -0.007560 
#    z 0.019520 -0.007560 1.707430 
# 
# From -- ./inp_files/314736.got.cif
#   From: 2010.05.17/outbox.cif.g08.bks.cpg/sg2_158_cif.got.tgz:314736.got - 2010.06.03 11:33:40.
