data_PCOD9057892
_publ_section_title
;
Structure prediction by ZEFSAII (Michael W. Deem and Ramdas Pophale) SiO2 
 PCOD9057892
Probable space group: P -1
;
_chemical_formula_sum "Si O2"
_cell_formula_units_Z 16
_cell_length_a 10.226461
_cell_length_b 13.444822
_cell_length_c 8.729631
_cell_angle_alpha 52.192108
_cell_angle_beta 64.569766
_cell_angle_gamma 101.407016
_cell_volume 653.649497
_symmetry_space_group_name_H-M "P -1"
_symmetry_group_IT_number 2
_symmetry_cell_setting 'triclinic'
loop_
_space_group_symop_operation_xyz
x,y,z
-x,-y,-z
loop_
_atom_site_type_symbol
_atom_site_label
_atom_site_fract_x
_atom_site_fract_y
_atom_site_fract_z
Si Si1 0.512457 0.771633 0.664585
Si Si2 0.402226 0.076121 0.187870
Si Si3 0.012277 0.239431 0.233967
Si Si4 0.249504 0.898468 0.965614
Si Si5 0.088478 0.612979 0.070069
Si Si6 0.399557 0.421101 0.379313
Si Si7 0.284456 0.244042 0.916569
Si Si8 0.930970 0.668705 0.552228
O O1 0.555184 0.822562 0.772828
O O2 0.293978 0.689253 0.827412
O O3 0.541575 0.646486 0.713577
O O4 0.652989 0.937922 0.336903
O O5 0.210150 0.893944 0.492889
O O6 0.578383 0.084188 0.064809
O O7 0.360480 0.149022 0.004248
O O8 0.039716 0.384257 0.989335
O O9 0.111589 0.297001 0.293509
O O10 0.081439 0.161687 0.170321
O O11 0.092426 0.840407 0.225532
O O12 0.139047 0.742594 0.052684
O O13 0.002558 0.437039 0.348570
O O14 0.292889 0.286403 0.696356
O O15 0.575015 0.585123 0.219973
O O16 0.253447 0.435717 0.362776
#
# Coordination Sequence:
#
# PCOD9057892 Si02
#       8
#     2   2   2   2   2   2   2   2
#     4  11  22  43  73  94 136 178 218 271 327 393
#     4  11  23  44  69  97 137 176 217 269 331 395
#     4  12  24  43  66 102 135 173 223 267 330 398
#     4  11  23  43  69 100 134 176 216 276 330 386
#     4  11  22  45  69  98 134 176 221 270 329 393
#     4  11  26  46  66  98 132 171 226 276 329 393
#     4  11  26  45  69  95 132 176 218 278 335 385
#     4  12  27  41  70 101 133 176 222 273 329 390
#
# _framework density 24.477948999999999
#
# number of rings (size 3 to 8) (size 9 to 14) (size 15 to 20)
#    0.000    0.750    2.500    5.625    1.750    5.500 
#    0.000    0.000    0.000    0.000    0.000    0.000 
#    0.000    0.000    0.000    0.000    0.000    0.000 
#
# Total GULP energy -89701.705496 kJ/mol
# GULP energy per Si atom -5606.356594 kJ/mol
# Density = 2.442224 g / cm^3
# Si number density = 24.477949 Si / 1000 Ang^3
#
#
#
# Elastic Constant Matrix: (Units=GPa)
#
#
# Indices 1 2 3 4 5 6 
#
# 1 91.0275 2.5115 16.2471 14.7537 17.6972 13.8940
# 2 2.5115 61.6075 -4.8671 1.3703 0.0101 10.6114
# 3 16.2471 -4.8671 89.0540 4.7346 8.8347 9.4952
# 4 14.7537 1.3703 4.7346 28.3974 -1.8844 3.3719
# 5 17.6972 0.0101 8.8347 -1.8844 35.9579 -1.1350
# 6 13.8940 10.6114 9.4952 3.3719 -1.1350 29.5834
#
#
#
# Elastic Compliance Matrix: (Units=1/GPa)
#
#
# Indices 1 2 3 4 5 6 
#
# 1 0.014755 0.000587 -0.000838 -0.007310 -0.007639 -0.006331
# 2 0.000587 0.017584 0.001744 -0.000666 -0.000981 -0.007105
# 3 -0.000838 0.001744 0.012269 -0.001391 -0.002805 -0.004119
# 4 -0.007310 -0.000666 -0.001391 0.039696 0.006014 -0.000175
# 5 -0.007639 -0.000981 -0.002805 0.006014 0.032746 0.005411
# 6 -0.006331 -0.007105 -0.004119 -0.000175 0.005411 0.040874
#
#
# Mechanical properties :
#
#
# Convention : Reuss Voigt Hill
#
# Bulk Modulus (GPa) = 21.01122 29.94132 25.47627
# Shear Modulus (GPa) = 29.27328 33.97424 31.62376
#
# Velocity S-wave (km/s) = 3.46194 3.72957 3.59824
# Velocity P-wave (km/s) = 4.95806 5.55020 5.26247
#
# Compressibility (1/GPa) = 0.04759361
#
# Stress axis : x y z
#
# Youngs Moduli (GPa) = 67.77151 56.86873 81.50719
#
# Poissons Ratio (x) = -0.03336 0.06834
# Poissons Ratio (y) = -0.03975 -0.14217
# Poissons Ratio (z) = 0.05682 -0.09919
#
# Static dielectric constant tensor:
#      x y z
#    x 1.883240 0.009760 0.014270 
#    y 0.009760 1.944280 -0.004070 
#    z 0.014270 -0.004070 1.922250 
# 
# From -- ./inp_files/205543.got.cif
#   From: 2010.05.17/outbox.cif.g08.bks.cpg/sg2_103_cif.got.tgz:205543.got - 2010.06.03 11:33:40.
