data_PCOD9057450
_publ_section_title
;
Structure prediction by ZEFSAII (Michael W. Deem and Ramdas Pophale) SiO2 
 PCOD9057450
Probable space group: P -1
;
_chemical_formula_sum "Si O2"
_cell_formula_units_Z 16
_cell_length_a 12.132484
_cell_length_b 10.757186
_cell_length_c 9.060859
_cell_angle_alpha 60.670141
_cell_angle_beta 53.703202
_cell_angle_gamma 90.184498
_cell_volume 755.123233
_symmetry_space_group_name_H-M "P -1"
_symmetry_group_IT_number 2
_symmetry_cell_setting 'triclinic'
loop_
_space_group_symop_operation_xyz
x,y,z
-x,-y,-z
loop_
_atom_site_type_symbol
_atom_site_label
_atom_site_fract_x
_atom_site_fract_y
_atom_site_fract_z
Si Si1 0.148467 0.567618 0.445975
Si Si2 0.242028 0.947125 0.469972
Si Si3 0.452646 0.892444 0.743673
Si Si4 0.743101 0.063781 0.876785
Si Si5 0.170885 0.581354 0.761981
Si Si6 0.030889 0.038957 0.780713
Si Si7 0.629844 0.434192 0.123043
Si Si8 0.696219 0.628810 0.678071
O O1 0.194352 0.750349 0.297256
O O2 0.146407 0.524496 0.644806
O O3 0.274730 0.518695 0.313162
O O4 0.000000 0.500000 0.500000
O O5 0.273120 0.989193 0.248639
O O6 0.233998 0.772135 0.600243
O O7 0.385449 0.089139 0.341808
O O8 0.098805 0.946288 0.673329
O O9 0.348284 0.714531 0.881931
O O10 0.500000 0.000000 0.500000
O O11 0.386913 0.967453 0.879921
O O12 0.869881 0.017102 0.864839
O O13 0.281693 0.539423 0.806992
O O14 0.000000 0.500000 0.000000
O O15 0.154315 0.217693 0.563219
O O16 0.000000 0.000000 0.000000
O O17 0.448918 0.375676 0.291891
O O18 0.680371 0.589259 0.889449
#
# Coordination Sequence:
#
# PCOD9057450 Si02
#       8
#     2   2   2   2   2   2   2   2
#     4  11  22  42  70  96 133 177 227 278 343 415
#     4  11  25  46  66 102 140 179 234 285 358 414
#     4  12  22  42  72  97 136 181 231 285 344 423
#     4  11  25  42  69  98 137 185 230 289 344 418
#     4  11  26  41  71 101 131 177 232 290 339 417
#     4  12  26  42  70 105 139 184 232 293 355 414
#     4  11  24  44  69 100 138 186 234 284 353 417
#     4  11  24  43  69  98 138 189 232 283 353 420
#
# _framework density 21.188596
#
# number of rings (size 3 to 8) (size 9 to 14) (size 15 to 20)
#    0.000    0.750    5.000    2.250    3.500    0.500 
#    0.000    0.000    0.000    0.000    0.000    0.000 
#    0.000    0.000    0.000    0.000    0.000    0.000 
#
# Total GULP energy -89136.588764 kJ/mol
# GULP energy per Si atom -5571.036798 kJ/mol
# Density = 2.114037 g / cm^3
# Si number density = 21.188596 Si / 1000 Ang^3
#
#
#
# Elastic Constant Matrix: (Units=GPa)
#
#
# Indices 1 2 3 4 5 6 
#
# 1 156.9394 30.5569 31.2104 14.2177 18.4773 0.6811
# 2 30.5569 47.1112 6.7835 20.4928 7.2686 8.3699
# 3 31.2104 6.7835 100.1873 10.5713 18.5538 5.3711
# 4 14.2177 20.4928 10.5713 39.2074 -0.5489 -11.1455
# 5 18.4773 7.2686 18.5538 -0.5489 35.9646 9.1241
# 6 0.6811 8.3699 5.3711 -11.1455 9.1241 23.2941
#
#
#
# Elastic Compliance Matrix: (Units=1/GPa)
#
#
# Indices 1 2 3 4 5 6 
#
# 1 0.008144 -0.006327 -0.002036 0.002210 -0.003026 0.004747
# 2 -0.006327 0.043339 0.003894 -0.030113 -0.000211 -0.030611
# 3 -0.002036 0.003894 0.012164 -0.006121 -0.004791 -0.005196
# 4 0.002210 -0.030113 -0.006121 0.052796 -0.000646 0.037681
# 5 -0.003026 -0.000211 -0.004791 -0.000646 0.035109 -0.012792
# 6 0.004747 -0.030611 -0.005196 0.037681 -0.012792 0.078027
#
#
# Mechanical properties :
#
#
# Convention : Reuss Voigt Hill
#
# Bulk Modulus (GPa) = 18.27861 49.03772 33.65817
# Shear Modulus (GPa) = 19.47391 35.40568 27.43979
#
# Velocity S-wave (km/s) = 3.03491 4.09219 3.60255
# Velocity P-wave (km/s) = 4.57453 6.74698 5.76403
#
# Compressibility (1/GPa) = 0.05470875
#
# Stress axis : x y z
#
# Youngs Moduli (GPa) = 122.78783 23.07389 82.21249
#
# Poissons Ratio (x) = 0.14599 0.16738
# Poissons Ratio (y) = 0.77688 -0.32014
# Poissons Ratio (z) = 0.25000 -0.08985
#
# Static dielectric constant tensor:
#      x y z
#    x 1.518950 -0.104740 -0.184340 
#    y -0.104740 1.794480 -0.027630 
#    z -0.184340 -0.027630 1.618530 
# 
# From -- ./inp_files/262002.got.cif
#   From: 2010.05.17/outbox.cif.g08.bks.cpg/sg2_132_cif.got.tgz:262002.got - 2010.06.03 11:33:40.
