data_PCOD9057229
_publ_section_title
;
Structure prediction by ZEFSAII (Michael W. Deem and Ramdas Pophale) SiO2 
 PCOD9057229
Probable space group: P -1
;
_chemical_formula_sum "Si O2"
_cell_formula_units_Z 16
_cell_length_a 11.215437
_cell_length_b 9.271575
_cell_length_c 11.158548
_cell_angle_alpha 122.120231
_cell_angle_beta 126.479321
_cell_angle_gamma 88.783891
_cell_volume 712.246970
_symmetry_space_group_name_H-M "P -1"
_symmetry_group_IT_number 2
_symmetry_cell_setting 'triclinic'
loop_
_space_group_symop_operation_xyz
x,y,z
-x,-y,-z
loop_
_atom_site_type_symbol
_atom_site_label
_atom_site_fract_x
_atom_site_fract_y
_atom_site_fract_z
Si Si1 0.946243 0.158958 0.010193
Si Si2 0.384265 0.899586 0.276412
Si Si3 0.048638 0.786209 0.703040
Si Si4 0.923481 0.457114 0.803265
Si Si5 0.830231 0.920171 0.286016
Si Si6 0.256978 0.573319 0.664432
Si Si7 0.260640 0.505784 0.913580
Si Si8 0.368347 0.846047 0.645119
O O1 0.795868 0.112127 0.811043
O O2 0.881436 0.192867 0.113940
O O3 0.096423 0.353362 0.152078
O O4 0.000000 0.000000 0.000000
O O5 0.500000 0.000000 0.500000
O O6 0.463013 0.028992 0.264846
O O7 0.360669 0.687321 0.137421
O O8 0.131392 0.672215 0.631006
O O9 0.854596 0.646833 0.531443
O O10 0.100830 0.987752 0.761977
O O11 0.068574 0.456193 0.804132
O O12 0.759229 0.282703 0.589606
O O13 0.000000 0.500000 0.000000
O O14 0.737623 0.693785 0.142037
O O15 0.708644 0.012390 0.293484
O O16 0.000000 0.000000 0.500000
O O17 0.307722 0.563776 0.828226
O O18 0.380209 0.707992 0.696418
#
# Coordination Sequence:
#
# PCOD9057229 Si02
#       8
#     2   2   2   2   2   2   2   2
#     4  11  24  43  68  95 126 175 234 275 322 389
#     4  11  26  48  67  93 141 181 218 274 339 399
#     4  10  18  35  61  98 128 157 218 283 319 378
#     4  11  21  37  64  95 128 184 230 266 323 401
#     4  11  21  34  66 104 131 165 220 280 327 391
#     4  10  17  36  65  92 128 166 212 273 329 396
#     4  11  21  41  65  96 134 174 227 266 332 400
#     4  11  22  39  66  94 131 172 218 269 346 389
#
# _framework density 22.464117999999999
#
# number of rings (size 3 to 8) (size 9 to 14) (size 15 to 20)
#    0.000    1.250    6.250    2.250    1.750    2.000 
#    0.000    0.625    0.000    0.000    0.000    0.000 
#    0.000    0.000    0.000    0.000    0.000    0.000 
#
# Total GULP energy -89238.004693 kJ/mol
# GULP energy per Si atom -5577.375293 kJ/mol
# Density = 2.241299 g / cm^3
# Si number density = 22.464118 Si / 1000 Ang^3
#
#
#
# Elastic Constant Matrix: (Units=GPa)
#
#
# Indices 1 2 3 4 5 6 
#
# 1 28.5750 19.5311 8.3281 15.3430 5.5280 7.9578
# 2 19.5311 166.0622 47.5999 34.7490 -14.2342 14.4383
# 3 8.3281 47.5999 131.4190 22.1954 -10.5238 -1.7993
# 4 15.3430 34.7490 22.1954 41.0229 8.1267 -1.5245
# 5 5.5280 -14.2342 -10.5238 8.1267 19.8900 3.6758
# 6 7.9578 14.4383 -1.7993 -1.5245 3.6758 30.7879
#
#
#
# Elastic Compliance Matrix: (Units=1/GPa)
#
#
# Indices 1 2 3 4 5 6 
#
# 1 0.049526 -0.001951 -0.000488 -0.015699 -0.006809 -0.011879
# 2 -0.001951 0.010337 -0.000941 -0.010301 0.012842 -0.006442
# 3 -0.000488 -0.000941 0.009435 -0.005445 0.006670 0.000053
# 4 -0.015699 -0.010301 -0.005445 0.048030 -0.028158 0.014310
# 5 -0.006809 0.012842 0.006670 -0.028158 0.079112 -0.014712
# 6 -0.011879 -0.006442 0.000053 0.014310 -0.014712 0.041040
#
#
# Mechanical properties :
#
#
# Convention : Reuss Voigt Hill
#
# Bulk Modulus (GPa) = 15.98992 52.99716 34.49354
# Shear Modulus (GPa) = 18.86180 35.04664 26.95422
#
# Velocity S-wave (km/s) = 2.90080 3.95412 3.46768
# Velocity P-wave (km/s) = 4.28403 6.67007 5.60548
#
# Compressibility (1/GPa) = 0.06253941
#
# Stress axis : x y z
#
# Youngs Moduli (GPa) = 20.19124 96.73768 105.98509
#
# Poissons Ratio (x) = 0.18870 0.05177
# Poissons Ratio (y) = 0.03939 0.09969
# Poissons Ratio (z) = 0.00986 0.09100
#
# Static dielectric constant tensor:
#      x y z
#    x 2.750090 -0.503600 -0.338450 
#    y -0.503600 2.224450 0.203860 
#    z -0.338450 0.203860 1.942290 
# 
# From -- ./inp_files/419849.got.cif
#   From: 2010.05.17/outbox.cif.g08.bks.cpg/sg2_210_cif.got.tgz:419849.got - 2010.06.03 11:33:40.
