data_PCOD9057470
_publ_section_title
;
Structure prediction by ZEFSAII (Michael W. Deem and Ramdas Pophale) SiO2 
 PCOD9057470
Probable space group: P -1
;
_chemical_formula_sum "Si O2"
_cell_formula_units_Z 16
_cell_length_a 9.471522
_cell_length_b 19.137189
_cell_length_c 11.426656
_cell_angle_alpha 52.743888
_cell_angle_beta 128.386617
_cell_angle_gamma 152.800362
_cell_volume 733.885530
_symmetry_space_group_name_H-M "P -1"
_symmetry_group_IT_number 2
_symmetry_cell_setting 'triclinic'
loop_
_space_group_symop_operation_xyz
x,y,z
-x,-y,-z
loop_
_atom_site_type_symbol
_atom_site_label
_atom_site_fract_x
_atom_site_fract_y
_atom_site_fract_z
Si Si1 0.583942 0.606378 0.082073
Si Si2 0.691708 0.653543 0.512852
Si Si3 0.423272 0.636814 0.203127
Si Si4 0.398543 0.881138 0.654537
Si Si5 0.747052 0.367098 0.252770
Si Si6 0.418058 0.340769 0.290456
Si Si7 0.149908 0.898734 0.932334
Si Si8 0.312031 0.085999 0.016494
O O1 0.501838 0.597927 0.182195
O O2 0.489607 0.468441 0.153548
O O3 0.397598 0.608675 0.916939
O O4 0.940139 0.762046 0.059752
O O5 0.500000 0.500000 0.500000
O O6 0.705058 0.736705 0.340015
O O7 0.558576 0.639934 0.577906
O O8 0.029970 0.750548 0.620200
O O9 0.103992 0.500222 0.253428
O O10 0.428469 0.733443 0.045835
O O11 0.421829 0.793458 0.697565
O O12 0.569006 0.941636 0.806482
O O13 0.500000 0.000000 0.500000
O O14 0.664613 0.367747 0.339918
O O15 0.069738 0.182431 0.214082
O O16 0.500000 0.000000 0.000000
O O17 0.215091 0.016717 0.908695
O O18 0.000000 0.000000 0.000000
#
# Coordination Sequence:
#
# PCOD9057470 Si02
#       8
#     2   2   2   2   2   2   2   2
#     4  11  22  42  71 103 141 182 240 301 351 425
#     4  12  25  46  67 103 145 191 233 293 358 435
#     4  12  24  42  74 105 138 186 246 292 351 426
#     4  12  26  45  73 105 146 191 239 292 356 427
#     4  11  23  42  71 107 139 185 242 300 354 418
#     4  11  25  45  69 104 149 181 240 298 363 423
#     4  11  24  40  64 102 141 183 229 289 357 416
#     4  12  24  45  71 105 141 185 246 293 350 429
#
# _framework density 21.801767000000002
#
# number of rings (size 3 to 8) (size 9 to 14) (size 15 to 20)
#    0.000    0.500    5.000    4.125    5.250    0.500 
#    0.000    3.750    0.000    0.000    0.000    0.000 
#    0.000    0.000    0.000    0.000    0.000    0.000 
#
# Total GULP energy -89293.983831 kJ/mol
# GULP energy per Si atom -5580.873989 kJ/mol
# Density = 2.175214 g / cm^3
# Si number density = 21.801767 Si / 1000 Ang^3
#
#
#
# Elastic Constant Matrix: (Units=GPa)
#
#
# Indices 1 2 3 4 5 6 
#
# 1 156.3683 40.5559 18.0068 7.3705 -16.9662 -3.0543
# 2 40.5559 78.4524 9.7996 9.1810 -2.3493 -1.0236
# 3 18.0068 9.7996 93.9612 5.8637 -5.1299 -5.8854
# 4 7.3705 9.1810 5.8637 31.7659 -6.4587 11.7103
# 5 -16.9662 -2.3493 -5.1299 -6.4587 36.8049 5.5623
# 6 -3.0543 -1.0236 -5.8854 11.7103 5.5623 47.5721
#
#
#
# Elastic Compliance Matrix: (Units=1/GPa)
#
#
# Indices 1 2 3 4 5 6 
#
# 1 0.007853 -0.003867 -0.000941 0.000185 0.003293 -0.000126
# 2 -0.003867 0.015280 -0.000608 -0.004244 -0.001828 0.001264
# 3 -0.000941 -0.000608 0.011163 -0.002251 0.000414 0.001813
# 4 0.000185 -0.004244 -0.002251 0.038672 0.007920 -0.010803
# 5 0.003293 -0.001828 0.000414 0.007920 0.030825 -0.005330
# 6 -0.000126 0.001264 0.001813 -0.010803 -0.005330 0.024547
#
#
# Mechanical properties :
#
#
# Convention : Reuss Voigt Hill
#
# Bulk Modulus (GPa) = 42.62000 51.72296 47.17148
# Shear Modulus (GPa) = 34.01529 40.58989 37.30259
#
# Velocity S-wave (km/s) = 3.95423 4.31951 4.14090
# Velocity P-wave (km/s) = 6.35919 6.97519 6.67430
#
# Compressibility (1/GPa) = 0.02346317
#
# Stress axis : x y z
#
# Youngs Moduli (GPa) = 127.34775 65.44584 89.58041
#
# Poissons Ratio (x) = 0.25305 0.08432
# Poissons Ratio (y) = 0.49239 0.05450
# Poissons Ratio (z) = 0.11987 0.03982
#
# Static dielectric constant tensor:
#      x y z
#    x 1.887210 -0.026700 -0.020300 
#    y -0.026700 1.844520 -0.021960 
#    z -0.020300 -0.021960 1.853740 
# 
# From -- ./inp_files/403048.got.cif
#   From: 2010.05.17/outbox.cif.g08.bks.cpg/sg2_202_cif.got.tgz:403048.got - 2010.06.03 11:33:40.
