data_PCOD9057591
_publ_section_title
;
Structure prediction by ZEFSAII (Michael W. Deem and Ramdas Pophale) SiO2 
 PCOD9057591
Probable space group: P -1
;
_chemical_formula_sum "Si O2"
_cell_formula_units_Z 16
_cell_length_a 8.939496
_cell_length_b 12.451147
_cell_length_c 19.157994
_cell_angle_alpha 44.978540
_cell_angle_beta 103.230203
_cell_angle_gamma 140.069951
_cell_volume 699.183782
_symmetry_space_group_name_H-M "P -1"
_symmetry_group_IT_number 2
_symmetry_cell_setting 'triclinic'
loop_
_space_group_symop_operation_xyz
x,y,z
-x,-y,-z
loop_
_atom_site_type_symbol
_atom_site_label
_atom_site_fract_x
_atom_site_fract_y
_atom_site_fract_z
Si Si1 0.612216 0.265512 0.870204
Si Si2 0.918296 0.149426 0.253925
Si Si3 0.226454 0.207845 0.155913
Si Si4 0.307179 0.269455 0.779528
Si Si5 0.219160 0.622613 0.404934
Si Si6 0.140750 0.229704 0.504694
Si Si7 0.856729 0.364688 0.346788
Si Si8 0.543538 0.375627 0.254997
O O1 0.317422 0.101314 0.879162
O O2 0.771564 0.494909 0.846078
O O3 0.913080 0.532735 0.725390
O O4 0.500000 0.000000 0.000000
O O5 0.019522 0.169222 0.181219
O O6 0.598423 0.973804 0.298847
O O7 0.845262 0.928674 0.389692
O O8 0.391162 0.270415 0.211119
O O9 0.500000 0.500000 0.000000
O O10 0.970740 0.902167 0.219784
O O11 0.625089 0.563915 0.630567
O O12 0.308999 0.352153 0.816254
O O13 0.209457 0.430954 0.472977
O O14 0.000000 0.500000 0.500000
O O15 0.071372 0.571723 0.343680
O O16 0.764750 0.928891 0.588413
O O17 0.789883 0.454758 0.252142
O O18 0.500000 0.000000 0.500000
#
# Coordination Sequence:
#
# PCOD9057591 Si02
#       8
#     2   2   2   2   2   2   2   2
#     4  12  27  48  75 104 152 206 244 312 383 453
#     4  11  25  48  75 111 148 195 255 309 372 451
#     4  11  26  46  75 103 144 192 259 307 358 445
#     4  12  24  47  78 106 144 197 249 309 379 445
#     4  12  25  41  74 117 156 190 240 317 389 446
#     4  11  22  42  78 109 146 187 248 308 376 445
#     4  12  25  45  70 108 156 191 248 310 383 447
#     4  11  26  43  73 111 143 192 247 311 370 443
#
# _framework density 22.883827
#
# number of rings (size 3 to 8) (size 9 to 14) (size 15 to 20)
#    0.000    0.500    6.250    1.500    7.000    1.500 
#    0.000    2.500    0.000    0.000    0.000    0.000 
#    0.000    0.000    0.000    0.000    0.000    0.000 
#
# Total GULP energy -89292.791251 kJ/mol
# GULP energy per Si atom -5580.799453 kJ/mol
# Density = 2.283174 g / cm^3
# Si number density = 22.883827 Si / 1000 Ang^3
#
#
#
# Elastic Constant Matrix: (Units=GPa)
#
#
# Indices 1 2 3 4 5 6 
#
# 1 66.7714 30.3652 13.9975 -13.6202 20.2281 38.5456
# 2 30.3652 129.9944 5.4393 -3.1586 30.4199 35.3343
# 3 13.9975 5.4393 73.1036 6.1092 13.0261 11.8825
# 4 -13.6202 -3.1586 6.1092 10.9972 9.9885 9.1866
# 5 20.2281 30.4199 13.0261 9.9885 26.7764 -10.5125
# 6 38.5456 35.3343 11.8825 9.1866 -10.5125 34.6963
#
#
#
# Elastic Compliance Matrix: (Units=1/GPa)
#
#
# Indices 1 2 3 4 5 6 
#
# 1 0.006554 -0.007728 -0.003727 -0.013296 0.014434 0.009760
# 2 -0.007728 0.008431 0.001236 -0.010274 0.000447 0.002432
# 3 -0.003727 0.001236 0.015900 -0.008590 -0.003670 -0.001401
# 4 -0.013296 -0.010274 -0.008590 0.026873 0.027399 0.029362
# 5 0.014434 0.000447 -0.003670 0.027399 0.009842 -0.019506
# 6 0.009760 0.002432 -0.001401 0.029362 -0.019506 0.002297
#
#
# Mechanical properties :
#
#
# Convention : Reuss Voigt Hill
#
# Bulk Modulus (GPa) = 95.72728 41.05261 68.38995
# Shear Modulus (GPa) = 53.29501 29.16514 41.23008
#
# Velocity S-wave (km/s) = 4.83114 3.57387 4.24926
# Velocity P-wave (km/s) = 8.54650 5.91680 7.35021
#
# Compressibility (1/GPa) = 0.01044634
#
# Stress axis : x y z
#
# Youngs Moduli (GPa) = 152.58961 118.61134 62.89139
#
# Poissons Ratio (x) = 0.91668 0.23440
# Poissons Ratio (y) = 1.17928 -0.07775
# Poissons Ratio (z) = 0.56870 -0.14663
#
# Static dielectric constant tensor:
#      x y z
#    x 1.931450 0.002090 0.075130 
#    y 0.002090 2.016060 0.005880 
#    z 0.075130 0.005880 1.897440 
# 
# From -- ./inp_files/559787.got.cif
#   From: 2010.05.17/outbox.cif.g08.bks.cpg/sg2_280_cif.got.tgz:559787.got - 2010.06.03 11:33:40.
