data_PCOD9057542
_publ_section_title
;
Structure prediction by ZEFSAII (Michael W. Deem and Ramdas Pophale) SiO2 
 PCOD9057542
Probable space group: P -1
;
_chemical_formula_sum "Si O2"
_cell_formula_units_Z 16
_cell_length_a 16.489303
_cell_length_b 11.081715
_cell_length_c 12.853514
_cell_angle_alpha 123.198461
_cell_angle_beta 144.823063
_cell_angle_gamma 33.229301
_cell_volume 668.954784
_symmetry_space_group_name_H-M "P -1"
_symmetry_group_IT_number 2
_symmetry_cell_setting 'triclinic'
loop_
_space_group_symop_operation_xyz
x,y,z
-x,-y,-z
loop_
_atom_site_type_symbol
_atom_site_label
_atom_site_fract_x
_atom_site_fract_y
_atom_site_fract_z
Si Si1 0.050630 0.601865 0.971122
Si Si2 0.772930 0.233952 0.140615
Si Si3 0.096090 0.454167 0.464662
Si Si4 0.507216 0.321501 0.422172
Si Si5 0.932726 0.850432 0.770499
Si Si6 0.695589 0.894836 0.075248
Si Si7 0.378773 0.951296 0.154059
Si Si8 0.164401 0.035643 0.595948
O O1 0.126677 0.386260 0.898581
O O2 0.045866 0.745133 0.954641
O O3 0.783073 0.814587 0.833729
O O4 0.241077 0.480040 0.204545
O O5 0.886584 0.233407 0.164743
O O6 0.940451 0.130721 0.366433
O O7 0.500000 0.500000 0.000000
O O8 0.773002 0.067999 0.029560
O O9 0.104847 0.287881 0.350564
O O10 0.000000 0.500000 0.500000
O O11 0.923250 0.725116 0.376949
O O12 0.358994 0.299957 0.650133
O O13 0.500000 0.500000 0.500000
O O14 0.676310 0.132298 0.606127
O O15 0.639280 0.158044 0.377200
O O16 0.740002 0.029264 0.217678
O O17 0.576328 0.012744 0.892294
O O18 0.500000 0.000000 0.000000
#
# Coordination Sequence:
#
# PCOD9057542 Si02
#       8
#     2   2   2   2   2   2   2   2
#     4  12  26  48  73 114 149 192 252 314 379 439
#     4  11  23  42  69 109 148 189 246 306 369 444
#     4  12  20  43  76 105 138 191 255 306 361 439
#     4  11  24  43  70 107 153 194 241 296 372 453
#     4  11  25  44  78 104 146 203 247 296 381 447
#     4  12  25  45  75 107 142 196 254 307 372 446
#     4  12  28  45  71 109 157 190 243 321 374 442
#     4  11  22  42  73 106 141 193 250 302 363 447
#
# _framework density 23.917908000000001
#
# number of rings (size 3 to 8) (size 9 to 14) (size 15 to 20)
#    0.000    0.500    6.250    3.375    1.750    3.000 
#    2.250    2.500    0.000    0.000    0.000    0.000 
#    0.000    0.000    0.000    0.000    0.000    0.000 
#
# Total GULP energy -89281.740255 kJ/mol
# GULP energy per Si atom -5580.108766 kJ/mol
# Density = 2.386347 g / cm^3
# Si number density = 23.917908 Si / 1000 Ang^3
#
#
#
# Elastic Constant Matrix: (Units=GPa)
#
#
# Indices 1 2 3 4 5 6 
#
# 1 67.0916 12.0966 13.6825 1.3584 8.0183 -2.1303
# 2 12.0966 133.3123 32.7128 4.8560 6.8934 -9.2215
# 3 13.6825 32.7128 107.9314 -6.4203 22.9772 -10.7676
# 4 1.3584 4.8560 -6.4203 47.4593 2.5243 9.4748
# 5 8.0183 6.8934 22.9772 2.5243 23.3396 -2.6112
# 6 -2.1303 -9.2215 -10.7676 9.4748 -2.6112 41.9395
#
#
#
# Elastic Compliance Matrix: (Units=1/GPa)
#
#
# Indices 1 2 3 4 5 6 
#
# 1 0.015769 -0.000996 -0.000778 -0.000260 -0.004310 0.000173
# 2 -0.000996 0.008324 -0.002472 -0.001496 0.000649 0.001524
# 3 -0.000778 -0.002472 0.012913 0.002358 -0.011806 0.001464
# 4 -0.000260 -0.001496 0.002358 0.022846 -0.004842 -0.005200
# 5 -0.004310 0.000649 -0.011806 -0.004842 0.056449 0.001501
# 6 0.000173 0.001524 0.001464 -0.005200 0.001501 0.025832
#
#
# Mechanical properties :
#
#
# Convention : Reuss Voigt Hill
#
# Bulk Modulus (GPa) = 35.06955 47.25766 41.16361
# Shear Modulus (GPa) = 31.22483 39.20391 35.21437
#
# Velocity S-wave (km/s) = 3.61709 4.05298 3.84122
# Velocity P-wave (km/s) = 5.66911 6.45781 6.07627
#
# Compressibility (1/GPa) = 0.02851476
#
# Stress axis : x y z
#
# Youngs Moduli (GPa) = 63.41549 120.12791 77.44304
#
# Poissons Ratio (x) = 0.11961 0.06025
# Poissons Ratio (y) = 0.06314 0.19145
# Poissons Ratio (z) = 0.04933 0.29697
#
# Static dielectric constant tensor:
#      x y z
#    x 1.812740 0.008290 -0.008160 
#    y 0.008290 1.889800 0.030190 
#    z -0.008160 0.030190 1.888810 
# 
# From -- ./inp_files/514884.got.cif
#   From: 2010.05.17/outbox.cif.g08.bks.cpg/sg2_258_cif.got.tgz:514884.got - 2010.06.03 11:33:40.
