data_PCOD9057953
_publ_section_title
;
Structure prediction by ZEFSAII (Michael W. Deem and Ramdas Pophale) SiO2 
 PCOD9057953
Probable space group: P -1
;
_chemical_formula_sum "Si O2"
_cell_formula_units_Z 16
_cell_length_a 9.966685
_cell_length_b 12.827444
_cell_length_c 15.101169
_cell_angle_alpha 46.551351
_cell_angle_beta 101.909544
_cell_angle_gamma 64.415897
_cell_volume 808.617650
_symmetry_space_group_name_H-M "P -1"
_symmetry_group_IT_number 2
_symmetry_cell_setting 'triclinic'
loop_
_space_group_symop_operation_xyz
x,y,z
-x,-y,-z
loop_
_atom_site_type_symbol
_atom_site_label
_atom_site_fract_x
_atom_site_fract_y
_atom_site_fract_z
Si Si1 0.294067 0.616117 0.586278
Si Si2 0.219171 0.901945 0.119452
Si Si3 0.302622 0.487759 0.036316
Si Si4 0.185944 0.003950 0.258576
Si Si5 0.571378 0.914785 0.792913
Si Si6 0.968641 0.629782 0.505486
Si Si7 0.254583 0.715907 0.718450
Si Si8 0.277309 0.177857 0.930398
O O1 0.539762 0.369766 0.720836
O O2 0.311858 0.583227 0.713578
O O3 0.101601 0.668902 0.490932
O O4 0.229739 0.835456 0.429408
O O5 0.219018 0.912464 0.218899
O O6 0.200353 0.078164 0.975778
O O7 0.000000 0.000000 0.000000
O O8 0.262310 0.606974 0.868707
O O9 0.075286 0.715457 0.929866
O O10 0.328265 0.299777 0.125474
O O11 0.539753 0.343663 0.198637
O O12 0.361781 0.989430 0.297810
O O13 0.298170 0.124367 0.649413
O O14 0.671746 0.831406 0.955108
O O15 0.000000 0.500000 0.500000
O O16 0.090335 0.443281 0.710888
O O17 0.000000 0.000000 0.500000
O O18 0.500000 0.000000 0.000000
#
# Coordination Sequence:
#
# PCOD9057953 Si02
#       8
#     2   2   2   2   2   2   2   2
#     4  12  24  43  69  99 136 171 223 279 329 393
#     4  11  25  40  67  95 133 178 217 267 339 396
#     4  11  24  44  72  93 134 179 224 271 328 393
#     4  11  25  45  63  98 138 174 219 272 334 398
#     4  11  25  43  67  96 133 177 220 269 333 391
#     4  12  24  40  69  99 131 172 221 273 330 388
#     4  11  23  43  68 103 128 170 228 276 322 384
#     4  11  22  44  62  97 131 168 221 271 319 395
#
# _framework density 19.786857000000001
#
# number of rings (size 3 to 8) (size 9 to 14) (size 15 to 20)
#    0.000    0.750    3.750    3.750    5.250    0.000 
#    0.000    0.625    0.000    0.000    0.000    0.000 
#    0.000    0.000    0.000    0.000    0.000    0.000 
#
# Total GULP energy -89472.498872 kJ/mol
# GULP energy per Si atom -5592.031179 kJ/mol
# Density = 1.974182 g / cm^3
# Si number density = 19.786857 Si / 1000 Ang^3
#
#
#
# Elastic Constant Matrix: (Units=GPa)
#
#
# Indices 1 2 3 4 5 6 
#
# 1 113.5965 28.8608 49.8237 3.3599 23.5305 15.1003
# 2 28.8608 120.7469 31.9110 -14.1465 20.7858 1.1001
# 3 49.8237 31.9110 106.1857 -19.4464 16.9207 5.9891
# 4 3.3599 -14.1465 -19.4464 33.9530 -6.6882 3.1900
# 5 23.5305 20.7858 16.9207 -6.6882 36.4799 -0.6348
# 6 15.1003 1.1001 5.9891 3.1900 -0.6348 35.3439
#
#
#
# Elastic Compliance Matrix: (Units=1/GPa)
#
#
# Indices 1 2 3 4 5 6 
#
# 1 0.013906 -0.001285 -0.005962 -0.006226 -0.006691 -0.004449
# 2 -0.001285 0.009888 -0.001279 0.002772 -0.003701 0.000141
# 3 -0.005962 -0.001279 0.014207 0.008142 -0.000533 -0.000565
# 4 -0.006226 0.002772 0.008142 0.037151 0.005435 -0.002061
# 5 -0.006691 -0.003701 -0.000533 0.005435 0.035136 0.003205
# 6 -0.004449 0.000141 -0.000565 -0.002061 0.003205 0.030529
#
#
# Mechanical properties :
#
#
# Convention : Reuss Voigt Hill
#
# Bulk Modulus (GPa) = 47.73561 62.41334 55.07447
# Shear Modulus (GPa) = 30.33021 36.48427 33.40724
#
# Velocity S-wave (km/s) = 3.91941 4.29868 4.11342
# Velocity P-wave (km/s) = 6.68278 7.49997 7.10314
#
# Compressibility (1/GPa) = 0.02094872
#
# Stress axis : x y z
#
# Youngs Moduli (GPa) = 71.91121 101.13726 70.38799
#
# Poissons Ratio (x) = 0.12999 0.41963
# Poissons Ratio (y) = 0.09243 0.09002
# Poissons Ratio (z) = 0.42871 0.12934
#
# Static dielectric constant tensor:
#      x y z
#    x 1.670900 0.013430 -0.006050 
#    y 0.013430 1.677370 -0.010330 
#    z -0.006050 -0.010330 1.649100 
# 
# From -- ./inp_files/428719.got.cif
#   From: 2010.05.17/outbox.cif.g08.bks.cpg/sg2_215_cif.got.tgz:428719.got - 2010.06.03 11:33:40.
