data_PCOD9057625
_publ_section_title
;
Structure prediction by ZEFSAII (Michael W. Deem and Ramdas Pophale) SiO2 
 PCOD9057625
Probable space group: P -1
;
_chemical_formula_sum "Si O2"
_cell_formula_units_Z 15
_cell_length_a 17.010319
_cell_length_b 11.794469
_cell_length_c 9.080042
_cell_angle_alpha 80.117016
_cell_angle_beta 63.142850
_cell_angle_gamma 135.622849
_cell_volume 693.048027
_symmetry_space_group_name_H-M "P -1"
_symmetry_group_IT_number 2
_symmetry_cell_setting 'triclinic'
loop_
_space_group_symop_operation_xyz
x,y,z
-x,-y,-z
loop_
_atom_site_type_symbol
_atom_site_label
_atom_site_fract_x
_atom_site_fract_y
_atom_site_fract_z
Si Si1 0.359950 0.694969 0.474719
Si Si2 0.792415 0.521097 0.809485
Si Si3 0.166533 0.963058 0.178596
Si Si4 0.196903 0.834963 0.913574
Si Si5 0.076255 0.145488 0.753169
Si Si6 0.095148 0.462874 0.004446
Si Si7 0.403701 0.491318 0.173511
Si Si8 0.500000 0.000000 0.000000
O O1 0.214226 0.417354 0.621050
O O2 0.248487 0.645817 0.696181
O O3 0.415643 0.824442 0.249225
O O4 0.562643 0.889243 0.338431
O O5 0.696249 0.529812 0.842103
O O6 0.008413 0.761177 0.489814
O O7 0.838230 0.556122 0.934587
O O8 0.639929 0.243611 0.942222
O O9 0.112500 0.023434 0.140665
O O10 0.124275 0.818998 0.121126
O O11 0.399427 0.225537 0.972066
O O12 0.107499 0.600665 0.042348
O O13 0.120560 0.803899 0.834698
O O14 0.225427 0.249965 0.495033
O O15 0.000000 0.000000 0.000000
O O16 0.500000 0.500000 0.000000
#
# Coordination Sequence:
#
# PCOD9057625 Si02
#       8
#     2   2   2   2   2   2   2   1
#     4  12  23  46  70 103 148 188 240 295 368 428
#     4  11  25  44  72 108 147 194 233 310 366 429
#     4  11  23  48  72 103 143 191 247 293 368 438
#     4  11  22  43  66 104 145 184 234 288 360 443
#     4  11  25  47  75 103 146 192 244 311 364 427
#     4  11  25  41  67 110 151 182 233 303 358 437
#     4  11  26  50  74 106 143 192 257 303 359 438
#     4  12  20  44  74 102 142 194 234 284 376 432
#
# _framework density 21.643523999999999
#
# number of rings (size 3 to 8) (size 9 to 14) (size 15 to 20)
#    0.000    0.800    6.667    0.400    0.000    6.400 
#    9.600    0.000    0.000    0.000    0.000    0.000 
#    0.000    0.000    0.000    0.000    0.000    0.000 
#
# Total GULP energy -83629.884001 kJ/mol
# GULP energy per Si atom -5575.325600 kJ/mol
# Density = 2.159426 g / cm^3
# Si number density = 21.643524 Si / 1000 Ang^3
#
#
#
# Elastic Constant Matrix: (Units=GPa)
#
#
# Indices 1 2 3 4 5 6 
#
# 1 111.0694 44.4163 80.7796 8.4655 3.9830 27.4967
# 2 44.4163 76.0292 31.8737 21.1383 0.2820 17.6026
# 3 80.7796 31.8737 108.4423 9.9414 8.5726 -2.6674
# 4 8.4655 21.1383 9.9414 31.1238 -3.2620 -7.7044
# 5 3.9830 0.2820 8.5726 -3.2620 50.3851 2.2650
# 6 27.4967 17.6026 -2.6674 -7.7044 2.2650 40.7811
#
#
#
# Elastic Compliance Matrix: (Units=1/GPa)
#
#
# Indices 1 2 3 4 5 6 
#
# 1 0.036077 -0.002118 -0.026529 -0.006190 0.002462 -0.026452
# 2 -0.002118 0.023823 -0.004155 -0.017330 0.000177 -0.012410
# 3 -0.026529 -0.004155 0.030555 0.005563 -0.003749 0.022939
# 4 -0.006190 -0.017330 0.005563 0.049256 0.001875 0.021219
# 5 0.002462 0.000177 -0.003749 0.001875 0.020535 -0.002768
# 6 -0.026452 -0.012410 0.022939 0.021219 -0.002768 0.053376
#
#
# Mechanical properties :
#
#
# Convention : Reuss Voigt Hill
#
# Bulk Modulus (GPa) = 40.24039 67.74224 53.99131
# Shear Modulus (GPa) = 17.39069 33.68940 25.54004
#
# Velocity S-wave (km/s) = 2.83769 3.94960 3.43889
# Velocity P-wave (km/s) = 5.41935 7.22262 6.38497
#
# Compressibility (1/GPa) = 0.02485065
#
# Stress axis : x y z
#
# Youngs Moduli (GPa) = 27.71847 41.97637 32.72758
#
# Poissons Ratio (x) = 0.08891 0.86824
# Poissons Ratio (y) = 0.05871 0.13598
# Poissons Ratio (z) = 0.73535 0.17440
#
# Static dielectric constant tensor:
#      x y z
#    x 1.804650 -0.000670 -0.034170 
#    y -0.000670 1.840390 0.006390 
#    z -0.034170 0.006390 1.770500 
# 
# From -- ./inp_files/304964.got.cif
#   From: 2010.05.17/outbox.cif.g08.bks.cpg/sg2_153_cif.got.tgz:304964.got - 2010.06.03 11:33:40.
