data_PCOD9057678
_publ_section_title
;
Structure prediction by ZEFSAII (Michael W. Deem and Ramdas Pophale) SiO2 
 PCOD9057678
Probable space group: P -1
;
_chemical_formula_sum "Si O2"
_cell_formula_units_Z 14
_cell_length_a 5.295976
_cell_length_b 11.177038
_cell_length_c 9.653428
_cell_angle_alpha 95.801659
_cell_angle_beta 80.230643
_cell_angle_gamma 77.745447
_cell_volume 544.695819
_symmetry_space_group_name_H-M "P -1"
_symmetry_group_IT_number 2
_symmetry_cell_setting 'triclinic'
loop_
_space_group_symop_operation_xyz
x,y,z
-x,-y,-z
loop_
_atom_site_type_symbol
_atom_site_label
_atom_site_fract_x
_atom_site_fract_y
_atom_site_fract_z
Si Si1 0.050932 0.842126 0.345140
Si Si2 0.789413 0.075582 0.918910
Si Si3 0.710734 0.503273 0.101671
Si Si4 0.321866 0.413871 0.317488
Si Si5 0.202268 0.370973 0.631983
Si Si6 0.670272 0.090960 0.438941
Si Si7 0.389744 0.161432 0.192153
O O1 0.119644 0.826384 0.176512
O O2 0.275410 0.818434 0.437058
O O3 0.846817 0.764420 0.398449
O O4 0.937589 0.989312 0.373190
O O5 0.700566 0.966632 0.829807
O O6 0.548934 0.156582 0.035889
O O7 0.000000 0.000000 0.000000
O O8 0.599535 0.413784 0.214767
O O9 0.677245 0.616851 0.226847
O O10 0.500000 0.500000 0.000000
O O11 0.000000 0.500000 0.000000
O O12 0.336454 0.403241 0.482184
O O13 0.214615 0.298178 0.250868
O O14 0.091265 0.536073 0.324346
O O15 0.572597 0.147543 0.308704
O O16 0.500000 0.000000 0.500000
#
# Coordination Sequence:
#
# PCOD9057678 Si02
#       7
#     2   2   2   2   2   2   2
#     4  11  25  43  75 107 150 196 262 322 395 477
#     4  11  24  44  69 109 150 200 251 325 402 469
#     4  12  27  54  80 115 158 211 271 332 403 474
#     4  11  27  50  79 113 162 209 270 330 400 477
#     4  11  27  50  79 117 159 216 267 330 401 483
#     4  11  22  43  68 105 148 195 250 323 391 464
#     4  11  25  44  72 107 149 200 258 322 401 474
#
# _framework density 25.702418000000002
#
# number of rings (size 3 to 8) (size 9 to 14) (size 15 to 20)
#    0.000    0.857    4.286    1.286    4.000    6.857 
#    0.000    0.000    0.000    0.000    0.000    0.000 
#    0.000    0.000    0.000    0.000    0.000    0.000 
#
# Total GULP energy -78110.430777 kJ/mol
# GULP energy per Si atom -5579.316484 kJ/mol
# Density = 2.564392 g / cm^3
# Si number density = 25.702418 Si / 1000 Ang^3
#
#
#
# Elastic Constant Matrix: (Units=GPa)
#
#
# Indices 1 2 3 4 5 6 
#
# 1 112.5314 16.3764 75.7669 -7.9905 9.2856 15.0687
# 2 16.3764 76.4593 38.1911 12.1249 4.8518 -4.2070
# 3 75.7669 38.1911 177.4508 -17.9569 -12.7364 22.7749
# 4 -7.9905 12.1249 -17.9569 55.5561 9.7768 -5.7415
# 5 9.2856 4.8518 -12.7364 9.7768 56.2094 -2.0657
# 6 15.0687 -4.2070 22.7749 -5.7415 -2.0657 36.8538
#
#
#
# Elastic Compliance Matrix: (Units=1/GPa)
#
#
# Indices 1 2 3 4 5 6 
#
# 1 0.013280 -0.000011 -0.005608 0.000523 -0.003631 -0.002088
# 2 -0.000011 0.016377 -0.004579 -0.004377 -0.001543 0.003935
# 3 -0.005608 -0.004579 0.009976 0.002491 0.003008 -0.003838
# 4 0.000523 -0.004377 0.002491 0.020384 -0.002661 0.000773
# 5 -0.003631 -0.001543 0.003008 -0.002661 0.019673 0.000138
# 6 -0.002088 0.003935 -0.003838 0.000773 0.000138 0.030937
#
#
# Mechanical properties :
#
#
# Convention : Reuss Voigt Hill
#
# Bulk Modulus (GPa) = 51.98033 69.67890 60.82962
# Shear Modulus (GPa) = 36.38123 45.46434 40.92279
#
# Velocity S-wave (km/s) = 3.76637 4.21036 3.99454
# Velocity P-wave (km/s) = 6.25954 7.12776 6.70771
#
# Compressibility (1/GPa) = 0.01923805
#
# Stress axis : x y z
#
# Youngs Moduli (GPa) = 75.30197 61.06159 100.24410
#
# Poissons Ratio (x) = 0.00066 0.56213
# Poissons Ratio (y) = 0.00081 0.45900
# Poissons Ratio (z) = 0.42226 0.27959
#
# Static dielectric constant tensor:
#      x y z
#    x 2.102450 -0.059720 -0.018530 
#    y -0.059720 2.087660 -0.049060 
#    z -0.018530 -0.049060 2.206490 
# 
# From -- ./inp_files/131738.got.cif
#   From: 2010.05.17/outbox.cif.g08.bks.cpg/sg2_66_cif.got.tgz:131738.got - 2010.06.03 11:33:40.
