data_PCOD9057324
_publ_section_title
;
Structure prediction by ZEFSAII (Michael W. Deem and Ramdas Pophale) SiO2 
 PCOD9057324
Probable space group: P -1
;
_chemical_formula_sum "Si O2"
_cell_formula_units_Z 16
_cell_length_a 6.770155
_cell_length_b 12.255714
_cell_length_c 15.841714
_cell_angle_alpha 129.634990
_cell_angle_beta 121.274531
_cell_angle_gamma 85.211776
_cell_volume 801.593178
_symmetry_space_group_name_H-M "P -1"
_symmetry_group_IT_number 2
_symmetry_cell_setting 'triclinic'
loop_
_space_group_symop_operation_xyz
x,y,z
-x,-y,-z
loop_
_atom_site_type_symbol
_atom_site_label
_atom_site_fract_x
_atom_site_fract_y
_atom_site_fract_z
Si Si1 0.341833 0.106957 0.844154
Si Si2 0.520701 0.326988 0.659290
Si Si3 0.919918 0.337485 0.614576
Si Si4 0.766691 0.845338 0.347573
Si Si5 0.159586 0.663391 0.737432
Si Si6 0.981140 0.227640 0.406732
Si Si7 0.681943 0.676993 0.904963
Si Si8 0.115559 0.872190 0.977538
O O1 0.323833 0.148138 0.763205
O O2 0.597628 0.080127 0.905990
O O3 0.114161 0.946524 0.730772
O O4 0.322317 0.238077 0.966111
O O5 0.715268 0.321317 0.630475
O O6 0.452569 0.198000 0.653045
O O7 0.619336 0.496079 0.805310
O O8 0.262642 0.293204 0.535032
O O9 0.825264 0.231056 0.458272
O O10 0.127271 0.288722 0.681730
O O11 0.035273 0.505514 0.682776
O O12 0.000000 0.000000 0.500000
O O13 0.053515 0.670029 0.625317
O O14 0.452753 0.696368 0.812606
O O15 0.111253 0.788002 0.846541
O O16 0.936910 0.757672 0.950506
O O17 0.000000 0.000000 0.000000
#
# Coordination Sequence:
#
# PCOD9057324 Si02
#       8
#     2   2   2   2   2   2   2   2
#     4  11  25  45  70  99 134 180 224 276 342 402
#     4  11  24  42  68 101 133 177 227 282 336 394
#     4  11  23  41  68  98 134 171 222 282 334 394
#     4  11  23  49  69  97 136 177 224 285 338 398
#     4  11  22  42  67  98 138 179 219 281 337 397
#     4  11  23  42  67  99 136 177 228 276 341 393
#     4  11  23  43  67  96 138 174 222 276 338 401
#     4  11  24  43  67 101 140 178 226 271 335 409
#
# _framework density 19.960249999999998
#
# number of rings (size 3 to 8) (size 9 to 14) (size 15 to 20)
#    0.000    1.000    6.250    1.875    0.000    7.500 
#    0.000    1.250    0.000    0.000    0.000    0.000 
#    0.000    0.000    0.000    0.000    0.000    0.000 
#
# Total GULP energy -89354.241181 kJ/mol
# GULP energy per Si atom -5584.640074 kJ/mol
# Density = 1.991482 g / cm^3
# Si number density = 19.960250 Si / 1000 Ang^3
#
#
#
# Elastic Constant Matrix: (Units=GPa)
#
#
# Indices 1 2 3 4 5 6 
#
# 1 85.4045 12.5986 24.2857 0.3201 -14.1081 10.0915
# 2 12.5986 108.8785 35.8478 -13.0187 -6.2853 10.3436
# 3 24.2857 35.8478 91.3597 -6.1132 1.8208 7.1518
# 4 0.3201 -13.0187 -6.1132 37.3028 8.0038 2.4655
# 5 -14.1081 -6.2853 1.8208 8.0038 17.2817 2.2171
# 6 10.0915 10.3436 7.1518 2.4655 2.2171 19.4336
#
#
#
# Elastic Compliance Matrix: (Units=1/GPa)
#
#
# Indices 1 2 3 4 5 6 
#
# 1 0.016916 0.001058 -0.004799 -0.003736 0.017600 -0.009115
# 2 0.001058 0.011674 -0.004308 0.002666 0.005111 -0.006099
# 3 -0.004799 -0.004308 0.014239 0.002625 -0.008220 0.000149
# 4 -0.003736 0.002666 0.002625 0.031984 -0.016839 -0.002581
# 5 0.017600 0.005111 -0.008220 -0.016839 0.084858 -0.016380
# 6 -0.009115 -0.006099 0.000149 -0.002581 -0.016380 0.061578
#
#
# Mechanical properties :
#
#
# Convention : Reuss Voigt Hill
#
# Bulk Modulus (GPa) = 37.40946 47.90076 42.65511
# Shear Modulus (GPa) = 20.30403 28.99765 24.65084
#
# Velocity S-wave (km/s) = 3.19285 3.81566 3.51806
# Velocity P-wave (km/s) = 5.68991 6.59261 6.15782
#
# Compressibility (1/GPa) = 0.02673120
#
# Stress axis : x y z
#
# Youngs Moduli (GPa) = 59.11585 85.66327 70.22721
#
# Poissons Ratio (x) = -0.09062 0.33702
# Poissons Ratio (y) = -0.06253 0.30252
# Poissons Ratio (z) = 0.28369 0.36902
#
# Static dielectric constant tensor:
#      x y z
#    x 1.715940 0.008200 -0.010450 
#    y 0.008200 1.708120 0.040110 
#    z -0.010450 0.040110 1.712830 
# 
# From -- ./inp_files/483067.got.cif
#   From: 2010.05.17/outbox.cif.g08.bks.cpg/sg2_242_cif.got.tgz:483067.got - 2010.06.03 11:33:40.
