data_PCOD9057394
_publ_section_title
;
Structure prediction by ZEFSAII (Michael W. Deem and Ramdas Pophale) SiO2 
 PCOD9057394
Probable space group: P -1
;
_chemical_formula_sum "Si O2"
_cell_formula_units_Z 16
_cell_length_a 10.417135
_cell_length_b 12.159172
_cell_length_c 8.263157
_cell_angle_alpha 67.389888
_cell_angle_beta 96.897752
_cell_angle_gamma 58.365137
_cell_volume 750.544280
_symmetry_space_group_name_H-M "P -1"
_symmetry_group_IT_number 2
_symmetry_cell_setting 'triclinic'
loop_
_space_group_symop_operation_xyz
x,y,z
-x,-y,-z
loop_
_atom_site_type_symbol
_atom_site_label
_atom_site_fract_x
_atom_site_fract_y
_atom_site_fract_z
Si Si1 0.657615 0.744407 0.970177
Si Si2 0.129425 0.330333 0.683222
Si Si3 0.876998 0.919531 0.324087
Si Si4 0.582466 0.109478 0.416265
Si Si5 0.267410 0.834837 0.108996
Si Si6 0.497900 0.915792 0.226474
Si Si7 0.460911 0.452963 0.853631
Si Si8 0.776964 0.225261 0.508617
O O1 0.596875 0.774414 0.759414
O O2 0.553552 0.919124 0.921397
O O3 0.834839 0.669036 0.120125
O O4 0.605883 0.642181 0.074217
O O5 0.081357 0.223030 0.691877
O O6 0.313099 0.234565 0.684791
O O7 0.000000 0.500000 0.500000
O O8 0.039749 0.859196 0.484052
O O9 0.719085 0.984313 0.378761
O O10 0.833900 0.050972 0.119660
O O11 0.554047 0.057406 0.607166
O O12 0.666958 0.186386 0.431743
O O13 0.381718 0.881175 0.151556
O O14 0.370393 0.666132 0.148655
O O15 0.195325 0.828561 0.270193
O O16 0.330434 0.596295 0.641488
O O17 0.500000 0.500000 0.000000
#
# Coordination Sequence:
#
# PCOD9057394 Si02
#       8
#     2   2   2   2   2   2   2   2
#     4  12  21  43  68  92 128 168 222 266 309 396
#     4  12  24  40  65  97 131 169 209 271 332 378
#     4  12  22  42  64  96 131 171 214 265 331 380
#     4  11  23  40  72  94 126 170 223 270 310 387
#     4  11  22  42  69  93 127 172 227 264 308 394
#     4  11  22  42  71  99 120 170 229 263 314 383
#     4  12  22  40  62  94 131 171 212 259 328 382
#     4  11  25  40  63  99 131 168 216 270 326 376
#
# _framework density 21.317862999999999
#
# number of rings (size 3 to 8) (size 9 to 14) (size 15 to 20)
#    0.000    0.500    6.250    2.625    0.000    0.000 
#    0.000    0.625    2.750    0.000    0.000    0.000 
#    0.000    0.000    0.000    0.000    0.000    0.000 
#
# Total GULP energy -89211.735437 kJ/mol
# GULP energy per Si atom -5575.733465 kJ/mol
# Density = 2.126934 g / cm^3
# Si number density = 21.317863 Si / 1000 Ang^3
#
#
#
# Elastic Constant Matrix: (Units=GPa)
#
#
# Indices 1 2 3 4 5 6 
#
# 1 64.6567 22.4048 39.5368 -13.1705 0.3465 5.2283
# 2 22.4048 86.4797 47.7720 -7.0206 4.0821 6.7547
# 3 39.5368 47.7720 125.6473 -25.9831 11.8491 -9.6557
# 4 -13.1705 -7.0206 -25.9831 41.1862 4.0545 5.1429
# 5 0.3465 4.0821 11.8491 4.0545 32.9295 -3.9465
# 6 5.2283 6.7547 -9.6557 5.1429 -3.9465 24.1968
#
#
#
# Elastic Compliance Matrix: (Units=1/GPa)
#
#
# Indices 1 2 3 4 5 6 
#
# 1 0.020851 -0.001303 -0.005968 0.003492 0.000804 -0.007134
# 2 -0.001303 0.015803 -0.006228 -0.000801 -0.000386 -0.006508
# 3 -0.005968 -0.006228 0.014282 0.005594 -0.004171 0.006858
# 4 0.003492 -0.000801 0.005594 0.030131 -0.006348 -0.005738
# 5 0.000804 -0.000386 -0.004171 -0.006348 0.033295 0.005049
# 6 -0.007134 -0.006508 0.006858 -0.005738 0.005049 0.049466
#
#
# Mechanical properties :
#
#
# Convention : Reuss Voigt Hill
#
# Bulk Modulus (GPa) = 41.77287 55.13455 48.45371
# Shear Modulus (GPa) = 25.15063 30.80051 27.97557
#
# Velocity S-wave (km/s) = 3.43854 3.80520 3.62651
# Velocity P-wave (km/s) = 5.95000 6.72498 6.34932
#
# Compressibility (1/GPa) = 0.02393898
#
# Stress axis : x y z
#
# Youngs Moduli (GPa) = 47.95980 63.28057 70.01990
#
# Poissons Ratio (x) = 0.08243 0.41785
# Poissons Ratio (y) = 0.06247 0.43607
# Poissons Ratio (z) = 0.28621 0.39410
#
# Static dielectric constant tensor:
#      x y z
#    x 1.797330 0.002910 0.012710 
#    y 0.002910 1.811190 0.064400 
#    z 0.012710 0.064400 1.819670 
# 
# From -- ./inp_files/188410.got.cif
#   From: 2010.05.17/outbox.cif.g08.bks.cpg/sg2_95_cif.got.tgz:188410.got - 2010.06.03 11:33:40.
