data_PCOD9057264
_publ_section_title
;
Structure prediction by ZEFSAII (Michael W. Deem and Ramdas Pophale) SiO2 
 PCOD9057264
Probable space group: P -1
;
_chemical_formula_sum "Si O2"
_cell_formula_units_Z 16
_cell_length_a 10.601582
_cell_length_b 14.495460
_cell_length_c 7.449671
_cell_angle_alpha 81.553997
_cell_angle_beta 39.279435
_cell_angle_gamma 76.320197
_cell_volume 703.013258
_symmetry_space_group_name_H-M "P -1"
_symmetry_group_IT_number 2
_symmetry_cell_setting 'triclinic'
loop_
_space_group_symop_operation_xyz
x,y,z
-x,-y,-z
loop_
_atom_site_type_symbol
_atom_site_label
_atom_site_fract_x
_atom_site_fract_y
_atom_site_fract_z
Si Si1 0.952000 0.407357 0.673180
Si Si2 0.682994 0.366814 0.670605
Si Si3 0.578977 0.756207 0.529227
Si Si4 0.441246 0.554443 0.730535
Si Si5 0.671483 0.738224 0.808956
Si Si6 0.932509 0.763532 0.863850
Si Si7 0.987258 0.024869 0.295979
Si Si8 0.323361 0.944762 0.661802
O O1 0.802302 0.359834 0.728194
O O2 0.000000 0.500000 0.500000
O O3 0.165140 0.337491 0.462954
O O4 0.801794 0.437573 0.992660
O O5 0.576012 0.477092 0.735919
O O6 0.864453 0.318647 0.351888
O O7 0.503613 0.308362 0.896188
O O8 0.505934 0.655853 0.638966
O O9 0.579067 0.799039 0.720542
O O10 0.418161 0.833679 0.576307
O O11 0.789824 0.747730 0.191197
O O12 0.500000 0.500000 0.500000
O O13 0.799179 0.768146 0.824694
O O14 0.991775 0.865862 0.783335
O O15 0.780605 0.017436 0.422371
O O16 0.000000 0.000000 0.500000
O O17 0.160819 0.963012 0.997888
O O18 0.500000 0.000000 0.500000
#
# Coordination Sequence:
#
# PCOD9057264 Si02
#       8
#     2   2   2   2   2   2   2   2
#     4  11  22  42  65  93 138 190 244 300 354 424
#     4  11  24  46  65 100 147 190 248 300 354 438
#     4  12  27  47  74 106 151 197 241 309 372 439
#     4  12  26  41  70 104 142 197 248 299 364 435
#     4  11  25  45  73 103 146 197 246 297 377 429
#     4  11  28  45  73 110 146 191 247 308 362 452
#     4  11  28  49  81 111 146 193 246 309 379 446
#     4  11  27  52  76 112 154 188 244 311 378 451
#
# _framework density 22.759173000000001
#
# number of rings (size 3 to 8) (size 9 to 14) (size 15 to 20)
#    0.000    0.750    3.750    1.875   10.500    1.000 
#    0.000    0.000    0.000    0.000    0.000    0.000 
#    0.000    0.000    0.000    0.000    0.000    0.000 
#
# Total GULP energy -89383.186355 kJ/mol
# GULP energy per Si atom -5586.449147 kJ/mol
# Density = 2.270737 g / cm^3
# Si number density = 22.759173 Si / 1000 Ang^3
#
#
#
# Elastic Constant Matrix: (Units=GPa)
#
#
# Indices 1 2 3 4 5 6 
#
# 1 120.0266 9.1027 49.4529 -5.9278 -2.5899 1.4838
# 2 9.1027 86.2679 51.9132 4.0036 -4.4209 -0.5842
# 3 49.4529 51.9132 136.0982 -2.7911 -2.9175 -0.4129
# 4 -5.9278 4.0036 -2.7911 31.9496 -0.3367 -6.0913
# 5 -2.5899 -4.4209 -2.9175 -0.3367 44.6458 -2.4883
# 6 1.4838 -0.5842 -0.4129 -6.0913 -2.4883 35.0198
#
#
#
# Elastic Compliance Matrix: (Units=1/GPa)
#
#
# Indices 1 2 3 4 5 6 
#
# 1 0.010003 0.001392 -0.004130 0.001289 0.000447 -0.000193
# 2 0.001392 0.015479 -0.006432 -0.002267 0.001166 -0.000188
# 3 -0.004130 -0.006432 0.011323 0.001101 -0.000107 0.000385
# 4 0.001289 -0.002267 0.001101 0.033010 0.000489 0.005697
# 5 0.000447 0.001166 -0.000107 0.000489 0.022631 0.001692
# 6 -0.000193 -0.000188 0.000385 0.005697 0.001692 0.029676
#
#
# Mechanical properties :
#
#
# Convention : Reuss Voigt Hill
#
# Bulk Modulus (GPa) = 54.15777 62.59226 58.37502
# Shear Modulus (GPa) = 34.10194 37.78464 35.94329
#
# Velocity S-wave (km/s) = 3.87509 4.07897 3.97834
# Velocity P-wave (km/s) = 6.62340 7.05306 6.84161
#
# Compressibility (1/GPa) = 0.01846457
#
# Stress axis : x y z
#
# Youngs Moduli (GPa) = 99.96645 64.60238 88.31286
#
# Poissons Ratio (x) = -0.08991 0.36476
# Poissons Ratio (y) = -0.13913 0.56805
# Poissons Ratio (z) = 0.41289 0.41554
#
# Static dielectric constant tensor:
#      x y z
#    x 2.139520 -0.037790 0.045610 
#    y -0.037790 1.791790 0.047080 
#    z 0.045610 0.047080 1.876170 
# 
# From -- ./inp_files/272293.got.cif
#   From: 2010.05.17/outbox.cif.g08.bks.cpg/sg2_137_cif.got.tgz:272293.got - 2010.06.03 11:33:40.
