data_PCOD9057883
_publ_section_title
;
Structure prediction by ZEFSAII (Michael W. Deem and Ramdas Pophale) SiO2 
 PCOD9057883
Probable space group: P -1
;
_chemical_formula_sum "Si O2"
_cell_formula_units_Z 14
_cell_length_a 11.828662
_cell_length_b 8.571025
_cell_length_c 9.776310
_cell_angle_alpha 134.612937
_cell_angle_beta 63.796858
_cell_angle_gamma 116.804420
_cell_volume 617.483305
_symmetry_space_group_name_H-M "P -1"
_symmetry_group_IT_number 2
_symmetry_cell_setting 'triclinic'
loop_
_space_group_symop_operation_xyz
x,y,z
-x,-y,-z
loop_
_atom_site_type_symbol
_atom_site_label
_atom_site_fract_x
_atom_site_fract_y
_atom_site_fract_z
Si Si1 0.357642 0.488496 0.126103
Si Si2 0.760701 0.862342 0.784703
Si Si3 0.092436 0.506938 0.584082
Si Si4 0.352777 0.843501 0.576217
Si Si5 0.975808 0.290081 0.984787
Si Si6 0.752332 0.740005 0.204436
Si Si7 0.583624 0.738036 0.553171
O O1 0.302409 0.285357 0.139706
O O2 0.362132 0.711642 0.348724
O O3 0.500000 0.500000 0.000000
O O4 0.273511 0.461274 0.015890
O O5 0.861644 0.726756 0.581236
O O6 0.653665 0.862208 0.725253
O O7 0.841956 0.108572 0.928886
O O8 0.227788 0.687366 0.614930
O O9 0.000000 0.500000 0.500000
O O10 0.019776 0.592027 0.799092
O O11 0.480344 0.853188 0.603081
O O12 0.319326 0.079499 0.710835
O O13 0.094536 0.170338 0.821829
O O14 0.000000 0.500000 0.000000
O O15 0.688823 0.694097 0.358835
O O16 0.500000 0.500000 0.500000
#
# Coordination Sequence:
#
# PCOD9057883 Si02
#       7
#     2   2   2   2   2   2   2
#     4  11  22  43  73 107 141 181 240 295 356 433
#     4  11  25  46  72 105 148 193 234 301 371 421
#     4  11  23  44  74 101 142 188 240 295 360 427
#     4  11  24  44  73 104 143 185 236 296 362 432
#     4  12  28  48  70 107 145 190 252 298 353 430
#     4  12  26  45  72 102 143 188 244 297 354 428
#     4  12  23  46  73 104 146 191 235 295 370 435
#
# _framework density 22.672678000000001
#
# number of rings (size 3 to 8) (size 9 to 14) (size 15 to 20)
#    0.000    0.571    4.286    4.714    0.000    6.286 
#    0.000    1.429    0.000    0.000    0.000    0.000 
#    0.000    0.000    0.000    0.000    0.000    0.000 
#
# Total GULP energy -78318.233174 kJ/mol
# GULP energy per Si atom -5594.159512 kJ/mol
# Density = 2.262107 g / cm^3
# Si number density = 22.672678 Si / 1000 Ang^3
#
#
#
# Elastic Constant Matrix: (Units=GPa)
#
#
# Indices 1 2 3 4 5 6 
#
# 1 121.2674 37.1325 52.9714 -6.5405 15.9942 16.6922
# 2 37.1325 101.1129 55.8731 -0.8916 9.5136 11.7498
# 3 52.9714 55.8731 129.3412 -27.7936 7.0465 5.3205
# 4 -6.5405 -0.8916 -27.7936 38.0081 2.4944 -7.1337
# 5 15.9942 9.5136 7.0465 2.4944 48.4792 -1.1784
# 6 16.6922 11.7498 5.3205 -7.1337 -1.1784 32.9973
#
#
#
# Elastic Compliance Matrix: (Units=1/GPa)
#
#
# Indices 1 2 3 4 5 6 
#
# 1 0.011440 -0.000923 -0.004341 -0.002027 -0.002987 -0.005303
# 2 -0.000923 0.014711 -0.006925 -0.005713 -0.001402 -0.004940
# 3 -0.004341 -0.006925 0.014576 0.010599 0.000239 0.004612
# 4 -0.002027 -0.005713 0.010599 0.035345 -0.001352 0.008944
# 5 -0.002987 -0.001402 0.000239 -0.001352 0.021983 0.002464
# 6 -0.005303 -0.004940 0.004612 0.008944 0.002464 0.036025
#
#
# Mechanical properties :
#
#
# Convention : Reuss Voigt Hill
#
# Bulk Modulus (GPa) = 61.16771 71.51949 66.34360
# Shear Modulus (GPa) = 30.50515 37.61323 34.05919
#
# Velocity S-wave (km/s) = 3.67203 4.07746 3.88004
# Velocity P-wave (km/s) = 6.70936 7.33351 7.02837
#
# Compressibility (1/GPa) = 0.01634849
#
# Stress axis : x y z
#
# Youngs Moduli (GPa) = 87.41518 67.97611 68.60754
#
# Poissons Ratio (x) = 0.06273 0.29783
# Poissons Ratio (y) = 0.08067 0.47510
# Poissons Ratio (z) = 0.37948 0.47073
#
# Static dielectric constant tensor:
#      x y z
#    x 1.871290 0.001300 0.020130 
#    y 0.001300 1.842360 -0.009320 
#    z 0.020130 -0.009320 1.874170 
# 
# From -- ./inp_files/236900.got.cif
#   From: 2010.05.17/outbox.cif.g08.bks.cpg/sg2_119_cif.got.tgz:236900.got - 2010.06.03 11:33:40.
