data_PCOD9057853
_publ_section_title
;
Structure prediction by ZEFSAII (Michael W. Deem and Ramdas Pophale) SiO2 
 PCOD9057853
Probable space group: P -1
;
_chemical_formula_sum "Si O2"
_cell_formula_units_Z 16
_cell_length_a 8.663253
_cell_length_b 11.229383
_cell_length_c 14.374043
_cell_angle_alpha 32.502877
_cell_angle_beta 84.111204
_cell_angle_gamma 74.828911
_cell_volume 706.147097
_symmetry_space_group_name_H-M "P -1"
_symmetry_group_IT_number 2
_symmetry_cell_setting 'triclinic'
loop_
_space_group_symop_operation_xyz
x,y,z
-x,-y,-z
loop_
_atom_site_type_symbol
_atom_site_label
_atom_site_fract_x
_atom_site_fract_y
_atom_site_fract_z
Si Si1 0.220305 0.847685 0.882808
Si Si2 0.315178 0.702644 0.183398
Si Si3 0.206759 0.151158 0.277913
Si Si4 0.538631 0.255105 0.214717
Si Si5 0.018266 0.282191 0.705330
Si Si6 0.748717 0.794755 0.093176
Si Si7 0.371053 0.642428 0.650828
Si Si8 0.979813 0.599848 0.049634
O O1 0.330388 0.910499 0.756129
O O2 0.141988 0.660073 0.971548
O O3 0.306314 0.750595 0.040362
O O4 0.064350 0.065078 0.776096
O O5 0.139965 0.705458 0.231725
O O6 0.452990 0.449504 0.351965
O O7 0.346605 0.925145 0.086917
O O8 0.377809 0.178448 0.283950
O O9 0.160312 0.272533 0.099812
O O10 0.241231 0.872649 0.461662
O O11 0.048405 0.316874 0.235971
O O12 0.607080 0.286482 0.291023
O O13 0.500000 0.500000 0.000000
O O14 0.000000 0.500000 0.500000
O O15 0.179528 0.247741 0.780187
O O16 0.671819 0.599171 0.193793
O O17 0.912462 0.721589 0.069257
#
# Coordination Sequence:
#
# PCOD9057853 Si02
#       8
#     2   2   2   2   2   2   2   2
#     4  11  22  43  72  96 131 181 230 271 331 412
#     4  11  22  47  70  97 138 181 222 275 340 410
#     4  11  27  42  65 102 137 184 221 289 336 397
#     4  12  23  44  69 100 134 181 225 271 346 407
#     4  11  25  43  70 104 131 177 228 280 333 398
#     4  11  24  44  69  99 132 184 229 271 338 406
#     4  12  27  43  67 105 143 172 227 287 340 398
#     4  11  22  45  69  93 139 178 232 270 341 407
#
# _framework density 22.658169999999998
#
# number of rings (size 3 to 8) (size 9 to 14) (size 15 to 20)
#    0.000    0.750    5.000    2.250    5.250    1.500 
#    0.000    1.250    0.000    0.000    0.000    0.000 
#    0.000    0.000    0.000    0.000    0.000    0.000 
#
# Total GULP energy -89263.211114 kJ/mol
# GULP energy per Si atom -5578.950695 kJ/mol
# Density = 2.260660 g / cm^3
# Si number density = 22.658170 Si / 1000 Ang^3
#
#
#
# Elastic Constant Matrix: (Units=GPa)
#
#
# Indices 1 2 3 4 5 6 
#
# 1 72.6859 27.4082 20.2798 -2.3445 -4.6445 4.9479
# 2 27.4082 119.1651 46.5361 -14.6925 9.5712 -15.3748
# 3 20.2798 46.5361 97.6959 -29.5999 13.4959 -6.1792
# 4 -2.3445 -14.6925 -29.5999 24.6965 -6.7257 2.3412
# 5 -4.6445 9.5712 13.4959 -6.7257 27.5900 -10.5852
# 6 4.9479 -15.3748 -6.1792 2.3412 -10.5852 38.6022
#
#
#
# Elastic Compliance Matrix: (Units=1/GPa)
#
#
# Indices 1 2 3 4 5 6 
#
# 1 0.016360 -0.003496 -0.003449 -0.003371 0.003755 -0.002807
# 2 -0.003496 0.011506 -0.004079 0.001029 -0.000758 0.004108
# 3 -0.003449 -0.004079 0.019269 0.019277 -0.004035 -0.000374
# 4 -0.003371 0.001029 0.019277 0.065428 0.006236 0.001669
# 5 0.003755 -0.000758 -0.004035 0.006236 0.044637 0.010433
# 6 -0.002807 0.004108 -0.000374 0.001669 0.010433 0.030601
#
#
# Mechanical properties :
#
#
# Convention : Reuss Voigt Hill
#
# Bulk Modulus (GPa) = 39.85770 53.11058 46.48414
# Shear Modulus (GPa) = 22.91353 31.19926 27.05639
#
# Velocity S-wave (km/s) = 3.18350 3.71476 3.45934
# Velocity P-wave (km/s) = 5.58050 6.47225 6.04285
#
# Compressibility (1/GPa) = 0.02508925
#
# Stress axis : x y z
#
# Youngs Moduli (GPa) = 61.12306 86.90851 51.89627
#
# Poissons Ratio (x) = 0.30380 0.17898
# Poissons Ratio (y) = 0.21366 0.21169
# Poissons Ratio (z) = 0.21080 0.35451
#
# Static dielectric constant tensor:
#      x y z
#    x 1.965090 -0.047560 -0.027230 
#    y -0.047560 1.916040 -0.052720 
#    z -0.027230 -0.052720 1.965000 
# 
# From -- ./inp_files/382689.got.cif
#   From: 2010.05.17/outbox.cif.g08.bks.cpg/sg2_192_cif.got.tgz:382689.got - 2010.06.03 11:33:40.
