data_PCOD9057691
_publ_section_title
;
Structure prediction by ZEFSAII (Michael W. Deem and Ramdas Pophale) SiO2 
 PCOD9057691
Probable space group: P -1
;
_chemical_formula_sum "Si O2"
_cell_formula_units_Z 14
_cell_length_a 18.171770
_cell_length_b 21.618818
_cell_length_c 10.230961
_cell_angle_alpha 34.069557
_cell_angle_beta 134.495179
_cell_angle_gamma 160.978485
_cell_volume 655.108434
_symmetry_space_group_name_H-M "P -1"
_symmetry_group_IT_number 2
_symmetry_cell_setting 'triclinic'
loop_
_space_group_symop_operation_xyz
x,y,z
-x,-y,-z
loop_
_atom_site_type_symbol
_atom_site_label
_atom_site_fract_x
_atom_site_fract_y
_atom_site_fract_z
Si Si1 0.118580 0.854790 0.033613
Si Si2 0.579027 0.448873 0.681239
Si Si3 0.408639 0.617118 0.889099
Si Si4 0.403432 0.950310 0.605692
Si Si5 0.469147 0.063651 0.957830
Si Si6 0.933278 0.050902 0.763469
Si Si7 0.964223 0.640355 0.488512
O O1 0.359628 0.164886 0.831004
O O2 0.201528 0.859759 0.006402
O O3 0.864111 0.672501 0.005588
O O4 0.045317 0.705932 0.325631
O O5 0.500000 0.500000 0.500000
O O6 0.849277 0.705982 0.494645
O O7 0.601933 0.425756 0.896816
O O8 0.465076 0.804022 0.624740
O O9 0.643066 0.780631 0.828955
O O10 0.110070 0.694142 0.664611
O O11 0.500000 0.000000 0.500000
O O12 0.452330 0.911384 0.848898
O O13 0.670055 0.348781 0.659672
O O14 0.500000 0.000000 0.000000
O O15 0.942839 0.149850 0.717867
O O16 0.000000 0.000000 0.000000
#
# Coordination Sequence:
#
# PCOD9057691 Si02
#       7
#     2   2   2   2   2   2   2
#     4  12  25  46  68 106 145 177 238 297 347 419
#     4  12  23  47  74  97 137 182 229 294 360 421
#     4  11  26  42  70 103 136 182 231 288 354 414
#     4  11  22  43  68  96 140 193 233 283 350 415
#     4  12  26  41  66 104 144 190 237 289 347 417
#     4  11  22  46  71  98 134 178 230 287 353 421
#     4  11  23  42  69  97 138 184 235 286 344 416
#
# _framework density 21.370508000000001
#
# number of rings (size 3 to 8) (size 9 to 14) (size 15 to 20)
#    0.000    0.571    7.143    1.286    2.000    5.143 
#    0.000    1.429    0.000    0.000    0.000    0.000 
#    0.000    0.000    0.000    0.000    0.000    0.000 
#
# Total GULP energy -78239.925336 kJ/mol
# GULP energy per Si atom -5588.566095 kJ/mol
# Density = 2.132187 g / cm^3
# Si number density = 21.370508 Si / 1000 Ang^3
#
#
#
# Elastic Constant Matrix: (Units=GPa)
#
#
# Indices 1 2 3 4 5 6 
#
# 1 76.3088 25.2417 16.3539 -2.2196 -20.0214 23.2722
# 2 25.2417 123.8244 32.1646 -12.6456 -17.8270 27.8692
# 3 16.3539 32.1646 91.4522 -18.5022 -20.7135 13.3042
# 4 -2.2196 -12.6456 -18.5022 14.7185 13.6716 -10.3559
# 5 -20.0214 -17.8270 -20.7135 13.6716 40.3814 -3.4660
# 6 23.2722 27.8692 13.3042 -10.3559 -3.4660 35.5768
#
#
#
# Elastic Compliance Matrix: (Units=1/GPa)
#
#
# Indices 1 2 3 4 5 6 
#
# 1 0.026193 0.000629 -0.004104 -0.039137 0.022237 -0.025318
# 2 0.000629 0.010757 -0.002429 -0.003852 0.004379 -0.008624
# 3 -0.004104 -0.002429 0.015919 0.023048 -0.002305 0.005118
# 4 -0.039137 -0.003852 0.023048 0.207092 -0.073117 0.073158
# 5 0.022237 0.004379 -0.002305 -0.073117 0.058488 -0.032700
# 6 -0.025318 -0.008624 0.005118 0.073158 -0.032700 0.067622
#
#
# Mechanical properties :
#
#
# Convention : Reuss Voigt Hill
#
# Bulk Modulus (GPa) = 24.35248 48.78953 36.57100
# Shear Modulus (GPa) = 12.14879 32.65702 22.40290
#
# Velocity S-wave (km/s) = 2.38688 3.91338 3.24127
# Velocity P-wave (km/s) = 4.36077 6.58022 5.58192
#
# Compressibility (1/GPa) = 0.04106358
#
# Stress axis : x y z
#
# Youngs Moduli (GPa) = 38.17766 92.96563 62.81824
#
# Poissons Ratio (x) = -0.05852 0.25778
# Poissons Ratio (y) = -0.02403 0.15256
# Poissons Ratio (z) = 0.15666 0.22578
#
# Static dielectric constant tensor:
#      x y z
#    x 1.802530 -0.006150 0.010540 
#    y -0.006150 1.854020 -0.039670 
#    z 0.010540 -0.039670 1.767080 
# 
# From -- ./inp_files/337486.got.cif
#   From: 2010.05.17/outbox.cif.g08.bks.cpg/sg2_169_cif.got.tgz:337486.got - 2010.06.03 11:33:40.
