data_PCOD9057988
_publ_section_title
;
Structure prediction by ZEFSAII (Michael W. Deem and Ramdas Pophale) SiO2 
 PCOD9057988
Probable space group: P -1
;
_chemical_formula_sum "Si O2"
_cell_formula_units_Z 16
_cell_length_a 14.026548
_cell_length_b 13.861434
_cell_length_c 9.253671
_cell_angle_alpha 90.039884
_cell_angle_beta 109.798683
_cell_angle_gamma 149.450905
_cell_volume 680.862122
_symmetry_space_group_name_H-M "P -1"
_symmetry_group_IT_number 2
_symmetry_cell_setting 'triclinic'
loop_
_space_group_symop_operation_xyz
x,y,z
-x,-y,-z
loop_
_atom_site_type_symbol
_atom_site_label
_atom_site_fract_x
_atom_site_fract_y
_atom_site_fract_z
Si Si1 0.432967 0.061967 0.633430
Si Si2 0.979256 0.772119 0.275509
Si Si3 0.211320 0.665488 0.455374
Si Si4 0.606713 0.353387 0.292177
Si Si5 0.277557 0.760363 0.980059
Si Si6 0.310056 0.457320 0.376232
Si Si7 0.858473 0.883987 0.580176
Si Si8 0.905395 0.207120 0.976546
O O1 0.210716 0.944115 0.500476
O O2 0.315360 0.852353 0.582008
O O3 0.594255 0.197959 0.569841
O O4 0.606937 0.223676 0.863210
O O5 0.023248 0.753571 0.150650
O O6 0.728191 0.518996 0.225331
O O7 0.006661 0.910133 0.267926
O O8 0.211984 0.576805 0.565088
O O9 0.951407 0.462067 0.242982
O O10 0.592645 0.409695 0.425247
O O11 0.341634 0.073266 0.119481
O O12 0.172480 0.750820 0.034743
O O13 0.500000 0.000000 0.000000
O O14 0.559173 0.646916 0.414214
O O15 0.149188 0.222939 0.337107
O O16 0.129714 0.371902 0.197372
O O17 0.000000 0.000000 0.500000
#
# Coordination Sequence:
#
# PCOD9057988 Si02
#       8
#     2   2   2   2   2   2   2   2
#     4  11  23  43  68  98 144 185 234 291 345 415
#     4  12  26  45  74 102 146 190 236 298 357 417
#     4  11  22  44  67  98 139 189 235 288 346 414
#     4  12  23  47  73 102 145 190 232 292 356 422
#     4  12  26  41  67 104 143 190 241 287 347 423
#     4  11  25  47  81 103 143 187 231 301 357 424
#     4  11  24  49  77 109 139 184 238 293 368 424
#     4  12  26  48  69 111 144 182 244 291 351 427
#
# _framework density 23.49962
#
# number of rings (size 3 to 8) (size 9 to 14) (size 15 to 20)
#    0.000    0.500    6.250    1.875    1.750    2.500 
#    0.000    1.250    0.000    0.000    0.000    0.000 
#    0.000    0.000    0.000    0.000    0.000    0.000 
#
# Total GULP energy -89725.893920 kJ/mol
# GULP energy per Si atom -5607.868370 kJ/mol
# Density = 2.344613 g / cm^3
# Si number density = 23.499620 Si / 1000 Ang^3
#
#
#
# Elastic Constant Matrix: (Units=GPa)
#
#
# Indices 1 2 3 4 5 6 
#
# 1 79.4484 32.8299 18.1571 -5.1374 -16.5526 -3.6671
# 2 32.8299 134.3472 9.9847 0.5133 -11.7725 8.1364
# 3 18.1571 9.9847 65.0021 16.4957 -7.2648 8.8060
# 4 -5.1374 0.5133 16.4957 26.5831 2.8856 -1.6542
# 5 -16.5526 -11.7725 -7.2648 2.8856 28.3086 0.2868
# 6 -3.6671 8.1364 8.8060 -1.6542 0.2868 55.2427
#
#
#
# Elastic Compliance Matrix: (Units=1/GPa)
#
#
# Indices 1 2 3 4 5 6 
#
# 1 0.017126 -0.003390 -0.005473 0.006228 0.006538 0.002661
# 2 -0.003390 0.008502 0.000406 -0.001368 0.001813 -0.001592
# 3 -0.005473 0.000406 0.021796 -0.015316 0.004168 -0.004378
# 4 0.006228 -0.001368 -0.015316 0.049279 -0.005927 0.004563
# 5 0.006538 0.001813 0.004168 -0.005927 0.041584 -0.000891
# 6 0.002661 -0.001592 -0.004378 0.004563 -0.000891 0.019352
#
#
# Mechanical properties :
#
#
# Convention : Reuss Voigt Hill
#
# Bulk Modulus (GPa) = 32.77605 44.52679 38.65142
# Shear Modulus (GPa) = 27.06730 36.54862 31.80796
#
# Velocity S-wave (km/s) = 3.39753 3.94799 3.68306
# Velocity P-wave (km/s) = 5.41929 6.30644 5.87962
#
# Compressibility (1/GPa) = 0.03051009
#
# Stress axis : x y z
#
# Youngs Moduli (GPa) = 58.38981 117.61604 45.87978
#
# Poissons Ratio (x) = 0.39876 0.25112
# Poissons Ratio (y) = 0.19796 -0.01865
# Poissons Ratio (z) = 0.31959 -0.04781
#
# Static dielectric constant tensor:
#      x y z
#    x 1.873040 -0.006730 -0.002330 
#    y -0.006730 1.917160 0.013180 
#    z -0.002330 0.013180 1.847960 
# 
# From -- ./inp_files/315334.got.cif
#   From: 2010.05.17/outbox.cif.g08.bks.cpg/sg2_158_cif.got.tgz:315334.got - 2010.06.03 11:33:40.
