data_PCOD9057393
_publ_section_title
;
Structure prediction by ZEFSAII (Michael W. Deem and Ramdas Pophale) SiO2 
 PCOD9057393
Probable space group: P -1
;
_chemical_formula_sum "Si O2"
_cell_formula_units_Z 14
_cell_length_a 25.041755
_cell_length_b 15.882688
_cell_length_c 5.477239
_cell_angle_alpha 64.329680
_cell_angle_beta 62.218001
_cell_angle_gamma 18.375782
_cell_volume 607.265235
_symmetry_space_group_name_H-M "P -1"
_symmetry_group_IT_number 2
_symmetry_cell_setting 'triclinic'
loop_
_space_group_symop_operation_xyz
x,y,z
-x,-y,-z
loop_
_atom_site_type_symbol
_atom_site_label
_atom_site_fract_x
_atom_site_fract_y
_atom_site_fract_z
Si Si1 0.998438 0.349003 0.278197
Si Si2 0.451063 0.326237 0.499500
Si Si3 0.324024 0.971329 0.215002
Si Si4 0.410735 0.027691 0.663784
Si Si5 0.914873 0.161918 0.223610
Si Si6 0.570666 0.476709 0.057015
Si Si7 0.066101 0.139355 0.894290
O O1 0.022436 0.252578 0.592429
O O2 0.794581 0.662993 0.314510
O O3 0.131201 0.241344 0.188179
O O4 0.055525 0.218307 0.063195
O O5 0.637507 0.085753 0.508247
O O6 0.287423 0.566892 0.719751
O O7 0.391987 0.484875 0.224426
O O8 0.485348 0.175110 0.515177
O O9 0.423897 0.731424 0.224152
O O10 0.410235 0.944485 0.976068
O O11 0.500000 0.000000 0.500000
O O12 0.000000 0.000000 0.500000
O O13 0.937582 0.239976 0.088448
O O14 0.000000 0.000000 0.000000
O O15 0.500000 0.500000 0.000000
O O16 0.747591 0.178096 0.150248
#
# Coordination Sequence:
#
# PCOD9057393 Si02
#       7
#     2   2   2   2   2   2   2
#     4  12  28  48  75 108 147 197 249 303 365 439
#     4  11  26  44  74 107 145 194 243 305 371 434
#     4  11  26  45  76 107 144 196 244 309 371 436
#     4  11  28  51  74 102 145 196 255 307 363 437
#     4  12  25  44  71 107 153 193 241 301 367 444
#     4  11  22  42  69 107 149 184 236 296 370 439
#     4  12  26  44  74 108 150 194 244 300 373 441
#
# _framework density 23.054175000000001
#
# number of rings (size 3 to 8) (size 9 to 14) (size 15 to 20)
#    0.000    0.571    2.857    3.857   10.000    2.286 
#    0.000    0.000    0.000    0.000    0.000    0.000 
#    0.000    0.000    0.000    0.000    0.000    0.000 
#
# Total GULP energy -78101.477271 kJ/mol
# GULP energy per Si atom -5578.676948 kJ/mol
# Density = 2.300170 g / cm^3
# Si number density = 23.054175 Si / 1000 Ang^3
#
#
#
# Elastic Constant Matrix: (Units=GPa)
#
#
# Indices 1 2 3 4 5 6 
#
# 1 91.8741 31.8108 48.3301 -6.5338 -15.1733 10.0306
# 2 31.8108 155.4233 48.6288 -10.0209 2.8885 -1.2079
# 3 48.3301 48.6288 108.7274 -7.5419 10.3341 10.0330
# 4 -6.5338 -10.0209 -7.5419 38.9157 -9.1312 -2.1181
# 5 -15.1733 2.8885 10.3341 -9.1312 30.2344 -0.3882
# 6 10.0306 -1.2079 10.0330 -2.1181 -0.3882 36.2588
#
#
#
# Elastic Compliance Matrix: (Units=1/GPa)
#
#
# Indices 1 2 3 4 5 6 
#
# 1 0.018569 -0.001133 -0.008521 0.004230 0.013586 -0.002424
# 2 -0.001133 0.007698 -0.002997 0.001324 0.000139 0.001478
# 3 -0.008521 -0.002997 0.015341 -0.001638 -0.009757 -0.002188
# 4 0.004230 0.001324 -0.001638 0.029163 0.011379 0.001152
# 5 0.013586 0.000139 -0.009757 0.011379 0.046653 0.000110
# 6 -0.002424 0.001478 -0.002188 0.001152 0.000110 0.028973
#
#
# Mechanical properties :
#
#
# Convention : Reuss Voigt Hill
#
# Bulk Modulus (GPa) = 61.33102 68.17381 64.75242
# Shear Modulus (GPa) = 28.22714 36.23211 32.22962
#
# Velocity S-wave (km/s) = 3.50291 3.96865 3.74303
# Velocity P-wave (km/s) = 6.55906 7.11587 6.84313
#
# Compressibility (1/GPa) = 0.01630496
#
# Stress axis : x y z
#
# Youngs Moduli (GPa) = 53.85408 129.90492 65.18391
#
# Poissons Ratio (x) = 0.14717 0.55546
# Poissons Ratio (y) = 0.06101 0.19536
# Poissons Ratio (z) = 0.45891 0.38934
#
# Static dielectric constant tensor:
#      x y z
#    x 1.884510 -0.039470 0.004130 
#    y -0.039470 1.903060 0.037550 
#    z 0.004130 0.037550 1.930500 
# 
# From -- ./inp_files/101066.got.cif
#   From: 2010.05.17/outbox.cif.g08.bks.cpg/sg2_51_cif.got.tgz:101066.got - 2010.06.03 11:33:40.
