data_PCOD9057407
_publ_section_title
;
Structure prediction by ZEFSAII (Michael W. Deem and Ramdas Pophale) SiO2 
 PCOD9057407
Probable space group: P -1
;
_chemical_formula_sum "Si O2"
_cell_formula_units_Z 12
_cell_length_a 15.905557
_cell_length_b 10.608119
_cell_length_c 8.619270
_cell_angle_alpha 127.368234
_cell_angle_beta 143.666487
_cell_angle_gamma 34.800977
_cell_volume 485.328255
_symmetry_space_group_name_H-M "P -1"
_symmetry_group_IT_number 2
_symmetry_cell_setting 'triclinic'
loop_
_space_group_symop_operation_xyz
x,y,z
-x,-y,-z
loop_
_atom_site_type_symbol
_atom_site_label
_atom_site_fract_x
_atom_site_fract_y
_atom_site_fract_z
Si Si1 0.903029 0.702795 0.669904
Si Si2 0.770877 0.327614 0.311363
Si Si3 0.039290 0.141546 0.823135
Si Si4 0.432638 0.525185 0.178715
Si Si5 0.351307 0.250196 0.895149
Si Si6 0.821875 0.086858 0.685319
O O1 0.722005 0.727721 0.374781
O O2 0.131432 0.457558 0.804675
O O3 0.847336 0.879466 0.586719
O O4 0.894752 0.791580 0.893777
O O5 0.942932 0.283431 0.628137
O O6 0.578056 0.501251 0.260454
O O7 0.749903 0.374649 0.134784
O O8 0.803537 0.110654 0.192365
O O9 0.870596 0.156223 0.660042
O O10 0.367703 0.693756 0.342019
O O11 0.480310 0.310946 0.146619
O O12 0.500000 0.000000 0.000000
O O13 0.000000 0.000000 0.000000
#
# Coordination Sequence:
#
# PCOD9057407 Si02
#       6
#     2   2   2   2   2   2
#     4  10  21  41  63  90 125 161 211 264 301 366
#     4  10  22  35  65  93 130 154 203 264 322 360
#     4  10  19  39  62  94 118 164 205 255 319 365
#     4  11  21  41  60  97 124 160 208 270 301 369
#     4  11  24  40  63  93 129 164 210 257 314 369
#     4  10  17  36  68  86 117 157 218 262 296 345
#
# _framework density 24.725532999999999
#
# number of rings (size 3 to 8) (size 9 to 14) (size 15 to 20)
#    0.000    1.667    6.667    0.000    2.333    2.000 
#    3.000    1.667    0.000    0.000    0.000    0.000 
#    0.000    0.000    0.000    0.000    0.000    0.000 
#
# Total GULP energy -66838.637312 kJ/mol
# GULP energy per Si atom -5569.886443 kJ/mol
# Density = 2.466926 g / cm^3
# Si number density = 24.725533 Si / 1000 Ang^3
#
#
#
# Elastic Constant Matrix: (Units=GPa)
#
#
# Indices 1 2 3 4 5 6 
#
# 1 45.9200 26.7188 9.0808 4.1245 -12.2383 -15.3304
# 2 26.7188 114.8348 25.8234 4.2699 -13.8044 -8.2076
# 3 9.0808 25.8234 156.2831 17.8884 -31.2030 -1.7649
# 4 4.1245 4.2699 17.8884 33.1818 3.8788 -8.6044
# 5 -12.2383 -13.8044 -31.2030 3.8788 43.9647 1.1957
# 6 -15.3304 -8.2076 -1.7649 -8.6044 1.1957 44.7268
#
#
#
# Elastic Compliance Matrix: (Units=1/GPa)
#
#
# Indices 1 2 3 4 5 6 
#
# 1 0.029831 -0.005599 0.000964 -0.002107 0.007181 0.008638
# 2 -0.005599 0.010382 -0.001207 -0.000118 0.000858 -0.000107
# 3 0.000964 -0.001207 0.008431 -0.005457 0.006376 -0.000778
# 4 -0.002107 -0.000118 -0.005457 0.035866 -0.007828 0.006150
# 5 0.007181 0.000858 0.006376 -0.007828 0.030215 0.000557
# 6 0.008638 -0.000107 -0.000778 0.006150 0.000557 0.026437
#
#
# Mechanical properties :
#
#
# Convention : Reuss Voigt Hill
#
# Bulk Modulus (GPa) = 27.05491 48.92044 37.98768
# Shear Modulus (GPa) = 30.27317 41.40232 35.83775
#
# Velocity S-wave (km/s) = 3.50289 4.09648 3.81126
# Velocity P-wave (km/s) = 5.22745 6.49640 5.89616
#
# Compressibility (1/GPa) = 0.03696187
#
# Stress axis : x y z
#
# Youngs Moduli (GPa) = 33.52231 96.32022 118.61363
#
# Poissons Ratio (x) = 0.53926 -0.11438
# Poissons Ratio (y) = 0.18768 0.14311
# Poissons Ratio (z) = -0.03232 0.11621
#
# Static dielectric constant tensor:
#      x y z
#    x 2.031640 0.147660 0.005660 
#    y 0.147660 2.194200 -0.100390 
#    z 0.005660 -0.100390 2.074590 
# 
# From -- ./inp_files/333835.got.cif
#   From: 2010.05.17/outbox.cif.g08.bks.cpg/sg2_167_cif.got.tgz:333835.got - 2010.06.03 11:33:40.
