data_PCOD9057235
_publ_section_title
;
Structure prediction by ZEFSAII (Michael W. Deem and Ramdas Pophale) SiO2 
 PCOD9057235
Probable space group: P -1
;
_chemical_formula_sum "Si O2"
_cell_formula_units_Z 16
_cell_length_a 8.179425
_cell_length_b 20.802730
_cell_length_c 18.629601
_cell_angle_alpha 24.611665
_cell_angle_beta 50.923154
_cell_angle_gamma 38.158323
_cell_volume 770.395197
_symmetry_space_group_name_H-M "P -1"
_symmetry_group_IT_number 2
_symmetry_cell_setting 'triclinic'
loop_
_space_group_symop_operation_xyz
x,y,z
-x,-y,-z
loop_
_atom_site_type_symbol
_atom_site_label
_atom_site_fract_x
_atom_site_fract_y
_atom_site_fract_z
Si Si1 0.329386 0.335106 0.070894
Si Si2 0.385918 0.884535 0.639297
Si Si3 0.124872 0.443444 0.259377
Si Si4 0.861620 0.056145 0.056412
Si Si5 0.293426 0.183337 0.099005
Si Si6 0.329288 0.563268 0.198980
Si Si7 0.250941 0.847417 0.413834
Si Si8 0.220699 0.673441 0.451253
O O1 0.500478 0.251900 0.181503
O O2 0.364745 0.167430 0.180216
O O3 0.437894 0.433694 0.900298
O O4 0.000000 0.500000 0.000000
O O5 0.555897 0.744923 0.664117
O O6 0.500000 0.000000 0.500000
O O7 0.049931 0.045680 0.573960
O O8 0.149686 0.566355 0.185496
O O9 0.943127 0.392365 0.397881
O O10 0.971957 0.587467 0.085284
O O11 0.551830 0.149130 0.029495
O O12 0.858020 0.227596 0.917157
O O13 0.008792 0.863223 0.263909
O O14 0.000000 0.000000 0.000000
O O15 0.273991 0.020273 0.241117
O O16 0.493425 0.356911 0.408426
O O17 0.266687 0.769917 0.407500
O O18 0.500000 0.500000 0.500000
#
# Coordination Sequence:
#
# PCOD9057235 Si02
#       8
#     2   2   2   2   2   2   2   2
#     4  11  22  42  62  94 131 178 216 269 325 381
#     4  12  25  40  68  94 141 175 226 267 328 395
#     4  12  25  44  66 102 132 180 219 274 330 390
#     4  11  24  47  72  97 130 173 218 277 333 390
#     4  11  24  42  69  97 138 170 226 269 328 394
#     4  11  26  42  66  98 138 171 228 266 325 397
#     4  12  25  44  65 103 133 179 221 271 328 392
#     4  12  25  47  73  97 132 169 220 277 335 392
#
# _framework density 20.768560999999998
#
# number of rings (size 3 to 8) (size 9 to 14) (size 15 to 20)
#    0.000    0.500    2.500    7.500    3.500    2.500 
#    0.000    5.000    0.000    0.000    0.000    0.000 
#    0.000    0.000    0.000    0.000    0.000    0.000 
#
# Total GULP energy -89287.484784 kJ/mol
# GULP energy per Si atom -5580.467799 kJ/mol
# Density = 2.072129 g / cm^3
# Si number density = 20.768561 Si / 1000 Ang^3
#
#
#
# Elastic Constant Matrix: (Units=GPa)
#
#
# Indices 1 2 3 4 5 6 
#
# 1 84.1517 30.4140 17.9254 9.2739 -30.5931 2.1272
# 2 30.4140 109.1117 5.4957 -17.5416 -16.0833 28.4303
# 3 17.9254 5.4957 82.6654 -7.0431 -1.0203 18.3381
# 4 9.2739 -17.5416 -7.0431 24.3132 2.1205 13.5542
# 5 -30.5931 -16.0833 -1.0203 2.1205 47.1272 -12.3256
# 6 2.1272 28.4303 18.3381 13.5542 -12.3256 14.7927
#
#
#
# Elastic Compliance Matrix: (Units=1/GPa)
#
#
# Indices 1 2 3 4 5 6 
#
# 1 0.010331 0.003864 0.002538 0.009812 0.002728 -0.018776
# 2 0.003864 0.003394 -0.005701 -0.010987 0.008526 0.017160
# 3 0.002538 -0.005701 0.008131 -0.010473 0.003827 0.013297
# 4 0.009812 -0.010987 -0.010473 0.001678 0.013381 0.042300
# 5 0.002728 0.008526 0.003827 0.013381 0.021155 -0.016156
# 6 -0.018776 0.017160 0.013297 0.042300 -0.016156 -0.031384
#
#
# Mechanical properties :
#
#
# Convention : Reuss Voigt Hill
#
# Bulk Modulus (GPa) = 42.99627 42.62211 42.80919
# Shear Modulus (GPa) = 254.37387 32.05287 143.21337
#
# Velocity S-wave (km/s) = 11.07909 3.93279 8.31303
# Velocity P-wave (km/s) = 13.57973 6.41790 10.62070
#
# Compressibility (1/GPa) = 0.02325783
#
# Stress axis : x y z
#
# Youngs Moduli (GPa) = 96.79514 294.64305 122.98832
#
# Poissons Ratio (x) = -1.13863 -0.31212
# Poissons Ratio (y) = -0.37406 0.70119
# Poissons Ratio (z) = -0.24564 1.67984
#
# Static dielectric constant tensor:
#      x y z
#    x 1.666780 0.048820 -0.085110 
#    y 0.048820 2.436710 -0.099300 
#    z -0.085110 -0.099300 1.590900 
# 
# From -- ./inp_files/591940.got.cif
#   From: 2010.05.17/outbox.cif.g08.bks.cpg/sg2_296_cif.got.tgz:591940.got - 2010.06.03 11:33:40.
