data_PCOD9057727
_publ_section_title
;
Structure prediction by ZEFSAII (Michael W. Deem and Ramdas Pophale) SiO2 
 PCOD9057727
Probable space group: P -1
;
_chemical_formula_sum "Si O2"
_cell_formula_units_Z 16
_cell_length_a 20.070535
_cell_length_b 17.697229
_cell_length_c 11.399671
_cell_angle_alpha 33.430130
_cell_angle_beta 136.340168
_cell_angle_gamma 158.911798
_cell_volume 770.857289
_symmetry_space_group_name_H-M "P -1"
_symmetry_group_IT_number 2
_symmetry_cell_setting 'triclinic'
loop_
_space_group_symop_operation_xyz
x,y,z
-x,-y,-z
loop_
_atom_site_type_symbol
_atom_site_label
_atom_site_fract_x
_atom_site_fract_y
_atom_site_fract_z
Si Si1 0.354843 0.771739 0.005973
Si Si2 0.637138 0.385562 0.216214
Si Si3 0.918665 0.813827 0.523436
Si Si4 0.685547 0.012624 0.483242
Si Si5 0.938684 0.537219 0.467913
Si Si6 0.615260 0.667669 0.310469
Si Si7 0.278180 0.232037 0.267032
Si Si8 0.612712 0.957596 0.896224
O O1 0.473613 0.823623 0.999114
O O2 0.289834 0.826088 0.779205
O O3 0.178471 0.454378 0.229291
O O4 0.500000 0.000000 0.000000
O O5 0.496477 0.187042 0.404426
O O6 0.828605 0.528434 0.279663
O O7 0.510102 0.194033 0.185815
O O8 0.707968 0.630581 0.989034
O O9 0.752005 0.710351 0.400964
O O10 0.000000 0.000000 0.500000
O O11 0.082991 0.998771 0.395669
O O12 0.667338 0.851868 0.595194
O O13 0.869681 0.203558 0.550610
O O14 0.000000 0.500000 0.500000
O O15 0.777019 0.272198 0.687645
O O16 0.500000 0.500000 0.500000
O O17 0.447875 0.480763 0.247437
O O18 0.715009 0.938528 0.080919
#
# Coordination Sequence:
#
# PCOD9057727 Si02
#       8
#     2   2   2   2   2   2   2   2
#     4  12  27  46  72 103 151 190 225 293 361 419
#     4  11  24  49  71  99 141 181 236 293 353 416
#     4  12  25  44  70 102 138 186 244 281 339 426
#     4  12  27  45  70 104 139 185 233 289 356 418
#     4  12  25  41  72 103 134 177 237 289 346 416
#     4  11  22  43  69  95 137 185 229 279 343 414
#     4  11  27  43  70 103 140 183 233 292 351 421
#     4  11  23  44  71 100 136 183 228 288 351 414
#
# _framework density 20.756112999999999
#
# number of rings (size 3 to 8) (size 9 to 14) (size 15 to 20)
#    0.000    0.500    5.000    3.000    5.250    2.000 
#    0.000    0.000    0.000    0.000    0.000    0.000 
#    0.000    0.000    0.000    0.000    0.000    0.000 
#
# Total GULP energy -89350.370041 kJ/mol
# GULP energy per Si atom -5584.398128 kJ/mol
# Density = 2.070887 g / cm^3
# Si number density = 20.756113 Si / 1000 Ang^3
#
#
#
# Elastic Constant Matrix: (Units=GPa)
#
#
# Indices 1 2 3 4 5 6 
#
# 1 67.8738 10.3945 17.3901 5.4757 3.0588 17.2166
# 2 10.3945 49.3197 24.2842 5.2328 -6.5067 24.1958
# 3 17.3901 24.2842 122.0775 5.7757 17.9847 12.1500
# 4 5.4757 5.2328 5.7757 35.8195 9.1341 6.6298
# 5 3.0588 -6.5067 17.9847 9.1341 30.5454 2.8730
# 6 17.2166 24.1958 12.1500 6.6298 2.8730 35.2418
#
#
#
# Elastic Compliance Matrix: (Units=1/GPa)
#
#
# Indices 1 2 3 4 5 6 
#
# 1 0.017286 0.002105 -0.002096 -0.001239 0.001172 -0.009029
# 2 0.002105 0.038665 -0.007640 -0.004143 0.016159 -0.025478
# 3 -0.002096 -0.007640 0.010907 0.001300 -0.008506 0.002958
# 4 -0.001239 -0.004143 0.001300 0.031638 -0.010790 -0.002070
# 5 0.001172 0.016159 -0.008506 -0.010790 0.045276 -0.010395
# 6 -0.009029 -0.025478 0.002958 -0.002070 -0.010395 0.050496
#
#
# Mechanical properties :
#
#
# Convention : Reuss Voigt Hill
#
# Bulk Modulus (GPa) = 19.38187 38.15650 28.76918
# Shear Modulus (GPa) = 22.05283 32.80148 27.42715
#
# Velocity S-wave (km/s) = 3.26310 3.97965 3.63905
# Velocity P-wave (km/s) = 4.85338 6.28808 5.61673
#
# Compressibility (1/GPa) = 0.05159462
#
# Stress axis : x y z
#
# Youngs Moduli (GPa) = 57.85194 25.86321 91.68227
#
# Poissons Ratio (x) = -0.05444 0.19220
# Poissons Ratio (y) = -0.12177 0.70046
# Poissons Ratio (z) = 0.12128 0.19760
#
# Static dielectric constant tensor:
#      x y z
#    x 1.611570 -0.010740 -0.028970 
#    y -0.010740 1.843890 -0.114140 
#    z -0.028970 -0.114140 1.911960 
# 
# From -- ./inp_files/433954.got.cif
#   From: 2010.05.17/outbox.cif.g08.bks.cpg/sg2_217_cif.got.tgz:433954.got - 2010.06.03 11:33:40.
