data_PCOD9057519
_publ_section_title
;
Structure prediction by ZEFSAII (Michael W. Deem and Ramdas Pophale) SiO2 
 PCOD9057519
Probable space group: P -1
;
_chemical_formula_sum "Si O2"
_cell_formula_units_Z 16
_cell_length_a 28.106716
_cell_length_b 5.360499
_cell_length_c 13.801971
_cell_angle_alpha 66.236969
_cell_angle_beta 156.020833
_cell_angle_gamma 119.614363
_cell_volume 727.745776
_symmetry_space_group_name_H-M "P -1"
_symmetry_group_IT_number 2
_symmetry_cell_setting 'triclinic'
loop_
_space_group_symop_operation_xyz
x,y,z
-x,-y,-z
loop_
_atom_site_type_symbol
_atom_site_label
_atom_site_fract_x
_atom_site_fract_y
_atom_site_fract_z
Si Si1 0.754305 0.792105 0.403489
Si Si2 0.911357 0.850267 0.504465
Si Si3 0.697307 0.468618 0.055722
Si Si4 0.583452 0.806805 0.653840
Si Si5 0.864116 0.324177 0.234761
Si Si6 0.614298 0.215269 0.123051
Si Si7 0.921014 0.658517 0.889285
Si Si8 0.834160 0.252514 0.977974
O O1 0.859090 0.928865 0.494835
O O2 0.653842 0.527454 0.200937
O O3 0.808935 0.652926 0.611949
O O4 0.709738 0.037410 0.327693
O O5 0.813030 0.544834 0.335956
O O6 0.051230 0.870330 0.778604
O O7 0.881435 0.017246 0.331108
O O8 0.751334 0.342737 0.086518
O O9 0.591003 0.258500 0.958878
O O10 0.646204 0.709993 0.879038
O O11 0.500000 0.500000 0.500000
O O12 0.500000 0.000000 0.500000
O O13 0.698593 0.001702 0.769711
O O14 0.843321 0.408362 0.074810
O O15 0.000000 0.500000 0.500000
O O16 0.500000 0.000000 0.000000
O O17 0.869435 0.475372 0.919703
O O18 0.000000 0.500000 0.000000
O O19 0.000000 0.000000 0.000000
#
# Coordination Sequence:
#
# PCOD9057519 Si02
#       8
#     2   2   2   2   2   2   2   2
#     4  11  24  45  71 105 146 186 238 303 363 431
#     4  11  22  42  72 111 141 175 238 311 387 422
#     4  11  24  44  71 105 145 184 239 319 363 426
#     4  12  29  49  69 101 148 203 250 291 351 443
#     4  12  22  37  72 109 145 177 230 306 385 439
#     4  11  25  45  75 105 140 192 249 298 361 428
#     4  12  28  46  71 105 154 194 234 297 373 454
#     4  12  26  47  73 112 147 200 248 302 380 452
#
# _framework density 21.985697999999999
#
# number of rings (size 3 to 8) (size 9 to 14) (size 15 to 20)
#    0.000    0.500    5.000    3.000    3.500    4.000 
#    0.000    0.000    0.000    0.000    0.000    0.000 
#    0.000    0.000    0.000    0.000    0.000    0.000 
#
# Total GULP energy -89240.156611 kJ/mol
# GULP energy per Si atom -5577.509788 kJ/mol
# Density = 2.193566 g / cm^3
# Si number density = 21.985698 Si / 1000 Ang^3
#
#
#
# Elastic Constant Matrix: (Units=GPa)
#
#
# Indices 1 2 3 4 5 6 
#
# 1 146.0491 59.3498 41.3006 -9.5258 3.6798 35.1880
# 2 59.3498 130.5066 53.9408 -8.0374 10.9956 16.1313
# 3 41.3006 53.9408 97.1485 -4.0253 6.9816 8.6122
# 4 -9.5258 -8.0374 -4.0253 51.8844 1.2912 -3.3074
# 5 3.6798 10.9956 6.9816 1.2912 38.9655 -6.5457
# 6 35.1880 16.1313 8.6122 -3.3074 -6.5457 51.8840
#
#
#
# Elastic Compliance Matrix: (Units=1/GPa)
#
#
# Indices 1 2 3 4 5 6 
#
# 1 0.010036 -0.002900 -0.002071 0.000894 -0.000728 -0.005596
# 2 -0.002900 0.011316 -0.004765 0.000844 -0.002260 -0.000992
# 3 -0.002071 -0.004765 0.013839 0.000007 -0.000859 0.000481
# 4 0.000894 0.000844 0.000007 0.019609 -0.000929 0.000263
# 5 -0.000728 -0.002260 -0.000859 -0.000929 0.027350 0.004730
# 6 -0.005596 -0.000992 0.000481 0.000263 0.004730 0.023911
#
#
# Mechanical properties :
#
#
# Convention : Reuss Voigt Hill
#
# Bulk Modulus (GPa) = 63.61637 75.87629 69.74633
# Shear Modulus (GPa) = 38.23478 43.15431 40.69454
#
# Velocity S-wave (km/s) = 4.17475 4.43520 4.30694
# Velocity P-wave (km/s) = 7.22746 7.79837 7.51833
#
# Compressibility (1/GPa) = 0.01571922
#
# Stress axis : x y z
#
# Youngs Moduli (GPa) = 99.64117 88.37379 72.26014
#
# Poissons Ratio (x) = 0.25628 0.14965
# Poissons Ratio (y) = 0.28896 0.34430
# Poissons Ratio (z) = 0.20635 0.42107
#
# Static dielectric constant tensor:
#      x y z
#    x 2.003450 0.562510 0.332230 
#    y 0.562510 3.752600 1.218080 
#    z 0.332230 1.218080 2.548900 
# 
# From -- ./inp_files/473400.got.cif
#   From: 2010.05.17/outbox.cif.g08.bks.cpg/sg2_237_cif.got.tgz:473400.got - 2010.06.03 11:33:40.
