data_PCOD9057751
_publ_section_title
;
Structure prediction by ZEFSAII (Michael W. Deem and Ramdas Pophale) SiO2 
 PCOD9057751
Probable space group: P -1
;
_chemical_formula_sum "Si O2"
_cell_formula_units_Z 14
_cell_length_a 7.623665
_cell_length_b 13.075517
_cell_length_c 7.552842
_cell_angle_alpha 105.800721
_cell_angle_beta 103.128912
_cell_angle_gamma 122.336171
_cell_volume 543.959408
_symmetry_space_group_name_H-M "P -1"
_symmetry_group_IT_number 2
_symmetry_cell_setting 'triclinic'
loop_
_space_group_symop_operation_xyz
x,y,z
-x,-y,-z
loop_
_atom_site_type_symbol
_atom_site_label
_atom_site_fract_x
_atom_site_fract_y
_atom_site_fract_z
Si Si1 0.177907 0.417394 0.008789
Si Si2 0.876115 0.896196 0.683465
Si Si3 0.229482 0.365625 0.360296
Si Si4 0.360077 0.286452 0.797561
Si Si5 0.429443 0.101347 0.886597
Si Si6 0.039753 0.608107 0.412099
Si Si7 0.493920 0.903860 0.700978
O O1 0.209382 0.308730 0.893657
O O2 0.055440 0.436182 0.831341
O O3 0.096239 0.373060 0.170789
O O4 0.435233 0.563495 0.160827
O O5 0.784968 0.766383 0.725635
O O6 0.793438 0.830807 0.438687
O O7 0.848115 0.997440 0.191998
O O8 0.746107 0.954834 0.732100
O O9 0.500000 0.500000 0.500000
O O10 0.101722 0.349733 0.504735
O O11 0.493315 0.242398 0.907983
O O12 0.548447 0.121765 0.109811
O O13 0.472575 0.021892 0.720692
O O14 0.000000 0.500000 0.500000
O O15 0.302929 0.749599 0.511211
#
# Coordination Sequence:
#
# PCOD9057751 Si02
#       7
#     2   2   2   2   2   2   2
#     4  11  23  43  73 107 142 192 238 295 369 424
#     4  12  23  45  74 103 140 193 236 296 369 422
#     4  12  22  43  74 104 142 190 237 293 362 433
#     4  11  22  43  70 105 142 180 245 298 352 436
#     4  11  24  46  71  99 145 190 240 300 360 426
#     4  12  25  45  68 106 152 185 239 307 354 429
#     4  11  25  45  68 104 142 186 244 295 356 431
#
# _framework density 25.737213000000001
#
# number of rings (size 3 to 8) (size 9 to 14) (size 15 to 20)
#    0.000    0.571    4.286    4.286    0.000    1.143 
#    2.571    0.000    0.000    0.000    0.000    0.000 
#    0.000    0.000    0.000    0.000    0.000    0.000 
#
# Total GULP energy -78401.569638 kJ/mol
# GULP energy per Si atom -5600.112117 kJ/mol
# Density = 2.567863 g / cm^3
# Si number density = 25.737213 Si / 1000 Ang^3
#
#
#
# Elastic Constant Matrix: (Units=GPa)
#
#
# Indices 1 2 3 4 5 6 
#
# 1 103.4648 23.0775 2.6795 17.6226 -8.1341 -14.7445
# 2 23.0775 105.9179 23.6498 -4.3782 -4.8730 -28.8732
# 3 2.6795 23.6498 119.9877 -17.1738 3.5486 7.0857
# 4 17.6226 -4.3782 -17.1738 42.8192 -1.2322 3.0856
# 5 -8.1341 -4.8730 3.5486 -1.2322 35.7234 0.7038
# 6 -14.7445 -28.8732 7.0857 3.0856 0.7038 36.9634
#
#
#
# Elastic Compliance Matrix: (Units=1/GPa)
#
#
# Indices 1 2 3 4 5 6 
#
# 1 0.011743 -0.001236 -0.001158 -0.005671 0.002339 0.004370
# 2 -0.001236 0.013409 -0.003314 -0.000165 0.001662 0.010599
# 3 -0.001158 -0.003314 0.010014 0.004495 -0.001451 -0.005318
# 4 -0.005671 -0.000165 0.004495 0.027855 -0.000690 -0.005565
# 5 0.002339 0.001662 -0.001451 -0.000690 0.028833 0.002018
# 6 0.004370 0.010599 -0.005318 -0.005565 0.002018 0.038522
#
#
# Mechanical properties :
#
#
# Convention : Reuss Voigt Hill
#
# Bulk Modulus (GPa) = 42.10322 47.57602 44.83962
# Shear Modulus (GPa) = 33.39830 41.76544 37.58187
#
# Velocity S-wave (km/s) = 3.60622 4.03273 3.82542
# Velocity P-wave (km/s) = 5.80811 6.34108 6.08044
#
# Compressibility (1/GPa) = 0.02375115
#
# Stress axis : x y z
#
# Youngs Moduli (GPa) = 85.15511 74.57410 99.86405
#
# Poissons Ratio (x) = 0.09216 0.11560
# Poissons Ratio (y) = 0.10523 0.33097
# Poissons Ratio (z) = 0.09858 0.24715
#
# Static dielectric constant tensor:
#      x y z
#    x 1.996000 -0.056660 0.006630 
#    y -0.056660 2.082500 -0.048670 
#    z 0.006630 -0.048670 2.023590 
# 
# From -- ./inp_files/181893.got.cif
#   From: 2010.05.17/outbox.cif.g08.bks.cpg/sg2_91_cif.got.tgz:181893.got - 2010.06.03 11:33:40.
