data_PCOD9057159
_publ_section_title
;
Structure prediction by ZEFSAII (Michael W. Deem and Ramdas Pophale) SiO2 
 PCOD9057159
Probable space group: P -1
;
_chemical_formula_sum "Si O2"
_cell_formula_units_Z 16
_cell_length_a 19.777358
_cell_length_b 11.030380
_cell_length_c 8.214496
_cell_angle_alpha 137.982723
_cell_angle_beta 34.659857
_cell_angle_gamma 129.901880
_cell_volume 679.978152
_symmetry_space_group_name_H-M "P -1"
_symmetry_group_IT_number 2
_symmetry_cell_setting 'triclinic'
loop_
_space_group_symop_operation_xyz
x,y,z
-x,-y,-z
loop_
_atom_site_type_symbol
_atom_site_label
_atom_site_fract_x
_atom_site_fract_y
_atom_site_fract_z
Si Si1 0.375094 0.888098 0.956445
Si Si2 0.930040 0.879179 0.881492
Si Si3 0.833305 0.601757 0.335908
Si Si4 0.216473 0.852947 0.702103
Si Si5 0.928738 0.503812 0.403330
Si Si6 0.547427 0.243613 0.987541
Si Si7 0.142486 0.964298 0.314565
Si Si8 0.436316 0.550663 0.341451
O O1 0.442952 0.764647 0.573612
O O2 0.438697 0.089410 0.040562
O O3 0.388733 0.784739 0.995793
O O4 0.240292 0.900560 0.181799
O O5 0.917446 0.663551 0.715231
O O6 0.012955 0.905745 0.583012
O O7 0.806668 0.964611 0.168825
O O8 0.000000 0.000000 0.000000
O O9 0.860476 0.558568 0.427641
O O10 0.702782 0.518447 0.462412
O O11 0.841920 0.818508 0.513033
O O12 0.936453 0.521290 0.943574
O O13 0.135889 0.689453 0.614223
O O14 0.351636 0.804209 0.388382
O O15 0.168079 0.875552 0.002505
O O16 0.500935 0.437793 0.238208
O O17 0.500000 0.500000 0.000000
#
# Coordination Sequence:
#
# PCOD9057159 Si02
#       8
#     2   2   2   2   2   2   2   2
#     4  11  25  46  69  94 141 182 220 284 342 400
#     4  12  26  44  66 100 138 176 218 273 344 412
#     4  11  22  41  71  99 131 173 223 285 332 392
#     4  12  25  43  70 101 130 176 230 282 329 403
#     4  11  23  43  68  99 134 171 220 278 341 390
#     4  11  26  45  67  99 138 180 226 277 343 401
#     4  12  22  45  71  98 131 179 227 281 338 394
#     4  12  25  43  70 104 132 179 234 278 334 398
#
# _framework density 23.530168
#
# number of rings (size 3 to 8) (size 9 to 14) (size 15 to 20)
#    0.000    0.500    3.750    6.000    1.750    2.500 
#    2.250    0.000    0.000    0.000    0.000    0.000 
#    0.000    0.000    0.000    0.000    0.000    0.000 
#
# Total GULP energy -89691.979265 kJ/mol
# GULP energy per Si atom -5605.748704 kJ/mol
# Density = 2.347661 g / cm^3
# Si number density = 23.530168 Si / 1000 Ang^3
#
#
#
# Elastic Constant Matrix: (Units=GPa)
#
#
# Indices 1 2 3 4 5 6 
#
# 1 91.1090 4.2667 26.8736 9.7478 -17.8870 2.0281
# 2 4.2667 50.8389 8.9177 23.1822 -3.5568 0.6151
# 3 26.8736 8.9177 85.1628 16.5742 -18.1478 -1.8433
# 4 9.7478 23.1822 16.5742 46.2471 4.2548 0.6311
# 5 -17.8870 -3.5568 -18.1478 4.2548 48.1591 2.4190
# 6 2.0281 0.6151 -1.8433 0.6311 2.4190 24.3846
#
#
#
# Elastic Compliance Matrix: (Units=1/GPa)
#
#
# Indices 1 2 3 4 5 6 
#
# 1 0.012875 0.000852 -0.002837 -0.002477 0.004077 -0.001647
# 2 0.000852 0.026040 0.000437 -0.013715 0.003651 -0.000702
# 3 -0.002837 0.000437 0.014710 -0.005361 0.004946 0.000985
# 4 -0.002477 -0.013715 -0.005361 0.031562 -0.006741 -0.000001
# 5 0.004077 0.003651 0.004946 -0.006741 0.025127 -0.002375
# 6 -0.001647 -0.000702 0.000985 -0.000001 -0.002375 0.041474
#
#
# Mechanical properties :
#
#
# Convention : Reuss Voigt Hill
#
# Bulk Modulus (GPa) = 19.79099 34.13631 26.96365
# Shear Modulus (GPa) = 29.11580 36.22836 32.67208
#
# Velocity S-wave (km/s) = 3.52146 3.92810 3.73033
# Velocity P-wave (km/s) = 4.99634 5.92556 5.48068
#
# Compressibility (1/GPa) = 0.05052803
#
# Stress axis : x y z
#
# Youngs Moduli (GPa) = 77.67097 38.40263 67.97920
#
# Poissons Ratio (x) = -0.03270 0.19284
# Poissons Ratio (y) = -0.06614 -0.02968
# Poissons Ratio (z) = 0.22033 -0.01677
#
# Static dielectric constant tensor:
#      x y z
#    x 1.904830 -0.021630 0.039950 
#    y -0.021630 1.888250 0.033000 
#    z 0.039950 0.033000 1.874830 
# 
# From -- ./inp_files/333428.got.cif
#   From: 2010.05.17/outbox.cif.g08.bks.cpg/sg2_167_cif.got.tgz:333428.got - 2010.06.03 11:33:40.
