data_PCOD9057474
_publ_section_title
;
Structure prediction by ZEFSAII (Michael W. Deem and Ramdas Pophale) SiO2 
 PCOD9057474
Probable space group: P -1
;
_chemical_formula_sum "Si O2"
_cell_formula_units_Z 13
_cell_length_a 16.509396
_cell_length_b 11.561964
_cell_length_c 14.859860
_cell_angle_alpha 142.238266
_cell_angle_beta 22.992891
_cell_angle_gamma 151.902452
_cell_volume 518.250397
_symmetry_space_group_name_H-M "P -1"
_symmetry_group_IT_number 2
_symmetry_cell_setting 'triclinic'
loop_
_space_group_symop_operation_xyz
x,y,z
-x,-y,-z
loop_
_atom_site_type_symbol
_atom_site_label
_atom_site_fract_x
_atom_site_fract_y
_atom_site_fract_z
Si Si1 0.148272 0.434177 0.119161
Si Si2 0.394812 0.285903 0.648869
Si Si3 0.162777 0.066142 0.099835
Si Si4 0.856866 0.744529 0.373803
Si Si5 0.740641 0.476320 0.741764
Si Si6 0.220783 0.888519 0.264321
Si Si7 0.500000 0.000000 0.500000
O O1 0.269998 0.450881 0.101086
O O2 0.153008 0.662756 0.250629
O O3 0.837310 0.191575 0.275919
O O4 0.343170 0.449550 0.857176
O O5 0.602338 0.454165 0.458957
O O6 0.504973 0.188251 0.541052
O O7 0.095161 0.069345 0.783992
O O8 0.209596 0.308692 0.235449
O O9 0.462886 0.199958 0.832795
O O10 0.072807 0.868081 0.147403
O O11 0.005516 0.791083 0.344595
O O12 0.761602 0.906554 0.573390
O O13 0.000000 0.500000 0.500000
O O14 0.500000 0.000000 0.000000
#
# Coordination Sequence:
#
# PCOD9057474 Si02
#       7
#     2   2   2   2   2   2   1
#     4  12  25  45  76 100 139 187 244 290 346 430
#     4  12  26  47  73 106 142 184 239 300 355 424
#     4  11  26  45  69 105 143 187 237 290 357 420
#     4  11  24  44  71 103 147 181 238 292 357 421
#     4  11  26  46  70 101 145 192 233 291 351 423
#     4  11  22  42  71 104 135 186 235 288 349 425
#     4  12  26  44  70 102 140 184 234 290 362 412
#
# _framework density 25.084399999999999
#
# number of rings (size 3 to 8) (size 9 to 14) (size 15 to 20)
#    0.000    0.615    4.615    2.769    4.308    1.231 
#    0.000    0.769    0.000    0.000    0.000    0.000 
#    0.000    0.000    0.000    0.000    0.000    0.000 
#
# Total GULP energy -72499.882239 kJ/mol
# GULP energy per Si atom -5576.914018 kJ/mol
# Density = 2.502731 g / cm^3
# Si number density = 25.084400 Si / 1000 Ang^3
#
#
#
# Elastic Constant Matrix: (Units=GPa)
#
#
# Indices 1 2 3 4 5 6 
#
# 1 74.9488 39.5417 18.6439 -12.6480 -21.4132 -18.3986
# 2 39.5417 126.1884 43.0363 -23.5747 -13.7938 -35.5563
# 3 18.6439 43.0363 121.0037 -22.3799 -27.8815 -5.1558
# 4 -12.6480 -23.5747 -22.3799 44.4134 2.8247 -1.9422
# 5 -21.4132 -13.7938 -27.8815 2.8247 34.7861 -7.8340
# 6 -18.3986 -35.5563 -5.1558 -1.9422 -7.8340 51.8743
#
#
#
# Elastic Compliance Matrix: (Units=1/GPa)
#
#
# Indices 1 2 3 4 5 6 
#
# 1 0.021674 -0.002351 0.002622 0.005616 0.016077 0.008975
# 2 -0.002351 0.013298 -0.002138 0.005465 0.003656 0.008825
# 3 0.002622 -0.002138 0.012127 0.005155 0.010623 0.002467
# 4 0.005616 0.005465 0.005155 0.029402 0.009341 0.008762
# 5 0.016077 0.003656 0.010623 0.009341 0.051775 0.017433
# 6 0.008975 0.008825 0.002467 0.008762 0.017433 0.031716
#
#
# Mechanical properties :
#
#
# Convention : Reuss Voigt Hill
#
# Bulk Modulus (GPa) = 23.05968 58.28718 40.67343
# Shear Modulus (GPa) = 28.06140 40.94272 34.50206
#
# Velocity S-wave (km/s) = 3.34829 4.04443 3.71271
# Velocity P-wave (km/s) = 4.91537 6.71541 5.88463
#
# Compressibility (1/GPa) = 0.04336574
#
# Stress axis : x y z
#
# Youngs Moduli (GPa) = 46.13726 75.20069 82.46130
#
# Poissons Ratio (x) = 0.17676 -0.21621
# Poissons Ratio (y) = 0.10845 0.17631
# Poissons Ratio (z) = -0.12097 0.16079
#
# Static dielectric constant tensor:
#      x y z
#    x 2.058380 0.037850 0.140790 
#    y 0.037850 2.022950 -0.022750 
#    z 0.140790 -0.022750 2.084570 
# 
# From -- ./inp_files/59491.got.cif
#   From: 2010.05.17/outbox.cif.g08.bks.cpg/sg2_30_cif.got.tgz:59491.got - 2010.06.03 11:33:40.
