data_PCOD9057379
_publ_section_title
;
Structure prediction by ZEFSAII (Michael W. Deem and Ramdas Pophale) SiO2 
 PCOD9057379
Probable space group: P -1
;
_chemical_formula_sum "Si O2"
_cell_formula_units_Z 16
_cell_length_a 16.723963
_cell_length_b 9.009126
_cell_length_c 6.810037
_cell_angle_alpha 86.459456
_cell_angle_beta 92.973441
_cell_angle_gamma 136.753904
_cell_volume 701.608257
_symmetry_space_group_name_H-M "P -1"
_symmetry_group_IT_number 2
_symmetry_cell_setting 'triclinic'
loop_
_space_group_symop_operation_xyz
x,y,z
-x,-y,-z
loop_
_atom_site_type_symbol
_atom_site_label
_atom_site_fract_x
_atom_site_fract_y
_atom_site_fract_z
Si Si1 0.972978 0.238918 0.005736
Si Si2 0.106154 0.082636 0.644802
Si Si3 0.487813 0.551734 0.206907
Si Si4 0.302376 0.812342 0.463871
Si Si5 0.578491 0.207089 0.854330
Si Si6 0.310054 0.176043 0.490230
Si Si7 0.223865 0.510347 0.830039
Si Si8 0.066255 0.580641 0.297609
O O1 0.981094 0.376153 0.161096
O O2 0.099047 0.388315 0.911315
O O3 0.935617 0.044838 0.141746
O O4 0.901109 0.219680 0.821602
O O5 0.183063 0.063738 0.542549
O O6 0.193503 0.332857 0.696581
O O7 0.000000 0.000000 0.500000
O O8 0.485811 0.726331 0.199841
O O9 0.365595 0.330065 0.296881
O O10 0.598854 0.653435 0.341372
O O11 0.500000 0.500000 0.000000
O O12 0.391558 0.842900 0.335715
O O13 0.282533 0.712951 0.681458
O O14 0.180428 0.638081 0.344309
O O15 0.319499 0.011861 0.474186
O O16 0.692014 0.403556 0.982438
O O17 0.500000 0.000000 0.000000
O O18 0.000000 0.500000 0.500000
#
# Coordination Sequence:
#
# PCOD9057379 Si02
#       8
#     2   2   2   2   2   2   2   2
#     4  11  25  42  69 103 144 196 246 286 361 438
#     4  12  28  47  73 109 155 195 242 300 371 439
#     4  11  25  50  75 100 144 188 247 306 368 425
#     4  12  25  44  73 105 147 182 240 303 364 429
#     4  12  27  46  76 108 142 191 243 307 372 429
#     4  11  27  46  73 106 140 193 243 303 364 439
#     4  12  26  46  70 106 148 187 245 301 359 441
#     4  11  22  42  69 101 144 189 235 296 351 430
#
# _framework density 22.804749999999999
#
# number of rings (size 3 to 8) (size 9 to 14) (size 15 to 20)
#    0.000    0.500    2.500    4.875    5.250    7.000 
#    0.000    0.000    0.000    0.000    0.000    0.000 
#    0.000    0.000    0.000    0.000    0.000    0.000 
#
# Total GULP energy -89518.264324 kJ/mol
# GULP energy per Si atom -5594.891520 kJ/mol
# Density = 2.275285 g / cm^3
# Si number density = 22.804750 Si / 1000 Ang^3
#
#
#
# Elastic Constant Matrix: (Units=GPa)
#
#
# Indices 1 2 3 4 5 6 
#
# 1 126.1770 17.6308 54.3401 -8.5381 -21.6143 -5.6119
# 2 17.6308 88.1315 26.8559 -15.6121 -13.8795 -22.0383
# 3 54.3401 26.8559 130.5757 -16.3715 -18.3554 -5.1792
# 4 -8.5381 -15.6121 -16.3715 55.7754 0.7031 1.7599
# 5 -21.6143 -13.8795 -18.3554 0.7031 49.2349 5.3443
# 6 -5.6119 -22.0383 -5.1792 1.7599 5.3443 33.5432
#
#
#
# Elastic Compliance Matrix: (Units=1/GPa)
#
#
# Indices 1 2 3 4 5 6 
#
# 1 0.010089 -0.000261 -0.003672 0.000342 0.002931 0.000464
# 2 -0.000261 0.015232 -0.001901 0.003348 0.002434 0.009107
# 3 -0.003672 -0.001901 0.010011 0.001845 0.001631 -0.000674
# 4 0.000342 0.003348 0.001845 0.019402 0.001363 0.001306
# 5 0.002931 0.002434 0.001631 0.001363 0.023024 -0.001398
# 6 0.000464 0.009107 -0.000674 0.001306 -0.001398 0.035923
#
#
# Mechanical properties :
#
#
# Convention : Reuss Voigt Hill
#
# Bulk Modulus (GPa) = 42.25685 60.28198 51.26942
# Shear Modulus (GPa) = 37.52709 44.11452 40.82080
#
# Velocity S-wave (km/s) = 4.06098 4.40300 4.23544
# Velocity P-wave (km/s) = 6.36858 7.23463 6.81538
#
# Compressibility (1/GPa) = 0.02366480
#
# Stress axis : x y z
#
# Youngs Moduli (GPa) = 99.11759 65.65208 99.88760
#
# Poissons Ratio (x) = 0.01714 0.36674
# Poissons Ratio (y) = 0.02588 0.18989
# Poissons Ratio (z) = 0.36391 0.12480
#
# Static dielectric constant tensor:
#      x y z
#    x 1.920180 0.016990 0.060820 
#    y 0.016990 1.904730 0.030010 
#    z 0.060820 0.030010 1.884930 
# 
# From -- ./inp_files/106742.got.cif
#   From: 2010.05.17/outbox.cif.g08.bks.cpg/sg2_54_cif.got.tgz:106742.got - 2010.06.03 11:33:40.
