data_PCOD9057798
_publ_section_title
;
Structure prediction by ZEFSAII (Michael W. Deem and Ramdas Pophale) SiO2 
 PCOD9057798
Probable space group: P -1
;
_chemical_formula_sum "Si O2"
_cell_formula_units_Z 16
_cell_length_a 11.030860
_cell_length_b 9.857140
_cell_length_c 9.407393
_cell_angle_alpha 116.122938
_cell_angle_beta 112.107894
_cell_angle_gamma 106.689804
_cell_volume 713.710979
_symmetry_space_group_name_H-M "P -1"
_symmetry_group_IT_number 2
_symmetry_cell_setting 'triclinic'
loop_
_space_group_symop_operation_xyz
x,y,z
-x,-y,-z
loop_
_atom_site_type_symbol
_atom_site_label
_atom_site_fract_x
_atom_site_fract_y
_atom_site_fract_z
Si Si1 0.063427 0.122870 0.833216
Si Si2 0.647517 0.685678 0.590120
Si Si3 0.438020 0.149988 0.150974
Si Si4 0.280177 0.064669 0.519237
Si Si5 0.388681 0.316562 0.946979
Si Si6 0.839255 0.167792 0.242646
Si Si7 0.084119 0.348300 0.213333
Si Si8 0.734011 0.248677 0.515061
O O1 0.225957 0.287135 0.915142
O O2 0.100127 0.967424 0.790907
O O3 0.035627 0.201038 0.000832
O O4 0.905363 0.034320 0.632217
O O5 0.500000 0.500000 0.500000
O O6 0.680497 0.831915 0.791577
O O7 0.633689 0.772768 0.480639
O O8 0.790587 0.660967 0.637214
O O9 0.580255 0.201967 0.339815
O O10 0.474307 0.289423 0.104117
O O11 0.338707 0.952551 0.948226
O O12 0.335173 0.155121 0.738556
O O13 0.308463 0.903427 0.457325
O O14 0.500000 0.500000 0.000000
O O15 0.839423 0.240407 0.431956
O O16 0.944100 0.311412 0.235765
O O17 0.175961 0.551640 0.290225
#
# Coordination Sequence:
#
# PCOD9057798 Si02
#       8
#     2   2   2   2   2   2   2   2
#     4  11  23  45  75  99 138 188 251 288 343 427
#     4  12  23  44  76 103 136 187 248 292 341 430
#     4  11  23  45  71 100 141 187 239 278 361 432
#     4  12  26  44  72 106 145 187 232 300 361 416
#     4  11  24  42  73 107 137 182 242 301 341 411
#     4  11  22  43  71 103 133 192 237 290 349 424
#     4  12  24  45  73 105 136 190 245 293 348 422
#     4  12  27  44  68 107 153 183 227 297 371 422
#
# _framework density 22.418040999999999
#
# number of rings (size 3 to 8) (size 9 to 14) (size 15 to 20)
#    0.000    0.500    7.500    3.000    0.000    1.000 
#    2.250    0.000    0.000    0.000    0.000    0.000 
#    0.000    0.000    0.000    0.000    0.000    0.000 
#
# Total GULP energy -89417.735627 kJ/mol
# GULP energy per Si atom -5588.608477 kJ/mol
# Density = 2.236702 g / cm^3
# Si number density = 22.418041 Si / 1000 Ang^3
#
#
#
# Elastic Constant Matrix: (Units=GPa)
#
#
# Indices 1 2 3 4 5 6 
#
# 1 63.1286 33.8063 7.4911 4.5743 16.2073 8.3898
# 2 33.8063 128.5042 8.8230 -1.5050 19.3232 7.9017
# 3 7.4911 8.8230 48.2533 5.5135 7.5200 -14.9528
# 4 4.5743 -1.5050 5.5135 32.9690 -2.1936 1.2594
# 5 16.2073 19.3232 7.5200 -2.1936 44.7321 2.4544
# 6 8.3898 7.9017 -14.9528 1.2594 2.4544 37.4415
#
#
#
# Elastic Compliance Matrix: (Units=1/GPa)
#
#
# Indices 1 2 3 4 5 6 
#
# 1 0.020485 -0.004213 -0.002650 -0.002762 -0.005054 -0.004335
# 2 -0.004213 0.009412 -0.001310 0.001144 -0.002183 -0.001461
# 3 -0.002650 -0.001310 0.026131 -0.004758 -0.003743 0.011711
# 4 -0.002762 0.001144 -0.004758 0.031871 0.003023 -0.002793
# 5 -0.005054 -0.002183 -0.003743 0.003023 0.026001 -0.001708
# 6 -0.004335 -0.001461 0.011711 -0.002793 -0.001708 0.032871
#
#
# Mechanical properties :
#
#
# Convention : Reuss Voigt Hill
#
# Bulk Modulus (GPa) = 25.20048 37.79186 31.49617
# Shear Modulus (GPa) = 28.35380 35.67959 32.01670
#
# Velocity S-wave (km/s) = 3.56023 3.99376 3.78321
# Velocity P-wave (km/s) = 5.30715 6.17748 5.75878
#
# Compressibility (1/GPa) = 0.03968178
#
# Stress axis : x y z
#
# Youngs Moduli (GPa) = 48.81583 106.25256 38.26858
#
# Poissons Ratio (x) = 0.44764 0.10141
# Poissons Ratio (y) = 0.20566 0.05013
# Poissons Ratio (z) = 0.12936 0.13920
#
# Static dielectric constant tensor:
#      x y z
#    x 1.878160 0.012280 -0.001020 
#    y 0.012280 1.871450 0.012930 
#    z -0.001020 0.012930 1.832630 
# 
# From -- ./inp_files/245141.got.cif
#   From: 2010.05.17/outbox.cif.g08.bks.cpg/sg2_123_cif.got.tgz:245141.got - 2010.06.03 11:33:40.
