data_PCOD9057446
_publ_section_title
;
Structure prediction by ZEFSAII (Michael W. Deem and Ramdas Pophale) SiO2 
 PCOD9057446
Probable space group: P -1
;
_chemical_formula_sum "Si O2"
_cell_formula_units_Z 14
_cell_length_a 19.526111
_cell_length_b 15.251997
_cell_length_c 6.252910
_cell_angle_alpha 45.167241
_cell_angle_beta 54.441660
_cell_angle_gamma 25.560846
_cell_volume 560.688879
_symmetry_space_group_name_H-M "P -1"
_symmetry_group_IT_number 2
_symmetry_cell_setting 'triclinic'
loop_
_space_group_symop_operation_xyz
x,y,z
-x,-y,-z
loop_
_atom_site_type_symbol
_atom_site_label
_atom_site_fract_x
_atom_site_fract_y
_atom_site_fract_z
Si Si1 0.361605 0.167869 0.645717
Si Si2 0.249723 0.965553 0.053916
Si Si3 0.304916 0.017395 0.296029
Si Si4 0.001843 0.657491 0.476515
Si Si5 0.253896 0.702679 0.567553
Si Si6 0.961163 0.149653 0.628418
Si Si7 0.465010 0.304965 0.226308
O O1 0.171082 0.387756 0.560890
O O2 0.374620 0.294420 0.474508
O O3 0.500000 0.000000 0.500000
O O4 0.384378 0.040321 0.012658
O O5 0.330700 0.729975 0.280355
O O6 0.242575 0.009259 0.235746
O O7 0.372788 0.915434 0.829987
O O8 0.086319 0.173923 0.859106
O O9 0.140492 0.251013 0.325682
O O10 0.440950 0.769727 0.603288
O O11 0.035053 0.724139 0.474880
O O12 0.198286 0.683323 0.508936
O O13 0.351606 0.518644 0.899585
O O14 0.099021 0.955516 0.534139
O O15 0.000000 0.000000 0.000000
#
# Coordination Sequence:
#
# PCOD9057446 Si02
#       7
#     2   2   2   2   2   2   2
#     4  12  26  51  74 106 141 191 250 310 357 422
#     4  11  23  46  71 109 145 191 238 293 364 443
#     4  11  25  50  71 103 149 195 244 296 362 431
#     4  11  25  46  76 107 144 191 243 294 372 432
#     4  11  24  42  72 110 147 187 239 294 360 436
#     4  11  22  42  70 107 146 186 239 294 359 436
#     4  11  26  45  70 105 146 192 240 298 364 419
#
# _framework density 24.969287000000001
#
# number of rings (size 3 to 8) (size 9 to 14) (size 15 to 20)
#    0.000    0.857    4.286    2.143    2.000    3.429 
#    7.714    0.000    0.000    0.000    0.000    0.000 
#    0.000    0.000    0.000    0.000    0.000    0.000 
#
# Total GULP energy -78103.417155 kJ/mol
# GULP energy per Si atom -5578.815511 kJ/mol
# Density = 2.491246 g / cm^3
# Si number density = 24.969287 Si / 1000 Ang^3
#
#
#
# Elastic Constant Matrix: (Units=GPa)
#
#
# Indices 1 2 3 4 5 6 
#
# 1 109.5472 44.8500 71.4020 -4.2317 18.4812 -18.3868
# 2 44.8500 132.3487 41.0157 0.9778 16.4059 -19.5807
# 3 71.4020 41.0157 169.7150 -11.1605 20.7232 -23.4733
# 4 -4.2317 0.9778 -11.1605 42.2298 -15.2101 2.1971
# 5 18.4812 16.4059 20.7232 -15.2101 45.5715 0.1929
# 6 -18.3868 -19.5807 -23.4733 2.1971 0.1929 26.3164
#
#
#
# Elastic Compliance Matrix: (Units=1/GPa)
#
#
# Indices 1 2 3 4 5 6 
#
# 1 0.014274 -0.002393 -0.004508 -0.001104 -0.003264 0.004288
# 2 -0.002393 0.009658 -0.000339 -0.001920 -0.003016 0.005394
# 3 -0.004508 -0.000339 0.008744 0.001030 -0.001701 0.004324
# 4 -0.001104 -0.001920 0.001030 0.027647 0.009914 -0.003663
# 5 -0.003264 -0.003016 -0.001701 0.009914 0.028465 -0.007078
# 6 0.004288 0.005394 0.004324 -0.003663 -0.007078 0.049222
#
#
# Mechanical properties :
#
#
# Convention : Reuss Voigt Hill
#
# Bulk Modulus (GPa) = 54.95841 80.68291 67.82066
# Shear Modulus (GPa) = 31.53438 39.77977 35.65708
#
# Velocity S-wave (km/s) = 3.55762 3.99576 3.78304
# Velocity P-wave (km/s) = 6.23969 7.32606 6.80459
#
# Compressibility (1/GPa) = 0.01819558
#
# Stress axis : x y z
#
# Youngs Moduli (GPa) = 70.05630 103.54232 114.36055
#
# Poissons Ratio (x) = 0.24778 0.51555
# Poissons Ratio (y) = 0.16764 0.03880
# Poissons Ratio (z) = 0.31582 0.03513
#
# Static dielectric constant tensor:
#      x y z
#    x 2.048400 0.026030 -0.023070 
#    y 0.026030 2.063340 0.052340 
#    z -0.023070 0.052340 2.070840 
# 
# From -- ./inp_files/110642.got.cif
#   From: 2010.05.17/outbox.cif.g08.bks.cpg/sg2_56_cif.got.tgz:110642.got - 2010.06.03 11:33:40.
