data_PCOD9057342
_publ_section_title
;
Structure prediction by ZEFSAII (Michael W. Deem and Ramdas Pophale) SiO2 
 PCOD9057342
Probable space group: P -1
;
_chemical_formula_sum "Si O2"
_cell_formula_units_Z 16
_cell_length_a 15.550557
_cell_length_b 11.738942
_cell_length_c 5.443694
_cell_angle_alpha 96.494208
_cell_angle_beta 113.253206
_cell_angle_gamma 127.683334
_cell_volume 630.896629
_symmetry_space_group_name_H-M "P -1"
_symmetry_group_IT_number 2
_symmetry_cell_setting 'triclinic'
loop_
_space_group_symop_operation_xyz
x,y,z
-x,-y,-z
loop_
_atom_site_type_symbol
_atom_site_label
_atom_site_fract_x
_atom_site_fract_y
_atom_site_fract_z
Si Si1 0.262115 0.688970 0.764113
Si Si2 0.376650 0.246681 0.883890
Si Si3 0.839468 0.813953 0.582198
Si Si4 0.953851 0.154343 0.984798
Si Si5 0.510173 0.220079 0.666288
Si Si6 0.390744 0.494562 0.469722
Si Si7 0.290334 0.958107 0.034022
Si Si8 0.891098 0.501786 0.946562
O O1 0.211549 0.596824 0.425476
O O2 0.408170 0.769884 0.025570
O O3 0.264830 0.829043 0.797149
O O4 0.170163 0.576239 0.871848
O O5 0.274171 0.261864 0.767757
O O6 0.392994 0.201400 0.628374
O O7 0.530837 0.404730 0.166494
O O8 0.317499 0.099185 0.957191
O O9 0.749965 0.687468 0.676611
O O10 0.953600 0.818980 0.686636
O O11 0.902071 0.993838 0.751638
O O12 0.039003 0.312995 0.946759
O O13 0.836987 0.129835 0.959404
O O14 0.607007 0.391024 0.667252
O O15 0.427663 0.059580 0.366185
O O16 0.500000 0.500000 0.500000
O O17 0.000000 0.500000 0.000000
#
# Coordination Sequence:
#
# PCOD9057342 Si02
#       8
#     2   2   2   2   2   2   2   2
#     4  12  29  47  82 108 147 197 253 303 375 432
#     4  11  24  40  73  99 145 187 239 305 371 431
#     4  11  23  43  71 103 139 195 236 308 358 455
#     4  11  25  45  71 102 149 185 254 293 376 433
#     4  11  25  45  71 107 145 186 241 310 367 447
#     4  11  22  42  68 103 144 184 240 301 378 431
#     4  11  25  46  70 107 145 192 239 313 365 445
#     4  12  28  52  78 109 148 202 245 312 362 444
#
# _framework density 25.360733
#
# number of rings (size 3 to 8) (size 9 to 14) (size 15 to 20)
#    0.000    0.750    3.750    2.625    8.750    1.000 
#    0.000    1.250    0.000    0.000    0.000    0.000 
#    0.000    0.000    0.000    0.000    0.000    0.000 
#
# Total GULP energy -89568.210207 kJ/mol
# GULP energy per Si atom -5598.013138 kJ/mol
# Density = 2.530301 g / cm^3
# Si number density = 25.360733 Si / 1000 Ang^3
#
#
#
# Elastic Constant Matrix: (Units=GPa)
#
#
# Indices 1 2 3 4 5 6 
#
# 1 71.5064 13.8049 12.1984 -0.7241 6.7946 -11.1800
# 2 13.8049 81.6099 30.8796 13.9388 4.0293 -0.3743
# 3 12.1984 30.8796 66.6379 -13.5275 7.3048 3.0037
# 4 -0.7241 13.9388 -13.5275 35.7700 -10.6050 1.7913
# 5 6.7946 4.0293 7.3048 -10.6050 44.9095 -9.9424
# 6 -11.1800 -0.3743 3.0037 1.7913 -9.9424 27.9530
#
#
#
# Elastic Compliance Matrix: (Units=1/GPa)
#
#
# Indices 1 2 3 4 5 6 
#
# 1 0.015759 -0.001594 -0.002471 -0.000473 -0.000537 0.006386
# 2 -0.001594 0.018722 -0.010603 -0.012089 -0.002421 0.000666
# 3 -0.002471 -0.010603 0.023261 0.012987 -0.000412 -0.004609
# 4 -0.000473 -0.012089 0.012987 0.040069 0.008196 -0.001399
# 5 -0.000537 -0.002421 -0.000412 0.008196 0.026493 0.008695
# 6 0.006386 0.000666 -0.004609 -0.001399 0.008695 0.042015
#
#
# Mechanical properties :
#
#
# Convention : Reuss Voigt Hill
#
# Bulk Modulus (GPa) = 35.20282 37.05777 36.13029
# Shear Modulus (GPa) = 24.37552 32.58458 28.48005
#
# Velocity S-wave (km/s) = 3.10361 3.58836 3.35475
# Velocity P-wave (km/s) = 5.17244 5.64025 5.41140
#
# Compressibility (1/GPa) = 0.02840682
#
# Stress axis : x y z
#
# Youngs Moduli (GPa) = 63.45658 53.41245 42.98976
#
# Poissons Ratio (x) = 0.08514 0.10623
# Poissons Ratio (y) = 0.10115 0.45580
# Poissons Ratio (z) = 0.15681 0.56631
#
# Static dielectric constant tensor:
#      x y z
#    x 2.043220 -0.013810 -0.064480 
#    y -0.013810 1.984160 0.067100 
#    z -0.064480 0.067100 2.196910 
# 
# From -- ./inp_files/109749.got.cif
#   From: 2010.05.17/outbox.cif.g08.bks.cpg/sg2_55_cif.got.tgz:109749.got - 2010.06.03 11:33:40.
