data_PCOD9057498
_publ_section_title
;
Structure prediction by ZEFSAII (Michael W. Deem and Ramdas Pophale) SiO2 
 PCOD9057498
Probable space group: P -1
;
_chemical_formula_sum "Si O2"
_cell_formula_units_Z 14
_cell_length_a 9.337631
_cell_length_b 6.692949
_cell_length_c 11.455539
_cell_angle_alpha 74.220302
_cell_angle_beta 100.353779
_cell_angle_gamma 98.906118
_cell_volume 673.472712
_symmetry_space_group_name_H-M "P -1"
_symmetry_group_IT_number 2
_symmetry_cell_setting 'triclinic'
loop_
_space_group_symop_operation_xyz
x,y,z
-x,-y,-z
loop_
_atom_site_type_symbol
_atom_site_label
_atom_site_fract_x
_atom_site_fract_y
_atom_site_fract_z
Si Si1 0.616761 0.607107 0.592293
Si Si2 0.554658 0.191804 0.783445
Si Si3 0.845545 0.974865 0.547059
Si Si4 0.937830 0.678109 0.036734
Si Si5 0.143129 0.944981 0.185680
Si Si6 0.383622 0.442569 0.890926
Si Si7 0.602241 0.158626 0.339804
O O1 0.500000 0.500000 0.500000
O O2 0.631071 0.413867 0.710778
O O3 0.533715 0.784769 0.612832
O O4 0.768275 0.735990 0.556877
O O5 0.692082 0.060128 0.839766
O O6 0.450698 0.257374 0.860237
O O7 0.448286 0.056216 0.700084
O O8 0.855535 0.029751 0.678091
O O9 0.740219 0.125620 0.444921
O O10 0.000000 0.000000 0.500000
O O11 0.775469 0.618662 0.070407
O O12 0.043488 0.746049 0.150222
O O13 0.000000 0.500000 0.000000
O O14 0.927213 0.864817 0.913986
O O15 0.372527 0.644364 0.774846
O O16 0.500000 0.500000 0.000000
#
# Coordination Sequence:
#
# PCOD9057498 Si02
#       7
#     2   2   2   2   2   2   2
#     4  11  22  42  71  98 137 187 229 285 353 421
#     4  11  23  43  74 100 138 178 242 293 351 425
#     4  12  27  43  71 105 146 188 236 295 360 425
#     4  11  27  47  71 101 146 188 235 294 359 432
#     4  11  26  46  71 101 141 192 233 291 366 419
#     4  11  26  43  72 108 136 183 242 294 354 421
#     4  11  24  44  69 103 141 182 235 297 351 423
#
# _framework density 20.787773999999999
#
# number of rings (size 3 to 8) (size 9 to 14) (size 15 to 20)
#    0.000    0.857    2.857    3.000    8.000    3.429 
#    0.000    2.143    0.000    0.000    0.000    0.000 
#    0.000    0.000    0.000    0.000    0.000    0.000 
#
# Total GULP energy -78235.740446 kJ/mol
# GULP energy per Si atom -5588.267175 kJ/mol
# Density = 2.074046 g / cm^3
# Si number density = 20.787774 Si / 1000 Ang^3
#
#
#
# Elastic Constant Matrix: (Units=GPa)
#
#
# Indices 1 2 3 4 5 6 
#
# 1 132.4049 48.5728 52.2336 32.0706 -7.4388 7.4153
# 2 48.5728 109.2033 49.6162 39.3885 -8.0564 -10.1706
# 3 52.2336 49.6162 116.3680 29.2567 13.0963 -0.0269
# 4 32.0706 39.3885 29.2567 32.6506 -3.6972 8.2565
# 5 -7.4388 -8.0564 13.0963 -3.6972 37.9717 -1.7454
# 6 7.4153 -10.1706 -0.0269 8.2565 -1.7454 41.7603
#
#
#
# Elastic Compliance Matrix: (Units=1/GPa)
#
#
# Indices 1 2 3 4 5 6 
#
# 1 0.010839 -0.001181 -0.003141 -0.005902 0.002338 -0.000950
# 2 -0.001181 0.020456 -0.002715 -0.023226 0.003239 0.009917
# 3 -0.003141 -0.002715 0.013607 -0.006817 -0.006503 0.000981
# 4 -0.005902 -0.023226 -0.006817 0.075789 0.002751 -0.019482
# 5 0.002338 0.003239 -0.006503 0.002751 0.030041 0.001081
# 6 -0.000950 0.009917 0.000981 -0.019482 0.001081 0.030428
#
#
# Mechanical properties :
#
#
# Convention : Reuss Voigt Hill
#
# Bulk Modulus (GPa) = 32.43817 73.20239 52.82028
# Shear Modulus (GPa) = 24.32972 36.31342 30.32157
#
# Velocity S-wave (km/s) = 3.42480 4.18408 3.82334
# Velocity P-wave (km/s) = 5.59262 7.65720 6.70485
#
# Compressibility (1/GPa) = 0.03082788
#
# Stress axis : x y z
#
# Youngs Moduli (GPa) = 92.25740 48.88586 73.49299
#
# Poissons Ratio (x) = 0.05774 0.23085
# Poissons Ratio (y) = 0.10896 0.19951
# Poissons Ratio (z) = 0.28980 0.13271
#
# Static dielectric constant tensor:
#      x y z
#    x 1.659590 -0.126090 -0.071520 
#    y -0.126090 1.452870 -0.159240 
#    z -0.071520 -0.159240 1.720360 
# 
# From -- ./inp_files/26729.got.cif
#   From: 2010.05.17/outbox.cif.g08.bks.cpg/sg2_14_cif.got.tgz:26729.got - 2010.06.03 11:33:40.
