data_PCOD9057029
_publ_section_title
;
Structure prediction by ZEFSAII (Michael W. Deem and Ramdas Pophale) SiO2 
 PCOD9057029
Probable space group: P -1
;
_chemical_formula_sum "Si O2"
_cell_formula_units_Z 14
_cell_length_a 29.881934
_cell_length_b 9.777907
_cell_length_c 5.395053
_cell_angle_alpha 119.280390
_cell_angle_beta 122.335766
_cell_angle_gamma 26.842831
_cell_volume 601.120615
_symmetry_space_group_name_H-M "P -1"
_symmetry_group_IT_number 2
_symmetry_cell_setting 'triclinic'
loop_
_space_group_symop_operation_xyz
x,y,z
-x,-y,-z
loop_
_atom_site_type_symbol
_atom_site_label
_atom_site_fract_x
_atom_site_fract_y
_atom_site_fract_z
Si Si1 0.567229 0.337066 0.305579
Si Si2 0.279337 0.240858 0.035261
Si Si3 0.289515 0.731506 0.195322
Si Si4 0.096164 0.668662 0.585812
Si Si5 0.018317 0.271724 0.390044
Si Si6 0.259952 0.612611 0.515358
Si Si7 0.830238 0.698979 0.906142
O O1 0.500000 0.500000 0.500000
O O2 0.629969 0.339172 0.542372
O O3 0.500000 0.500000 0.000000
O O4 0.642598 0.000270 0.165551
O O5 0.308996 0.316228 0.351797
O O6 0.253349 0.135162 0.987021
O O7 0.163517 0.581939 0.913613
O O8 0.269661 0.682202 0.342880
O O9 0.196818 0.073231 0.111363
O O10 0.309279 0.571416 0.869032
O O11 0.178826 0.425212 0.408846
O O12 0.050712 0.618911 0.496085
O O13 0.000000 0.000000 0.500000
O O14 0.000000 0.500000 0.500000
O O15 0.135858 0.928248 0.469675
O O16 0.948467 0.383604 0.058473
#
# Coordination Sequence:
#
# PCOD9057029 Si02
#       7
#     2   2   2   2   2   2   2
#     4  12  27  52  83 105 132 186 247 302 374 450
#     4  11  26  45  71 109 145 193 242 306 358 426
#     4  12  26  47  72 108 142 187 239 304 362 433
#     4  11  23  38  66  99 149 193 250 284 340 423
#     4  11  23  37  60 104 147 206 244 283 338 422
#     4  12  27  43  70 109 157 189 237 300 367 413
#     4  11  22  41  68  96 151 200 254 280 339 429
#
# _framework density 23.289836999999999
#
# number of rings (size 3 to 8) (size 9 to 14) (size 15 to 20)
#    0.000    0.571    2.857    5.143    6.000    3.429 
#    0.000    4.286    0.000    0.000    0.000    0.000 
#    0.000    0.000    0.000    0.000    0.000    0.000 
#
# Total GULP energy -77958.308174 kJ/mol
# GULP energy per Si atom -5568.450584 kJ/mol
# Density = 2.323683 g / cm^3
# Si number density = 23.289837 Si / 1000 Ang^3
#
#
#
# Elastic Constant Matrix: (Units=GPa)
#
#
# Indices 1 2 3 4 5 6 
#
# 1 76.0739 16.1764 46.4024 13.6811 -13.8937 -11.8652
# 2 16.1764 82.2949 57.7657 2.5552 4.1675 -5.5970
# 3 46.4024 57.7657 188.4536 12.1701 1.3957 -8.8337
# 4 13.6811 2.5552 12.1701 46.6983 3.6435 -2.2236
# 5 -13.8937 4.1675 1.3957 3.6435 37.9217 -1.7722
# 6 -11.8652 -5.5970 -8.8337 -2.2236 -1.7722 24.7614
#
#
#
# Elastic Compliance Matrix: (Units=1/GPa)
#
#
# Indices 1 2 3 4 5 6 
#
# 1 0.019250 -0.000791 -0.003879 -0.004847 0.008113 0.007807
# 2 -0.000791 0.015694 -0.004584 0.000782 -0.001852 0.001471
# 3 -0.003879 -0.004584 0.007697 -0.000541 -0.001162 -0.000281
# 4 -0.004847 0.000782 -0.000541 0.023226 -0.004099 -0.000547
# 5 0.008113 -0.001852 -0.001162 -0.004099 0.030209 0.004849
# 6 0.007807 0.001471 -0.000281 -0.000547 0.004849 0.044657
#
#
# Mechanical properties :
#
#
# Convention : Reuss Voigt Hill
#
# Bulk Modulus (GPa) = 41.43417 65.27904 53.35660
# Shear Modulus (GPa) = 29.88926 36.97479 33.43203
#
# Velocity S-wave (km/s) = 3.58629 3.98878 3.79288
# Velocity P-wave (km/s) = 5.91421 7.02166 6.49159
#
# Compressibility (1/GPa) = 0.02413467
#
# Stress axis : x y z
#
# Youngs Moduli (GPa) = 51.94760 63.71919 129.92385
#
# Poissons Ratio (x) = 0.05038 0.50393
# Poissons Ratio (y) = 0.04108 0.59553
# Poissons Ratio (z) = 0.20149 0.29207
#
# Static dielectric constant tensor:
#      x y z
#    x 1.907780 0.041760 0.028580 
#    y 0.041760 1.918720 -0.113920 
#    z 0.028580 -0.113920 2.562660 
# 
# From -- ./inp_files/53071.got.cif
#   From: 2010.05.17/outbox.cif.g08.bks.cpg/sg2_27_cif.got.tgz:53071.got - 2010.06.03 11:33:40.
