data_PCOD9057587
_publ_section_title
;
Structure prediction by ZEFSAII (Michael W. Deem and Ramdas Pophale) SiO2 
 PCOD9057587
Probable space group: P -1
;
_chemical_formula_sum "Si O2"
_cell_formula_units_Z 14
_cell_length_a 15.456740
_cell_length_b 7.518530
_cell_length_c 21.767940
_cell_angle_alpha 43.337078
_cell_angle_beta 159.369008
_cell_angle_gamma 143.764748
_cell_volume 522.242178
_symmetry_space_group_name_H-M "P -1"
_symmetry_group_IT_number 2
_symmetry_cell_setting 'triclinic'
loop_
_space_group_symop_operation_xyz
x,y,z
-x,-y,-z
loop_
_atom_site_type_symbol
_atom_site_label
_atom_site_fract_x
_atom_site_fract_y
_atom_site_fract_z
Si Si1 0.656743 0.754183 0.653470
Si Si2 0.872766 0.237767 0.108078
Si Si3 0.195192 0.810850 0.255078
Si Si4 0.452311 0.738742 0.872301
Si Si5 0.046921 0.093728 0.648307
Si Si6 0.091438 0.309225 0.449871
Si Si7 0.533500 0.220784 0.267742
O O1 0.849274 0.634594 0.783551
O O2 0.466061 0.778286 0.466117
O O3 0.424813 0.544522 0.603362
O O4 0.853957 0.065351 0.744276
O O5 0.933501 0.509782 0.125431
O O6 0.879011 0.979351 0.218017
O O7 0.593879 0.050123 0.927784
O O8 0.307379 0.051972 0.213545
O O9 0.106856 0.585548 0.677665
O O10 0.571063 0.827304 0.860033
O O11 0.500000 0.500000 0.000000
O O12 0.286590 0.414613 0.699030
O O13 0.756648 0.102335 0.450638
O O14 0.007236 0.810907 0.654222
O O15 0.000000 0.000000 0.500000
#
# Coordination Sequence:
#
# PCOD9057587 Si02
#       7
#     2   2   2   2   2   2   2
#     4  11  25  44  78 109 143 191 255 306 364 436
#     4  12  25  48  73 110 149 193 243 310 379 431
#     4  11  24  42  74 107 146 193 251 302 365 446
#     4  12  29  47  74 109 158 193 238 314 388 427
#     4  11  22  42  77 104 143 195 253 301 356 453
#     4  12  25  47  76 111 141 197 258 298 358 459
#     4  11  23  45  71 108 150 194 246 301 372 443
#
# _framework density 26.807486000000001
#
# number of rings (size 3 to 8) (size 9 to 14) (size 15 to 20)
#    0.000    0.571    5.714    2.143    6.000    1.143 
#    2.571    0.714    0.000    0.000    0.000    0.000 
#    0.000    0.000    0.000    0.000    0.000    0.000 
#
# Total GULP energy -78426.602076 kJ/mol
# GULP energy per Si atom -5601.900148 kJ/mol
# Density = 2.674647 g / cm^3
# Si number density = 26.807486 Si / 1000 Ang^3
#
#
#
# Elastic Constant Matrix: (Units=GPa)
#
#
# Indices 1 2 3 4 5 6 
#
# 1 95.4604 39.1161 32.3578 5.4876 -33.4223 6.7617
# 2 39.1161 107.8164 20.3203 12.6328 -18.5037 20.7999
# 3 32.3578 20.3203 87.6458 7.6528 -13.8804 3.3016
# 4 5.4876 12.6328 7.6528 36.9883 -11.3391 -17.8580
# 5 -33.4223 -18.5037 -13.8804 -11.3391 50.3914 8.2356
# 6 6.7617 20.7999 3.3016 -17.8580 8.2356 64.2681
#
#
#
# Elastic Compliance Matrix: (Units=1/GPa)
#
#
# Indices 1 2 3 4 5 6 
#
# 1 0.016456 -0.003726 -0.003912 0.001966 0.009064 -0.000940
# 2 -0.003726 0.012782 -0.000606 -0.005865 0.001643 -0.005554
# 3 -0.003912 -0.000606 0.013287 -0.002173 0.000475 -0.000739
# 4 0.001966 -0.005865 -0.002173 0.036094 0.004841 0.011212
# 5 0.009064 0.001643 0.000475 0.004841 0.028300 -0.003791
# 6 -0.000940 -0.005554 -0.000739 0.011212 -0.003791 0.021095
#
#
# Mechanical properties :
#
#
# Convention : Reuss Voigt Hill
#
# Bulk Modulus (GPa) = 38.40909 52.72346 45.56627
# Shear Modulus (GPa) = 32.64121 43.60479 38.12300
#
# Velocity S-wave (km/s) = 3.49322 4.03748 3.77517
# Velocity P-wave (km/s) = 5.53434 6.43779 6.00308
#
# Compressibility (1/GPa) = 0.02603550
#
# Stress axis : x y z
#
# Youngs Moduli (GPa) = 60.76961 78.23659 75.26072
#
# Poissons Ratio (x) = 0.29153 0.29442
# Poissons Ratio (y) = 0.22644 0.04562
# Poissons Ratio (z) = 0.23773 0.04743
#
# Static dielectric constant tensor:
#      x y z
#    x 2.138140 -0.019680 -0.032810 
#    y -0.019680 2.093460 0.043690 
#    z -0.032810 0.043690 2.129820 
# 
# From -- ./inp_files/612994.got.cif
#   From: 2010.05.17/outbox.cif.g08.bks.cpg/sg2_307_cif.got.tgz:612994.got - 2010.06.03 11:33:40.
