data_PCOD9057175
_publ_section_title
;
Structure prediction by ZEFSAII (Michael W. Deem and Ramdas Pophale) SiO2 
 PCOD9057175
Probable space group: P -1
;
_chemical_formula_sum "Si O2"
_cell_formula_units_Z 14
_cell_length_a 14.860103
_cell_length_b 24.327136
_cell_length_c 6.565782
_cell_angle_alpha 115.598398
_cell_angle_beta 102.854265
_cell_angle_gamma 19.687968
_cell_volume 573.272847
_symmetry_space_group_name_H-M "P -1"
_symmetry_group_IT_number 2
_symmetry_cell_setting 'triclinic'
loop_
_space_group_symop_operation_xyz
x,y,z
-x,-y,-z
loop_
_atom_site_type_symbol
_atom_site_label
_atom_site_fract_x
_atom_site_fract_y
_atom_site_fract_z
Si Si1 0.679186 0.801312 0.715180
Si Si2 0.336447 0.903089 0.709310
Si Si3 0.709237 0.853174 0.173216
Si Si4 0.110340 0.741306 0.634956
Si Si5 0.542168 0.657235 0.663362
Si Si6 0.846327 0.191362 0.585096
Si Si7 0.664601 0.512949 0.876494
O O1 0.048414 0.596349 0.537791
O O2 0.636796 0.758055 0.563993
O O3 0.392877 0.024782 0.824377
O O4 0.627533 0.843546 0.997941
O O5 0.168724 0.975872 0.548350
O O6 0.429572 0.794733 0.752098
O O7 0.086193 0.108555 0.029309
O O8 0.092553 0.605749 0.039676
O O9 0.500000 0.000000 0.500000
O O10 0.500000 0.500000 0.500000
O O11 0.049014 0.821127 0.532614
O O12 0.101658 0.677299 0.454094
O O13 0.339575 0.739800 0.544151
O O14 0.460908 0.685462 0.895979
O O15 0.566417 0.380778 0.922414
#
# Coordination Sequence:
#
# PCOD9057175 Si02
#       7
#     2   2   2   2   2   2   2
#     4  11  25  44  71 102 140 179 235 279 346 411
#     4  12  28  46  69 102 147 183 228 286 345 412
#     4  11  22  41  72 103 131 178 229 291 340 400
#     4  12  25  43  70 105 136 177 233 290 341 406
#     4  12  26  47  70 104 140 187 232 280 343 423
#     4  12  25  46  73  99 139 185 229 283 350 408
#     4  12  24  44  75 102 139 179 234 289 345 405
#
# _framework density 24.42118
#
# number of rings (size 3 to 8) (size 9 to 14) (size 15 to 20)
#    0.000    0.286    5.714    3.000    4.000    3.429 
#    0.000    0.714    0.000    0.000    0.000    0.000 
#    0.000    0.000    0.000    0.000    0.000    0.000 
#
# Total GULP energy -78215.058785 kJ/mol
# GULP energy per Si atom -5586.789913 kJ/mol
# Density = 2.436560 g / cm^3
# Si number density = 24.421180 Si / 1000 Ang^3
#
#
#
# Elastic Constant Matrix: (Units=GPa)
#
#
# Indices 1 2 3 4 5 6 
#
# 1 106.8542 51.6961 12.3735 -16.6026 6.7215 -6.7547
# 2 51.6961 146.6393 21.7907 -35.0929 6.9934 -6.8574
# 3 12.3735 21.7907 57.1052 -20.1019 -7.6394 -9.5044
# 4 -16.6026 -35.0929 -20.1019 34.5042 0.2078 -0.1026
# 5 6.7215 6.9934 -7.6394 0.2078 29.1280 -7.5851
# 6 -6.7547 -6.8574 -9.5044 -0.1026 -7.5851 44.7369
#
#
#
# Elastic Compliance Matrix: (Units=1/GPa)
#
#
# Indices 1 2 3 4 5 6 
#
# 1 0.011525 -0.003440 -0.000731 0.001634 -0.001842 0.000749
# 2 -0.003440 0.010246 -0.000201 0.008660 -0.001583 0.000760
# 3 -0.000731 -0.000201 0.024849 0.013890 0.008350 0.006586
# 4 0.001634 0.008660 0.013890 0.046670 0.002155 0.004997
# 5 -0.001842 -0.001583 0.008350 0.002155 0.039377 0.007935
# 6 0.000749 0.000760 0.006586 0.004997 0.007935 0.025338
#
#
# Mechanical properties :
#
#
# Convention : Reuss Voigt Hill
#
# Bulk Modulus (GPa) = 26.40289 53.59102 39.99695
# Shear Modulus (GPa) = 27.87462 36.65636 32.26549
#
# Velocity S-wave (km/s) = 3.38214 3.87849 3.63879
# Velocity P-wave (km/s) = 5.10752 6.48452 5.83677
#
# Compressibility (1/GPa) = 0.03787464
#
# Stress axis : x y z
#
# Youngs Moduli (GPa) = 86.77001 97.60280 40.24249
#
# Poissons Ratio (x) = 0.33580 0.02942
# Poissons Ratio (y) = 0.29853 0.00809
# Poissons Ratio (z) = 0.06343 0.01963
#
# Static dielectric constant tensor:
#      x y z
#    x 2.054710 -0.121460 -0.030900 
#    y -0.121460 2.117330 0.024470 
#    z -0.030900 0.024470 1.972570 
# 
# From -- ./inp_files/60521.got.cif
#   From: 2010.05.17/outbox.cif.g08.bks.cpg/sg2_31_cif.got.tgz:60521.got - 2010.06.03 11:33:40.
