data_PCOD9057338
_publ_section_title
;
Structure prediction by ZEFSAII (Michael W. Deem and Ramdas Pophale) SiO2 
 PCOD9057338
Probable space group: P -1
;
_chemical_formula_sum "Si O2"
_cell_formula_units_Z 14
_cell_length_a 10.957126
_cell_length_b 11.518645
_cell_length_c 9.089941
_cell_angle_alpha 70.004057
_cell_angle_beta 138.608746
_cell_angle_gamma 127.260550
_cell_volume 589.835295
_symmetry_space_group_name_H-M "P -1"
_symmetry_group_IT_number 2
_symmetry_cell_setting 'triclinic'
loop_
_space_group_symop_operation_xyz
x,y,z
-x,-y,-z
loop_
_atom_site_type_symbol
_atom_site_label
_atom_site_fract_x
_atom_site_fract_y
_atom_site_fract_z
Si Si1 0.069359 0.603683 0.379095
Si Si2 0.219511 0.169496 0.218002
Si Si3 0.049633 0.880820 0.536769
Si Si4 0.313809 0.944718 0.482364
Si Si5 0.991518 0.285010 0.129998
Si Si6 0.309058 0.613761 0.309907
Si Si7 0.284244 0.344105 0.922843
O O1 0.236831 0.775080 0.495178
O O2 0.178301 0.566194 0.367495
O O3 0.000000 0.500000 0.500000
O O4 0.855896 0.603047 0.141358
O O5 0.019950 0.178794 0.094533
O O6 0.431416 0.271578 0.475387
O O7 0.171330 0.006077 0.260100
O O8 0.310455 0.246588 0.108482
O O9 0.283707 0.967376 0.619394
O O10 0.042277 0.784362 0.708956
O O11 0.860389 0.762380 0.299590
O O12 0.000000 0.000000 0.500000
O O13 0.500000 0.000000 0.500000
O O14 0.217320 0.450668 0.236710
O O15 0.793683 0.305729 0.901063
O O16 0.500000 0.500000 0.000000
#
# Coordination Sequence:
#
# PCOD9057338 Si02
#       7
#     2   2   2   2   2   2   2
#     4  11  22  42  68 101 148 188 247 308 370 445
#     4  12  23  45  73 105 146 192 259 305 381 455
#     4  11  24  47  72 106 151 198 248 315 385 452
#     4  11  24  43  73 107 142 198 246 312 378 450
#     4  11  24  45  70 101 151 198 243 314 382 448
#     4  11  23  42  70 106 143 196 249 308 379 452
#     4  11  25  43  72 109 144 200 251 311 379 448
#
# _framework density 23.735440000000001
#
# number of rings (size 3 to 8) (size 9 to 14) (size 15 to 20)
#    0.000    0.857    4.286    3.857    0.000    3.429 
#    0.000    0.714    0.000    0.000    0.000    0.000 
#    0.000    0.000    0.000    0.000    0.000    0.000 
#
# Total GULP energy -78135.156316 kJ/mol
# GULP energy per Si atom -5581.082594 kJ/mol
# Density = 2.368142 g / cm^3
# Si number density = 23.735440 Si / 1000 Ang^3
#
#
#
# Elastic Constant Matrix: (Units=GPa)
#
#
# Indices 1 2 3 4 5 6 
#
# 1 130.0733 52.8571 20.5612 -11.0537 -18.7100 -2.4412
# 2 52.8571 147.3241 55.2128 -31.1715 -19.3341 4.9240
# 3 20.5612 55.2128 112.4053 -31.3135 -25.3342 7.4395
# 4 -11.0537 -31.1715 -31.3135 56.2178 10.2318 -7.5380
# 5 -18.7100 -19.3341 -25.3342 10.2318 42.5409 -9.5807
# 6 -2.4412 4.9240 7.4395 -7.5380 -9.5807 48.5255
#
#
#
# Elastic Compliance Matrix: (Units=1/GPa)
#
#
# Indices 1 2 3 4 5 6 
#
# 1 0.009398 -0.003177 0.000476 -0.000066 0.003295 0.001363
# 2 -0.003177 0.009849 -0.003366 0.002880 0.000353 -0.000126
# 3 0.000476 -0.003366 0.012895 0.004459 0.005315 0.000131
# 4 -0.000066 0.002880 0.004459 0.022332 -0.000916 0.002309
# 5 0.003295 0.000353 0.005315 -0.000916 0.029633 0.005024
# 6 0.001363 -0.000126 0.000131 0.002309 0.005024 0.022020
#
#
# Mechanical properties :
#
#
# Convention : Reuss Voigt Hill
#
# Bulk Modulus (GPa) = 49.98531 71.89610 60.94070
# Shear Modulus (GPa) = 40.02211 46.86828 43.44520
#
# Velocity S-wave (km/s) = 4.11076 4.44848 4.28295
# Velocity P-wave (km/s) = 6.60577 7.53271 7.08442
#
# Compressibility (1/GPa) = 0.02000588
#
# Stress axis : x y z
#
# Youngs Moduli (GPa) = 106.40790 101.53087 77.55242
#
# Poissons Ratio (x) = 0.32257 -0.03689
# Poissons Ratio (y) = 0.33806 0.26108
# Poissons Ratio (z) = -0.05062 0.34180
#
# Static dielectric constant tensor:
#      x y z
#    x 1.919190 0.179370 0.016450 
#    y 0.179370 1.881690 0.018880 
#    z 0.016450 0.018880 1.989460 
# 
# From -- ./inp_files/262228.got.cif
#   From: 2010.05.17/outbox.cif.g08.bks.cpg/sg2_132_cif.got.tgz:262228.got - 2010.06.03 11:33:40.
