data_PCOD9057047
_publ_section_title
;
Structure prediction by ZEFSAII (Michael W. Deem and Ramdas Pophale) SiO2 
 PCOD9057047
Probable space group: P -1
;
_chemical_formula_sum "Si O2"
_cell_formula_units_Z 16
_cell_length_a 20.230120
_cell_length_b 19.297237
_cell_length_c 6.726118
_cell_angle_alpha 47.067773
_cell_angle_beta 59.081665
_cell_angle_gamma 21.357152
_cell_volume 624.501952
_symmetry_space_group_name_H-M "P -1"
_symmetry_group_IT_number 2
_symmetry_cell_setting 'triclinic'
loop_
_space_group_symop_operation_xyz
x,y,z
-x,-y,-z
loop_
_atom_site_type_symbol
_atom_site_label
_atom_site_fract_x
_atom_site_fract_y
_atom_site_fract_z
Si Si1 0.684947 0.388966 0.421152
Si Si2 0.707657 0.671212 0.892230
Si Si3 0.813882 0.443502 0.560381
Si Si4 0.664083 0.227358 0.521712
Si Si5 0.059073 0.028741 0.737931
Si Si6 0.496270 0.249142 0.247143
Si Si7 0.188916 0.250241 0.333000
Si Si8 0.931023 0.739348 0.154010
O O1 0.732330 0.234179 0.554072
O O2 0.574113 0.507747 0.573333
O O3 0.886800 0.222427 0.450684
O O4 0.520046 0.632507 0.068431
O O5 0.600501 0.719472 0.814012
O O6 0.657931 0.835014 0.715428
O O7 0.932255 0.431654 0.916729
O O8 0.709509 0.614449 0.206914
O O9 0.996839 0.177339 0.702029
O O10 0.642685 0.581990 0.674771
O O11 0.912165 0.401654 0.647133
O O12 0.735133 0.181473 0.284752
O O13 0.770947 0.005126 0.835344
O O14 0.000000 0.000000 0.000000
O O15 0.711829 0.954774 0.526539
O O16 0.155858 0.252054 0.609381
O O17 0.000000 0.500000 0.000000
#
# Coordination Sequence:
#
# PCOD9057047 Si02
#       8
#     2   2   2   2   2   2   2   2
#     4  11  23  43  69 104 136 188 231 271 358 415
#     4  11  23  45  68  95 133 183 234 277 351 417
#     4  11  22  41  68  99 134 178 232 282 346 413
#     4  11  23  42  72  99 143 186 227 280 346 417
#     4  12  23  42  67 104 143 183 229 284 342 410
#     4  11  24  46  69  96 143 178 227 296 339 417
#     4  12  25  45  69 103 131 181 234 292 356 402
#     4  11  22  45  68  96 141 177 224 295 340 407
#
# _framework density 25.620417
#
# number of rings (size 3 to 8) (size 9 to 14) (size 15 to 20)
#    0.000    0.750    5.000    3.375    0.000    1.000 
#    9.000    0.000    0.000    0.000    0.000    0.000 
#    0.000    0.000    0.000    0.000    0.000    0.000 
#
# Total GULP energy -89475.596186 kJ/mol
# GULP energy per Si atom -5592.224762 kJ/mol
# Density = 2.556210 g / cm^3
# Si number density = 25.620417 Si / 1000 Ang^3
#
#
#
# Elastic Constant Matrix: (Units=GPa)
#
#
# Indices 1 2 3 4 5 6 
#
# 1 74.9109 -9.5093 25.1337 -1.8261 2.4664 10.7850
# 2 -9.5093 131.6394 37.4982 29.9152 -7.0158 3.4101
# 3 25.1337 37.4982 141.7867 14.6785 -25.7830 0.8082
# 4 -1.8261 29.9152 14.6785 44.9408 -4.0117 -4.6217
# 5 2.4664 -7.0158 -25.7830 -4.0117 41.9573 -1.1770
# 6 10.7850 3.4101 0.8082 -4.6217 -1.1770 33.6127
#
#
#
# Elastic Compliance Matrix: (Units=1/GPa)
#
#
# Indices 1 2 3 4 5 6 
#
# 1 0.015829 0.002338 -0.003916 -0.000469 -0.003142 -0.005397
# 2 0.002338 0.009869 -0.002514 -0.005974 -0.000675 -0.002536
# 3 -0.003916 -0.002514 0.009523 -0.000957 0.005608 0.001347
# 4 -0.000469 -0.005974 -0.000957 0.027093 0.001159 0.004546
# 5 -0.003142 -0.000675 0.005608 0.001159 0.027521 0.002065
# 6 -0.005397 -0.002536 0.001347 0.004546 0.002065 0.032404
#
#
# Mechanical properties :
#
#
# Convention : Reuss Voigt Hill
#
# Bulk Modulus (GPa) = 36.98760 50.50914 43.74837
# Shear Modulus (GPa) = 35.85883 43.78312 39.82097
#
# Velocity S-wave (km/s) = 3.74521 4.13839 3.94670
# Velocity P-wave (km/s) = 5.75936 6.52627 6.15477
#
# Compressibility (1/GPa) = 0.02703609
#
# Stress axis : x y z
#
# Youngs Moduli (GPa) = 63.17554 101.32763 105.00694
#
# Poissons Ratio (x) = -0.23691 0.41124
# Poissons Ratio (y) = -0.14771 0.26401
# Poissons Ratio (z) = 0.24741 0.25476
#
# Static dielectric constant tensor:
#      x y z
#    x 2.012070 -0.052730 0.017250 
#    y -0.052730 2.063800 -0.054400 
#    z 0.017250 -0.054400 2.079890 
# 
# From -- ./inp_files/99673.got.cif
#   From: 2010.05.17/outbox.cif.g08.bks.cpg/sg2_50_cif.got.tgz:99673.got - 2010.06.03 11:33:40.
