data_PCOD9057107
_publ_section_title
;
Structure prediction by ZEFSAII (Michael W. Deem and Ramdas Pophale) SiO2 
 PCOD9057107
Probable space group: P -1
;
_chemical_formula_sum "Si O2"
_cell_formula_units_Z 12
_cell_length_a 8.050846
_cell_length_b 13.490340
_cell_length_c 5.438614
_cell_angle_alpha 117.037988
_cell_angle_beta 72.296635
_cell_angle_gamma 115.725822
_cell_volume 469.759153
_symmetry_space_group_name_H-M "P -1"
_symmetry_group_IT_number 2
_symmetry_cell_setting 'triclinic'
loop_
_space_group_symop_operation_xyz
x,y,z
-x,-y,-z
loop_
_atom_site_type_symbol
_atom_site_label
_atom_site_fract_x
_atom_site_fract_y
_atom_site_fract_z
Si Si1 0.927688 0.239350 0.905329
Si Si2 0.274738 0.440692 0.022193
Si Si3 0.472287 0.219706 0.258294
Si Si4 0.614360 0.141530 0.603304
Si Si5 0.106945 0.005396 0.206002
Si Si6 0.750659 0.439367 0.334268
O O1 0.835638 0.195710 0.627957
O O2 0.843213 0.114519 0.946765
O O3 0.850195 0.341367 0.147806
O O4 0.151427 0.299490 0.903307
O O5 0.205712 0.488117 0.353044
O O6 0.500000 0.500000 0.000000
O O7 0.215761 0.488238 0.849955
O O8 0.568854 0.195683 0.436117
O O9 0.267470 0.130859 0.278908
O O10 0.529629 0.360280 0.366574
O O11 0.532358 0.183705 0.927827
O O12 0.500000 0.000000 0.500000
O O13 0.000000 0.000000 0.500000
O O14 0.000000 0.000000 0.000000
#
# Coordination Sequence:
#
# PCOD9057107 Si02
#       6
#     2   2   2   2   2   2
#     4  11  27  48  80 107 151 197 252 307 364 442
#     4  12  28  49  75 111 150 194 245 307 379 436
#     4  11  24  44  71 104 149 183 246 297 371 427
#     4  11  22  41  70 105 137 185 243 301 351 428
#     4  12  29  44  71 110 155 195 242 304 381 442
#     4  11  26  48  77 107 144 197 253 302 358 449
#
# _framework density 25.545006999999998
#
# number of rings (size 3 to 8) (size 9 to 14) (size 15 to 20)
#    0.000    0.667    1.667    5.000    7.000    5.333 
#    0.000    0.000    0.000    0.000    0.000    0.000 
#    0.000    0.000    0.000    0.000    0.000    0.000 
#
# Total GULP energy -67099.909791 kJ/mol
# GULP energy per Si atom -5591.659149 kJ/mol
# Density = 2.548687 g / cm^3
# Si number density = 25.545007 Si / 1000 Ang^3
#
#
#
# Elastic Constant Matrix: (Units=GPa)
#
#
# Indices 1 2 3 4 5 6 
#
# 1 90.2932 4.8606 47.3931 0.7123 26.8471 31.7273
# 2 4.8606 96.4891 50.0856 -7.9353 21.4430 17.9217
# 3 47.3931 50.0856 199.5870 -13.5415 34.9704 -7.5830
# 4 0.7123 -7.9353 -13.5415 58.2945 3.5949 18.4963
# 5 26.8471 21.4430 34.9704 3.5949 46.2977 11.1173
# 6 31.7273 17.9217 -7.5830 18.4963 11.1173 66.6446
#
#
#
# Elastic Compliance Matrix: (Units=1/GPa)
#
#
# Indices 1 2 3 4 5 6 
#
# 1 0.019464 0.005582 -0.004835 0.003354 -0.007855 -0.010938
# 2 0.005582 0.015157 -0.004167 0.003688 -0.005646 -0.007289
# 3 -0.004835 -0.004167 0.007776 -0.000053 -0.002264 0.004699
# 4 0.003354 0.003688 -0.000053 0.020238 -0.003347 -0.007653
# 5 -0.007855 -0.005646 -0.002264 -0.003347 0.030539 0.000834
# 6 -0.010938 -0.007289 0.004699 -0.007653 0.000834 0.024692
#
#
# Mechanical properties :
#
#
# Convention : Reuss Voigt Hill
#
# Bulk Modulus (GPa) = 28.12219 65.67199 46.89709
# Shear Modulus (GPa) = 36.61472 53.18270 44.89871
#
# Velocity S-wave (km/s) = 3.79006 4.56776 4.19696
# Velocity P-wave (km/s) = 5.49413 7.32007 6.47182
#
# Compressibility (1/GPa) = 0.03555911
#
# Stress axis : x y z
#
# Youngs Moduli (GPa) = 51.37561 65.97426 128.60762
#
# Poissons Ratio (x) = -0.36827 0.62176
# Poissons Ratio (y) = -0.28678 0.53586
# Poissons Ratio (z) = 0.24838 0.27489
#
# Static dielectric constant tensor:
#      x y z
#    x 2.238940 0.059210 -0.098690 
#    y 0.059210 2.143250 0.051710 
#    z -0.098690 0.051710 2.000260 
# 
# From -- ./inp_files/28893.got.cif
#   From: 2010.05.17/outbox.cif.g08.bks.cpg/sg2_15_cif.got.tgz:28893.got - 2010.06.03 11:33:40.
