data_PCOD9057867
_publ_section_title
;
Structure prediction by ZEFSAII (Michael W. Deem and Ramdas Pophale) SiO2 
 PCOD9057867
Probable space group: P -1
;
_chemical_formula_sum "Si O2"
_cell_formula_units_Z 16
_cell_length_a 9.148105
_cell_length_b 23.680616
_cell_length_c 9.374978
_cell_angle_alpha 128.741955
_cell_angle_beta 132.385422
_cell_angle_gamma 30.330475
_cell_volume 752.248156
_symmetry_space_group_name_H-M "P -1"
_symmetry_group_IT_number 2
_symmetry_cell_setting 'triclinic'
loop_
_space_group_symop_operation_xyz
x,y,z
-x,-y,-z
loop_
_atom_site_type_symbol
_atom_site_label
_atom_site_fract_x
_atom_site_fract_y
_atom_site_fract_z
Si Si1 0.721179 0.603643 0.578504
Si Si2 0.859501 0.990525 0.673614
Si Si3 0.720188 0.183819 0.859616
Si Si4 0.719515 0.882771 0.882609
Si Si5 0.296259 0.602335 0.416112
Si Si6 0.143062 0.389797 0.996801
Si Si7 0.173527 0.145006 0.414473
Si Si8 0.613386 0.173601 0.451489
O O1 0.516938 0.590446 0.450611
O O2 0.532125 0.716757 0.547635
O O3 0.000000 0.500000 0.500000
O O4 0.814084 0.607134 0.802444
O O5 0.905859 0.062326 0.854420
O O6 0.490575 0.082994 0.597335
O O7 0.971847 0.887456 0.668312
O O8 0.037024 0.933243 0.547442
O O9 0.461658 0.281005 0.953914
O O10 0.595426 0.188199 0.633395
O O11 0.932688 0.192323 0.969467
O O12 0.712423 0.902156 0.742285
O O13 0.590077 0.838770 0.747215
O O14 0.500000 0.000000 0.000000
O O15 0.500000 0.500000 0.500000
O O16 0.091387 0.608774 0.192096
O O17 0.068809 0.722141 0.535093
O O18 0.000000 0.500000 0.000000
#
# Coordination Sequence:
#
# PCOD9057867 Si02
#       8
#     2   2   2   2   2   2   2   2
#     4  12  29  48  72 106 145 183 236 308 358 414
#     4  11  22  43  73 100 149 186 232 290 360 417
#     4  12  25  43  74 102 143 192 233 290 356 423
#     4  12  25  40  68 101 140 190 239 274 351 427
#     4  12  25  48  79 102 139 187 241 296 358 430
#     4  12  26  47  75 107 135 188 246 292 358 424
#     4  11  24  44  70 108 139 189 235 297 356 420
#     4  12  25  47  67 106 151 186 232 296 354 417
#
# _framework density 21.269577999999999
#
# number of rings (size 3 to 8) (size 9 to 14) (size 15 to 20)
#    0.000    0.250    6.250    2.625    1.750    3.000 
#    0.000    0.000    0.000    0.000    0.000    0.000 
#    0.000    0.000    0.000    0.000    0.000    0.000 
#
# Total GULP energy -89401.814471 kJ/mol
# GULP energy per Si atom -5587.613404 kJ/mol
# Density = 2.122117 g / cm^3
# Si number density = 21.269578 Si / 1000 Ang^3
#
#
#
# Elastic Constant Matrix: (Units=GPa)
#
#
# Indices 1 2 3 4 5 6 
#
# 1 155.3601 58.2858 58.2474 19.4428 17.9307 -6.0587
# 2 58.2858 113.8860 55.1394 14.6662 3.4590 -5.1286
# 3 58.2474 55.1394 110.0187 19.3623 9.5270 -13.6461
# 4 19.4428 14.6662 19.3623 25.5494 -6.7366 -2.4516
# 5 17.9307 3.4590 9.5270 -6.7366 40.1702 5.8109
# 6 -6.0587 -5.1286 -13.6461 -2.4516 5.8109 51.7883
#
#
#
# Elastic Compliance Matrix: (Units=1/GPa)
#
#
# Indices 1 2 3 4 5 6 
#
# 1 0.009548 -0.003012 -0.002235 -0.004949 -0.004373 0.000486
# 2 -0.003012 0.012704 -0.004753 -0.001116 0.001269 -0.000542
# 3 -0.002235 -0.004753 0.014680 -0.007383 -0.003777 0.003210
# 4 -0.004949 -0.001116 -0.007383 0.052436 0.013084 -0.001621
# 5 -0.004373 0.001269 -0.003777 0.013084 0.030431 -0.004176
# 6 0.000486 -0.000542 0.003210 -0.001621 -0.004176 0.020550
#
#
# Mechanical properties :
#
#
# Convention : Reuss Voigt Hill
#
# Bulk Modulus (GPa) = 59.06598 80.29000 69.67799
# Shear Modulus (GPa) = 30.12166 37.34106 33.73136
#
# Velocity S-wave (km/s) = 3.76731 4.19454 3.98665
# Velocity P-wave (km/s) = 6.83768 7.82877 7.34995
#
# Compressibility (1/GPa) = 0.01693022
#
# Stress axis : x y z
#
# Youngs Moduli (GPa) = 104.73690 78.71301 68.12151
#
# Poissons Ratio (x) = 0.23710 0.15228
# Poissons Ratio (y) = 0.31548 0.32380
# Poissons Ratio (z) = 0.23412 0.37414
#
# Static dielectric constant tensor:
#      x y z
#    x 1.762080 -0.012260 0.044420 
#    y -0.012260 1.829800 -0.083470 
#    z 0.044420 -0.083470 1.860420 
# 
# From -- ./inp_files/226551.got.cif
#   From: 2010.05.17/outbox.cif.g08.bks.cpg/sg2_114_cif.got.tgz:226551.got - 2010.06.03 11:33:40.
