data_PCOD9057904
_publ_section_title
;
Structure prediction by ZEFSAII (Michael W. Deem and Ramdas Pophale) SiO2 
 PCOD9057904
Probable space group: P -1
;
_chemical_formula_sum "Si O2"
_cell_formula_units_Z 16
_cell_length_a 14.430551
_cell_length_b 11.022589
_cell_length_c 17.519270
_cell_angle_alpha 31.679093
_cell_angle_beta 147.515235
_cell_angle_gamma 127.800863
_cell_volume 729.561403
_symmetry_space_group_name_H-M "P -1"
_symmetry_group_IT_number 2
_symmetry_cell_setting 'triclinic'
loop_
_space_group_symop_operation_xyz
x,y,z
-x,-y,-z
loop_
_atom_site_type_symbol
_atom_site_label
_atom_site_fract_x
_atom_site_fract_y
_atom_site_fract_z
Si Si1 0.821803 0.975513 0.188094
Si Si2 0.139974 0.132701 0.999490
Si Si3 0.197439 0.432456 0.515689
Si Si4 0.190482 0.511634 0.152315
Si Si5 0.518912 0.013787 0.415990
Si Si6 0.757932 0.359874 0.395268
Si Si7 0.656330 0.598165 0.528457
Si Si8 0.386919 0.101434 0.053418
O O1 0.788820 0.848172 0.310065
O O2 0.660077 0.961415 0.029236
O O3 0.027018 0.795676 0.396117
O O4 0.798671 0.257680 0.011201
O O5 0.311656 0.105757 0.188025
O O6 0.241537 0.039441 0.039719
O O7 0.010075 0.412905 0.739937
O O8 0.000000 0.000000 0.000000
O O9 0.235062 0.550066 0.559150
O O10 0.312303 0.460616 0.507632
O O11 0.361417 0.259078 0.386919
O O12 0.183719 0.530633 0.229934
O O13 0.000000 0.500000 0.000000
O O14 0.500000 0.000000 0.500000
O O15 0.635623 0.191186 0.389941
O O16 0.664192 0.604383 0.145963
O O17 0.500000 0.500000 0.500000
O O18 0.584806 0.899950 0.323021
#
# Coordination Sequence:
#
# PCOD9057904 Si02
#       8
#     2   2   2   2   2   2   2   2
#     4  11  22  45  73 103 143 185 237 295 360 420
#     4  12  24  42  71 104 142 182 245 288 340 430
#     4  11  25  44  76 104 137 190 240 294 355 420
#     4  12  27  47  70 100 147 190 228 295 367 420
#     4  12  29  44  71 106 143 189 234 294 365 427
#     4  11  23  46  72 105 143 181 237 298 363 418
#     4  12  26  45  71 106 141 186 243 297 345 425
#     4  11  22  43  74 102 138 187 239 297 352 415
#
# _framework density 21.930985
#
# number of rings (size 3 to 8) (size 9 to 14) (size 15 to 20)
#    0.000    0.500    6.250    2.250    3.500    3.500 
#    2.250    0.625    0.000    0.000    0.000    0.000 
#    0.000    0.000    0.000    0.000    0.000    0.000 
#
# Total GULP energy -89314.643683 kJ/mol
# GULP energy per Si atom -5582.165230 kJ/mol
# Density = 2.188107 g / cm^3
# Si number density = 21.930985 Si / 1000 Ang^3
#
#
#
# Elastic Constant Matrix: (Units=GPa)
#
#
# Indices 1 2 3 4 5 6 
#
# 1 127.2353 30.8084 35.2757 -3.7903 -21.8430 7.4181
# 2 30.8084 108.0585 65.6925 -12.9010 -16.9816 24.4857
# 3 35.2757 65.6925 142.7086 4.1916 -25.1622 4.9159
# 4 -3.7903 -12.9010 4.1916 44.4193 1.8103 -2.6711
# 5 -21.8430 -16.9816 -25.1622 1.8103 34.4725 -3.3178
# 6 7.4181 24.4857 4.9159 -2.6711 -3.3178 27.1190
#
#
#
# Elastic Compliance Matrix: (Units=1/GPa)
#
#
# Indices 1 2 3 4 5 6 
#
# 1 0.009224 -0.001144 -0.000943 0.000316 0.004505 -0.000737
# 2 -0.001144 0.018099 -0.007519 0.004980 0.001090 -0.014042
# 3 -0.000943 -0.007519 0.011450 -0.003223 0.004729 0.005233
# 4 0.000316 0.004980 -0.003223 0.024231 -0.001140 -0.001751
# 5 0.004505 0.001090 0.004729 -0.001140 0.036029 0.001222
# 6 -0.000737 -0.014042 0.005233 -0.001751 0.001222 0.048783
#
#
# Mechanical properties :
#
#
# Convention : Reuss Voigt Hill
#
# Bulk Modulus (GPa) = 51.12266 71.28395 61.20331
# Shear Modulus (GPa) = 28.81038 37.61723 33.21380
#
# Velocity S-wave (km/s) = 3.62841 4.14606 3.89584
# Velocity P-wave (km/s) = 6.39649 7.44943 6.94295
#
# Compressibility (1/GPa) = 0.01956080
#
# Stress axis : x y z
#
# Youngs Moduli (GPa) = 108.41699 55.25098 87.33715
#
# Poissons Ratio (x) = 0.06319 0.08236
# Poissons Ratio (y) = 0.12399 0.65671
# Poissons Ratio (z) = 0.10224 0.41545
#
# Static dielectric constant tensor:
#      x y z
#    x 1.355470 -0.101210 0.653800 
#    y -0.101210 1.844200 0.010410 
#    z 0.653800 0.010410 1.080410 
# 
# From -- ./inp_files/447095.got.cif
#   From: 2010.05.17/outbox.cif.g08.bks.cpg/sg2_224_cif.got.tgz:447095.got - 2010.06.03 11:33:40.
