data_PCOD9057042
_publ_section_title
;
Structure prediction by ZEFSAII (Michael W. Deem and Ramdas Pophale) SiO2 
 PCOD9057042
Probable space group: P -1
;
_chemical_formula_sum "Si O2"
_cell_formula_units_Z 16
_cell_length_a 25.686606
_cell_length_b 8.258389
_cell_length_c 25.337941
_cell_angle_alpha 43.313928
_cell_angle_beta 10.795355
_cell_angle_gamma 43.065769
_cell_volume 685.346385
_symmetry_space_group_name_H-M "P -1"
_symmetry_group_IT_number 2
_symmetry_cell_setting 'triclinic'
loop_
_space_group_symop_operation_xyz
x,y,z
-x,-y,-z
loop_
_atom_site_type_symbol
_atom_site_label
_atom_site_fract_x
_atom_site_fract_y
_atom_site_fract_z
Si Si1 0.866671 0.676892 0.975972
Si Si2 0.126977 0.330069 0.710337
Si Si3 0.888984 0.700339 0.775701
Si Si4 0.297983 0.926102 0.033542
Si Si5 0.360001 0.510511 0.580659
Si Si6 0.335997 0.982100 0.722281
Si Si7 0.143332 0.408518 0.433587
Si Si8 0.375762 0.765404 0.199547
O O1 0.617078 0.535868 0.278593
O O2 0.072135 0.537230 0.760453
O O3 0.093836 0.706316 0.788303
O O4 0.711908 0.909615 0.047139
O O5 0.026087 0.464685 0.725349
O O6 0.431875 0.184182 0.435347
O O7 0.934550 0.145497 0.969509
O O8 0.111168 0.809142 0.491425
O O9 0.798326 0.897348 0.864030
O O10 0.628535 0.642865 0.013293
O O11 0.094640 0.728079 0.270990
O O12 0.594919 0.792104 0.786552
O O13 0.500000 0.500000 0.500000
O O14 0.241325 0.258960 0.759054
O O15 0.500000 0.000000 0.500000
O O16 0.265062 0.610998 0.299000
O O17 0.000000 0.500000 0.500000
O O18 0.500000 0.000000 0.000000
#
# Coordination Sequence:
#
# PCOD9057042 Si02
#       8
#     2   2   2   2   2   2   2   2
#     4  11  22  44  67  91 136 177 227 275 340 402
#     4  11  22  41  68  99 126 178 227 286 329 401
#     4  11  25  46  72 105 142 178 234 286 353 405
#     4  11  25  46  75 102 136 188 234 281 342 423
#     4  12  25  41  60  97 134 181 224 282 339 398
#     4  12  21  39  68  93 130 175 236 278 332 390
#     4  12  26  48  72 105 140 183 231 275 341 426
#     4  12  26  48  72 105 144 180 219 290 350 408
#
# _framework density 23.345860999999999
#
# number of rings (size 3 to 8) (size 9 to 14) (size 15 to 20)
#    0.000    0.500    2.500    6.000    0.000    6.000 
#   13.500    0.000    0.000    0.000    0.000    0.000 
#    0.000    0.000    0.000    0.000    0.000    0.000 
#
# Total GULP energy -89452.961635 kJ/mol
# GULP energy per Si atom -5590.810102 kJ/mol
# Density = 2.329272 g / cm^3
# Si number density = 23.345861 Si / 1000 Ang^3
#
#
#
# Elastic Constant Matrix: (Units=GPa)
#
#
# Indices 1 2 3 4 5 6 
#
# 1 115.3287 48.5085 32.5741 3.9853 -29.8690 -27.0242
# 2 48.5085 66.5722 9.5944 22.1944 -27.6808 -48.6605
# 3 32.5741 9.5944 112.7586 19.5276 -31.8118 -23.1738
# 4 3.9853 22.1944 19.5276 37.5606 0.0005 -2.3199
# 5 -29.8690 -27.6808 -31.8118 0.0005 36.6882 -1.0097
# 6 -27.0242 -48.6605 -23.1738 -2.3199 -1.0097 18.9332
#
#
#
# Elastic Compliance Matrix: (Units=1/GPa)
#
#
# Indices 1 2 3 4 5 6 
#
# 1 0.013755 -0.005634 -0.001629 0.002953 0.005640 0.003821
# 2 -0.005634 -0.001832 -0.006738 0.003875 -0.012395 -0.021184
# 3 -0.001629 -0.006738 0.008128 -0.000674 0.000369 -0.009757
# 4 0.002953 0.003875 -0.000674 0.025405 0.005203 0.016739
# 5 0.005640 -0.012395 0.000369 0.005203 0.022224 -0.021531
# 6 0.003821 -0.021184 -0.009757 0.016739 -0.021531 -0.007213
#
#
# Mechanical properties :
#
#
# Convention : Reuss Voigt Hill
#
# Bulk Modulus (GPa) = -125.76087 52.89039 -36.43524
# Shear Modulus (GPa) = 58.26234 32.23522 45.24878
#
# Velocity S-wave (km/s) = 5.00104 3.71990 4.40727
# Velocity P-wave (km/s) = 4.54295 6.41518 3.20282
#
# Compressibility (1/GPa) = -0.00795160
#
# Stress axis : x y z
#
# Youngs Moduli (GPa) = 72.70208 -545.85917 123.03043
#
# Poissons Ratio (x) = -3.07545 0.20042
# Poissons Ratio (y) = 0.40961 0.82898
# Poissons Ratio (z) = 0.11844 -3.67802
#
# Static dielectric constant tensor:
#      x y z
#    x 1.726750 0.068870 0.209100 
#    y 0.068870 1.825230 -0.055140 
#    z 0.209100 -0.055140 1.597360 
# 
# From -- ./inp_files/621142.got.cif
#   From: 2010.05.17/outbox.cif.g08.bks.cpg/sg2_311_cif.got.tgz:621142.got - 2010.06.03 11:33:40.
