data_PCOD9057717
_publ_section_title
;
Structure prediction by ZEFSAII (Michael W. Deem and Ramdas Pophale) SiO2 
 PCOD9057717
Probable space group: P -1
;
_chemical_formula_sum "Si O2"
_cell_formula_units_Z 16
_cell_length_a 23.115801
_cell_length_b 12.376602
_cell_length_c 9.907335
_cell_angle_alpha 43.236082
_cell_angle_beta 143.710843
_cell_angle_gamma 152.574308
_cell_volume 771.804722
_symmetry_space_group_name_H-M "P -1"
_symmetry_group_IT_number 2
_symmetry_cell_setting 'triclinic'
loop_
_space_group_symop_operation_xyz
x,y,z
-x,-y,-z
loop_
_atom_site_type_symbol
_atom_site_label
_atom_site_fract_x
_atom_site_fract_y
_atom_site_fract_z
Si Si1 0.555619 0.162666 0.084271
Si Si2 0.673309 0.868166 0.257950
Si Si3 0.129044 0.999385 0.009675
Si Si4 0.097376 0.771269 0.416619
Si Si5 0.534477 0.154245 0.547241
Si Si6 0.635240 0.779571 0.964184
Si Si7 0.823151 0.634997 0.071758
Si Si8 0.213361 0.356084 0.313424
O O1 0.727636 0.393827 0.190565
O O2 0.505876 0.995882 0.264131
O O3 0.483423 0.250407 0.884186
O O4 0.500000 0.000000 0.000000
O O5 0.717031 0.735702 0.463839
O O6 0.777000 0.076572 0.373254
O O7 0.682212 0.914797 0.071777
O O8 0.223160 0.113172 0.946153
O O9 0.137901 0.858534 0.257043
O O10 0.190095 0.213370 0.021612
O O11 0.959015 0.834194 0.810456
O O12 0.000000 0.500000 0.500000
O O13 0.991111 0.788927 0.240645
O O14 0.432209 0.181028 0.305837
O O15 0.695792 0.417654 0.626972
O O16 0.500000 0.000000 0.500000
O O17 0.500000 0.500000 0.000000
O O18 0.766356 0.569085 0.872138
#
# Coordination Sequence:
#
# PCOD9057717 Si02
#       8
#     2   2   2   2   2   2   2   2
#     4  12  26  42  71 106 138 185 234 290 357 408
#     4  12  24  46  68 102 140 185 235 287 342 421
#     4  11  25  45  73 106 135 187 238 286 358 420
#     4  11  24  43  70 102 143 178 231 298 352 409
#     4  12  27  48  67  98 149 183 228 297 351 407
#     4  12  27  47  69 103 142 189 237 284 348 424
#     4  11  22  43  69 106 139 178 235 294 351 411
#     4  11  23  46  72 102 142 182 236 297 340 421
#
# _framework density 20.730632
#
# number of rings (size 3 to 8) (size 9 to 14) (size 15 to 20)
#    0.000    0.500    6.250    2.250    5.250    1.000 
#    2.250    1.250    0.000    0.000    0.000    0.000 
#    0.000    0.000    0.000    0.000    0.000    0.000 
#
# Total GULP energy -89297.512799 kJ/mol
# GULP energy per Si atom -5581.094550 kJ/mol
# Density = 2.068345 g / cm^3
# Si number density = 20.730632 Si / 1000 Ang^3
#
#
#
# Elastic Constant Matrix: (Units=GPa)
#
#
# Indices 1 2 3 4 5 6 
#
# 1 117.1158 38.5785 25.1408 6.7002 -9.6566 12.7812
# 2 38.5785 114.0200 31.1197 2.5174 -3.5284 6.5769
# 3 25.1408 31.1197 85.3316 8.1582 -6.0478 5.4495
# 4 6.7002 2.5174 8.1582 34.4741 -4.0155 -3.2318
# 5 -9.6566 -3.5284 -6.0478 -4.0155 28.7703 6.4327
# 6 12.7812 6.5769 5.4495 -3.2318 6.4327 30.6218
#
#
#
# Elastic Compliance Matrix: (Units=1/GPa)
#
#
# Indices 1 2 3 4 5 6 
#
# 1 0.010658 -0.002809 -0.001416 -0.001522 0.003738 -0.004539
# 2 -0.002809 0.010567 -0.003045 0.000436 -0.000118 -0.000484
# 3 -0.001416 -0.003045 0.013777 -0.002699 0.002103 -0.001934
# 4 -0.001522 0.000436 -0.002699 0.030540 0.002402 0.003741
# 5 0.003738 -0.000118 0.002103 0.002402 0.038976 -0.009843
# 6 -0.004539 -0.000484 -0.001934 0.003741 -0.009843 0.037462
#
#
# Mechanical properties :
#
#
# Convention : Reuss Voigt Hill
#
# Bulk Modulus (GPa) = 48.86829 56.23835 52.55332
# Shear Modulus (GPa) = 30.61090 33.54845 32.07968
#
# Velocity S-wave (km/s) = 3.84683 4.02718 3.93804
# Velocity P-wave (km/s) = 6.58445 6.98651 6.78845
#
# Compressibility (1/GPa) = 0.02046317
#
# Stress axis : x y z
#
# Youngs Moduli (GPa) = 93.82360 94.63870 72.58392
#
# Poissons Ratio (x) = 0.26582 0.10275
# Poissons Ratio (y) = 0.26353 0.22102
# Poissons Ratio (z) = 0.13282 0.28818
#
# Static dielectric constant tensor:
#      x y z
#    x 1.752810 -0.014630 0.052590 
#    y -0.014630 1.746510 -0.031710 
#    z 0.052590 -0.031710 1.792140 
# 
# From -- ./inp_files/184190.got.cif
#   From: 2010.05.17/outbox.cif.g08.bks.cpg/sg2_93_cif.got.tgz:184190.got - 2010.06.03 11:33:40.
