data_PCOD9057405
_publ_section_title
;
Structure prediction by ZEFSAII (Michael W. Deem and Ramdas Pophale) SiO2 
 PCOD9057405
Probable space group: P -1
;
_chemical_formula_sum "Si O2"
_cell_formula_units_Z 16
_cell_length_a 15.452117
_cell_length_b 9.402253
_cell_length_c 11.459005
_cell_angle_alpha 81.376720
_cell_angle_beta 80.040841
_cell_angle_gamma 27.357361
_cell_volume 753.495811
_symmetry_space_group_name_H-M "P -1"
_symmetry_group_IT_number 2
_symmetry_cell_setting 'triclinic'
loop_
_space_group_symop_operation_xyz
x,y,z
-x,-y,-z
loop_
_atom_site_type_symbol
_atom_site_label
_atom_site_fract_x
_atom_site_fract_y
_atom_site_fract_z
Si Si1 0.177267 0.640240 0.988450
Si Si2 0.056876 0.274772 0.084487
Si Si3 0.413001 0.196237 0.610647
Si Si4 0.567439 0.215095 0.863053
Si Si5 0.292354 0.283434 0.219666
Si Si6 0.425932 0.512778 0.622675
Si Si7 0.947851 0.445123 0.354936
Si Si8 0.913393 0.798309 0.394073
O O1 0.359365 0.462807 0.920297
O O2 0.088002 0.639564 0.932459
O O3 0.238508 0.482723 0.116409
O O4 0.000000 0.000000 0.000000
O O5 0.034160 0.325318 0.222308
O O6 0.285841 0.924448 0.063178
O O7 0.000000 0.500000 0.000000
O O8 0.440261 0.326202 0.603810
O O9 0.193894 0.481274 0.622222
O O10 0.500000 0.000000 0.500000
O O11 0.515932 0.969635 0.722570
O O12 0.536660 0.358425 0.738260
O O13 0.666746 0.921400 0.836348
O O14 0.122737 0.508995 0.324923
O O15 0.500000 0.500000 0.500000
O O16 0.215392 0.879957 0.647354
O O17 0.840781 0.751873 0.365099
O O18 0.078093 0.235474 0.463989
#
# Coordination Sequence:
#
# PCOD9057405 Si02
#       8
#     2   2   2   2   2   2   2   2
#     4  12  27  48  70 102 144 181 233 299 345 405
#     4  12  24  43  72 103 133 188 241 276 345 428
#     4  11  23  42  65 100 136 180 231 279 346 423
#     4  11  24  45  72 100 139 183 232 286 351 419
#     4  11  22  44  70  98 135 182 226 281 355 412
#     4  11  24  41  66  99 139 178 223 289 350 399
#     4  11  23  41  68 101 136 179 231 281 345 424
#     4  11  22  42  69  96 142 175 223 290 348 412
#
# _framework density 21.234359000000001
#
# number of rings (size 3 to 8) (size 9 to 14) (size 15 to 20)
#    0.000    0.750    3.750    4.125    5.250    1.000 
#    6.750    0.000    0.000    0.000    0.000    0.000 
#    0.000    0.000    0.000    0.000    0.000    0.000 
#
# Total GULP energy -89359.607471 kJ/mol
# GULP energy per Si atom -5584.975467 kJ/mol
# Density = 2.118603 g / cm^3
# Si number density = 21.234359 Si / 1000 Ang^3
#
#
#
# Elastic Constant Matrix: (Units=GPa)
#
#
# Indices 1 2 3 4 5 6 
#
# 1 80.3986 15.9187 30.4233 -8.5006 5.1396 -24.7527
# 2 15.9187 109.9371 35.1468 -14.8434 -4.3828 0.3680
# 3 30.4233 35.1468 117.2500 -20.0245 -9.2224 -3.5358
# 4 -8.5006 -14.8434 -20.0245 39.2453 -5.5577 -7.4266
# 5 5.1396 -4.3828 -9.2224 -5.5577 29.1834 2.8533
# 6 -24.7527 0.3680 -3.5358 -7.4266 2.8533 32.7166
#
#
#
# Elastic Compliance Matrix: (Units=1/GPa)
#
#
# Indices 1 2 3 4 5 6 
#
# 1 0.020003 -0.001342 -0.004084 0.003965 -0.005836 0.016117
# 2 -0.001342 0.010422 -0.002233 0.002572 0.001677 -0.000936
# 3 -0.004084 -0.002233 0.011389 0.004552 0.004971 -0.001234
# 4 0.003965 0.002572 0.004552 0.032474 0.006306 0.010284
# 5 -0.005836 0.001677 0.004971 0.006306 0.038890 -0.005857
# 6 0.016117 -0.000936 -0.001234 0.010284 -0.005857 0.045482
#
#
# Mechanical properties :
#
#
# Convention : Reuss Voigt Hill
#
# Bulk Modulus (GPa) = 37.74106 52.28480 45.01293
# Shear Modulus (GPa) = 27.35086 35.30220 31.32653
#
# Velocity S-wave (km/s) = 3.59283 4.08180 3.84510
# Velocity P-wave (km/s) = 5.91806 6.84770 6.39978
#
# Compressibility (1/GPa) = 0.02649634
#
# Stress axis : x y z
#
# Youngs Moduli (GPa) = 49.99161 95.95527 87.80412
#
# Poissons Ratio (x) = 0.12878 0.35858
# Poissons Ratio (y) = 0.06709 0.19604
# Poissons Ratio (z) = 0.20416 0.21424
#
# Static dielectric constant tensor:
#      x y z
#    x 1.791660 -0.020480 0.024770 
#    y -0.020480 1.777650 0.016490 
#    z 0.024770 0.016490 1.725670 
# 
# From -- ./inp_files/447150.got.cif
#   From: 2010.05.17/outbox.cif.g08.bks.cpg/sg2_224_cif.got.tgz:447150.got - 2010.06.03 11:33:40.
