data_PCOD9057613
_publ_section_title
;
Structure prediction by ZEFSAII (Michael W. Deem and Ramdas Pophale) SiO2 
 PCOD9057613
Probable space group: P -1
;
_chemical_formula_sum "Si O2"
_cell_formula_units_Z 16
_cell_length_a 18.779247
_cell_length_b 8.050094
_cell_length_c 12.253639
_cell_angle_alpha 83.765296
_cell_angle_beta 36.194298
_cell_angle_gamma 109.635036
_cell_volume 752.715877
_symmetry_space_group_name_H-M "P -1"
_symmetry_group_IT_number 2
_symmetry_cell_setting 'triclinic'
loop_
_space_group_symop_operation_xyz
x,y,z
-x,-y,-z
loop_
_atom_site_type_symbol
_atom_site_label
_atom_site_fract_x
_atom_site_fract_y
_atom_site_fract_z
Si Si1 0.179599 0.331205 0.766963
Si Si2 0.668303 0.137407 0.208379
Si Si3 0.120395 0.993651 0.009191
Si Si4 0.914817 0.768645 0.488965
Si Si5 0.783475 0.965001 0.737637
Si Si6 0.016427 0.412365 0.098806
Si Si7 0.504358 0.842744 0.226251
Si Si8 0.248465 0.728804 0.383712
O O1 0.345639 0.609925 0.512060
O O2 0.235586 0.223092 0.770051
O O3 0.030098 0.244035 0.043439
O O4 0.065900 0.208051 0.807488
O O5 0.771522 0.068948 0.109839
O O6 0.500000 0.000000 0.500000
O O7 0.613087 0.072498 0.155239
O O8 0.809095 0.408713 0.057270
O O9 0.057431 0.976349 0.209515
O O10 0.789522 0.798698 0.673188
O O11 0.823652 0.509296 0.572334
O O12 0.029788 0.837205 0.447360
O O13 0.757187 0.109147 0.692190
O O14 0.629066 0.821451 0.028198
O O15 0.872781 0.339680 0.359998
O O16 0.000000 0.500000 0.000000
O O17 0.425262 0.857348 0.218364
#
# Coordination Sequence:
#
# PCOD9057613 Si02
#       8
#     2   2   2   2   2   2   2   2
#     4  11  23  39  69  94 127 172 211 263 335 387
#     4  12  22  38  63  95 134 165 201 266 328 384
#     4  11  22  43  65  94 127 170 219 263 320 398
#     4  11  22  47  68  91 129 172 221 280 311 379
#     4  11  26  42  69  96 126 172 228 268 323 383
#     4  12  19  40  67  93 125 168 212 260 323 389
#     4  12  23  43  62  95 139 166 208 277 322 386
#     4  12  23  43  69  94 129 179 216 265 327 391
#
# _framework density 21.256360000000001
#
# number of rings (size 3 to 8) (size 9 to 14) (size 15 to 20)
#    0.000    0.500    7.500    1.500    0.000    1.000 
#    0.000    1.250    0.000    0.000    0.000    0.000 
#    0.000    0.000    0.000    0.000    0.000    0.000 
#
# Total GULP energy -89152.296660 kJ/mol
# GULP energy per Si atom -5572.018541 kJ/mol
# Density = 2.120798 g / cm^3
# Si number density = 21.256360 Si / 1000 Ang^3
#
#
#
# Elastic Constant Matrix: (Units=GPa)
#
#
# Indices 1 2 3 4 5 6 
#
# 1 109.1912 41.6398 15.1961 -10.1071 -3.4322 5.5887
# 2 41.6398 92.8851 33.0235 25.8556 1.3680 6.4157
# 3 15.1961 33.0235 79.0073 33.6452 -6.2126 0.5811
# 4 -10.1071 25.8556 33.6452 38.7148 -0.3451 0.9642
# 5 -3.4322 1.3680 -6.2126 -0.3451 28.1157 0.8890
# 6 5.5887 6.4157 0.5811 0.9642 0.8890 27.3566
#
#
#
# Elastic Compliance Matrix: (Units=1/GPa)
#
#
# Indices 1 2 3 4 5 6 
#
# 1 0.014495 -0.008493 -0.005038 0.013880 0.001284 -0.001393
# 2 -0.008493 0.018889 -0.000175 -0.014647 -0.002108 -0.002106
# 3 -0.005038 -0.000175 0.023062 -0.021233 0.004191 0.001192
# 4 0.013880 -0.014647 -0.021233 0.057698 -0.001547 -0.000933
# 5 0.001284 -0.002108 0.004191 -0.001547 0.036765 -0.000997
# 6 -0.001393 -0.002106 0.001192 -0.000933 -0.000997 0.037373
#
#
# Mechanical properties :
#
#
# Convention : Reuss Voigt Hill
#
# Bulk Modulus (GPa) = 34.44143 51.20027 42.82085
# Shear Modulus (GPa) = 22.18570 31.58569 26.88569
#
# Velocity S-wave (km/s) = 3.23417 3.85897 3.56030
# Velocity P-wave (km/s) = 5.49405 6.63286 6.09013
#
# Compressibility (1/GPa) = 0.02903480
#
# Stress axis : x y z
#
# Youngs Moduli (GPa) = 68.99063 52.94013 43.36197
#
# Poissons Ratio (x) = 0.44964 0.21844
# Poissons Ratio (y) = 0.58596 0.00757
# Poissons Ratio (z) = 0.34755 0.00924
#
# Static dielectric constant tensor:
#      x y z
#    x 1.842700 -0.057540 0.016320 
#    y -0.057540 1.876550 0.016410 
#    z 0.016320 0.016410 1.871930 
# 
# From -- ./inp_files/446799.got.cif
#   From: 2010.05.17/outbox.cif.g08.bks.cpg/sg2_224_cif.got.tgz:446799.got - 2010.06.03 11:33:40.
