data_PCOD9057837
_publ_section_title
;
Structure prediction by ZEFSAII (Michael W. Deem and Ramdas Pophale) SiO2 
 PCOD9057837
Probable space group: P -1
;
_chemical_formula_sum "Si O2"
_cell_formula_units_Z 16
_cell_length_a 9.066735
_cell_length_b 15.122281
_cell_length_c 9.367238
_cell_angle_alpha 140.709910
_cell_angle_beta 67.544707
_cell_angle_gamma 109.627687
_cell_volume 749.854525
_symmetry_space_group_name_H-M "P -1"
_symmetry_group_IT_number 2
_symmetry_cell_setting 'triclinic'
loop_
_space_group_symop_operation_xyz
x,y,z
-x,-y,-z
loop_
_atom_site_type_symbol
_atom_site_label
_atom_site_fract_x
_atom_site_fract_y
_atom_site_fract_z
Si Si1 0.069218 0.172646 0.548271
Si Si2 0.093968 0.847800 0.108818
Si Si3 0.885273 0.593953 0.747109
Si Si4 0.918206 0.410970 0.788165
Si Si5 0.423674 0.634148 0.040173
Si Si6 0.421316 0.300406 0.651700
Si Si7 0.579380 0.638656 0.718557
Si Si8 0.558587 0.161225 0.175884
O O1 0.247963 0.225184 0.595651
O O2 0.951325 0.180911 0.741749
O O3 0.026220 0.279602 0.571765
O O4 0.068071 0.011561 0.302400
O O5 0.270399 0.820336 0.945619
O O6 0.968827 0.745302 0.940487
O O7 0.876174 0.510702 0.797708
O O8 0.730573 0.606488 0.719499
O O9 0.000000 0.500000 0.500000
O O10 0.749591 0.342153 0.812533
O O11 0.000000 0.500000 0.000000
O O12 0.546251 0.698347 0.190568
O O13 0.430815 0.465448 0.816002
O O14 0.457147 0.692896 0.946934
O O15 0.555004 0.227469 0.418821
O O16 0.500000 0.500000 0.500000
O O17 0.581764 0.756429 0.745315
O O18 0.500000 0.000000 0.000000
#
# Coordination Sequence:
#
# PCOD9057837 Si02
#       8
#     2   2   2   2   2   2   2   2
#     4  11  23  44  75 101 141 190 235 290 353 423
#     4  11  24  46  71 105 143 187 234 292 360 421
#     4  12  28  44  69 107 145 180 236 291 351 427
#     4  12  24  43  72 106 136 182 238 291 346 415
#     4  11  23  41  73 103 137 182 241 292 348 421
#     4  11  22  43  72 104 142 183 235 295 351 417
#     4  12  26  46  71 102 140 185 233 293 354 413
#     4  12  26  46  72 104 142 189 233 294 360 426
#
# _framework density 21.337471000000001
#
# number of rings (size 3 to 8) (size 9 to 14) (size 15 to 20)
#    0.000    0.500    5.000    3.750    5.250    0.000 
#    2.250    1.875    0.000    0.000    0.000    0.000 
#    0.000    0.000    0.000    0.000    0.000    0.000 
#
# Total GULP energy -89338.492330 kJ/mol
# GULP energy per Si atom -5583.655771 kJ/mol
# Density = 2.128891 g / cm^3
# Si number density = 21.337471 Si / 1000 Ang^3
#
#
#
# Elastic Constant Matrix: (Units=GPa)
#
#
# Indices 1 2 3 4 5 6 
#
# 1 144.3427 60.7001 57.6473 16.4843 13.8234 -0.0493
# 2 60.7001 83.8025 41.0775 10.3459 9.3103 -10.5391
# 3 57.6473 41.0775 125.7424 12.3170 6.8199 -5.2988
# 4 16.4843 10.3459 12.3170 46.4581 6.6350 -9.7040
# 5 13.8234 9.3103 6.8199 6.6350 32.3064 -6.9720
# 6 -0.0493 -10.5391 -5.2988 -9.7040 -6.9720 36.6899
#
#
#
# Elastic Compliance Matrix: (Units=1/GPa)
#
#
# Indices 1 2 3 4 5 6 
#
# 1 0.011374 -0.006734 -0.002807 -0.002124 -0.002628 -0.003386
# 2 -0.006734 0.018908 -0.002842 0.000080 -0.000936 0.004855
# 3 -0.002807 -0.002842 0.010278 -0.001030 0.000153 0.000421
# 4 -0.002124 0.000080 -0.001030 0.024107 -0.002607 0.005752
# 5 -0.002628 -0.000936 0.000153 -0.002607 0.034044 0.005529
# 6 -0.003386 0.004855 0.000421 0.005752 0.005529 0.031278
#
#
# Mechanical properties :
#
#
# Convention : Reuss Voigt Hill
#
# Bulk Modulus (GPa) = 63.31234 74.74859 69.03046
# Shear Modulus (GPa) = 31.24584 36.05508 33.65046
#
# Velocity S-wave (km/s) = 3.83085 4.11512 3.97553
# Velocity P-wave (km/s) = 7.02165 7.59517 7.31403
#
# Compressibility (1/GPa) = 0.01579471
#
# Stress axis : x y z
#
# Youngs Moduli (GPa) = 87.92114 52.88644 97.29270
#
# Poissons Ratio (x) = 0.35615 0.27306
# Poissons Ratio (y) = 0.59208 0.27652
# Poissons Ratio (z) = 0.24675 0.15031
#
# Static dielectric constant tensor:
#      x y z
#    x 1.811900 -0.032760 -0.021690 
#    y -0.032760 1.788460 -0.075640 
#    z -0.021690 -0.075640 1.809160 
# 
# From -- ./inp_files/209225.got.cif
#   From: 2010.05.17/outbox.cif.g08.bks.cpg/sg2_105_cif.got.tgz:209225.got - 2010.06.03 11:33:40.
