data_PCOD9057015
_publ_section_title
;
Structure prediction by ZEFSAII (Michael W. Deem and Ramdas Pophale) SiO2 
 PCOD9057015
Probable space group: P -1
;
_chemical_formula_sum "Si O2"
_cell_formula_units_Z 14
_cell_length_a 12.793139
_cell_length_b 20.473520
_cell_length_c 9.757630
_cell_angle_alpha 35.804250
_cell_angle_beta 144.434056
_cell_angle_gamma 156.036776
_cell_volume 578.432200
_symmetry_space_group_name_H-M "P -1"
_symmetry_group_IT_number 2
_symmetry_cell_setting 'triclinic'
loop_
_space_group_symop_operation_xyz
x,y,z
-x,-y,-z
loop_
_atom_site_type_symbol
_atom_site_label
_atom_site_fract_x
_atom_site_fract_y
_atom_site_fract_z
Si Si1 0.764808 0.707521 0.344788
Si Si2 0.778172 0.308835 0.475649
Si Si3 0.334289 0.035866 0.279419
Si Si4 0.931083 0.769098 0.965955
Si Si5 0.844413 0.490382 0.729303
Si Si6 0.705868 0.858832 0.230353
Si Si7 0.425805 0.560819 0.984235
O O1 0.769529 0.576558 0.564279
O O2 0.797831 0.781564 0.400611
O O3 0.504937 0.620296 0.124348
O O4 0.024576 0.870838 0.260649
O O5 0.471805 0.154089 0.356524
O O6 0.751064 0.423870 0.304320
O O7 0.858472 0.232445 0.768501
O O8 0.970212 0.404898 0.383560
O O9 0.500000 0.000000 0.500000
O O10 0.360361 0.111689 0.035695
O O11 0.750136 0.633266 0.883453
O O12 0.704885 0.675427 0.003633
O O13 0.085268 0.957944 0.789823
O O14 0.577002 0.296709 0.732615
O O15 0.000000 0.500000 0.000000
#
# Coordination Sequence:
#
# PCOD9057015 Si02
#       7
#     2   2   2   2   2   2   2
#     4  12  22  39  64  92 123 160 205 255 311 355
#     4  12  22  39  65  92 126 164 200 252 310 359
#     4  12  18  34  61  89 121 149 199 256 302 340
#     4  11  24  42  64  93 124 159 210 255 300 359
#     4  12  23  38  58  92 129 159 197 255 310 367
#     4  12  22  37  59  93 123 159 202 252 302 362
#     4  11  22  41  68  90 121 164 208 252 303 364
#
# _framework density 24.203357
#
# number of rings (size 3 to 8) (size 9 to 14) (size 15 to 20)
#    0.000    0.286    8.571    2.143    0.000    0.000 
#    0.000    1.429    0.000    0.000    0.000    0.000 
#    0.000    0.000    0.000    0.000    0.000    0.000 
#
# Total GULP energy -78264.750035 kJ/mol
# GULP energy per Si atom -5590.339288 kJ/mol
# Density = 2.414827 g / cm^3
# Si number density = 24.203357 Si / 1000 Ang^3
#
#
#
# Elastic Constant Matrix: (Units=GPa)
#
#
# Indices 1 2 3 4 5 6 
#
# 1 39.4727 29.8357 17.1759 -4.5508 10.9007 -9.8083
# 2 29.8357 194.4747 18.5700 -27.5234 5.4259 -13.5801
# 3 17.1759 18.5700 114.9488 -4.1054 16.7117 -0.4329
# 4 -4.5508 -27.5234 -4.1054 31.1585 -1.0318 13.9886
# 5 10.9007 5.4259 16.7117 -1.0318 35.6012 -15.0111
# 6 -9.8083 -13.5801 -0.4329 13.9886 -15.0111 29.9622
#
#
#
# Elastic Compliance Matrix: (Units=1/GPa)
#
#
# Indices 1 2 3 4 5 6 
#
# 1 0.033216 -0.004540 -0.003682 -0.003458 -0.004405 0.008170
# 2 -0.004540 0.006572 -0.000223 0.005565 0.000237 -0.000991
# 3 -0.003682 -0.000223 0.010215 0.002847 -0.005832 -0.005410
# 4 -0.003458 0.005565 0.002847 0.048513 -0.010987 -0.026723
# 5 -0.004405 0.000237 -0.005832 -0.010987 0.042327 0.024916
# 6 0.008170 -0.000991 -0.005410 -0.026723 0.024916 0.060482
#
#
# Mechanical properties :
#
#
# Convention : Reuss Voigt Hill
#
# Bulk Modulus (GPa) = 30.19992 53.33994 41.76993
# Shear Modulus (GPa) = 21.81009 38.23203 30.02106
#
# Velocity S-wave (km/s) = 3.00512 3.97875 3.52571
# Velocity P-wave (km/s) = 4.95436 6.57217 5.81975
#
# Compressibility (1/GPa) = 0.03311268
#
# Stress axis : x y z
#
# Youngs Moduli (GPa) = 30.10611 152.16730 97.89651
#
# Poissons Ratio (x) = 0.69089 0.36045
# Poissons Ratio (y) = 0.13669 0.02179
# Poissons Ratio (z) = 0.11085 0.03388
#
# Static dielectric constant tensor:
#      x y z
#    x 2.419620 -0.479380 0.029420 
#    y -0.479380 2.327580 -0.011370 
#    z 0.029420 -0.011370 1.953890 
# 
# From -- ./inp_files/255945.got.cif
#   From: 2010.05.17/outbox.cif.g08.bks.cpg/sg2_128_cif.got.tgz:255945.got - 2010.06.03 11:33:40.
