data_PCOD9057006
_publ_section_title
;
Structure prediction by ZEFSAII (Michael W. Deem and Ramdas Pophale) SiO2 
 PCOD9057006
Probable space group: P -1
;
_chemical_formula_sum "Si O2"
_cell_formula_units_Z 14
_cell_length_a 5.152908
_cell_length_b 9.197693
_cell_length_c 20.863864
_cell_angle_alpha 35.550466
_cell_angle_beta 68.507122
_cell_angle_gamma 70.229089
_cell_volume 533.475675
_symmetry_space_group_name_H-M "P -1"
_symmetry_group_IT_number 2
_symmetry_cell_setting 'triclinic'
loop_
_space_group_symop_operation_xyz
x,y,z
-x,-y,-z
loop_
_atom_site_type_symbol
_atom_site_label
_atom_site_fract_x
_atom_site_fract_y
_atom_site_fract_z
Si Si1 0.880600 0.388620 0.192476
Si Si2 0.576313 0.773797 0.876962
Si Si3 0.720693 0.911843 0.956573
Si Si4 0.217803 0.173101 0.452289
Si Si5 0.535677 0.745966 0.340066
Si Si6 0.880325 0.832077 0.392553
Si Si7 0.955815 0.604699 0.248350
O O1 0.179198 0.292190 0.171922
O O2 0.893251 0.498531 0.222742
O O3 0.785717 0.619252 0.072549
O O4 0.749821 0.122119 0.302124
O O5 0.636871 0.910044 0.889997
O O6 0.370614 0.972111 0.787146
O O7 0.500000 0.500000 0.000000
O O8 0.953813 0.112705 0.869748
O O9 0.500000 0.000000 0.000000
O O10 0.209513 0.425890 0.320052
O O11 0.113918 0.247743 0.505873
O O12 0.500000 0.000000 0.500000
O O13 0.000000 0.000000 0.500000
O O14 0.198814 0.780260 0.356371
O O15 0.670279 0.696521 0.414904
O O16 0.695541 0.585764 0.327398
#
# Coordination Sequence:
#
# PCOD9057006 Si02
#       7
#     2   2   2   2   2   2   2
#     4  11  23  41  70 102 146 195 247 299 370 449
#     4  11  22  41  68 101 150 199 249 298 367 451
#     4  12  25  41  70 113 154 197 251 313 384 443
#     4  12  28  49  79 111 149 197 259 312 375 452
#     4  11  25  45  73 109 150 190 252 310 380 437
#     4  11  25  48  75 108 147 200 252 308 366 453
#     4  12  26  46  72 110 153 198 249 322 379 444
#
# _framework density 26.242996000000002
#
# number of rings (size 3 to 8) (size 9 to 14) (size 15 to 20)
#    0.000    0.571    1.429    6.857    4.000    3.429 
#    0.000    0.000    0.000    0.000    0.000    0.000 
#    0.000    0.000    0.000    0.000    0.000    0.000 
#
# Total GULP energy -78402.295590 kJ/mol
# GULP energy per Si atom -5600.163971 kJ/mol
# Density = 2.618327 g / cm^3
# Si number density = 26.242996 Si / 1000 Ang^3
#
#
#
# Elastic Constant Matrix: (Units=GPa)
#
#
# Indices 1 2 3 4 5 6 
#
# 1 126.1076 63.4426 20.9142 9.3659 3.7158 14.2680
# 2 63.4426 167.4078 11.9607 25.0565 -3.8106 18.1547
# 3 20.9142 11.9607 120.4080 -19.6783 17.1176 20.3442
# 4 9.3659 25.0565 -19.6783 66.6295 4.1791 10.4756
# 5 3.7158 -3.8106 17.1176 4.1791 45.5975 1.0064
# 6 14.2680 18.1547 20.3442 10.4756 1.0064 63.2564
#
#
#
# Elastic Compliance Matrix: (Units=1/GPa)
#
#
# Indices 1 2 3 4 5 6 
#
# 1 0.010081 -0.003625 -0.001207 -0.000246 -0.000631 -0.000794
# 2 -0.003625 0.007909 -0.000650 -0.002617 0.001459 -0.000833
# 3 -0.001207 -0.000650 0.010490 0.004337 -0.004213 -0.003566
# 4 -0.000246 -0.002617 0.004337 0.018076 -0.003406 -0.003528
# 5 -0.000631 0.001459 -0.004213 -0.003406 0.023970 0.001261
# 6 -0.000794 -0.000833 -0.003566 -0.003528 0.001261 0.017938
#
#
# Mechanical properties :
#
#
# Convention : Reuss Voigt Hill
#
# Bulk Modulus (GPa) = 57.09852 67.39536 62.24694
# Shear Modulus (GPa) = 47.49833 56.27041 51.88437
#
# Velocity S-wave (km/s) = 4.25896 4.63558 4.45125
# Velocity P-wave (km/s) = 6.78158 7.37486 7.08443
#
# Compressibility (1/GPa) = 0.01751359
#
# Stress axis : x y z
#
# Youngs Moduli (GPa) = 99.20125 126.43658 95.33312
#
# Poissons Ratio (x) = 0.45839 0.11506
# Poissons Ratio (y) = 0.35965 0.06200
# Poissons Ratio (z) = 0.11973 0.08223
#
# Static dielectric constant tensor:
#      x y z
#    x 2.093370 -0.024100 -0.110190 
#    y -0.024100 2.300650 -0.105690 
#    z -0.110190 -0.105690 2.257570 
# 
# From -- ./inp_files/582161.got.cif
#   From: 2010.05.17/outbox.cif.g08.bks.cpg/sg2_292_cif.got.tgz:582161.got - 2010.06.03 11:33:40.
