data_PCOD9057526
_publ_section_title
;
Structure prediction by ZEFSAII (Michael W. Deem and Ramdas Pophale) SiO2 
 PCOD9057526
Probable space group: P -1
;
_chemical_formula_sum "Si O2"
_cell_formula_units_Z 15
_cell_length_a 9.344315
_cell_length_b 11.799863
_cell_length_c 21.085557
_cell_angle_alpha 41.917677
_cell_angle_beta 28.726511
_cell_angle_gamma 49.519976
_cell_volume 746.471315
_symmetry_space_group_name_H-M "P -1"
_symmetry_group_IT_number 2
_symmetry_cell_setting 'triclinic'
loop_
_space_group_symop_operation_xyz
x,y,z
-x,-y,-z
loop_
_atom_site_type_symbol
_atom_site_label
_atom_site_fract_x
_atom_site_fract_y
_atom_site_fract_z
Si Si1 0.119816 0.642265 0.943117
Si Si2 0.851952 0.006650 0.863083
Si Si3 0.654240 0.260814 0.461081
Si Si4 0.274816 0.153024 0.538121
Si Si5 0.144347 0.533381 0.122085
Si Si6 0.000000 0.000000 0.500000
Si Si7 0.923172 0.677714 0.274814
Si Si8 0.182371 0.328441 0.368628
O O1 0.474707 0.659106 0.791281
O O2 0.977864 0.822620 0.907197
O O3 0.060683 0.591651 0.059948
O O4 0.000000 0.500000 0.000000
O O5 0.988317 0.068619 0.717665
O O6 0.958172 0.147648 0.813650
O O7 0.500000 0.000000 0.000000
O O8 0.445028 0.264107 0.478701
O O9 0.432404 0.321164 0.577644
O O10 0.948170 0.368158 0.284826
O O11 0.750181 0.069262 0.518017
O O12 0.186935 0.263293 0.465964
O O13 0.500000 0.000000 0.500000
O O14 0.043008 0.661976 0.163101
O O15 0.500000 0.500000 0.000000
O O16 0.986732 0.810246 0.551298
O O17 0.047492 0.513942 0.331940
#
# Coordination Sequence:
#
# PCOD9057526 Si02
#       8
#     2   2   2   2   2   1   2   2
#     4  12  25  45  72  98 139 182 233 283 345 417
#     4  11  26  45  66 104 142 176 225 295 345 403
#     4  11  24  43  67 101 140 176 234 283 340 409
#     4  11  22  42  72  96 133 183 233 277 333 417
#     4  12  25  42  71 102 135 187 224 283 351 412
#     4  12  22  40  70  94 138 178 224 284 336 404
#     4  11  25  46  69  99 145 175 232 292 342 413
#     4  12  23  43  70 103 130 181 233 280 347 410
#
# _framework density 20.094542000000001
#
# number of rings (size 3 to 8) (size 9 to 14) (size 15 to 20)
#    0.000    0.533    5.333    2.800    0.000    3.733 
#    2.400    0.000    0.000    0.000    0.000    0.000 
#    0.000    0.000    0.000    0.000    0.000    0.000 
#
# Total GULP energy -83590.028902 kJ/mol
# GULP energy per Si atom -5572.668593 kJ/mol
# Density = 2.004881 g / cm^3
# Si number density = 20.094542 Si / 1000 Ang^3
#
#
#
# Elastic Constant Matrix: (Units=GPa)
#
#
# Indices 1 2 3 4 5 6 
#
# 1 121.5563 52.4889 53.0239 -7.8979 25.0204 -0.6020
# 2 52.4889 158.3795 68.8551 -10.1565 3.9695 -11.0600
# 3 53.0239 68.8551 138.6126 28.3943 6.5062 -6.5198
# 4 -7.8979 -10.1565 28.3943 38.3619 -0.6458 -2.6900
# 5 25.0204 3.9695 6.5062 -0.6458 52.1649 -2.5873
# 6 -0.6020 -11.0600 -6.5198 -2.6900 -2.5873 46.9073
#
#
#
# Elastic Compliance Matrix: (Units=1/GPa)
#
#
# Indices 1 2 3 4 5 6 
#
# 1 0.012510 -0.001542 -0.004983 0.005708 -0.005233 -0.000857
# 2 -0.001542 0.009770 -0.005550 0.006527 0.000865 0.001934
# 3 -0.004983 -0.005550 0.014551 -0.013256 0.000830 -0.000064
# 4 0.005708 0.006527 -0.013256 0.038902 -0.001003 0.001945
# 5 -0.005233 0.000865 0.000830 -0.001003 0.021567 0.001384
# 6 -0.000857 0.001934 -0.000064 0.001945 0.001384 0.021943
#
#
# Mechanical properties :
#
#
# Convention : Reuss Voigt Hill
#
# Bulk Modulus (GPa) = 78.86333 85.25380 82.05856
# Shear Modulus (GPa) = 33.87082 43.76552 38.81817
#
# Velocity S-wave (km/s) = 4.11003 4.67195 4.39997
# Velocity P-wave (km/s) = 7.86476 8.46293 8.16932
#
# Compressibility (1/GPa) = 0.01268016
#
# Stress axis : x y z
#
# Youngs Moduli (GPa) = 79.93529 102.35622 68.72428
#
# Poissons Ratio (x) = 0.15786 0.34247
# Poissons Ratio (y) = 0.12328 0.38141
# Poissons Ratio (z) = 0.39834 0.56806
#
# Static dielectric constant tensor:
#      x y z
#    x 1.764080 0.018040 -0.000290 
#    y 0.018040 1.702080 -0.009130 
#    z -0.000290 -0.009130 1.707520 
# 
# From -- ./inp_files/589425.got.cif
#   From: 2010.05.17/outbox.cif.g08.bks.cpg/sg2_295_cif.got.tgz:589425.got - 2010.06.03 11:33:40.
