data_PCOD9057598
_publ_section_title
;
Structure prediction by ZEFSAII (Michael W. Deem and Ramdas Pophale) SiO2 
 PCOD9057598
Probable space group: P -1
;
_chemical_formula_sum "Si O2"
_cell_formula_units_Z 16
_cell_length_a 8.324568
_cell_length_b 11.506445
_cell_length_c 9.376137
_cell_angle_alpha 87.077542
_cell_angle_beta 115.526564
_cell_angle_gamma 117.309490
_cell_volume 707.946728
_symmetry_space_group_name_H-M "P -1"
_symmetry_group_IT_number 2
_symmetry_cell_setting 'triclinic'
loop_
_space_group_symop_operation_xyz
x,y,z
-x,-y,-z
loop_
_atom_site_type_symbol
_atom_site_label
_atom_site_fract_x
_atom_site_fract_y
_atom_site_fract_z
Si Si1 0.327074 0.870714 0.864765
Si Si2 0.622487 0.649326 0.698997
Si Si3 0.001444 0.922516 0.861793
Si Si4 0.519398 0.345673 0.066261
Si Si5 0.696090 0.044526 0.473893
Si Si6 0.769686 0.462926 0.889954
Si Si7 0.581340 0.745562 0.387084
Si Si8 0.124957 0.188602 0.749548
O O1 0.132838 0.847928 0.886989
O O2 0.398176 0.760230 0.904343
O O3 0.306095 0.897606 0.687405
O O4 0.500000 0.000000 0.000000
O O5 0.461896 0.605665 0.768311
O O6 0.742464 0.567890 0.775115
O O7 0.543421 0.650916 0.512437
O O8 0.772993 0.806748 0.767426
O O9 0.091200 0.039769 0.771806
O O10 0.000000 0.000000 0.000000
O O11 0.658093 0.454872 0.997624
O O12 0.281013 0.273462 0.930150
O O13 0.892833 0.151412 0.632063
O O14 0.500000 0.000000 0.500000
O O15 0.680160 0.900930 0.449549
O O16 0.630946 0.317253 0.775678
O O17 0.000000 0.500000 0.000000
O O18 0.745965 0.741135 0.345164
#
# Coordination Sequence:
#
# PCOD9057598 Si02
#       8
#     2   2   2   2   2   2   2   2
#     4  12  22  38  60  95 133 174 213 271 328 392
#     4  12  23  41  70  94 128 178 226 273 332 403
#     4  12  22  38  69 101 136 172 221 267 343 405
#     4  11  24  44  68  97 135 173 227 276 332 402
#     4  12  25  38  64 103 142 172 215 272 339 401
#     4  11  26  47  65  93 127 179 234 280 332 387
#     4  11  23  44  67  94 136 175 224 273 330 404
#     4  11  22  43  62  98 139 173 210 269 337 400
#
# _framework density 22.600570000000001
#
# number of rings (size 3 to 8) (size 9 to 14) (size 15 to 20)
#    0.000    0.500    5.000    4.125    1.750    1.000 
#    0.000    0.625    0.000    0.000    0.000    0.000 
#    0.000    0.000    0.000    0.000    0.000    0.000 
#
# Total GULP energy -89311.845181 kJ/mol
# GULP energy per Si atom -5581.990324 kJ/mol
# Density = 2.254913 g / cm^3
# Si number density = 22.600570 Si / 1000 Ang^3
#
#
#
# Elastic Constant Matrix: (Units=GPa)
#
#
# Indices 1 2 3 4 5 6 
#
# 1 105.5841 13.1468 68.2944 7.4484 -1.6410 20.2403
# 2 13.1468 89.6802 38.1922 -6.5950 3.9943 -0.4831
# 3 68.2944 38.1922 131.8506 -21.1779 0.3668 14.3732
# 4 7.4484 -6.5950 -21.1779 29.4621 9.4063 7.2718
# 5 -1.6410 3.9943 0.3668 9.4063 33.2061 0.8783
# 6 20.2403 -0.4831 14.3732 7.2718 0.8783 42.8428
#
#
#
# Elastic Compliance Matrix: (Units=1/GPa)
#
#
# Indices 1 2 3 4 5 6 
#
# 1 0.018606 0.001096 -0.011948 -0.014014 0.004955 -0.002492
# 2 0.001096 0.012950 -0.004538 -0.000525 -0.001338 0.001267
# 3 -0.011948 -0.004538 0.018315 0.017668 -0.005161 -0.003444
# 4 -0.014014 -0.000525 0.017668 0.057627 -0.016917 -0.008747
# 5 0.004955 -0.001338 -0.005161 -0.016917 0.035330 0.001522
# 6 -0.002492 0.001267 -0.003444 -0.008747 0.001522 0.027142
#
#
# Mechanical properties :
#
#
# Convention : Reuss Voigt Hill
#
# Bulk Modulus (GPa) = 52.37740 62.93132 57.65436
# Shear Modulus (GPa) = 24.14137 34.93428 29.53783
#
# Velocity S-wave (km/s) = 3.27184 3.93584 3.61910
# Velocity P-wave (km/s) = 6.12363 6.96849 6.55968
#
# Compressibility (1/GPa) = 0.01909221
#
# Stress axis : x y z
#
# Youngs Moduli (GPa) = 53.74538 77.21807 54.60036
#
# Poissons Ratio (x) = -0.08463 0.65236
# Poissons Ratio (y) = -0.05890 0.24776
# Poissons Ratio (z) = 0.64214 0.35039
#
# Static dielectric constant tensor:
#      x y z
#    x 1.977590 -0.016610 -0.014200 
#    y -0.016610 1.848600 -0.014070 
#    z -0.014200 -0.014070 1.914250 
# 
# From -- ./inp_files/186969.got.cif
#   From: 2010.05.17/outbox.cif.g08.bks.cpg/sg2_94_cif.got.tgz:186969.got - 2010.06.03 11:33:40.
