data_PCOD9057905
_publ_section_title
;
Structure prediction by ZEFSAII (Michael W. Deem and Ramdas Pophale) SiO2 
 PCOD9057905
Probable space group: P -1
;
_chemical_formula_sum "Si O2"
_cell_formula_units_Z 14
_cell_length_a 22.807209
_cell_length_b 21.663491
_cell_length_c 9.731288
_cell_angle_alpha 26.446785
_cell_angle_beta 25.436724
_cell_angle_gamma 17.479704
_cell_volume 598.386570
_symmetry_space_group_name_H-M "P -1"
_symmetry_group_IT_number 2
_symmetry_cell_setting 'triclinic'
loop_
_space_group_symop_operation_xyz
x,y,z
-x,-y,-z
loop_
_atom_site_type_symbol
_atom_site_label
_atom_site_fract_x
_atom_site_fract_y
_atom_site_fract_z
Si Si1 0.536347 0.717505 0.272306
Si Si2 0.132074 0.519879 0.748394
Si Si3 0.573288 0.473982 0.239612
Si Si4 0.229263 0.261375 0.470700
Si Si5 0.609407 0.099434 0.342814
Si Si6 0.260223 0.158351 0.916364
Si Si7 0.012056 0.868642 0.122197
O O1 0.640920 0.670989 0.288397
O O2 0.538615 0.554286 0.563370
O O3 0.646321 0.715234 0.919647
O O4 0.313278 0.964377 0.243865
O O5 0.107443 0.666066 0.408160
O O6 0.000000 0.500000 0.000000
O O7 0.988641 0.646242 0.935432
O O8 0.500000 0.500000 0.500000
O O9 0.494410 0.687397 0.936979
O O10 0.819397 0.254619 0.116818
O O11 0.309410 0.160335 0.653007
O O12 0.000000 0.500000 0.500000
O O13 0.250207 0.107699 0.640315
O O14 0.410599 0.150635 0.696108
O O15 0.778580 0.018172 0.259907
O O16 0.000000 0.000000 0.000000
#
# Coordination Sequence:
#
# PCOD9057905 Si02
#       7
#     2   2   2   2   2   2   2
#     4  11  24  42  68 101 135 186 230 293 349 418
#     4  12  25  41  68  99 135 183 238 290 346 419
#     4  12  27  47  73 103 144 186 245 292 354 427
#     4  11  22  43  74 102 142 179 233 301 363 415
#     4  11  26  44  73 104 141 191 235 297 357 422
#     4  11  23  42  69 103 138 177 237 291 362 421
#     4  12  29  48  69 103 150 195 239 290 353 426
#
# _framework density 23.396248
#
# number of rings (size 3 to 8) (size 9 to 14) (size 15 to 20)
#    0.000    0.571    1.429    7.714    4.000    7.429 
#    0.000    0.000    0.000    0.000    0.000    0.000 
#    0.000    0.000    0.000    0.000    0.000    0.000 
#
# Total GULP energy -78166.513943 kJ/mol
# GULP energy per Si atom -5583.322424 kJ/mol
# Density = 2.334300 g / cm^3
# Si number density = 23.396248 Si / 1000 Ang^3
#
#
#
# Elastic Constant Matrix: (Units=GPa)
#
#
# Indices 1 2 3 4 5 6 
#
# 1 102.6098 26.1856 13.4508 9.7925 -14.8055 -1.8184
# 2 26.1856 108.4341 26.2623 1.8900 -0.1696 2.1572
# 3 13.4508 26.2623 88.7110 -8.9429 -5.8377 14.9664
# 4 9.7925 1.8900 -8.9429 48.5904 13.7256 0.7611
# 5 -14.8055 -0.1696 -5.8377 13.7256 40.9585 -7.4915
# 6 -1.8184 2.1572 14.9664 0.7611 -7.4915 37.0590
#
#
#
# Elastic Compliance Matrix: (Units=1/GPa)
#
#
# Indices 1 2 3 4 5 6 
#
# 1 0.011908 -0.002464 -0.001567 -0.004332 0.006010 0.002664
# 2 -0.002464 0.010505 -0.002856 -0.000106 -0.001185 0.000184
# 3 -0.001567 -0.002856 0.013578 0.003226 -0.000750 -0.005612
# 4 -0.004332 -0.000106 0.003226 0.025006 -0.010235 -0.004092
# 5 0.006010 -0.001185 -0.000750 -0.010235 0.031220 0.007188
# 6 0.002664 0.000184 -0.005612 -0.004092 0.007188 0.030908
#
#
# Mechanical properties :
#
#
# Convention : Reuss Voigt Hill
#
# Bulk Modulus (GPa) = 45.00975 47.95025 46.48000
# Shear Modulus (GPa) = 34.64900 40.91200 37.78050
#
# Velocity S-wave (km/s) = 3.85250 4.18623 4.02283
# Velocity P-wave (km/s) = 6.25051 6.62611 6.44105
#
# Compressibility (1/GPa) = 0.02221741
#
# Stress axis : x y z
#
# Youngs Moduli (GPa) = 83.97986 95.18985 73.64728
#
# Poissons Ratio (x) = 0.23457 0.11538
# Poissons Ratio (y) = 0.20695 0.21034
# Poissons Ratio (z) = 0.13157 0.27186
#
# Static dielectric constant tensor:
#      x y z
#    x 1.937980 0.105750 -0.010360 
#    y 0.105750 1.990190 0.055420 
#    z -0.010360 0.055420 1.852900 
# 
# From -- ./inp_files/349645.got.cif
#   From: 2010.05.17/outbox.cif.g08.bks.cpg/sg2_175_cif.got.tgz:349645.got - 2010.06.03 11:33:40.
