data_PCOD9057901
_publ_section_title
;
Structure prediction by ZEFSAII (Michael W. Deem and Ramdas Pophale) SiO2 
 PCOD9057901
Probable space group: P -1
;
_chemical_formula_sum "Si O2"
_cell_formula_units_Z 16
_cell_length_a 9.184339
_cell_length_b 14.633455
_cell_length_c 14.399240
_cell_angle_alpha 129.734751
_cell_angle_beta 29.264798
_cell_angle_gamma 129.503607
_cell_volume 711.482798
_symmetry_space_group_name_H-M "P -1"
_symmetry_group_IT_number 2
_symmetry_cell_setting 'triclinic'
loop_
_space_group_symop_operation_xyz
x,y,z
-x,-y,-z
loop_
_atom_site_type_symbol
_atom_site_label
_atom_site_fract_x
_atom_site_fract_y
_atom_site_fract_z
Si Si1 0.643236 0.788666 0.780949
Si Si2 0.642644 0.488426 0.196229
Si Si3 0.256768 0.859822 0.205023
Si Si4 0.640235 0.139518 0.531227
Si Si5 0.369753 0.695306 0.522933
Si Si6 0.603339 0.876514 0.649804
Si Si7 0.396149 0.694562 0.177742
Si Si8 0.241966 0.471111 0.228836
O O1 0.526288 0.643503 0.759606
O O2 0.648326 0.832976 0.700812
O O3 0.989301 0.832586 0.654376
O O4 0.405135 0.843258 0.012484
O O5 0.583019 0.601034 0.363222
O O6 0.504375 0.505089 0.181703
O O7 0.000000 0.500000 0.000000
O O8 0.284900 0.744475 0.177198
O O9 0.907849 0.874337 0.417809
O O10 0.439158 0.986138 0.230134
O O11 0.530057 0.217008 0.561655
O O12 0.532932 0.190692 0.719707
O O13 0.500000 0.000000 0.500000
O O14 0.345589 0.780457 0.678995
O O15 0.056172 0.607589 0.611074
O O16 0.174398 0.588707 0.290426
O O17 0.656478 0.622110 0.960709
#
# Coordination Sequence:
#
# PCOD9057901 Si02
#       8
#     2   2   2   2   2   2   2   2
#     4  12  25  48  73 103 146 192 240 295 363 421
#     4  12  25  44  74 105 143 186 239 299 359 426
#     4  11  23  47  72 101 144 191 239 298 348 430
#     4  12  25  43  73 105 143 193 241 294 357 428
#     4  12  25  46  69 104 145 183 243 298 353 432
#     4  11  27  44  70 104 146 189 240 291 362 424
#     4  11  22  43  73  99 140 183 239 294 359 418
#     4  11  24  44  72 102 140 187 234 300 363 419
#
# _framework density 22.488246
#
# number of rings (size 3 to 8) (size 9 to 14) (size 15 to 20)
#    0.000    0.500    5.000    3.000    1.750    3.500 
#    4.500    2.500    0.000    0.000    0.000    0.000 
#    0.000    0.000    0.000    0.000    0.000    0.000 
#
# Total GULP energy -89467.955032 kJ/mol
# GULP energy per Si atom -5591.747190 kJ/mol
# Density = 2.243706 g / cm^3
# Si number density = 22.488246 Si / 1000 Ang^3
#
#
#
# Elastic Constant Matrix: (Units=GPa)
#
#
# Indices 1 2 3 4 5 6 
#
# 1 73.4792 22.3712 21.5635 -11.9285 7.2513 4.8702
# 2 22.3712 150.2075 28.4973 2.3543 -4.8928 4.3750
# 3 21.5635 28.4973 91.0552 4.9264 15.2977 6.7931
# 4 -11.9285 2.3543 4.9264 29.3725 8.2625 3.0341
# 5 7.2513 -4.8928 15.2977 8.2625 31.7332 2.2809
# 6 4.8702 4.3750 6.7931 3.0341 2.2809 34.7264
#
#
#
# Elastic Compliance Matrix: (Units=1/GPa)
#
#
# Indices 1 2 3 4 5 6 
#
# 1 0.017323 -0.002295 -0.002860 0.009382 -0.005228 -0.002057
# 2 -0.002295 0.007576 -0.002259 -0.002076 0.003338 -0.000229
# 3 -0.002860 -0.002259 0.013516 -0.001489 -0.005719 -0.001453
# 4 0.009382 -0.002076 -0.001489 0.042151 -0.012461 -0.003627
# 5 -0.005228 0.003338 -0.005719 -0.012461 0.039227 -0.000057
# 6 -0.002057 -0.000229 -0.001453 -0.003627 -0.000057 0.029719
#
#
# Mechanical properties :
#
#
# Convention : Reuss Voigt Hill
#
# Bulk Modulus (GPa) = 42.39567 51.06730 46.73148
# Shear Modulus (GPa) = 29.03574 35.32044 32.17809
#
# Velocity S-wave (km/s) = 3.59716 3.96740 3.78681
# Velocity P-wave (km/s) = 6.01216 6.61398 6.32024
#
# Compressibility (1/GPa) = 0.02358732
#
# Stress axis : x y z
#
# Youngs Moduli (GPa) = 57.72823 132.00023 73.98504
#
# Poissons Ratio (x) = 0.30292 0.21158
# Poissons Ratio (y) = 0.13248 0.16713
# Poissons Ratio (z) = 0.16509 0.29819
#
# Static dielectric constant tensor:
#      x y z
#    x 1.846670 0.019120 0.018670 
#    y 0.019120 1.833650 -0.011740 
#    z 0.018670 -0.011740 1.880710 
# 
# From -- ./inp_files/505462.got.cif
#   From: 2010.05.17/outbox.cif.g08.bks.cpg/sg2_253_cif.got.tgz:505462.got - 2010.06.03 11:33:40.
