data_PCOD9057121
_publ_section_title
;
Structure prediction by ZEFSAII (Michael W. Deem and Ramdas Pophale) SiO2 
 PCOD9057121
Probable space group: P -1
;
_chemical_formula_sum "Si O2"
_cell_formula_units_Z 16
_cell_length_a 14.739049
_cell_length_b 9.535582
_cell_length_c 14.304324
_cell_angle_alpha 67.265718
_cell_angle_beta 150.784906
_cell_angle_gamma 92.097559
_cell_volume 673.510511
_symmetry_space_group_name_H-M "P -1"
_symmetry_group_IT_number 2
_symmetry_cell_setting 'triclinic'
loop_
_space_group_symop_operation_xyz
x,y,z
-x,-y,-z
loop_
_atom_site_type_symbol
_atom_site_label
_atom_site_fract_x
_atom_site_fract_y
_atom_site_fract_z
Si Si1 0.705925 0.120437 0.127262
Si Si2 0.262575 0.538391 0.960991
Si Si3 0.958284 0.284212 0.570088
Si Si4 0.720468 0.715753 0.447099
Si Si5 0.515030 0.952071 0.390939
Si Si6 0.459581 0.762799 0.547392
Si Si7 0.917761 0.277632 0.751113
Si Si8 0.390634 0.300280 0.962567
O O1 0.478459 0.189444 0.838890
O O2 0.630514 0.122290 0.164764
O O3 0.726151 0.289028 0.087770
O O4 0.946256 0.901648 0.362219
O O5 0.428641 0.353440 0.083748
O O6 0.981327 0.636911 0.665106
O O7 0.347503 0.441350 0.165331
O O8 0.888641 0.269869 0.614934
O O9 0.189549 0.275257 0.792837
O O10 0.740553 0.496487 0.269817
O O11 0.615305 0.870767 0.398419
O O12 0.784866 0.510020 0.592898
O O13 0.574650 0.774415 0.555340
O O14 0.613617 0.050592 0.503484
O O15 0.212423 0.127534 0.073801
O O16 0.225335 0.781744 0.313055
#
# Coordination Sequence:
#
# PCOD9057121 Si02
#       8
#     2   2   2   2   2   2   2   2
#     4  12  25  43  68 100 133 181 227 270 333 402
#     4  12  25  45  67 100 140 178 223 278 335 392
#     4  11  22  41  70  99 133 176 225 270 335 398
#     4  12  24  43  70  98 135 177 221 276 336 396
#     4  11  26  45  71 101 133 178 226 274 343 396
#     4  11  25  47  69 101 136 176 225 281 332 401
#     4  12  22  47  70  98 138 175 221 282 334 397
#     4  11  22  44  67  97 139 177 218 280 330 391
#
# _framework density 23.756124
#
# number of rings (size 3 to 8) (size 9 to 14) (size 15 to 20)
#    0.000    0.500    6.250    1.875    1.750    1.500 
#    0.000    0.000    0.000    0.000    0.000    0.000 
#    0.000    0.000    0.000    0.000    0.000    0.000 
#
# Total GULP energy -89764.242791 kJ/mol
# GULP energy per Si atom -5610.265174 kJ/mol
# Density = 2.370205 g / cm^3
# Si number density = 23.756124 Si / 1000 Ang^3
#
#
#
# Elastic Constant Matrix: (Units=GPa)
#
#
# Indices 1 2 3 4 5 6 
#
# 1 68.2671 17.7522 -3.9703 -2.5167 -3.9105 0.4137
# 2 17.7522 103.3875 24.5901 -0.4016 22.6929 2.4171
# 3 -3.9703 24.5901 40.2210 2.4986 -8.3471 0.6081
# 4 -2.5167 -0.4016 2.4986 35.5145 -0.0400 4.6684
# 5 -3.9105 22.6929 -8.3471 -0.0400 32.3223 -0.5890
# 6 0.4137 2.4171 0.6081 4.6684 -0.5890 48.6857
#
#
#
# Elastic Compliance Matrix: (Units=1/GPa)
#
#
# Indices 1 2 3 4 5 6 
#
# 1 0.017363 -0.006719 0.007605 0.000611 0.008785 0.000139
# 2 -0.006719 0.018530 -0.015752 0.000949 -0.017907 -0.000974
# 3 0.007605 -0.015752 0.040023 -0.002526 0.022325 0.000730
# 4 0.000611 0.000949 -0.002526 0.028755 -0.001260 -0.002793
# 5 0.008785 -0.017907 0.022325 -0.001260 0.050360 0.001266
# 6 0.000139 -0.000974 0.000730 -0.002793 0.001266 0.020861
#
#
# Mechanical properties :
#
#
# Convention : Reuss Voigt Hill
#
# Bulk Modulus (GPa) = 21.65323 32.06885 26.86104
# Shear Modulus (GPa) = 22.62255 34.87141 28.74698
#
# Velocity S-wave (km/s) = 3.08926 3.83546 3.48240
# Velocity P-wave (km/s) = 4.67539 5.75698 5.24415
#
# Compressibility (1/GPa) = 0.04618249
#
# Stress axis : x y z
#
# Youngs Moduli (GPa) = 57.59415 53.96799 24.98572
#
# Poissons Ratio (x) = 0.36263 -0.19002
# Poissons Ratio (y) = 0.38700 0.39358
# Poissons Ratio (z) = -0.43801 0.85011
#
# Static dielectric constant tensor:
#      x y z
#    x 1.877050 0.017000 -0.011260 
#    y 0.017000 1.877950 -0.000900 
#    z -0.011260 -0.000900 1.904680 
# 
# From -- ./inp_files/505077.got.cif
#   From: 2010.05.17/outbox.cif.g08.bks.cpg/sg2_253_cif.got.tgz:505077.got - 2010.06.03 11:33:40.
