data_PCOD9057438
_publ_section_title
;
Structure prediction by ZEFSAII (Michael W. Deem and Ramdas Pophale) SiO2 
 PCOD9057438
Probable space group: P -1
;
_chemical_formula_sum "Si O2"
_cell_formula_units_Z 16
_cell_length_a 9.168889
_cell_length_b 8.001333
_cell_length_c 11.589188
_cell_angle_alpha 106.753470
_cell_angle_beta 71.665884
_cell_angle_gamma 131.062795
_cell_volume 604.546974
_symmetry_space_group_name_H-M "P -1"
_symmetry_group_IT_number 2
_symmetry_cell_setting 'triclinic'
loop_
_space_group_symop_operation_xyz
x,y,z
-x,-y,-z
loop_
_atom_site_type_symbol
_atom_site_label
_atom_site_fract_x
_atom_site_fract_y
_atom_site_fract_z
Si Si1 0.481042 0.528052 0.874495
Si Si2 0.473551 0.678106 0.580786
Si Si3 0.099062 0.013871 0.357465
Si Si4 0.405720 0.926851 0.771727
Si Si5 0.339287 0.665017 0.360171
Si Si6 0.997165 0.736036 0.739399
Si Si7 0.056367 0.239559 0.997290
Si Si8 0.278765 0.942289 0.117931
O O1 0.558402 0.429995 0.749736
O O2 0.244670 0.379715 0.895470
O O3 0.614833 0.794174 0.875209
O O4 0.500000 0.500000 0.000000
O O5 0.500000 0.500000 0.500000
O O6 0.681264 0.840705 0.622706
O O7 0.346632 0.683697 0.712785
O O8 0.394358 0.703551 0.487341
O O9 0.111857 0.850034 0.241468
O O10 0.034093 0.114344 0.300887
O O11 0.000000 0.000000 0.500000
O O12 0.216601 0.894775 0.766497
O O13 0.537378 0.042120 0.877457
O O14 0.567081 0.099448 0.671806
O O15 0.107352 0.482727 0.357217
O O16 0.884698 0.637864 0.870037
O O17 0.861138 0.192707 0.983709
O O18 0.000000 0.000000 0.000000
#
# Coordination Sequence:
#
# PCOD9057438 Si02
#       8
#     2   2   2   2   2   2   2   2
#     4  12  22  42  76 104 138 192 239 294 345 417
#     4  11  23  47  71  99 137 185 239 295 351 428
#     4  11  22  42  70 104 138 183 243 292 350 425
#     4  11  28  45  68 104 146 187 230 295 365 420
#     4  12  23  44  71 101 150 182 237 297 358 415
#     4  12  24  45  69 107 142 186 239 290 361 423
#     4  12  22  40  76 106 137 187 246 289 348 420
#     4  11  25  48  65 105 146 181 246 291 346 433
#
# _framework density 26.466097999999999
#
# number of rings (size 3 to 8) (size 9 to 14) (size 15 to 20)
#    0.000    0.500    6.250    2.625    1.750    3.000 
#    4.500    1.250    0.000    0.000    0.000    0.000 
#    0.000    0.000    0.000    0.000    0.000    0.000 
#
# Total GULP energy -89145.624917 kJ/mol
# GULP energy per Si atom -5571.601557 kJ/mol
# Density = 2.640586 g / cm^3
# Si number density = 26.466098 Si / 1000 Ang^3
#
#
#
# Elastic Constant Matrix: (Units=GPa)
#
#
# Indices 1 2 3 4 5 6 
#
# 1 174.0554 38.5612 64.7038 4.6955 42.1486 40.3830
# 2 38.5612 58.2828 18.5926 3.2676 14.4692 14.2643
# 3 64.7038 18.5926 152.0769 14.6287 45.1062 15.4702
# 4 4.6955 3.2676 14.6287 36.0607 5.5098 3.7990
# 5 42.1486 14.4692 45.1062 5.5098 63.0614 16.9760
# 6 40.3830 14.2643 15.4702 3.7990 16.9760 39.2251
#
#
#
# Elastic Compliance Matrix: (Units=1/GPa)
#
#
# Indices 1 2 3 4 5 6 
#
# 1 0.009420 -0.003362 -0.002395 0.001078 -0.002094 -0.006729
# 2 -0.003362 0.020652 -0.000292 -0.000766 -0.001332 -0.003283
# 3 -0.002395 -0.000292 0.009267 -0.002790 -0.005092 0.001390
# 4 0.001078 -0.000766 -0.002790 0.029110 -0.000460 -0.002352
# 5 -0.002094 -0.001332 -0.005092 -0.000460 0.022617 -0.005095
# 6 -0.006729 -0.003283 0.001390 -0.002352 -0.005095 0.035499
#
#
# Mechanical properties :
#
#
# Convention : Reuss Voigt Hill
#
# Bulk Modulus (GPa) = 36.70767 69.79224 53.24996
# Shear Modulus (GPa) = 33.84262 45.17329 39.50795
#
# Velocity S-wave (km/s) = 3.57979 4.13587 3.86784
# Velocity P-wave (km/s) = 5.56654 7.01676 6.33330
#
# Compressibility (1/GPa) = 0.02724226
#
# Stress axis : x y z
#
# Youngs Moduli (GPa) = 106.16218 48.42065 107.90655
#
# Poissons Ratio (x) = 0.16279 0.25841
# Poissons Ratio (y) = 0.35691 0.03148
# Poissons Ratio (z) = 0.25423 0.01413
#
# Static dielectric constant tensor:
#      x y z
#    x 0.068470 0.726020 1.904320 
#    y 0.726020 1.864720 -0.773020 
#    z 1.904320 -0.773020 0.196630 
# 
# From -- ./inp_files/382613.got.cif
#   From: 2010.05.17/outbox.cif.g08.bks.cpg/sg2_192_cif.got.tgz:382613.got - 2010.06.03 11:33:40.
