data_PCOD9057068
_publ_section_title
;
Structure prediction by ZEFSAII (Michael W. Deem and Ramdas Pophale) SiO2 
 PCOD9057068
Probable space group: P -1
;
_chemical_formula_sum "Si O2"
_cell_formula_units_Z 16
_cell_length_a 16.664992
_cell_length_b 8.175281
_cell_length_c 10.137624
_cell_angle_alpha 64.958566
_cell_angle_beta 34.093749
_cell_angle_gamma 74.439089
_cell_volume 692.171065
_symmetry_space_group_name_H-M "P -1"
_symmetry_group_IT_number 2
_symmetry_cell_setting 'triclinic'
loop_
_space_group_symop_operation_xyz
x,y,z
-x,-y,-z
loop_
_atom_site_type_symbol
_atom_site_label
_atom_site_fract_x
_atom_site_fract_y
_atom_site_fract_z
Si Si1 0.967670 0.267499 0.393720
Si Si2 0.922252 0.892091 0.443344
Si Si3 0.319670 0.600513 0.203710
Si Si4 0.392674 0.495211 0.851966
Si Si5 0.581733 0.831679 0.916224
Si Si6 0.813826 0.435272 0.124105
Si Si7 0.130830 0.934031 0.918881
Si Si8 0.290770 0.340152 0.579161
O O1 0.802262 0.272242 0.655358
O O2 0.062230 0.221813 0.405657
O O3 0.035540 0.460673 0.174852
O O4 0.971195 0.104877 0.341159
O O5 0.753726 0.875330 0.634087
O O6 0.046390 0.842751 0.193844
O O7 0.285914 0.432694 0.410200
O O8 0.315238 0.537271 0.080125
O O9 0.477346 0.709408 0.994441
O O10 0.545145 0.626394 0.604202
O O11 0.424569 0.290928 0.900934
O O12 0.306064 0.519980 0.831209
O O13 0.500000 0.000000 0.000000
O O14 0.808641 0.218416 0.197641
O O15 0.208759 0.466331 0.742068
O O16 0.236156 0.123945 0.735653
O O17 0.000000 0.000000 0.000000
#
# Coordination Sequence:
#
# PCOD9057068 Si02
#       8
#     2   2   2   2   2   2   2   2
#     4  11  23  43  75 103 143 187 240 299 358 426
#     4  11  24  44  68 108 145 183 242 299 354 430
#     4  11  25  45  75 104 141 190 241 304 359 419
#     4  11  26  48  73 103 144 192 241 303 358 429
#     4  11  22  41  69 106 138 183 238 296 357 424
#     4  12  26  48  74 105 148 196 238 296 370 429
#     4  12  29  42  73 105 144 193 240 298 364 433
#     4  11  26  50  69 107 152 187 242 297 364 440
#
# _framework density 23.115673000000001
#
# number of rings (size 3 to 8) (size 9 to 14) (size 15 to 20)
#    0.000    0.750    3.750    3.375    7.000    2.500 
#    2.250    0.000    0.000    0.000    0.000    0.000 
#    0.000    0.000    0.000    0.000    0.000    0.000 
#
# Total GULP energy -89519.931312 kJ/mol
# GULP energy per Si atom -5594.995707 kJ/mol
# Density = 2.306306 g / cm^3
# Si number density = 23.115673 Si / 1000 Ang^3
#
#
#
# Elastic Constant Matrix: (Units=GPa)
#
#
# Indices 1 2 3 4 5 6 
#
# 1 87.1615 31.9618 20.0410 -3.9535 -8.8185 -4.7821
# 2 31.9618 151.9549 29.2571 -6.8518 10.4956 12.1875
# 3 20.0410 29.2571 89.8798 -14.4319 -10.0064 10.9817
# 4 -3.9535 -6.8518 -14.4319 32.6223 3.7696 -7.3076
# 5 -8.8185 10.4956 -10.0064 3.7696 30.3789 12.2291
# 6 -4.7821 12.1875 10.9817 -7.3076 12.2291 31.8880
#
#
#
# Elastic Compliance Matrix: (Units=1/GPa)
#
#
# Indices 1 2 3 4 5 6 
#
# 1 0.013460 -0.002861 -0.001990 0.000395 0.003105 0.002697
# 2 -0.002861 0.007987 -0.002174 0.000580 -0.003940 -0.001089
# 3 -0.001990 -0.002174 0.014386 0.003435 0.007035 -0.006332
# 4 0.000395 0.000580 0.003435 0.035295 -0.007152 0.009486
# 5 0.003105 -0.003940 0.007035 -0.007152 0.046388 -0.019880
# 6 0.002697 -0.001089 -0.006332 0.009486 -0.019880 0.044159
#
#
# Mechanical properties :
#
#
# Convention : Reuss Voigt Hill
#
# Bulk Modulus (GPa) = 45.91026 54.61289 50.26158
# Shear Modulus (GPa) = 27.32460 35.49360 31.40910
#
# Velocity S-wave (km/s) = 3.44187 3.92277 3.69016
# Velocity P-wave (km/s) = 5.97491 6.64791 6.32037
#
# Compressibility (1/GPa) = 0.02178162
#
# Stress axis : x y z
#
# Youngs Moduli (GPa) = 74.29583 125.20499 69.51204
#
# Poissons Ratio (x) = 0.35819 0.13835
# Poissons Ratio (y) = 0.21255 0.15114
# Poissons Ratio (z) = 0.14787 0.27224
#
# Static dielectric constant tensor:
#      x y z
#    x -0.907050 -1.176620 -1.768360 
#    y -1.176620 1.391040 -0.840490 
#    z -1.768360 -0.840490 0.875380 
# 
# From -- ./inp_files/461060.got.cif
#   From: 2010.05.17/outbox.cif.g08.bks.cpg/sg2_231_cif.got.tgz:461060.got - 2010.06.03 11:33:40.
