data_PCOD9057018
_publ_section_title
;
Structure prediction by ZEFSAII (Michael W. Deem and Ramdas Pophale) SiO2 
 PCOD9057018
Probable space group: P -1
;
_chemical_formula_sum "Si O2"
_cell_formula_units_Z 14
_cell_length_a 12.378653
_cell_length_b 7.841225
_cell_length_c 12.708128
_cell_angle_alpha 63.285759
_cell_angle_beta 30.752672
_cell_angle_gamma 79.722645
_cell_volume 501.649421
_symmetry_space_group_name_H-M "P -1"
_symmetry_group_IT_number 2
_symmetry_cell_setting 'triclinic'
loop_
_space_group_symop_operation_xyz
x,y,z
-x,-y,-z
loop_
_atom_site_type_symbol
_atom_site_label
_atom_site_fract_x
_atom_site_fract_y
_atom_site_fract_z
Si Si1 0.775055 0.061640 0.114030
Si Si2 0.394700 0.204770 0.295721
Si Si3 0.835267 0.398375 0.765251
Si Si4 0.297659 0.276171 0.576834
Si Si5 0.109368 0.747515 0.614646
Si Si6 0.230865 0.316642 0.925476
Si Si7 0.594848 0.925263 0.042952
O O1 0.718326 0.947588 0.306449
O O2 0.577953 0.135321 0.224991
O O3 0.788088 0.868377 0.087603
O O4 0.043391 0.256335 0.831914
O O5 0.306974 0.300687 0.436024
O O6 0.174579 0.000380 0.488642
O O7 0.558568 0.340921 0.026008
O O8 0.000000 0.500000 0.500000
O O9 0.951471 0.571698 0.711761
O O10 0.789049 0.150447 0.865909
O O11 0.548412 0.463189 0.352597
O O12 0.006716 0.674451 0.839109
O O13 0.373829 0.792744 0.343584
O O14 0.295097 0.239094 0.005985
O O15 0.500000 0.000000 0.000000
#
# Coordination Sequence:
#
# PCOD9057018 Si02
#       7
#     2   2   2   2   2   2   2
#     4  11  24  43  66 100 135 175 222 278 323 393
#     4  11  23  43  67  96 136 175 219 276 325 393
#     4  11  22  41  68  92 128 173 219 271 330 390
#     4  11  25  42  68 100 135 173 226 268 336 392
#     4  11  23  42  65  94 132 172 220 268 329 395
#     4  12  24  42  68  95 135 176 212 277 334 389
#     4  11  25  44  66  97 131 172 226 272 329 398
#
# _framework density 27.907935999999999
#
# number of rings (size 3 to 8) (size 9 to 14) (size 15 to 20)
#    0.000    0.857    7.143    0.857    2.000    0.571 
#    0.000    1.429    0.000    0.000    0.000    0.000 
#    0.000    0.000    0.000    0.000    0.000    0.000 
#
# Total GULP energy -78062.664024 kJ/mol
# GULP energy per Si atom -5575.904573 kJ/mol
# Density = 2.784442 g / cm^3
# Si number density = 27.907936 Si / 1000 Ang^3
#
#
#
# Elastic Constant Matrix: (Units=GPa)
#
#
# Indices 1 2 3 4 5 6 
#
# 1 60.3841 27.3729 22.4146 2.5361 -5.0136 1.2932
# 2 27.3729 93.3276 50.6559 -5.1136 -1.9615 19.3301
# 3 22.4146 50.6559 278.7468 -9.2477 -10.3771 21.8621
# 4 2.5361 -5.1136 -9.2477 45.1260 19.9373 -1.6596
# 5 -5.0136 -1.9615 -10.3771 19.9373 46.3886 -1.9361
# 6 1.2932 19.3301 21.8621 -1.6596 -1.9361 52.0115
#
#
#
# Elastic Compliance Matrix: (Units=1/GPa)
#
#
# Indices 1 2 3 4 5 6 
#
# 1 0.019894 -0.006012 -0.000655 -0.003295 0.003250 0.002031
# 2 -0.006012 0.014453 -0.001780 0.002126 -0.001537 -0.004463
# 3 -0.000655 -0.001780 0.004076 0.000387 0.000557 -0.001002
# 4 -0.003295 0.002126 0.000387 0.028066 -0.012260 -0.000432
# 5 0.003250 -0.001537 0.000557 -0.012260 0.027274 0.000880
# 6 0.002031 -0.004463 -0.001002 -0.000432 0.000880 0.021275
#
#
# Mechanical properties :
#
#
# Convention : Reuss Voigt Hill
#
# Bulk Modulus (GPa) = 46.44861 70.37170 58.41015
# Shear Modulus (GPa) = 35.94328 50.83956 43.39142
#
# Velocity S-wave (km/s) = 3.59266 4.27275 3.94738
# Velocity P-wave (km/s) = 5.82145 7.04360 6.46148
#
# Compressibility (1/GPa) = 0.02152917
#
# Stress axis : x y z
#
# Youngs Moduli (GPa) = 50.26661 69.19011 245.35308
#
# Poissons Ratio (x) = 0.41600 0.16063
# Poissons Ratio (y) = 0.30222 0.43664
# Poissons Ratio (z) = 0.03291 0.12313
#
# Static dielectric constant tensor:
#      x y z
#    x 2.384600 -0.001610 0.064730 
#    y -0.001610 2.243900 0.047640 
#    z 0.064730 0.047640 2.197120 
# 
# From -- ./inp_files/528216.got.cif
#   From: 2010.05.17/outbox.cif.g08.bks.cpg/sg2_265_cif.got.tgz:528216.got - 2010.06.03 11:33:40.
