data_PCOD9057566
_publ_section_title
;
Structure prediction by ZEFSAII (Michael W. Deem and Ramdas Pophale) SiO2 
 PCOD9057566
Probable space group: P -1
;
_chemical_formula_sum "Si O2"
_cell_formula_units_Z 16
_cell_length_a 22.005127
_cell_length_b 5.317699
_cell_length_c 11.825873
_cell_angle_alpha 123.513980
_cell_angle_beta 34.330610
_cell_angle_gamma 116.866543
_cell_volume 650.661570
_symmetry_space_group_name_H-M "P -1"
_symmetry_group_IT_number 2
_symmetry_cell_setting 'triclinic'
loop_
_space_group_symop_operation_xyz
x,y,z
-x,-y,-z
loop_
_atom_site_type_symbol
_atom_site_label
_atom_site_fract_x
_atom_site_fract_y
_atom_site_fract_z
Si Si1 0.025810 0.212051 0.810319
Si Si2 0.705816 0.564100 0.912390
Si Si3 0.822266 0.922731 0.268481
Si Si4 0.183590 0.134190 0.982141
Si Si5 0.224675 0.448706 0.441685
Si Si6 0.440784 0.933894 0.866960
Si Si7 0.577286 0.063698 0.500031
Si Si8 0.619071 0.733992 0.675654
O O1 0.082246 0.017449 0.774661
O O2 0.116091 0.270410 0.591353
O O3 0.000000 0.500000 0.000000
O O4 0.916239 0.084380 0.898055
O O5 0.759787 0.445007 0.683922
O O6 0.634162 0.325537 0.031309
O O7 0.795670 0.664497 0.889770
O O8 0.633262 0.837898 0.037930
O O9 0.726300 0.766439 0.443523
O O10 0.845237 0.753428 0.073908
O O11 0.781084 0.262532 0.395655
O O12 0.302476 0.998823 0.743389
O O13 0.330804 0.264294 0.274559
O O14 0.532655 0.991644 0.837244
O O15 0.531654 0.837939 0.609438
O O16 0.571601 0.402933 0.642944
O O17 0.500000 0.000000 0.500000
#
# Coordination Sequence:
#
# PCOD9057566 Si02
#       8
#     2   2   2   2   2   2   2   2
#     4  11  24  45  77 108 138 184 252 307 362 430
#     4  12  31  46  72 108 153 195 240 297 368 443
#     4  11  23  43  75 104 141 185 247 305 356 432
#     4  12  23  45  73 108 141 192 240 302 372 423
#     4  11  26  49  69 106 145 189 245 303 364 437
#     4  12  25  48  68 109 147 200 241 294 360 438
#     4  12  23  44  70 111 146 187 242 303 353 429
#     4  11  22  42  75 102 143 195 242 304 357 420
#
# _framework density 24.590356
#
# number of rings (size 3 to 8) (size 9 to 14) (size 15 to 20)
#    0.000    0.500    6.250    1.125    5.250    3.500 
#    0.000    0.625    0.000    0.000    0.000    0.000 
#    0.000    0.000    0.000    0.000    0.000    0.000 
#
# Total GULP energy -89303.250625 kJ/mol
# GULP energy per Si atom -5581.453164 kJ/mol
# Density = 2.453439 g / cm^3
# Si number density = 24.590356 Si / 1000 Ang^3
#
#
#
# Elastic Constant Matrix: (Units=GPa)
#
#
# Indices 1 2 3 4 5 6 
#
# 1 140.8401 59.6604 54.0687 -26.8998 8.3508 14.9547
# 2 59.6604 110.6910 40.1241 -36.6349 -8.3523 1.4336
# 3 54.0687 40.1241 86.4803 -32.7399 -0.0526 3.9971
# 4 -26.8998 -36.6349 -32.7399 48.3055 -4.6438 -4.6093
# 5 8.3508 -8.3523 -0.0526 -4.6438 50.6704 -5.3284
# 6 14.9547 1.4336 3.9971 -4.6093 -5.3284 47.0669
#
#
#
# Elastic Compliance Matrix: (Units=1/GPa)
#
#
# Indices 1 2 3 4 5 6 
#
# 1 0.011543 -0.005037 -0.005350 -0.001675 -0.003270 -0.003594
# 2 -0.005037 0.015265 -0.000638 0.009013 0.004442 0.002575
# 3 -0.005350 -0.000638 0.018761 0.009547 0.001804 0.001265
# 4 -0.001675 0.009013 0.009547 0.033898 0.005231 0.003359
# 5 -0.003270 0.004442 0.001804 0.005231 0.021881 0.003740
# 6 -0.003594 0.002575 0.001265 0.003359 0.003740 0.022955
#
#
# Mechanical properties :
#
#
# Convention : Reuss Voigt Hill
#
# Bulk Modulus (GPa) = 42.51727 71.74641 57.13184
# Shear Modulus (GPa) = 32.42701 41.48577 36.95639
#
# Velocity S-wave (km/s) = 3.63531 4.11186 3.88091
# Velocity P-wave (km/s) = 5.91172 7.19605 6.58527
#
# Compressibility (1/GPa) = 0.02351985
#
# Stress axis : x y z
#
# Youngs Moduli (GPa) = 86.62955 65.51027 53.30180
#
# Poissons Ratio (x) = 0.32997 0.28518
# Poissons Ratio (y) = 0.43635 0.03398
# Poissons Ratio (z) = 0.46349 0.04176
#
# Static dielectric constant tensor:
#      x y z
#    x 2.151590 -0.137210 -0.123880 
#    y -0.137210 2.038280 0.103020 
#    z -0.123880 0.103020 2.138980 
# 
# From -- ./inp_files/468201.got.cif
#   From: 2010.05.17/outbox.cif.g08.bks.cpg/sg2_235_cif.got.tgz:468201.got - 2010.06.03 11:33:40.
