data_PCOD9057979
_publ_section_title
;
Structure prediction by ZEFSAII (Michael W. Deem and Ramdas Pophale) SiO2 
 PCOD9057979
Probable space group: P -1
;
_chemical_formula_sum "Si O2"
_cell_formula_units_Z 14
_cell_length_a 18.696720
_cell_length_b 10.290175
_cell_length_c 25.953273
_cell_angle_alpha 23.552290
_cell_angle_beta 19.279115
_cell_angle_gamma 32.340916
_cell_volume 650.832235
_symmetry_space_group_name_H-M "P -1"
_symmetry_group_IT_number 2
_symmetry_cell_setting 'triclinic'
loop_
_space_group_symop_operation_xyz
x,y,z
-x,-y,-z
loop_
_atom_site_type_symbol
_atom_site_label
_atom_site_fract_x
_atom_site_fract_y
_atom_site_fract_z
Si Si1 0.699693 0.529480 0.472548
Si Si2 0.456685 0.748663 0.808299
Si Si3 0.019096 0.158333 0.740137
Si Si4 0.275301 0.747565 0.638418
Si Si5 0.547354 0.131492 0.114968
Si Si6 0.903534 0.643783 0.563367
Si Si7 0.975586 0.432524 0.221379
O O1 0.827322 0.762972 0.343507
O O2 0.456576 0.605058 0.599855
O O3 0.834888 0.561417 0.315726
O O4 0.659278 0.145793 0.656651
O O5 0.418118 0.900343 0.835209
O O6 0.641883 0.528181 0.778147
O O7 0.578375 0.994374 0.593475
O O8 0.228388 0.577560 0.003354
O O9 0.009806 0.497255 0.592948
O O10 0.117779 0.917550 0.721179
O O11 0.767419 0.057047 0.964952
O O12 0.125860 0.509968 0.786388
O O13 0.500000 0.500000 0.000000
O O14 0.000000 0.500000 0.500000
O O15 0.949190 0.037350 0.389596
#
# Coordination Sequence:
#
# PCOD9057979 Si02
#       7
#     2   2   2   2   2   2   2
#     4  12  26  44  71  96 137 183 223 274 335 395
#     4  11  23  42  71 100 130 175 225 274 331 400
#     4  12  25  43  68 100 140 172 220 286 335 392
#     4  11  26  48  65  99 137 178 231 274 324 403
#     4  12  25  42  67 104 136 169 224 282 337 398
#     4  11  22  44  67 101 140 167 224 283 331 398
#     4  11  23  41  72  98 128 182 223 274 334 390
#
# _framework density 21.510921
#
# number of rings (size 3 to 8) (size 9 to 14) (size 15 to 20)
#    0.000    0.571    8.571    0.857    2.000    5.143 
#    0.000    0.000    0.000    0.000    0.000    0.000 
#    0.000    0.000    0.000    0.000    0.000    0.000 
#
# Total GULP energy -78235.863981 kJ/mol
# GULP energy per Si atom -5588.275999 kJ/mol
# Density = 2.146196 g / cm^3
# Si number density = 21.510921 Si / 1000 Ang^3
#
#
#
# Elastic Constant Matrix: (Units=GPa)
#
#
# Indices 1 2 3 4 5 6 
#
# 1 102.3887 34.0769 30.2255 6.1791 -14.1006 13.4105
# 2 34.0769 78.6564 36.8770 28.4005 11.0133 2.2391
# 3 30.2255 36.8770 103.2257 26.8754 -19.9422 16.9679
# 4 6.1791 28.4005 26.8754 26.3125 1.2187 0.8073
# 5 -14.1006 11.0133 -19.9422 1.2187 37.9785 8.3129
# 6 13.4105 2.2391 16.9679 0.8073 8.3129 37.7841
#
#
#
# Elastic Compliance Matrix: (Units=1/GPa)
#
#
# Indices 1 2 3 4 5 6 
#
# 1 0.015120 -0.010733 0.000964 0.006789 0.010691 -0.007661
# 2 -0.010733 0.031495 -0.006991 -0.023788 -0.018122 0.009577
# 3 0.000964 -0.006991 0.020979 -0.014490 0.016646 -0.012702
# 4 0.006789 -0.023788 -0.014490 0.076830 -0.001577 0.004213
# 5 0.010691 -0.018122 0.016646 -0.001577 0.048927 -0.020927
# 6 -0.007661 0.009577 -0.012702 0.004213 -0.020927 0.038836
#
#
# Mechanical properties :
#
#
# Convention : Reuss Voigt Hill
#
# Bulk Modulus (GPa) = 29.34697 54.06998 41.70847
# Shear Modulus (GPa) = 18.04644 32.62111 25.33377
#
# Velocity S-wave (km/s) = 2.89959 3.89844 3.43551
# Velocity P-wave (km/s) = 4.98825 6.74199 5.93030
#
# Compressibility (1/GPa) = 0.03407506
#
# Stress axis : x y z
#
# Youngs Moduli (GPa) = 66.13663 31.75154 47.66693
#
# Poissons Ratio (x) = 0.34078 -0.04596
# Poissons Ratio (y) = 0.70983 0.33322
# Poissons Ratio (z) = -0.06376 0.22196
#
# Static dielectric constant tensor:
#      x y z
#    x 1.811040 -0.031130 0.033610 
#    y -0.031130 1.797910 -0.017210 
#    z 0.033610 -0.017210 1.786380 
# 
# From -- ./inp_files/337400.got.cif
#   From: 2010.05.17/outbox.cif.g08.bks.cpg/sg2_169_cif.got.tgz:337400.got - 2010.06.03 11:33:40.
