data_PCOD9057586
_publ_section_title
;
Structure prediction by ZEFSAII (Michael W. Deem and Ramdas Pophale) SiO2 
 PCOD9057586
Probable space group: P -1
;
_chemical_formula_sum "Si O2"
_cell_formula_units_Z 16
_cell_length_a 9.604170
_cell_length_b 16.473906
_cell_length_c 11.202528
_cell_angle_alpha 147.588995
_cell_angle_beta 130.502680
_cell_angle_gamma 52.741998
_cell_volume 715.241029
_symmetry_space_group_name_H-M "P -1"
_symmetry_group_IT_number 2
_symmetry_cell_setting 'triclinic'
loop_
_space_group_symop_operation_xyz
x,y,z
-x,-y,-z
loop_
_atom_site_type_symbol
_atom_site_label
_atom_site_fract_x
_atom_site_fract_y
_atom_site_fract_z
Si Si1 0.225852 0.878518 0.687128
Si Si2 0.168084 0.579889 0.141620
Si Si3 0.594966 0.892687 0.065966
Si Si4 0.536348 0.601040 0.759364
Si Si5 0.487096 0.099006 0.495051
Si Si6 0.691564 0.382309 0.977915
Si Si7 0.102034 0.128713 0.316280
Si Si8 0.823802 0.237613 0.113890
O O1 0.182022 0.748390 0.410302
O O2 0.427043 0.860889 0.843892
O O3 0.064921 0.875382 0.690420
O O4 0.244113 0.034030 0.819684
O O5 0.360971 0.491083 0.189681
O O6 0.171040 0.579189 0.000441
O O7 0.000000 0.500000 0.000000
O O8 0.664475 0.727766 0.953059
O O9 0.514255 0.004290 0.268235
O O10 0.500000 0.500000 0.500000
O O11 0.342647 0.691758 0.806384
O O12 0.634585 0.214549 0.714656
O O13 0.287248 0.198794 0.529393
O O14 0.500000 0.000000 0.500000
O O15 0.500000 0.500000 0.000000
O O16 0.792848 0.347256 0.118110
O O17 0.018730 0.220663 0.268279
O O18 0.181815 0.946585 0.127071
#
# Coordination Sequence:
#
# PCOD9057586 Si02
#       8
#     2   2   2   2   2   2   2   2
#     4  11  24  43  71 109 143 190 246 306 366 434
#     4  12  28  48  72 108 152 193 249 308 372 441
#     4  11  22  43  71 103 145 190 247 298 363 443
#     4  12  22  45  74 103 149 200 241 299 380 445
#     4  12  24  44  75 106 142 195 244 304 371 433
#     4  12  26  47  72 105 153 196 243 301 380 447
#     4  11  22  42  77 104 142 182 250 307 356 436
#     4  11  22  44  71 105 143 189 241 301 363 441
#
# _framework density 22.370080999999999
#
# number of rings (size 3 to 8) (size 9 to 14) (size 15 to 20)
#    0.000    0.500    7.500    0.750    1.750    1.000 
#    0.000    3.750    0.000    0.000    0.000    0.000 
#    0.000    0.000    0.000    0.000    0.000    0.000 
#
# Total GULP energy -89209.027941 kJ/mol
# GULP energy per Si atom -5575.564246 kJ/mol
# Density = 2.231917 g / cm^3
# Si number density = 22.370081 Si / 1000 Ang^3
#
#
#
# Elastic Constant Matrix: (Units=GPa)
#
#
# Indices 1 2 3 4 5 6 
#
# 1 116.9369 39.6241 24.7998 -6.0963 6.0798 25.4799
# 2 39.6241 129.7434 17.1483 -8.7789 -14.1732 18.8135
# 3 24.7998 17.1483 62.9424 5.9355 0.3485 9.1551
# 4 -6.0963 -8.7789 5.9355 30.8344 -2.1348 2.8421
# 5 6.0798 -14.1732 0.3485 -2.1348 32.2392 -1.5127
# 6 25.4799 18.8135 9.1551 2.8421 -1.5127 41.5679
#
#
#
# Elastic Compliance Matrix: (Units=1/GPa)
#
#
# Indices 1 2 3 4 5 6 
#
# 1 0.011614 -0.002502 -0.003304 0.002500 -0.003350 -0.005552
# 2 -0.002502 0.009814 -0.001640 0.003193 0.004894 -0.002587
# 3 -0.003304 -0.001640 0.018211 -0.004582 -0.000643 -0.000953
# 4 0.002500 0.003193 -0.004582 0.035326 0.003120 -0.004270
# 5 -0.003350 0.004894 -0.000643 0.003120 0.034062 0.001006
# 6 -0.005552 -0.002587 -0.000953 -0.004270 0.001006 0.029170
#
#
# Mechanical properties :
#
#
# Convention : Reuss Voigt Hill
#
# Bulk Modulus (GPa) = 40.40887 52.52967 46.46927
# Shear Modulus (GPa) = 30.99080 36.13166 33.56123
#
# Velocity S-wave (km/s) = 3.72609 4.02329 3.87754
# Velocity P-wave (km/s) = 6.05101 6.71681 6.39258
#
# Compressibility (1/GPa) = 0.02474704
#
# Stress axis : x y z
#
# Youngs Moduli (GPa) = 86.10006 101.89306 54.91337
#
# Poissons Ratio (x) = 0.25494 0.18144
# Poissons Ratio (y) = 0.21543 0.09005
# Poissons Ratio (z) = 0.28449 0.16709
#
# Static dielectric constant tensor:
#      x y z
#    x 1.851070 0.025770 -0.007000 
#    y 0.025770 1.930870 -0.031280 
#    z -0.007000 -0.031280 1.910160 
# 
# From -- ./inp_files/403635.got.cif
#   From: 2010.05.17/outbox.cif.g08.bks.cpg/sg2_202_cif.got.tgz:403635.got - 2010.06.03 11:33:40.
