data_PCOD9057732
_publ_section_title
;
Structure prediction by ZEFSAII (Michael W. Deem and Ramdas Pophale) SiO2 
 PCOD9057732
Probable space group: P -1
;
_chemical_formula_sum "Si O2"
_cell_formula_units_Z 16
_cell_length_a 12.204639
_cell_length_b 9.342648
_cell_length_c 18.283887
_cell_angle_alpha 84.010902
_cell_angle_beta 39.377373
_cell_angle_gamma 53.331731
_cell_volume 755.467231
_symmetry_space_group_name_H-M "P -1"
_symmetry_group_IT_number 2
_symmetry_cell_setting 'triclinic'
loop_
_space_group_symop_operation_xyz
x,y,z
-x,-y,-z
loop_
_atom_site_type_symbol
_atom_site_label
_atom_site_fract_x
_atom_site_fract_y
_atom_site_fract_z
Si Si1 0.537730 0.805873 0.082738
Si Si2 0.308881 0.875893 0.344338
Si Si3 0.691275 0.798019 0.636758
Si Si4 0.347122 0.454176 0.101036
Si Si5 0.126496 0.626584 0.639069
Si Si6 0.742428 0.787739 0.445277
Si Si7 0.263358 0.018874 0.972506
Si Si8 0.626374 0.481749 0.320874
O O1 0.485842 0.740548 0.183758
O O2 0.700225 0.843038 0.020943
O O3 0.697273 0.608882 0.946711
O O4 0.206081 0.080192 0.211024
O O5 0.504572 0.692808 0.322120
O O6 0.244549 0.088593 0.370148
O O7 0.000000 0.000000 0.500000
O O8 0.612311 0.872504 0.589014
O O9 0.000000 0.500000 0.500000
O O10 0.426672 0.910961 0.815756
O O11 0.031851 0.692459 0.292292
O O12 0.558303 0.213885 0.056417
O O13 0.500000 0.500000 0.000000
O O14 0.131325 0.457925 0.622379
O O15 0.354309 0.558053 0.472797
O O16 0.254697 0.552849 0.658858
O O17 0.500000 0.000000 0.500000
O O18 0.912747 0.220754 0.145227
#
# Coordination Sequence:
#
# PCOD9057732 Si02
#       8
#     2   2   2   2   2   2   2   2
#     4  11  22  43  71  93 131 176 226 256 342 397
#     4  11  24  40  67  98 129 174 221 276 319 390
#     4  11  24  44  69  93 135 185 215 261 341 401
#     4  12  26  41  66 102 134 170 217 284 330 388
#     4  11  22  43  69  98 130 185 217 269 330 406
#     4  12  26  43  68  98 140 174 223 269 339 401
#     4  11  23  45  70  96 131 179 222 276 325 402
#     4  11  24  39  70  99 134 160 236 278 324 380
#
# _framework density 21.178946
#
# number of rings (size 3 to 8) (size 9 to 14) (size 15 to 20)
#    0.000    0.750    5.000    2.625    3.500    3.000 
#    0.000    0.625    0.000    0.000    0.000    0.000 
#    0.000    0.000    0.000    0.000    0.000    0.000 
#
# Total GULP energy -89537.696117 kJ/mol
# GULP energy per Si atom -5596.106007 kJ/mol
# Density = 2.113074 g / cm^3
# Si number density = 21.178946 Si / 1000 Ang^3
#
#
#
# Elastic Constant Matrix: (Units=GPa)
#
#
# Indices 1 2 3 4 5 6 
#
# 1 37.8215 12.1870 9.6101 -11.9369 19.1785 -14.5530
# 2 12.1870 83.5307 26.0316 -21.9466 10.6055 -20.1962
# 3 9.6101 26.0316 112.1702 -20.3423 16.2767 -6.3275
# 4 -11.9369 -21.9466 -20.3423 38.2020 -8.5001 -1.3606
# 5 19.1785 10.6055 16.2767 -8.5001 35.3523 -6.0985
# 6 -14.5530 -20.1962 -6.3275 -1.3606 -6.0985 32.2261
#
#
#
# Elastic Compliance Matrix: (Units=1/GPa)
#
#
# Indices 1 2 3 4 5 6 
#
# 1 0.047995 0.003980 0.001799 0.014330 -0.020964 0.021159
# 2 0.003980 0.018097 -0.001554 0.010817 -0.002046 0.012903
# 3 0.001799 -0.001554 0.010597 0.004450 -0.004089 0.001333
# 4 0.014330 0.010817 0.004450 0.039606 -0.000848 0.015636
# 5 -0.020964 -0.002046 -0.004089 -0.000848 0.041301 -0.003772
# 6 0.021159 0.012903 0.001333 0.015636 -0.003772 0.048880
#
#
# Mechanical properties :
#
#
# Convention : Reuss Voigt Hill
#
# Bulk Modulus (GPa) = 11.74572 36.57553 24.16062
# Shear Modulus (GPa) = 22.08403 33.53565 27.80984
#
# Velocity S-wave (km/s) = 3.23264 3.98357 3.62759
# Velocity P-wave (km/s) = 4.41490 6.20207 5.38317
#
# Compressibility (1/GPa) = 0.08513740
#
# Stress axis : x y z
#
# Youngs Moduli (GPa) = 20.83534 55.25864 94.36532
#
# Poissons Ratio (x) = -0.21991 -0.16975
# Poissons Ratio (y) = -0.08292 0.14668
# Poissons Ratio (z) = -0.03748 0.08589
#
# Static dielectric constant tensor:
#      x y z
#    x 1.723430 0.028460 0.203360 
#    y 0.028460 1.707340 -0.150340 
#    z 0.203360 -0.150340 1.202910 
# 
# From -- ./inp_files/317919.got.cif
#   From: 2010.05.17/outbox.cif.g08.bks.cpg/sg2_159_cif.got.tgz:317919.got - 2010.06.03 11:33:40.
