data_PCOD9057335
_publ_section_title
;
Structure prediction by ZEFSAII (Michael W. Deem and Ramdas Pophale) SiO2 
 PCOD9057335
Probable space group: P -1
;
_chemical_formula_sum "Si O2"
_cell_formula_units_Z 16
_cell_length_a 15.664679
_cell_length_b 9.786836
_cell_length_c 9.301255
_cell_angle_alpha 114.138525
_cell_angle_beta 92.119261
_cell_angle_gamma 138.759292
_cell_volume 703.257528
_symmetry_space_group_name_H-M "P -1"
_symmetry_group_IT_number 2
_symmetry_cell_setting 'triclinic'
loop_
_space_group_symop_operation_xyz
x,y,z
-x,-y,-z
loop_
_atom_site_type_symbol
_atom_site_label
_atom_site_fract_x
_atom_site_fract_y
_atom_site_fract_z
Si Si1 0.167627 0.074320 0.158435
Si Si2 0.487181 0.083421 0.676560
Si Si3 0.777139 0.779775 0.464504
Si Si4 0.115370 0.374510 0.651522
Si Si5 0.364797 0.214627 0.782813
Si Si6 0.849696 0.486792 0.580974
Si Si7 0.138541 0.752995 0.825273
Si Si8 0.183865 0.358364 0.076424
O O1 0.267980 0.257681 0.386824
O O2 0.210911 0.232114 0.084931
O O3 0.164818 0.898989 0.027755
O O4 0.989443 0.870487 0.092672
O O5 0.436738 0.179341 0.686128
O O6 0.661693 0.352954 0.871914
O O7 0.500000 0.000000 0.500000
O O8 0.326403 0.791074 0.614752
O O9 0.765272 0.589293 0.332263
O O10 0.698772 0.767861 0.334828
O O11 0.961004 0.096721 0.606159
O O12 0.055834 0.301563 0.451135
O O13 0.164206 0.615505 0.800075
O O14 0.245342 0.971505 0.792984
O O15 0.500000 0.500000 0.000000
O O16 0.827436 0.562683 0.744277
O O17 0.955130 0.506091 0.656296
#
# Coordination Sequence:
#
# PCOD9057335 Si02
#       8
#     2   2   2   2   2   2   2   2
#     4  10  21  39  66  94 134 170 212 269 321 390
#     4  10  21  37  66  98 123 167 222 268 309 383
#     4  11  25  41  67  98 132 171 217 270 333 381
#     4  11  21  38  67  99 130 166 218 271 320 386
#     4  12  25  44  67  97 129 172 222 272 323 394
#     4  10  17  36  66  97 124 167 222 263 309 384
#     4  11  22  40  69  98 128 172 223 266 320 390
#     4   9  19  36  64  97 128 171 217 258 321 391
#
# _framework density 22.751266999999999
#
# number of rings (size 3 to 8) (size 9 to 14) (size 15 to 20)
#    0.000    1.500    3.750    1.875    0.000    2.500 
#    0.000    4.375    2.750    0.000    0.000    0.000 
#    0.000    0.000    0.000    0.000    0.000    0.000 
#
# Total GULP energy -89141.319059 kJ/mol
# GULP energy per Si atom -5571.332441 kJ/mol
# Density = 2.269948 g / cm^3
# Si number density = 22.751267 Si / 1000 Ang^3
#
#
#
# Elastic Constant Matrix: (Units=GPa)
#
#
# Indices 1 2 3 4 5 6 
#
# 1 141.1624 34.6635 43.0991 3.7114 -38.6647 -32.9493
# 2 34.6635 76.2237 36.0232 13.2428 -1.6621 -6.0191
# 3 43.0991 36.0232 85.5742 -5.3395 -11.8762 -9.1271
# 4 3.7114 13.2428 -5.3395 32.6145 -0.5626 3.6406
# 5 -38.6647 -1.6621 -11.8762 -0.5626 28.8336 11.8654
# 6 -32.9493 -6.0191 -9.1271 3.6406 11.8654 37.5470
#
#
#
# Elastic Compliance Matrix: (Units=1/GPa)
#
#
# Indices 1 2 3 4 5 6 
#
# 1 0.015000 -0.004470 -0.002793 -0.000838 0.015879 0.006831
# 2 -0.004470 0.020490 -0.008061 -0.009403 -0.008763 0.001083
# 3 -0.002793 -0.008061 0.017254 0.006625 0.003569 -0.001319
# 4 -0.000838 -0.009403 0.006625 0.036333 0.004003 -0.005420
# 5 0.015879 -0.008763 0.003569 0.004003 0.059388 -0.005758
# 6 0.006831 0.001083 -0.001319 -0.005420 -0.005758 0.034826
#
#
# Mechanical properties :
#
#
# Convention : Reuss Voigt Hill
#
# Bulk Modulus (GPa) = 45.25913 58.94799 52.10356
# Shear Modulus (GPa) = 22.59321 32.41065 27.50193
#
# Velocity S-wave (km/s) = 3.15469 3.77843 3.48056
# Velocity P-wave (km/s) = 5.76243 6.70831 6.25328
#
# Compressibility (1/GPa) = 0.02209499
#
# Stress axis : x y z
#
# Youngs Moduli (GPa) = 66.66485 48.80415 57.95815
#
# Poissons Ratio (x) = 0.21818 0.16187
# Poissons Ratio (y) = 0.29802 0.46722
# Poissons Ratio (z) = 0.18619 0.39342
#
# Static dielectric constant tensor:
#      x y z
#    x 1.878160 0.002050 -0.004340 
#    y 0.002050 1.939260 0.074830 
#    z -0.004340 0.074830 1.850690 
# 
# From -- ./inp_files/299282.got.cif
#   From: 2010.05.17/outbox.cif.g08.bks.cpg/sg2_150_cif.got.tgz:299282.got - 2010.06.03 11:33:40.
