data_PCOD9057651
_publ_section_title
;
Structure prediction by ZEFSAII (Michael W. Deem and Ramdas Pophale) SiO2 
 PCOD9057651
Probable space group: P -1
;
_chemical_formula_sum "Si O2"
_cell_formula_units_Z 16
_cell_length_a 8.262742
_cell_length_b 12.124016
_cell_length_c 16.454262
_cell_angle_alpha 132.786462
_cell_angle_beta 32.961736
_cell_angle_gamma 130.362134
_cell_volume 645.598508
_symmetry_space_group_name_H-M "P -1"
_symmetry_group_IT_number 2
_symmetry_cell_setting 'triclinic'
loop_
_space_group_symop_operation_xyz
x,y,z
-x,-y,-z
loop_
_atom_site_type_symbol
_atom_site_label
_atom_site_fract_x
_atom_site_fract_y
_atom_site_fract_z
Si Si1 0.033229 0.903299 0.325077
Si Si2 0.304887 0.466973 0.313896
Si Si3 0.780102 0.798923 0.087174
Si Si4 0.349176 0.890417 0.633975
Si Si5 0.043018 0.647292 0.754750
Si Si6 0.137526 0.200519 0.350742
Si Si7 0.914477 0.663354 0.127122
Si Si8 0.095268 0.684401 0.329879
O O1 0.687590 0.928902 0.475503
O O2 0.090833 0.768861 0.174538
O O3 0.044472 0.829918 0.371739
O O4 0.238309 0.059203 0.283840
O O5 0.222730 0.405924 0.227022
O O6 0.563450 0.616556 0.279296
O O7 0.000000 0.500000 0.500000
O O8 0.383331 0.329562 0.267287
O O9 0.937805 0.754268 0.079439
O O10 0.449522 0.688644 0.169528
O O11 0.720892 0.969165 0.212387
O O12 0.951785 0.760919 0.916293
O O13 0.101973 0.859870 0.650538
O O14 0.310484 0.741085 0.633567
O O15 0.086074 0.487624 0.697506
O O16 0.982942 0.281225 0.527833
O O17 0.000000 0.500000 0.000000
#
# Coordination Sequence:
#
# PCOD9057651 Si02
#       8
#     2   2   2   2   2   2   2   2
#     4  12  25  42  67 101 135 174 230 281 330 395
#     4  11  22  44  72 100 129 179 231 273 332 405
#     4  12  23  45  67  93 140 180 222 267 346 409
#     4  11  24  43  69  99 131 179 230 276 330 401
#     4  11  24  40  69  98 132 177 222 275 338 399
#     4  11  22  43  67  96 128 177 225 276 330 393
#     4  12  26  45  69 102 138 178 228 279 336 400
#     4  12  24  41  67  99 132 176 225 276 338 398
#
# _framework density 24.783206
#
# number of rings (size 3 to 8) (size 9 to 14) (size 15 to 20)
#    0.000    0.500    5.000    4.500    1.750    0.500 
#    2.250    1.875    0.000    0.000    0.000    0.000 
#    0.000    0.000    0.000    0.000    0.000    0.000 
#
# Total GULP energy -89580.745309 kJ/mol
# GULP energy per Si atom -5598.796582 kJ/mol
# Density = 2.472680 g / cm^3
# Si number density = 24.783206 Si / 1000 Ang^3
#
#
#
# Elastic Constant Matrix: (Units=GPa)
#
#
# Indices 1 2 3 4 5 6 
#
# 1 48.3166 17.9405 11.1375 -5.5630 17.5098 -17.7813
# 2 17.9405 126.6572 12.8996 10.5603 12.1081 -36.1455
# 3 11.1375 12.8996 83.1302 16.7241 22.5189 2.9834
# 4 -5.5630 10.5603 16.7241 43.7094 -4.8671 7.6594
# 5 17.5098 12.1081 22.5189 -4.8671 35.6769 -0.1594
# 6 -17.7813 -36.1455 2.9834 7.6594 -0.1594 39.7840
#
#
#
# Elastic Compliance Matrix: (Units=1/GPa)
#
#
# Indices 1 2 3 4 5 6 
#
# 1 0.031645 0.001621 -0.000695 -0.000596 -0.015653 0.015720
# 2 0.001621 0.012431 0.000127 -0.005790 -0.005826 0.013100
# 3 -0.000695 0.000127 0.016738 -0.007785 -0.011328 0.000003
# 4 -0.000596 -0.005790 -0.007785 0.030315 0.011259 -0.010734
# 5 -0.015653 -0.005826 -0.011328 0.011259 0.046315 -0.013421
# 6 0.015720 0.013100 0.000003 -0.010734 -0.013421 0.046077
#
#
# Mechanical properties :
#
#
# Convention : Reuss Voigt Hill
#
# Bulk Modulus (GPa) = 15.89382 38.00658 26.95020
# Shear Modulus (GPa) = 24.70498 38.24248 31.47373
#
# Velocity S-wave (km/s) = 3.16071 3.93247 3.56752
# Velocity P-wave (km/s) = 4.44378 5.99900 5.27897
#
# Compressibility (1/GPa) = 0.06291753
#
# Stress axis : x y z
#
# Youngs Moduli (GPa) = 31.60101 80.44322 59.74537
#
# Poissons Ratio (x) = -0.13038 0.04154
# Poissons Ratio (y) = -0.05122 -0.00756
# Poissons Ratio (z) = 0.02197 -0.01018
#
# Static dielectric constant tensor:
#      x y z
#    x 1.988610 -0.026300 -0.039070 
#    y -0.026300 2.000310 0.033290 
#    z -0.039070 0.033290 1.935040 
# 
# From -- ./inp_files/190272.got.cif
#   From: 2010.05.17/outbox.cif.g08.bks.cpg/sg2_96_cif.got.tgz:190272.got - 2010.06.03 11:33:40.
