data_PCOD9057804
_publ_section_title
;
Structure prediction by ZEFSAII (Michael W. Deem and Ramdas Pophale) SiO2 
 PCOD9057804
Probable space group: P -1
;
_chemical_formula_sum "Si O2"
_cell_formula_units_Z 14
_cell_length_a 9.279748
_cell_length_b 10.401404
_cell_length_c 8.866598
_cell_angle_alpha 84.229511
_cell_angle_beta 89.948144
_cell_angle_gamma 136.455700
_cell_volume 583.194844
_symmetry_space_group_name_H-M "P -1"
_symmetry_group_IT_number 2
_symmetry_cell_setting 'triclinic'
loop_
_space_group_symop_operation_xyz
x,y,z
-x,-y,-z
loop_
_atom_site_type_symbol
_atom_site_label
_atom_site_fract_x
_atom_site_fract_y
_atom_site_fract_z
Si Si1 0.338531 0.285056 0.969089
Si Si2 0.928401 0.411178 0.261407
Si Si3 0.358989 0.319412 0.413436
Si Si4 0.750405 0.219260 0.612822
Si Si5 0.057740 0.247883 0.172502
Si Si6 0.356727 0.146282 0.689669
Si Si7 0.515190 0.812982 0.782453
O O1 0.370337 0.174373 0.076438
O O2 0.123405 0.214392 0.026260
O O3 0.500000 0.500000 0.000000
O O4 0.381110 0.273094 0.800458
O O5 0.841395 0.289128 0.433853
O O6 0.081227 0.416037 0.168614
O O7 0.722901 0.301671 0.175812
O O8 0.059697 0.619537 0.294442
O O9 0.500000 0.500000 0.500000
O O10 0.252307 0.148591 0.547189
O O11 0.504944 0.322108 0.313424
O O12 0.197385 0.281164 0.305300
O O13 0.569504 0.210881 0.636526
O O14 0.645083 0.014246 0.681392
O O15 0.812951 0.062970 0.221471
#
# Coordination Sequence:
#
# PCOD9057804 Si02
#       7
#     2   2   2   2   2   2   2
#     4  11  26  48  66  94 139 183 230 278 337 404
#     4  11  22  43  71 105 136 174 228 279 341 400
#     4  11  23  41  68  99 132 177 226 278 340 395
#     4  11  23  40  72 103 139 175 222 287 338 396
#     4  11  24  43  68 100 131 178 228 279 341 400
#     4  12  22  44  67  97 140 176 227 282 333 404
#     4  11  23  46  69 101 135 180 226 279 338 406
#
# _framework density 24.005700000000001
#
# number of rings (size 3 to 8) (size 9 to 14) (size 15 to 20)
#    0.000    0.857    2.857    5.571    2.000    1.714 
#    7.714    1.429    0.000    0.000    0.000    0.000 
#    0.000    0.000    0.000    0.000    0.000    0.000 
#
# Total GULP energy -78308.293744 kJ/mol
# GULP energy per Si atom -5593.449553 kJ/mol
# Density = 2.395106 g / cm^3
# Si number density = 24.005700 Si / 1000 Ang^3
#
#
#
# Elastic Constant Matrix: (Units=GPa)
#
#
# Indices 1 2 3 4 5 6 
#
# 1 133.9610 23.4806 38.6077 7.9690 -18.2906 -7.0082
# 2 23.4806 93.3348 0.7464 1.5097 3.2670 -3.2571
# 3 38.6077 0.7464 75.2828 -1.3585 -12.8982 -8.8635
# 4 7.9690 1.5097 -1.3585 23.1721 -6.5704 -5.0926
# 5 -18.2906 3.2670 -12.8982 -6.5704 22.6858 1.1513
# 6 -7.0082 -3.2571 -8.8635 -5.0926 1.1513 32.4741
#
#
#
# Elastic Compliance Matrix: (Units=1/GPa)
#
#
# Indices 1 2 3 4 5 6 
#
# 1 0.010007 -0.002638 -0.004163 -0.001890 0.005520 0.000267
# 2 -0.002638 0.011537 0.000701 -0.000653 -0.003619 0.000805
# 3 -0.004163 0.000701 0.017385 0.005617 0.007825 0.004521
# 4 -0.001890 -0.000653 0.005617 0.050559 0.015980 0.008422
# 5 0.005520 -0.003619 0.007825 0.015980 0.057956 0.003415
# 6 0.000267 0.000805 0.004521 0.008422 0.003415 0.033366
#
#
# Mechanical properties :
#
#
# Convention : Reuss Voigt Hill
#
# Bulk Modulus (GPa) = 37.40885 47.58311 42.49598
# Shear Modulus (GPa) = 24.76236 31.64932 28.20584
#
# Velocity S-wave (km/s) = 3.21521 3.63493 3.43149
# Velocity P-wave (km/s) = 5.42223 6.12222 5.78283
#
# Compressibility (1/GPa) = 0.02673164
#
# Stress axis : x y z
#
# Youngs Moduli (GPa) = 99.93039 86.67462 57.51984
#
# Poissons Ratio (x) = 0.22861 0.23943
# Poissons Ratio (y) = 0.26357 -0.04033
# Poissons Ratio (z) = 0.41597 -0.06078
#
# Static dielectric constant tensor:
#      x y z
#    x 1.939350 0.004270 -0.020090 
#    y 0.004270 1.954190 -0.030430 
#    z -0.020090 -0.030430 1.980460 
# 
# From -- ./inp_files/186865.got.cif
#   From: 2010.05.17/outbox.cif.g08.bks.cpg/sg2_94_cif.got.tgz:186865.got - 2010.06.03 11:33:40.
