data_PCOD9057195
_publ_section_title
;
Structure prediction by ZEFSAII (Michael W. Deem and Ramdas Pophale) SiO2 
 PCOD9057195
Probable space group: P -1
;
_chemical_formula_sum "Si O2"
_cell_formula_units_Z 16
_cell_length_a 14.297370
_cell_length_b 9.213045
_cell_length_c 11.683715
_cell_angle_alpha 77.865865
_cell_angle_beta 151.546096
_cell_angle_gamma 109.590020
_cell_volume 678.441869
_symmetry_space_group_name_H-M "P -1"
_symmetry_group_IT_number 2
_symmetry_cell_setting 'triclinic'
loop_
_space_group_symop_operation_xyz
x,y,z
-x,-y,-z
loop_
_atom_site_type_symbol
_atom_site_label
_atom_site_fract_x
_atom_site_fract_y
_atom_site_fract_z
Si Si1 0.332761 0.675237 0.283518
Si Si2 0.343520 0.760918 0.536745
Si Si3 0.901148 0.826452 0.653454
Si Si4 0.807757 0.675621 0.816874
Si Si5 0.168469 0.179446 0.950031
Si Si6 0.858304 0.110406 0.302532
Si Si7 0.926087 0.351881 0.527344
Si Si8 0.510013 0.919182 0.244891
O O1 0.270655 0.717994 0.335470
O O2 0.568799 0.672287 0.551095
O O3 0.199777 0.500148 0.134200
O O4 0.357974 0.804784 0.192370
O O5 0.219367 0.644769 0.521587
O O6 0.348076 0.932175 0.555730
O O7 0.586373 0.781622 0.795332
O O8 0.898287 0.727742 0.780589
O O9 0.669766 0.835662 0.382159
O O10 0.993272 0.771513 0.649819
O O11 0.049403 0.004604 0.808409
O O12 0.897936 0.795027 0.996794
O O13 0.114892 0.307178 0.793501
O O14 0.821473 0.201818 0.358226
O O15 0.636611 0.038387 0.013412
O O16 0.000000 0.000000 0.500000
O O17 0.000000 0.500000 0.500000
#
# Coordination Sequence:
#
# PCOD9057195 Si02
#       8
#     2   2   2   2   2   2   2   2
#     4   9  21  39  65 105 133 171 216 267 348 412
#     4  11  22  44  69  93 138 174 217 279 337 392
#     4  11  22  42  69 100 130 178 223 276 329 401
#     4   9  21  39  67  98 139 169 215 275 341 405
#     4  11  22  45  68  96 134 175 222 274 340 394
#     4  12  25  46  67  97 132 176 238 269 325 398
#     4  12  29  45  64 100 133 173 236 280 324 399
#     4  11  22  41  72  99 132 175 218 280 332 398
#
# _framework density 23.583449999999999
#
# number of rings (size 3 to 8) (size 9 to 14) (size 15 to 20)
#    0.000    1.250    3.750    0.750    3.500    4.500 
#    0.000    1.250    0.000    0.000    0.000    0.000 
#    0.000    0.000    0.000    0.000    0.000    0.000 
#
# Total GULP energy -89508.969965 kJ/mol
# GULP energy per Si atom -5594.310623 kJ/mol
# Density = 2.352977 g / cm^3
# Si number density = 23.583450 Si / 1000 Ang^3
#
#
#
# Elastic Constant Matrix: (Units=GPa)
#
#
# Indices 1 2 3 4 5 6 
#
# 1 142.8407 8.7737 14.3677 3.6273 2.4785 12.3451
# 2 8.7737 65.4177 15.7669 -8.6760 -7.7548 22.5514
# 3 14.3677 15.7669 101.8557 -0.5761 -2.2551 -1.6176
# 4 3.6273 -8.6760 -0.5761 26.2040 2.9714 -9.1831
# 5 2.4785 -7.7548 -2.2551 2.9714 40.7945 1.0781
# 6 12.3451 22.5514 -1.6176 -9.1831 1.0781 38.2665
#
#
#
# Elastic Compliance Matrix: (Units=1/GPa)
#
#
# Indices 1 2 3 4 5 6 
#
# 1 0.007422 -0.000034 -0.001106 -0.002048 -0.000293 -0.002904
# 2 -0.000034 0.021035 -0.003343 0.002201 0.003976 -0.012111
# 3 -0.001106 -0.003343 0.010536 0.000283 -0.000082 0.002843
# 4 -0.002048 0.002201 0.000283 0.042919 -0.002826 0.009755
# 5 -0.000293 0.003976 -0.000082 -0.002826 0.025584 -0.003651
# 6 -0.002904 -0.012111 0.002843 0.009755 -0.003651 0.036771
#
#
# Mechanical properties :
#
#
# Convention : Reuss Voigt Hill
#
# Bulk Modulus (GPa) = 33.30324 43.10343 38.20334
# Shear Modulus (GPa) = 30.62926 39.13339 34.88133
#
# Velocity S-wave (km/s) = 3.60774 4.07794 3.85003
# Velocity P-wave (km/s) = 5.61307 6.36313 5.99983
#
# Compressibility (1/GPa) = 0.03002710
#
# Stress axis : x y z
#
# Youngs Moduli (GPa) = 134.73062 47.54051 94.91033
#
# Poissons Ratio (x) = 0.00161 0.10496
# Poissons Ratio (y) = 0.00457 0.31730
# Poissons Ratio (z) = 0.14900 0.15894
#
# Static dielectric constant tensor:
#      x y z
#    x 1.956540 -0.000750 0.032410 
#    y -0.000750 1.868090 -0.013080 
#    z 0.032410 -0.013080 1.924230 
# 
# From -- ./inp_files/447285.got.cif
#   From: 2010.05.17/outbox.cif.g08.bks.cpg/sg2_224_cif.got.tgz:447285.got - 2010.06.03 11:33:40.
