data_PCOD9057656
_publ_section_title
;
Structure prediction by ZEFSAII (Michael W. Deem and Ramdas Pophale) SiO2 
 PCOD9057656
Probable space group: P -1
;
_chemical_formula_sum "Si O2"
_cell_formula_units_Z 13
_cell_length_a 8.424003
_cell_length_b 11.609915
_cell_length_c 4.970358
_cell_angle_alpha 82.972122
_cell_angle_beta 95.659986
_cell_angle_gamma 109.974304
_cell_volume 452.594309
_symmetry_space_group_name_H-M "P -1"
_symmetry_group_IT_number 2
_symmetry_cell_setting 'triclinic'
loop_
_space_group_symop_operation_xyz
x,y,z
-x,-y,-z
loop_
_atom_site_type_symbol
_atom_site_label
_atom_site_fract_x
_atom_site_fract_y
_atom_site_fract_z
Si Si1 0.262071 0.211881 0.899051
Si Si2 0.867462 0.594452 0.397403
Si Si3 0.500000 0.000000 0.500000
Si Si4 0.322368 0.438393 0.130984
Si Si5 0.386097 0.761669 0.304446
Si Si6 0.854645 0.028450 0.304128
Si Si7 0.170650 0.707512 0.791812
O O1 0.139149 0.268816 0.699512
O O2 0.444951 0.256392 0.770334
O O3 0.187620 0.066524 0.926079
O O4 0.289318 0.291591 0.152558
O O5 0.708941 0.526693 0.585082
O O6 0.029316 0.613581 0.606518
O O7 0.817097 0.541656 0.104971
O O8 0.416551 0.906794 0.253102
O O9 0.317395 0.011575 0.539775
O O10 0.500000 0.500000 0.000000
O O11 0.338179 0.742539 0.618137
O O12 0.231916 0.689348 0.104449
O O13 0.885988 0.171938 0.215376
O O14 0.000000 0.000000 0.500000
#
# Coordination Sequence:
#
# PCOD9057656 Si02
#       7
#     2   2   1   2   2   2   2
#     4   9  22  36  61  89 114 157 203 242 287 363
#     4  10  21  38  61  90 112 151 200 239 294 360
#     4   8  20  34  50  80 118 160 204 232 284 342
#     4  10  21  39  64  89 114 147 197 255 300 347
#     4  10  22  37  57  81 124 160 198 241 292 346
#     4  10  17  37  55  86 122 162 197 241 290 351
#     4  11  22  38  58  87 124 162 189 241 298 346
#
# _framework density 28.723293999999999
#
# number of rings (size 3 to 8) (size 9 to 14) (size 15 to 20)
#    0.923    1.231    1.538    1.385    2.154    5.538 
#    5.538    3.846    0.000    5.538    0.000    0.000 
#    0.000    0.000    0.000    0.000    0.000    0.000 
#
# Total GULP energy -72485.290918 kJ/mol
# GULP energy per Si atom -5575.791609 kJ/mol
# Density = 2.865792 g / cm^3
# Si number density = 28.723294 Si / 1000 Ang^3
#
#
#
# Elastic Constant Matrix: (Units=GPa)
#
#
# Indices 1 2 3 4 5 6 
#
# 1 112.6005 14.6154 22.0628 -7.5183 18.8955 10.4808
# 2 14.6154 107.5656 32.4908 38.6810 1.2859 -17.6569
# 3 22.0628 32.4908 143.3317 12.9465 -6.2178 -10.3883
# 4 -7.5183 38.6810 12.9465 47.9071 9.2587 -9.6331
# 5 18.8955 1.2859 -6.2178 9.2587 56.0073 1.8143
# 6 10.4808 -17.6569 -10.3883 -9.6331 1.8143 48.2137
#
#
#
# Elastic Compliance Matrix: (Units=1/GPa)
#
#
# Indices 1 2 3 4 5 6 
#
# 1 0.011029 -0.003189 -0.001839 0.005139 -0.004612 -0.002762
# 2 -0.003189 0.015027 -0.001478 -0.012027 0.002445 0.003383
# 3 -0.001839 -0.001478 0.007876 -0.001306 0.001705 0.001231
# 4 0.005139 -0.012027 -0.001306 0.033353 -0.007153 0.001130
# 5 -0.004612 0.002445 0.001705 -0.007153 0.020725 0.000056
# 6 -0.002762 0.003383 0.001231 0.001130 0.000056 0.023069
#
#
# Mechanical properties :
#
#
# Convention : Reuss Voigt Hill
#
# Bulk Modulus (GPa) = 47.80089 55.75952 51.78020
# Shear Modulus (GPa) = 38.14870 50.04756 44.09813
#
# Velocity S-wave (km/s) = 3.64833 4.17874 3.92251
# Velocity P-wave (km/s) = 5.86728 6.53737 6.21137
#
# Compressibility (1/GPa) = 0.02092011
#
# Stress axis : x y z
#
# Youngs Moduli (GPa) = 90.66672 66.54512 126.96745
#
# Poissons Ratio (x) = 0.21223 0.23352
# Poissons Ratio (y) = 0.28916 0.18765
# Poissons Ratio (z) = 0.16675 0.09835
#
# Static dielectric constant tensor:
#      x y z
#    x 2.236500 -0.015270 0.016030 
#    y -0.015270 2.541600 -0.076000 
#    z 0.016030 -0.076000 2.093270 
# 
# From -- ./inp_files/32629.got.cif
#   From: 2010.05.17/outbox.cif.g08.bks.cpg/sg2_17_cif.got.tgz:32629.got - 2010.06.03 11:33:40.
