data_PCOD9057960
_publ_section_title
;
Structure prediction by ZEFSAII (Michael W. Deem and Ramdas Pophale) SiO2 
 PCOD9057960
Probable space group: P -1
;
_chemical_formula_sum "Si O2"
_cell_formula_units_Z 16
_cell_length_a 14.821434
_cell_length_b 13.404793
_cell_length_c 8.563411
_cell_angle_alpha 87.712851
_cell_angle_beta 85.209504
_cell_angle_gamma 22.037042
_cell_volume 632.923565
_symmetry_space_group_name_H-M "P -1"
_symmetry_group_IT_number 2
_symmetry_cell_setting 'triclinic'
loop_
_space_group_symop_operation_xyz
x,y,z
-x,-y,-z
loop_
_atom_site_type_symbol
_atom_site_label
_atom_site_fract_x
_atom_site_fract_y
_atom_site_fract_z
Si Si1 0.285849 0.821656 0.192489
Si Si2 0.231817 0.087811 0.642509
Si Si3 0.543750 0.656157 0.869622
Si Si4 0.924731 0.550800 0.191528
Si Si5 0.432132 0.182783 0.957966
Si Si6 0.245108 0.076694 0.320476
Si Si7 0.923766 0.227111 0.599657
Si Si8 0.223078 0.738043 0.676606
O O1 0.518088 0.530264 0.259038
O O2 0.221517 0.982215 0.303870
O O3 0.405881 0.735333 0.017694
O O4 0.018552 0.045440 0.201441
O O5 0.179980 0.240007 0.737524
O O6 0.385211 0.947643 0.471547
O O7 0.002847 0.262435 0.590577
O O8 0.352770 0.888060 0.755709
O O9 0.757327 0.382909 0.766600
O O10 0.657681 0.645232 0.917327
O O11 0.742145 0.647817 0.174045
O O12 0.075997 0.348243 0.323690
O O13 0.000000 0.500000 0.000000
O O14 0.668357 0.990021 0.865990
O O15 0.500000 0.000000 0.000000
O O16 0.777886 0.338955 0.462737
O O17 0.149882 0.919970 0.604227
#
# Coordination Sequence:
#
# PCOD9057960 Si02
#       8
#     2   2   2   2   2   2   2   2
#     4  11  26  49  76 111 147 193 249 305 367 439
#     4  12  25  44  65 107 144 186 245 302 364 438
#     4  11  26  43  73 103 149 194 242 306 364 435
#     4  12  23  41  70  97 141 185 242 296 365 433
#     4  11  22  44  65  98 138 194 236 296 361 436
#     4  11  25  41  69 101 142 189 241 299 366 437
#     4  11  27  45  78 104 147 189 245 307 374 436
#     4  11  27  51  79 107 147 196 246 308 375 440
#
# _framework density 25.279515
#
# number of rings (size 3 to 8) (size 9 to 14) (size 15 to 20)
#    0.000    0.750    3.750    2.625    7.000    3.500 
#    0.000    0.000    0.000    0.000    0.000    0.000 
#    0.000    0.000    0.000    0.000    0.000    0.000 
#
# Total GULP energy -89133.351951 kJ/mol
# GULP energy per Si atom -5570.834497 kJ/mol
# Density = 2.522198 g / cm^3
# Si number density = 25.279515 Si / 1000 Ang^3
#
#
#
# Elastic Constant Matrix: (Units=GPa)
#
#
# Indices 1 2 3 4 5 6 
#
# 1 72.8906 27.0323 10.9349 8.1441 10.2315 8.7973
# 2 27.0323 78.5572 33.1274 -2.7050 -1.2984 7.0715
# 3 10.9349 33.1274 110.5562 5.1744 2.4733 7.9076
# 4 8.1441 -2.7050 5.1744 44.2394 8.4634 -3.1000
# 5 10.2315 -1.2984 2.4733 8.4634 44.3223 3.9988
# 6 8.7973 7.0715 7.9076 -3.1000 3.9988 25.2342
#
#
#
# Elastic Compliance Matrix: (Units=1/GPa)
#
#
# Indices 1 2 3 4 5 6 
#
# 1 0.017173 -0.005939 0.000623 -0.003306 -0.003142 -0.004426
# 2 -0.005939 0.016904 -0.004532 0.002223 0.001808 -0.001260
# 3 0.000623 -0.004532 0.010604 -0.001742 -0.000316 -0.002434
# 4 -0.003306 0.002223 -0.001742 0.024695 -0.004221 0.004778
# 5 -0.003142 0.001808 -0.000316 -0.004221 0.024499 -0.003713
# 6 -0.004426 -0.001260 -0.002434 0.004778 -0.003713 0.043463
#
#
# Mechanical properties :
#
#
# Convention : Reuss Voigt Hill
#
# Bulk Modulus (GPa) = 40.02538 44.91035 42.46786
# Shear Modulus (GPa) = 30.23616 35.48647 32.86132
#
# Velocity S-wave (km/s) = 3.46218 3.75075 3.60935
# Velocity P-wave (km/s) = 5.64356 6.04662 5.84856
#
# Compressibility (1/GPa) = 0.02498415
#
# Stress axis : x y z
#
# Youngs Moduli (GPa) = 58.23035 59.15594 94.30105
#
# Poissons Ratio (x) = 0.35135 -0.05873
# Poissons Ratio (y) = 0.34586 0.42739
# Poissons Ratio (z) = -0.03626 0.26811
#
# Static dielectric constant tensor:
#      x y z
#    x 2.113130 0.340970 -0.058920 
#    y 0.340970 1.604580 -0.061490 
#    z -0.058920 -0.061490 2.028170 
# 
# From -- ./inp_files/335356.got.cif
#   From: 2010.05.17/outbox.cif.g08.bks.cpg/sg2_168_cif.got.tgz:335356.got - 2010.06.03 11:33:40.
