data_PCOD9057959
_publ_section_title
;
Structure prediction by ZEFSAII (Michael W. Deem and Ramdas Pophale) SiO2 
 PCOD9057959
Probable space group: P -1
;
_chemical_formula_sum "Si O2"
_cell_formula_units_Z 16
_cell_length_a 14.935161
_cell_length_b 27.664029
_cell_length_c 9.249940
_cell_angle_alpha 140.852671
_cell_angle_beta 48.612295
_cell_angle_gamma 159.481457
_cell_volume 808.180125
_symmetry_space_group_name_H-M "P -1"
_symmetry_group_IT_number 2
_symmetry_cell_setting 'triclinic'
loop_
_space_group_symop_operation_xyz
x,y,z
-x,-y,-z
loop_
_atom_site_type_symbol
_atom_site_label
_atom_site_fract_x
_atom_site_fract_y
_atom_site_fract_z
Si Si1 0.647786 0.790652 0.128676
Si Si2 0.529423 0.438190 0.415823
Si Si3 0.073848 0.922720 0.694247
Si Si4 0.862892 0.025243 0.909671
Si Si5 0.407904 0.967458 0.361945
Si Si6 0.914328 0.322605 0.171610
Si Si7 0.087532 0.773394 0.762497
Si Si8 0.602926 0.297750 0.526958
O O1 0.505277 0.759359 0.327866
O O2 0.853399 0.852178 0.132498
O O3 0.818816 0.941359 0.187451
O O4 0.458970 0.627133 0.857201
O O5 0.500000 0.500000 0.500000
O O6 0.797313 0.594325 0.585497
O O7 0.248354 0.267905 0.406075
O O8 0.217967 0.932220 0.492659
O O9 0.155053 0.972872 0.893777
O O10 0.633200 0.841466 0.660876
O O11 0.853572 0.102402 0.023073
O O12 0.500000 0.000000 0.500000
O O13 0.673991 0.129947 0.357939
O O14 0.240617 0.801916 0.087207
O O15 0.912055 0.258350 0.150441
O O16 0.765385 0.312816 0.365120
O O17 0.207945 0.520765 0.278649
#
# Coordination Sequence:
#
# PCOD9057959 Si02
#       8
#     2   2   2   2   2   2   2   2
#     4  11  25  42  70  95 135 173 230 270 329 399
#     4  11  22  44  67 101 137 172 221 278 329 391
#     4  11  24  42  72  99 132 177 226 272 334 392
#     4  11  22  44  65  96 135 177 210 275 340 390
#     4  12  23  45  72  98 132 175 226 276 328 400
#     4  11  27  43  68  95 138 175 222 275 337 395
#     4  12  24  42  71  97 137 178 218 274 339 396
#     4  11  25  46  63  97 134 175 222 278 331 394
#
# _framework density 19.797567999999998
#
# number of rings (size 3 to 8) (size 9 to 14) (size 15 to 20)
#    0.000    0.750    5.000    3.000    8.750    0.000 
#    0.000    2.500    0.000    0.000    0.000    0.000 
#    0.000    0.000    0.000    0.000    0.000    0.000 
#
# Total GULP energy -89464.109329 kJ/mol
# GULP energy per Si atom -5591.506833 kJ/mol
# Density = 1.975251 g / cm^3
# Si number density = 19.797568 Si / 1000 Ang^3
#
#
#
# Elastic Constant Matrix: (Units=GPa)
#
#
# Indices 1 2 3 4 5 6 
#
# 1 45.5990 15.8101 38.1451 2.4434 6.3716 -9.1012
# 2 15.8101 78.3113 70.1192 13.2247 15.2819 -10.6298
# 3 38.1451 70.1192 127.2693 14.0175 6.5458 0.6013
# 4 2.4434 13.2247 14.0175 31.0732 13.2502 -2.9703
# 5 6.3716 15.2819 6.5458 13.2502 30.5737 3.4279
# 6 -9.1012 -10.6298 0.6013 -2.9703 3.4279 33.9584
#
#
#
# Elastic Compliance Matrix: (Units=1/GPa)
#
#
# Indices 1 2 3 4 5 6 
#
# 1 0.038533 0.013429 -0.019125 0.008460 -0.016248 0.017250
# 2 0.013429 0.037311 -0.024100 0.004268 -0.020169 0.018114
# 3 -0.019125 -0.024100 0.027084 -0.008638 0.015714 -0.015491
# 4 0.008460 0.004268 -0.008638 0.044017 -0.022228 0.009850
# 5 -0.016248 -0.020169 0.015714 -0.022228 0.054506 -0.018393
# 6 0.017250 0.018114 -0.015491 0.009850 -0.018393 0.042734
#
#
# Mechanical properties :
#
#
# Convention : Reuss Voigt Hill
#
# Bulk Modulus (GPa) = 23.07580 55.48095 39.27837
# Shear Modulus (GPa) = 15.71226 27.59473 21.65349
#
# Velocity S-wave (km/s) = 2.82023 3.73747 3.31077
# Velocity P-wave (km/s) = 4.72082 6.83446 5.87350
#
# Compressibility (1/GPa) = 0.04333544
#
# Stress axis : x y z
#
# Youngs Moduli (GPa) = 25.95164 26.80171 36.92240
#
# Poissons Ratio (x) = -0.35991 0.70615
# Poissons Ratio (y) = -0.34850 0.88982
# Poissons Ratio (z) = 0.49633 0.64592
#
# Static dielectric constant tensor:
#      x y z
#    x 1.671940 0.010910 -0.015700 
#    y 0.010910 1.699500 -0.002430 
#    z -0.015700 -0.002430 1.689220 
# 
# From -- ./inp_files/175374.got.cif
#   From: 2010.05.17/outbox.cif.g08.bks.cpg/sg2_88_cif.got.tgz:175374.got - 2010.06.03 11:33:40.
