data_PCOD9057083
_publ_section_title
;
Structure prediction by ZEFSAII (Michael W. Deem and Ramdas Pophale) SiO2 
 PCOD9057083
Probable space group: P -1
;
_chemical_formula_sum "Si O2"
_cell_formula_units_Z 16
_cell_length_a 5.272612
_cell_length_b 10.048439
_cell_length_c 28.374272
_cell_angle_alpha 140.437890
_cell_angle_beta 65.523990
_cell_angle_gamma 92.217981
_cell_volume 762.448222
_symmetry_space_group_name_H-M "P -1"
_symmetry_group_IT_number 2
_symmetry_cell_setting 'triclinic'
loop_
_space_group_symop_operation_xyz
x,y,z
-x,-y,-z
loop_
_atom_site_type_symbol
_atom_site_label
_atom_site_fract_x
_atom_site_fract_y
_atom_site_fract_z
Si Si1 0.425951 0.101417 0.156901
Si Si2 0.134505 0.467197 0.533121
Si Si3 0.878954 0.276258 0.582963
Si Si4 0.724776 0.154959 0.343630
Si Si5 0.227398 0.325751 0.762939
Si Si6 0.788224 0.866325 0.978946
Si Si7 0.174111 0.609803 0.278983
Si Si8 0.691632 0.249961 0.264342
O O1 0.389445 0.324833 0.189133
O O2 0.579108 0.116462 0.198764
O O3 0.070375 0.143456 0.202764
O O4 0.642117 0.882095 0.046627
O O5 0.499014 0.278193 0.440259
O O6 0.053716 0.723359 0.631262
O O7 0.000000 0.500000 0.500000
O O8 0.031261 0.338552 0.544367
O O9 0.974076 0.324610 0.639990
O O10 0.506310 0.472138 0.660107
O O11 0.000000 0.000000 0.500000
O O12 0.604678 0.237830 0.322163
O O13 0.811862 0.880432 0.263540
O O14 0.589340 0.281616 0.720292
O O15 0.008238 0.590690 0.872435
O O16 0.089997 0.324368 0.721751
O O17 0.500000 0.000000 0.000000
O O18 0.000000 0.000000 0.000000
#
# Coordination Sequence:
#
# PCOD9057083 Si02
#       8
#     2   2   2   2   2   2   2   2
#     4  11  22  41  69  95 138 172 221 277 349 406
#     4  11  24  46  66  95 139 186 230 280 346 406
#     4  11  24  41  71 100 138 176 236 290 344 401
#     4  11  26  43  70  92 139 187 234 275 340 421
#     4  12  25  42  69 104 134 179 228 282 342 412
#     4  12  22  43  68 103 140 172 221 284 356 412
#     4  11  23  40  63 101 137 169 224 283 340 397
#     4  11  24  43  66  98 133 186 222 278 345 408
#
# _framework density 20.985032
#
# number of rings (size 3 to 8) (size 9 to 14) (size 15 to 20)
#    0.000    0.750    3.750    4.500    3.500    0.000 
#    0.000    9.375    0.000    0.000    0.000    0.000 
#    0.000    0.000    0.000    0.000    0.000    0.000 
#
# Total GULP energy -89282.553579 kJ/mol
# GULP energy per Si atom -5580.159599 kJ/mol
# Density = 2.093727 g / cm^3
# Si number density = 20.985032 Si / 1000 Ang^3
#
#
#
# Elastic Constant Matrix: (Units=GPa)
#
#
# Indices 1 2 3 4 5 6 
#
# 1 136.0795 47.4930 53.4117 -15.7698 23.5228 9.4454
# 2 47.4930 126.9407 56.0225 -0.3495 16.9683 3.8861
# 3 53.4117 56.0225 103.9680 -11.1200 11.2085 0.8587
# 4 -15.7698 -0.3495 -11.1200 45.5782 4.8582 2.3202
# 5 23.5228 16.9683 11.2085 4.8582 26.4843 -12.4892
# 6 9.4454 3.8861 0.8587 2.3202 -12.4892 27.5732
#
#
#
# Elastic Compliance Matrix: (Units=1/GPa)
#
#
# Indices 1 2 3 4 5 6 
#
# 1 0.013800 -0.000618 -0.004107 0.006275 -0.017358 -0.012902
# 2 -0.000618 0.011349 -0.005128 -0.000489 -0.006387 -0.004080
# 3 -0.004107 -0.005128 0.014504 0.001805 0.001506 0.002208
# 4 0.006275 -0.000489 0.001805 0.026922 -0.016579 -0.011912
# 5 -0.017358 -0.006387 0.001506 -0.016579 0.080792 0.044789
# 6 -0.012902 -0.004080 0.002208 -0.011912 0.044789 0.062483
#
#
# Mechanical properties :
#
#
# Convention : Reuss Voigt Hill
#
# Bulk Modulus (GPa) = 50.13434 75.64918 62.89176
# Shear Modulus (GPa) = 21.16801 33.93121 27.54961
#
# Velocity S-wave (km/s) = 3.17948 4.02546 3.62722
# Velocity P-wave (km/s) = 6.11729 7.59823 6.89762
#
# Compressibility (1/GPa) = 0.01994641
#
# Stress axis : x y z
#
# Youngs Moduli (GPa) = 72.46557 88.11107 68.94457
#
# Poissons Ratio (x) = 0.05442 0.28319
# Poissons Ratio (y) = 0.04476 0.35357
# Poissons Ratio (z) = 0.29765 0.45186
#
# Static dielectric constant tensor:
#      x y z
#    x 1.859060 0.084190 -0.053210 
#    y 0.084190 1.702150 0.105080 
#    z -0.053210 0.105080 1.793430 
# 
# From -- ./inp_files/615281.got.cif
#   From: 2010.05.17/outbox.cif.g08.bks.cpg/sg2_308_cif.got.tgz:615281.got - 2010.06.03 11:33:40.
