data_PCOD9057237
_publ_section_title
;
Structure prediction by ZEFSAII (Michael W. Deem and Ramdas Pophale) SiO2 
 PCOD9057237
Probable space group: P -1
;
_chemical_formula_sum "Si O2"
_cell_formula_units_Z 16
_cell_length_a 9.125052
_cell_length_b 15.728193
_cell_length_c 14.826925
_cell_angle_alpha 152.122696
_cell_angle_beta 77.813192
_cell_angle_gamma 83.871856
_cell_volume 745.795153
_symmetry_space_group_name_H-M "P -1"
_symmetry_group_IT_number 2
_symmetry_cell_setting 'triclinic'
loop_
_space_group_symop_operation_xyz
x,y,z
-x,-y,-z
loop_
_atom_site_type_symbol
_atom_site_label
_atom_site_fract_x
_atom_site_fract_y
_atom_site_fract_z
Si Si1 0.563447 0.963072 0.789928
Si Si2 0.972831 0.780694 0.516951
Si Si3 0.547875 0.585829 0.489729
Si Si4 0.328934 0.059023 0.730208
Si Si5 0.389893 0.459812 0.245984
Si Si6 0.137549 0.508953 0.058430
Si Si7 0.609170 0.523108 0.147525
Si Si8 0.902709 0.257894 0.014696
O O1 0.468487 0.008432 0.746095
O O2 0.794794 0.802771 0.598779
O O3 0.514394 0.826966 0.728609
O O4 0.478773 0.225502 0.071849
O O5 0.171979 0.590068 0.366343
O O6 0.011877 0.700514 0.332933
O O7 0.923433 0.030741 0.771910
O O8 0.500000 0.500000 0.500000
O O9 0.415302 0.616995 0.452646
O O10 0.771765 0.379707 0.234988
O O11 0.117503 0.173048 0.905951
O O12 0.433096 0.805010 0.432845
O O13 0.283946 0.252320 0.846384
O O14 0.515095 0.411158 0.093956
O O15 0.266879 0.558675 0.036035
O O16 0.000000 0.500000 0.000000
O O17 0.768594 0.452791 0.137397
#
# Coordination Sequence:
#
# PCOD9057237 Si02
#       8
#     2   2   2   2   2   2   2   2
#     4  12  23  44  76  96 137 188 226 274 358 414
#     4  12  24  43  70  99 141 192 229 285 339 414
#     4  11  25  49  78 106 139 172 225 295 350 424
#     4  12  22  43  70  94 139 192 229 282 346 407
#     4  11  24  46  69 101 141 184 231 274 363 413
#     4  12  25  39  64 105 139 185 251 284 330 393
#     4  11  22  42  62  95 141 183 230 289 327 396
#     4  11  22  45  69  95 139 182 226 281 362 413
#
# _framework density 21.453612
#
# number of rings (size 3 to 8) (size 9 to 14) (size 15 to 20)
#    0.000    0.500    8.750    1.875    0.000    1.500 
#    0.000    3.125    0.000    0.000    0.000    0.000 
#    0.000    0.000    0.000    0.000    0.000    0.000 
#
# Total GULP energy -89454.056639 kJ/mol
# GULP energy per Si atom -5590.878540 kJ/mol
# Density = 2.140478 g / cm^3
# Si number density = 21.453612 Si / 1000 Ang^3
#
#
#
# Elastic Constant Matrix: (Units=GPa)
#
#
# Indices 1 2 3 4 5 6 
#
# 1 122.2289 29.1901 15.7654 8.4554 -26.6597 10.0663
# 2 29.1901 109.6260 19.2690 11.8001 -6.5493 33.1438
# 3 15.7654 19.2690 75.7013 16.8901 -6.2519 14.0220
# 4 8.4554 11.8001 16.8901 24.3075 4.9425 5.0384
# 5 -26.6597 -6.5493 -6.2519 4.9425 44.4186 7.6460
# 6 10.0663 33.1438 14.0220 5.0384 7.6460 31.9723
#
#
#
# Elastic Compliance Matrix: (Units=1/GPa)
#
#
# Indices 1 2 3 4 5 6 
#
# 1 0.010538 -0.000873 0.000222 -0.004134 0.007308 -0.003606
# 2 -0.000873 0.014900 0.000967 -0.005336 0.005155 -0.015987
# 3 0.000222 0.000967 0.017616 -0.012212 0.005524 -0.008194
# 4 -0.004134 -0.005336 -0.012212 0.054792 -0.012198 0.006471
# 5 0.007308 0.005155 0.005524 -0.012198 0.032536 -0.015926
# 6 -0.003606 -0.015987 -0.008194 0.006471 -0.015926 0.055368
#
#
# Mechanical properties :
#
#
# Convention : Reuss Voigt Hill
#
# Bulk Modulus (GPa) = 22.89118 48.44503 35.66810
# Shear Modulus (GPa) = 25.03978 36.36180 30.70079
#
# Velocity S-wave (km/s) = 3.42008 4.12139 3.78700
# Velocity P-wave (km/s) = 5.12729 6.72890 5.98194
#
# Compressibility (1/GPa) = 0.04368495
#
# Stress axis : x y z
#
# Youngs Moduli (GPa) = 94.89169 67.11314 56.76538
#
# Poissons Ratio (x) = 0.05859 -0.01258
# Poissons Ratio (y) = 0.08284 -0.05486
# Poissons Ratio (z) = -0.02102 -0.06487
#
# Static dielectric constant tensor:
#      x y z
#    x 1.804440 0.014910 0.041820 
#    y 0.014910 1.774950 0.004290 
#    z 0.041820 0.004290 1.815240 
# 
# From -- ./inp_files/505749.got.cif
#   From: 2010.05.17/outbox.cif.g08.bks.cpg/sg2_253_cif.got.tgz:505749.got - 2010.06.03 11:33:40.
