data_PCOD9057632
_publ_section_title
;
Structure prediction by ZEFSAII (Michael W. Deem and Ramdas Pophale) SiO2 
 PCOD9057632
Probable space group: P -1
;
_chemical_formula_sum "Si O2"
_cell_formula_units_Z 12
_cell_length_a 12.314521
_cell_length_b 15.545263
_cell_length_c 5.021964
_cell_angle_alpha 129.785827
_cell_angle_beta 48.785600
_cell_angle_gamma 138.864196
_cell_volume 455.251280
_symmetry_space_group_name_H-M "P -1"
_symmetry_group_IT_number 2
_symmetry_cell_setting 'triclinic'
loop_
_space_group_symop_operation_xyz
x,y,z
-x,-y,-z
loop_
_atom_site_type_symbol
_atom_site_label
_atom_site_fract_x
_atom_site_fract_y
_atom_site_fract_z
Si Si1 0.008709 0.654255 0.328748
Si Si2 0.742115 0.896484 0.610593
Si Si3 0.376171 0.726353 0.731472
Si Si4 0.932349 0.866810 0.672857
Si Si5 0.216295 0.501106 0.095909
Si Si6 0.413095 0.379170 0.690793
O O1 0.925987 0.597052 0.637122
O O2 0.962083 0.759301 0.528481
O O3 0.215798 0.726026 0.099944
O O4 0.906001 0.534416 0.034752
O O5 0.562907 0.873793 0.753023
O O6 0.906502 0.051743 0.648229
O O7 0.723000 0.767303 0.229266
O O8 0.757788 0.836915 0.749832
O O9 0.322624 0.646340 0.375246
O O10 0.432547 0.643314 0.662078
O O11 0.000000 0.000000 0.000000
O O12 0.322237 0.429570 0.748841
O O13 0.500000 0.500000 0.000000
#
# Coordination Sequence:
#
# PCOD9057632 Si02
#       6
#     2   2   2   2   2   2
#     4  12  24  41  67  96 131 169 210 260 324 373
#     4   9  20  42  60  87 127 157 222 250 321 362
#     4   9  21  41  64  97 129 163 207 271 319 375
#     4  11  23  39  65  88 124 174 218 262 307 386
#     4  11  22  43  66  97 131 169 208 256 321 391
#     4   8  16  38  64  91 123 161 211 257 316 377
#
# _framework density 26.359068000000001
#
# number of rings (size 3 to 8) (size 9 to 14) (size 15 to 20)
#    1.000    1.000    1.667    2.000    2.333    0.667 
#    6.000   10.833    0.000    0.000    0.000    0.000 
#    0.000    0.000    0.000    0.000    0.000    0.000 
#
# Total GULP energy -66836.813954 kJ/mol
# GULP energy per Si atom -5569.734496 kJ/mol
# Density = 2.629907 g / cm^3
# Si number density = 26.359068 Si / 1000 Ang^3
#
#
#
# Elastic Constant Matrix: (Units=GPa)
#
#
# Indices 1 2 3 4 5 6 
#
# 1 116.6292 10.1252 42.9099 -20.0658 -11.3148 46.3882
# 2 10.1252 48.2438 -5.5642 8.6067 -14.2185 28.4348
# 3 42.9099 -5.5642 76.2118 -11.9274 -11.5998 21.0711
# 4 -20.0658 8.6067 -11.9274 23.6917 4.5296 -7.9050
# 5 -11.3148 -14.2185 -11.5998 4.5296 37.6492 -9.3354
# 6 46.3882 28.4348 21.0711 -7.9050 -9.3354 62.9159
#
#
#
# Elastic Compliance Matrix: (Units=1/GPa)
#
#
# Indices 1 2 3 4 5 6 
#
# 1 0.015063 -0.000092 -0.004986 0.007465 -0.000041 -0.008462
# 2 -0.000092 0.044365 0.008668 -0.022737 0.016352 -0.023316
# 3 -0.004986 0.008668 0.018969 -0.000955 0.006301 -0.005779
# 4 0.007465 -0.022737 -0.000955 0.062225 -0.011340 0.011227
# 5 -0.000041 0.016352 0.006301 -0.011340 0.034601 -0.005761
# 6 -0.008462 -0.023316 -0.005779 0.011227 -0.005761 0.035163
#
#
# Mechanical properties :
#
#
# Convention : Reuss Voigt Hill
#
# Bulk Modulus (GPa) = 11.68546 37.33628 24.51087
# Shear Modulus (GPa) = 21.57665 37.75894 29.66780
#
# Velocity S-wave (km/s) = 2.86416 3.78892 3.35852
# Velocity P-wave (km/s) = 3.92183 5.77378 4.93544
#
# Compressibility (1/GPa) = 0.08557641
#
# Stress axis : x y z
#
# Youngs Moduli (GPa) = 66.38848 22.54020 52.71797
#
# Poissons Ratio (x) = 0.00208 0.26284
# Poissons Ratio (y) = 0.00614 -0.45696
# Poissons Ratio (z) = 0.33100 -0.19538
#
# Static dielectric constant tensor:
#      x y z
#    x 1.630100 -1.501270 0.140040 
#    y -1.501270 -1.850560 -0.361790 
#    z 0.140040 -0.361790 2.489690 
# 
# From -- ./inp_files/81671.got.cif
#   From: 2010.05.17/outbox.cif.g08.bks.cpg/sg2_41_cif.got.tgz:81671.got - 2010.06.03 11:33:40.
