data_PCOD9057790
_publ_section_title
;
Structure prediction by ZEFSAII (Michael W. Deem and Ramdas Pophale) SiO2 
 PCOD9057790
Probable space group: P -1
;
_chemical_formula_sum "Si O2"
_cell_formula_units_Z 16
_cell_length_a 9.102373
_cell_length_b 16.051332
_cell_length_c 18.415151
_cell_angle_alpha 142.679240
_cell_angle_beta 31.047154
_cell_angle_gamma 142.805703
_cell_volume 782.045350
_symmetry_space_group_name_H-M "P -1"
_symmetry_group_IT_number 2
_symmetry_cell_setting 'triclinic'
loop_
_space_group_symop_operation_xyz
x,y,z
-x,-y,-z
loop_
_atom_site_type_symbol
_atom_site_label
_atom_site_fract_x
_atom_site_fract_y
_atom_site_fract_z
Si Si1 0.684124 0.865150 0.906044
Si Si2 0.226409 0.804081 0.921882
Si Si3 0.817631 0.181986 0.563196
Si Si4 0.318961 0.878291 0.589354
Si Si5 0.485188 0.654998 0.589968
Si Si6 0.362768 0.560654 0.889949
Si Si7 0.344450 0.595825 0.442616
Si Si8 0.445922 0.393077 0.880101
O O1 0.485020 0.824210 0.887599
O O2 0.505821 0.738356 0.951026
O O3 0.017441 0.857880 0.748977
O O4 0.727772 0.034938 0.018300
O O5 0.275764 0.703534 0.767379
O O6 0.895629 0.730824 0.049824
O O7 0.791006 0.140585 0.460602
O O8 0.690844 0.313527 0.718389
O O9 0.165845 0.228427 0.472979
O O10 0.580938 0.036713 0.600804
O O11 0.443494 0.749512 0.464395
O O12 0.500000 0.500000 0.500000
O O13 0.366411 0.633181 0.543437
O O14 0.465122 0.501018 0.731756
O O15 0.463960 0.487249 0.864821
O O16 0.000000 0.500000 0.000000
O O17 0.000000 0.500000 0.500000
O O18 0.500000 0.500000 0.000000
#
# Coordination Sequence:
#
# PCOD9057790 Si02
#       8
#     2   2   2   2   2   2   2   2
#     4  11  22  43  71 100 139 177 224 282 340 406
#     4  11  24  43  70 103 134 182 226 272 346 406
#     4  11  24  43  69 100 133 180 228 278 336 406
#     4  11  22  43  71  97 134 181 228 275 337 405
#     4  12  26  44  71 101 137 176 230 282 335 404
#     4  12  26  43  68 104 135 178 227 281 343 398
#     4  12  26  44  71  96 134 182 230 279 337 407
#     4  12  26  43  67 101 139 175 226 282 340 410
#
# _framework density 20.459171000000001
#
# number of rings (size 3 to 8) (size 9 to 14) (size 15 to 20)
#    0.000    0.500    6.250    2.250    3.500    1.500 
#    2.250    1.250    0.000    0.000    0.000    0.000 
#    0.000    0.000    0.000    0.000    0.000    0.000 
#
# Total GULP energy -89520.529478 kJ/mol
# GULP energy per Si atom -5595.033092 kJ/mol
# Density = 2.041261 g / cm^3
# Si number density = 20.459171 Si / 1000 Ang^3
#
#
#
# Elastic Constant Matrix: (Units=GPa)
#
#
# Indices 1 2 3 4 5 6 
#
# 1 62.8106 14.5063 -4.6383 0.2280 10.0935 2.8118
# 2 14.5063 134.8754 10.1137 4.4226 -5.0283 -14.8933
# 3 -4.6383 10.1137 77.9984 -1.3896 1.1049 0.9466
# 4 0.2280 4.4226 -1.3896 39.7552 3.8429 -7.7522
# 5 10.0935 -5.0283 1.1049 3.8429 28.9704 1.6806
# 6 2.8118 -14.8933 0.9466 -7.7522 1.6806 28.9365
#
#
#
# Elastic Compliance Matrix: (Units=1/GPa)
#
#
# Indices 1 2 3 4 5 6 
#
# 1 0.017807 -0.002578 0.001525 0.000364 -0.006606 -0.002626
# 2 -0.002578 0.008368 -0.001328 -0.000318 0.002189 0.004388
# 3 0.001525 -0.001328 0.013124 0.000516 -0.001270 -0.001049
# 4 0.000364 -0.000318 0.000516 0.027030 -0.004209 0.007270
# 5 -0.006606 0.002189 -0.001270 -0.004209 0.037894 -0.001518
# 6 -0.002626 0.004388 -0.001049 0.007270 -0.001518 0.039142
#
#
# Mechanical properties :
#
#
# Convention : Reuss Voigt Hill
#
# Bulk Modulus (GPa) = 28.95513 35.07198 32.01356
# Shear Modulus (GPa) = 31.32093 36.57926 33.95009
#
# Velocity S-wave (km/s) = 3.91692 4.23296 4.07800
# Velocity P-wave (km/s) = 5.88555 6.40861 6.15264
#
# Compressibility (1/GPa) = 0.03453619
#
# Stress axis : x y z
#
# Youngs Moduli (GPa) = 56.15919 119.50735 76.19859
#
# Poissons Ratio (x) = 0.30805 -0.11621
# Poissons Ratio (y) = 0.14476 0.10121
# Poissons Ratio (z) = -0.08565 0.15873
#
# Static dielectric constant tensor:
#      x y z
#    x 1.722050 -0.019440 0.007970 
#    y -0.019440 1.753590 -0.003050 
#    z 0.007970 -0.003050 1.720680 
# 
# From -- ./inp_files/245209.got.cif
#   From: 2010.05.17/outbox.cif.g08.bks.cpg/sg2_123_cif.got.tgz:245209.got - 2010.06.03 11:33:40.
