data_PCOD9057475
_publ_section_title
;
Structure prediction by ZEFSAII (Michael W. Deem and Ramdas Pophale) SiO2 
 PCOD9057475
Probable space group: P -1
;
_chemical_formula_sum "Si O2"
_cell_formula_units_Z 10
_cell_length_a 19.908090
_cell_length_b 11.424026
_cell_length_c 14.918930
_cell_angle_alpha 31.723348
_cell_angle_beta 20.012301
_cell_angle_gamma 21.399453
_cell_volume 415.609368
_symmetry_space_group_name_H-M "P -1"
_symmetry_group_IT_number 2
_symmetry_cell_setting 'triclinic'
loop_
_space_group_symop_operation_xyz
x,y,z
-x,-y,-z
loop_
_atom_site_type_symbol
_atom_site_label
_atom_site_fract_x
_atom_site_fract_y
_atom_site_fract_z
Si Si1 0.703387 0.841978 0.762113
Si Si2 0.080190 0.921170 0.256144
Si Si3 0.525225 0.540111 0.096522
Si Si4 0.680338 0.713844 0.386748
Si Si5 0.702772 0.643607 0.206271
O O1 0.985318 0.742409 0.502662
O O2 0.560449 0.116108 0.686795
O O3 0.702460 0.596482 0.880747
O O4 0.500000 0.000000 0.000000
O O5 0.259571 0.839175 0.172569
O O6 0.277222 0.756637 0.028060
O O7 0.823442 0.304939 0.307466
O O8 0.402253 0.472649 0.367586
O O9 0.611746 0.829483 0.293926
O O10 0.500000 0.000000 0.500000
O O11 0.022855 0.477808 0.110959
#
# Coordination Sequence:
#
# PCOD9057475 Si02
#       5
#     2   2   2   2   2
#     4  12  26  45  68 103 141 181 231 286 341 407
#     4  11  24  45  71 101 141 181 228 285 341 409
#     4  11  24  44  71 102 137 184 231 278 346 409
#     4  11  22  42  71 104 136 182 228 281 345 404
#     4  11  24  43  70 103 138 180 233 279 342 413
#
# _framework density 24.061055
#
# number of rings (size 3 to 8) (size 9 to 14) (size 15 to 20)
#    0.000    0.800    2.000    6.000    2.800    2.400 
#    3.600    2.000    0.000    0.000    0.000    0.000 
#    0.000    0.000    0.000    0.000    0.000    0.000 
#
# Total GULP energy -55948.079399 kJ/mol
# GULP energy per Si atom -5594.807940 kJ/mol
# Density = 2.400629 g / cm^3
# Si number density = 24.061055 Si / 1000 Ang^3
#
#
#
# Elastic Constant Matrix: (Units=GPa)
#
#
# Indices 1 2 3 4 5 6 
#
# 1 86.3004 31.9592 24.7007 4.8616 17.8671 21.1306
# 2 31.9592 88.4524 14.4327 -12.1511 13.0173 22.7453
# 3 24.7007 14.4327 147.0511 -21.3329 14.7318 23.8093
# 4 4.8616 -12.1511 -21.3329 38.3511 14.5909 6.5974
# 5 17.8671 13.0173 14.7318 14.5909 47.8018 -2.8258
# 6 21.1306 22.7453 23.8093 6.5974 -2.8258 31.9761
#
#
#
# Elastic Compliance Matrix: (Units=1/GPa)
#
#
# Indices 1 2 3 4 5 6 
#
# 1 0.016069 -0.002062 -0.000003 0.001506 -0.006497 -0.010035
# 2 -0.002062 0.023108 0.007206 0.022270 -0.016105 -0.026458
# 3 -0.000003 0.007206 0.013112 0.017746 -0.012581 -0.019660
# 4 0.001506 0.022270 0.017746 0.063821 -0.034311 -0.046250
# 5 -0.006497 -0.016105 -0.012581 -0.034311 0.044218 0.036104
# 6 -0.010035 -0.026458 -0.019660 -0.046250 0.036104 0.084097
#
#
# Mechanical properties :
#
#
# Convention : Reuss Voigt Hill
#
# Bulk Modulus (GPa) = 15.98159 51.55436 33.76797
# Shear Modulus (GPa) = 19.60794 40.33989 29.97392
#
# Velocity S-wave (km/s) = 2.85779 4.09903 3.53334
# Velocity P-wave (km/s) = 4.18877 6.62387 5.54173
#
# Compressibility (1/GPa) = 0.06257202
#
# Stress axis : x y z
#
# Youngs Moduli (GPa) = 62.23120 43.27542 76.26892
#
# Poissons Ratio (x) = 0.08924 0.00020
# Poissons Ratio (y) = 0.12832 -0.54963
# Poissons Ratio (z) = 0.00016 -0.31186
#
# Static dielectric constant tensor:
#      x y z
#    x 1.944020 0.033630 -0.097330 
#    y 0.033630 1.969540 -0.026900 
#    z -0.097330 -0.026900 1.955530 
# 
# From -- ./inp_files/152002.got.cif
#   From: 2010.05.17/outbox.cif.g08.bks.cpg/sg2_77_cif.got.tgz:152002.got - 2010.06.03 11:33:40.
