data_PCOD9057794
_publ_section_title
;
Structure prediction by ZEFSAII (Michael W. Deem and Ramdas Pophale) SiO2 
 PCOD9057794
Probable space group: P -1
;
_chemical_formula_sum "Si O2"
_cell_formula_units_Z 12
_cell_length_a 9.422355
_cell_length_b 13.314055
_cell_length_c 19.289373
_cell_angle_alpha 163.766179
_cell_angle_beta 44.489084
_cell_angle_gamma 134.034401
_cell_volume 473.427689
_symmetry_space_group_name_H-M "P -1"
_symmetry_group_IT_number 2
_symmetry_cell_setting 'triclinic'
loop_
_space_group_symop_operation_xyz
x,y,z
-x,-y,-z
loop_
_atom_site_type_symbol
_atom_site_label
_atom_site_fract_x
_atom_site_fract_y
_atom_site_fract_z
Si Si1 0.572037 0.544899 0.371456
Si Si2 0.875849 0.279017 0.336146
Si Si3 0.030942 0.540132 0.222461
Si Si4 0.845478 0.310195 0.579128
Si Si5 0.814745 0.523982 0.027338
Si Si6 0.505010 0.814451 0.988437
O O1 0.365706 0.756727 0.589937
O O2 0.803903 0.672930 0.387769
O O3 0.574094 0.382633 0.185054
O O4 0.536383 0.222309 0.225237
O O5 0.000000 0.500000 0.500000
O O6 0.932336 0.537906 0.422631
O O7 0.961009 0.883372 0.040503
O O8 0.154759 0.747027 0.376724
O O9 0.125424 0.555648 0.124001
O O10 0.707473 0.628479 0.816071
O O11 0.766584 0.944711 0.327602
O O12 0.641710 0.264779 0.948614
O O13 0.000000 0.500000 0.000000
#
# Coordination Sequence:
#
# PCOD9057794 Si02
#       6
#     2   2   2   2   2   2
#     4  11  22  43  75 104 134 185 233 280 344 415
#     4  12  21  43  74 105 138 184 230 283 345 410
#     4  12  26  47  71 105 143 178 233 292 343 408
#     4  12  26  44  72 105 141 180 234 291 343 409
#     4  12  25  46  71  99 139 188 231 283 351 413
#     4  11  22  43  71 101 138 183 232 282 344 412
#
# _framework density 25.347062000000001
#
# number of rings (size 3 to 8) (size 9 to 14) (size 15 to 20)
#    0.000    0.333    6.667    3.000    0.000    2.000 
#    3.000    0.000    0.000    0.000    0.000    0.000 
#    0.000    0.000    0.000    0.000    0.000    0.000 
#
# Total GULP energy -67276.936870 kJ/mol
# GULP energy per Si atom -5606.411406 kJ/mol
# Density = 2.528937 g / cm^3
# Si number density = 25.347062 Si / 1000 Ang^3
#
#
#
# Elastic Constant Matrix: (Units=GPa)
#
#
# Indices 1 2 3 4 5 6 
#
# 1 114.1030 39.0422 50.4791 -10.6059 -9.6302 -12.1925
# 2 39.0422 180.5661 43.7378 -10.6984 4.9810 -27.6462
# 3 50.4791 43.7378 98.7394 -4.0777 -0.8444 1.5782
# 4 -10.6059 -10.6984 -4.0777 28.2258 0.9456 -8.6056
# 5 -9.6302 4.9810 -0.8444 0.9456 35.5218 -6.9701
# 6 -12.1925 -27.6462 1.5782 -8.6056 -6.9701 36.8982
#
#
#
# Elastic Compliance Matrix: (Units=1/GPa)
#
#
# Indices 1 2 3 4 5 6 
#
# 1 0.013436 0.000030 -0.006703 0.006085 0.004702 0.007056
# 2 0.000030 0.007678 -0.003339 0.004567 0.000102 0.006990
# 3 -0.006703 -0.003339 0.014973 -0.003560 -0.002194 -0.006602
# 4 0.006085 0.004567 -0.003560 0.043822 0.002969 0.016366
# 5 0.004702 0.000102 -0.002194 0.002969 0.030900 0.008253
# 6 0.007056 0.006990 -0.006602 0.016366 0.008253 0.040329
#
#
# Mechanical properties :
#
#
# Convention : Reuss Voigt Hill
#
# Bulk Modulus (GPa) = 62.25487 73.32518 67.79002
# Shear Modulus (GPa) = 28.32579 37.47248 32.89914
#
# Velocity S-wave (km/s) = 3.34656 3.84914 3.60661
# Velocity P-wave (km/s) = 6.28863 6.98181 6.64427
#
# Compressibility (1/GPa) = 0.01606300
#
# Stress axis : x y z
#
# Youngs Moduli (GPa) = 74.42836 130.23449 66.78553
#
# Poissons Ratio (x) = -0.00388 0.44768
# Poissons Ratio (y) = -0.00222 0.22298
# Poissons Ratio (z) = 0.49892 0.43482
#
# Static dielectric constant tensor:
#      x y z
#    x 1.971050 0.027080 0.028130 
#    y 0.027080 2.103870 0.024210 
#    z 0.028130 0.024210 2.021790 
# 
# From -- ./inp_files/175630.got.cif
#   From: 2010.05.17/outbox.cif.g08.bks.cpg/sg2_88_cif.got.tgz:175630.got - 2010.06.03 11:33:40.
