data_PCOD9057040
_publ_section_title
;
Structure prediction by ZEFSAII (Michael W. Deem and Ramdas Pophale) SiO2 
 PCOD9057040
Probable space group: P -1
;
_chemical_formula_sum "Si O2"
_cell_formula_units_Z 16
_cell_length_a 6.866248
_cell_length_b 10.536877
_cell_length_c 26.461871
_cell_angle_alpha 147.394505
_cell_angle_beta 43.950347
_cell_angle_gamma 120.203382
_cell_volume 688.067683
_symmetry_space_group_name_H-M "P -1"
_symmetry_group_IT_number 2
_symmetry_cell_setting 'triclinic'
loop_
_space_group_symop_operation_xyz
x,y,z
-x,-y,-z
loop_
_atom_site_type_symbol
_atom_site_label
_atom_site_fract_x
_atom_site_fract_y
_atom_site_fract_z
Si Si1 0.409644 0.350491 0.631460
Si Si2 0.607349 0.763926 0.776532
Si Si3 0.200890 0.511565 0.247686
Si Si4 0.820285 0.804914 0.953408
Si Si5 0.775984 0.002584 0.378592
Si Si6 0.400443 0.990531 0.239814
Si Si7 0.614145 0.863301 0.260372
Si Si8 0.814705 0.545046 0.963883
O O1 0.382309 0.618017 0.748292
O O2 0.383278 0.174808 0.622951
O O3 0.138206 0.346158 0.645686
O O4 0.700400 0.242359 0.508446
O O5 0.748714 0.596024 0.741279
O O6 0.494737 0.029786 0.912544
O O7 0.725614 0.821073 0.718921
O O8 0.404549 0.687427 0.254085
O O9 0.229984 0.303287 0.128110
O O10 0.930312 0.594591 0.904077
O O11 0.000000 0.000000 0.000000
O O12 0.642832 0.032063 0.358203
O O13 0.122385 0.890652 0.270801
O O14 0.499970 0.038850 0.293141
O O15 0.702383 0.803471 0.100650
O O16 0.935503 0.667421 0.127872
O O17 0.500000 0.500000 0.000000
#
# Coordination Sequence:
#
# PCOD9057040 Si02
#       8
#     2   2   2   2   2   2   2   2
#     4  11  24  45  71  98 132 178 232 283 328 394
#     4  11  25  43  65 102 140 173 220 281 346 396
#     4  12  23  42  73 101 131 182 230 274 330 405
#     4  11  22  41  68  98 138 174 220 274 339 401
#     4  11  24  45  71  98 132 178 232 283 328 394
#     4  11  25  43  65 102 140 173 220 281 346 396
#     4  12  23  42  73 101 131 182 230 274 330 405
#     4  11  22  41  68  98 138 174 220 274 339 401
#
# _framework density 23.253526999999998
#
# number of rings (size 3 to 8) (size 9 to 14) (size 15 to 20)
#    0.000    0.750    5.000    3.000    0.000    3.000 
#    0.000    1.250    0.000    0.000    0.000    0.000 
#    0.000    0.000    0.000    0.000    0.000    0.000 
#
# Total GULP energy -89117.421219 kJ/mol
# GULP energy per Si atom -5569.838826 kJ/mol
# Density = 2.320060 g / cm^3
# Si number density = 23.253527 Si / 1000 Ang^3
#
#
#
# Elastic Constant Matrix: (Units=GPa)
#
#
# Indices 1 2 3 4 5 6 
#
# 1 120.5580 32.8170 5.7524 -17.7440 15.5011 -28.5683
# 2 32.8170 69.0764 17.3606 -14.6192 9.0829 -10.2626
# 3 5.7524 17.3606 82.6306 -10.5129 7.2675 -0.6605
# 4 -17.7440 -14.6192 -10.5129 24.2737 -0.3024 7.5470
# 5 15.5011 9.0829 7.2675 -0.3024 28.2814 -8.6459
# 6 -28.5683 -10.2626 -0.6605 7.5470 -8.6459 41.7946
#
#
#
# Elastic Compliance Matrix: (Units=1/GPa)
#
#
# Indices 1 2 3 4 5 6 
#
# 1 0.011727 -0.003390 0.000939 0.005190 -0.003854 0.005464
# 2 -0.003390 0.018802 -0.002432 0.007699 -0.003423 0.000163
# 3 0.000939 -0.002432 0.013554 0.005508 -0.003611 -0.001483
# 4 0.005190 0.007699 0.005508 0.053723 -0.007937 -0.005817
# 5 -0.003854 -0.003423 -0.003611 -0.007937 0.041390 0.006463
# 6 0.005464 0.000163 -0.001483 -0.005817 0.006463 0.030065
#
#
# Mechanical properties :
#
#
# Convention : Reuss Voigt Hill
#
# Bulk Modulus (GPa) = 29.14079 42.68055 35.91067
# Shear Modulus (GPa) = 26.25111 33.29227 29.77169
#
# Velocity S-wave (km/s) = 3.36357 3.78790 3.58202
# Velocity P-wave (km/s) = 5.25773 6.12578 5.70828
#
# Compressibility (1/GPa) = 0.03431616
#
# Stress axis : x y z
#
# Youngs Moduli (GPa) = 85.27290 53.18467 73.77780
#
# Poissons Ratio (x) = 0.18031 -0.06927
# Poissons Ratio (y) = 0.28910 0.17946
# Poissons Ratio (z) = -0.08007 0.12937
#
# Static dielectric constant tensor:
#      x y z
#    x 1.890600 0.009160 -0.009290 
#    y 0.009160 1.970580 -0.034700 
#    z -0.009290 -0.034700 1.990670 
# 
# From -- ./inp_files/615514.got.cif
#   From: 2010.05.17/outbox.cif.g08.bks.cpg/sg2_308_cif.got.tgz:615514.got - 2010.06.03 11:33:40.
