data_PCOD9057188
_publ_section_title
;
Structure prediction by ZEFSAII (Michael W. Deem and Ramdas Pophale) SiO2 
 PCOD9057188
Probable space group: P -1
;
_chemical_formula_sum "Si O2"
_cell_formula_units_Z 16
_cell_length_a 21.956638
_cell_length_b 11.651919
_cell_length_c 22.857043
_cell_angle_alpha 155.471085
_cell_angle_beta 16.596699
_cell_angle_gamma 151.846047
_cell_volume 691.037305
_symmetry_space_group_name_H-M "P -1"
_symmetry_group_IT_number 2
_symmetry_cell_setting 'triclinic'
loop_
_space_group_symop_operation_xyz
x,y,z
-x,-y,-z
loop_
_atom_site_type_symbol
_atom_site_label
_atom_site_fract_x
_atom_site_fract_y
_atom_site_fract_z
Si Si1 0.264614 0.889932 0.643443
Si Si2 0.950031 0.356094 0.155209
Si Si3 0.974013 0.951829 0.433169
Si Si4 0.470488 0.945468 0.153648
Si Si5 0.600974 0.257485 0.333755
Si Si6 0.249771 0.447209 0.348556
Si Si7 0.877940 0.208810 0.956513
Si Si8 0.247936 0.840225 0.431699
O O1 0.139144 0.732611 0.739924
O O2 0.284250 0.681125 0.474697
O O3 0.118067 0.141582 0.880339
O O4 0.500000 0.000000 0.500000
O O5 0.744388 0.356184 0.301909
O O6 0.723692 0.918978 0.634079
O O7 0.062440 0.664965 0.199076
O O8 0.081083 0.215531 0.422982
O O9 0.000000 0.000000 0.500000
O O10 0.948118 0.977458 0.315263
O O11 0.377879 0.814333 0.239788
O O12 0.670302 0.170212 0.088046
O O13 0.545912 0.710126 0.932306
O O14 0.500000 0.500000 0.500000
O O15 0.769468 0.104005 0.068092
O O16 0.404106 0.034190 0.420818
O O17 0.179612 0.576949 0.411987
O O18 0.000000 0.500000 0.000000
#
# Coordination Sequence:
#
# PCOD9057188 Si02
#       8
#     2   2   2   2   2   2   2   2
#     4  11  26  48  77 108 148 200 263 317 382 446
#     4  11  25  47  74 111 149 197 253 319 374 459
#     4  12  28  50  75 107 156 198 260 314 379 455
#     4  11  28  45  76 107 153 199 251 315 382 455
#     4  11  22  41  72 109 157 194 247 315 381 454
#     4  12  27  49  75 109 150 209 248 313 388 457
#     4  11  23  42  72 111 152 195 247 305 385 458
#     4  11  24  46  72 114 150 196 251 310 380 460
#
# _framework density 23.153599
#
# number of rings (size 3 to 8) (size 9 to 14) (size 15 to 20)
#    0.000    0.750    2.500    4.125    3.500    6.500 
#    0.000    0.000    0.000    0.000    0.000    0.000 
#    0.000    0.000    0.000    0.000    0.000    0.000 
#
# Total GULP energy -89472.915648 kJ/mol
# GULP energy per Si atom -5592.057228 kJ/mol
# Density = 2.310090 g / cm^3
# Si number density = 23.153599 Si / 1000 Ang^3
#
#
#
# Elastic Constant Matrix: (Units=GPa)
#
#
# Indices 1 2 3 4 5 6 
#
# 1 139.6080 63.6043 58.4644 7.0878 1.7351 19.3191
# 2 63.6043 135.5810 54.0649 3.0165 -0.0706 12.9028
# 3 58.4644 54.0649 158.5209 15.3686 5.4880 20.4252
# 4 7.0878 3.0165 15.3686 42.6114 5.0835 6.9809
# 5 1.7351 -0.0706 5.4880 5.0835 36.4357 5.1359
# 6 19.3191 12.9028 20.4252 6.9809 5.1359 26.7616
#
#
#
# Elastic Compliance Matrix: (Units=1/GPa)
#
#
# Indices 1 2 3 4 5 6 
#
# 1 0.010218 -0.003593 -0.002012 -0.000086 0.000409 -0.004164
# 2 -0.003593 0.009946 -0.002034 0.000718 0.000529 -0.000938
# 3 -0.002012 -0.002034 0.008382 -0.001941 -0.000424 -0.003376
# 4 -0.000086 0.000718 -0.001941 0.025236 -0.002533 -0.004900
# 5 0.000409 0.000529 -0.000424 -0.002533 0.028556 -0.005046
# 6 -0.004164 -0.000938 -0.003376 -0.004900 -0.005046 0.045649
#
#
# Mechanical properties :
#
#
# Convention : Reuss Voigt Hill
#
# Bulk Modulus (GPa) = 75.37219 87.33082 81.35150
# Shear Modulus (GPa) = 33.85530 38.33350 36.09440
#
# Velocity S-wave (km/s) = 3.82803 4.07334 3.95259
# Velocity P-wave (km/s) = 7.22234 7.74098 7.48615
#
# Compressibility (1/GPa) = 0.01326749
#
# Stress axis : x y z
#
# Youngs Moduli (GPa) = 97.86677 100.54564 119.30077
#
# Poissons Ratio (x) = 0.36122 0.24009
# Poissons Ratio (y) = 0.35159 0.24267
# Poissons Ratio (z) = 0.19696 0.20452
#
# Static dielectric constant tensor:
#      x y z
#    x 1.884230 -0.002010 0.003970 
#    y -0.002010 1.921320 0.015610 
#    z 0.003970 0.015610 1.862720 
# 
# From -- ./inp_files/602048.got.cif
#   From: 2010.05.17/outbox.cif.g08.bks.cpg/sg2_302_cif.got.tgz:602048.got - 2010.06.03 11:33:40.
