data_PCOD9057658
_publ_section_title
;
Structure prediction by ZEFSAII (Michael W. Deem and Ramdas Pophale) SiO2 
 PCOD9057658
Probable space group: P -1
;
_chemical_formula_sum "Si O2"
_cell_formula_units_Z 14
_cell_length_a 22.424018
_cell_length_b 21.963415
_cell_length_c 12.112942
_cell_angle_alpha 160.498351
_cell_angle_beta 151.708647
_cell_angle_gamma 18.776549
_cell_volume 637.085356
_symmetry_space_group_name_H-M "P -1"
_symmetry_group_IT_number 2
_symmetry_cell_setting 'triclinic'
loop_
_space_group_symop_operation_xyz
x,y,z
-x,-y,-z
loop_
_atom_site_type_symbol
_atom_site_label
_atom_site_fract_x
_atom_site_fract_y
_atom_site_fract_z
Si Si1 0.575293 0.569570 0.325709
Si Si2 0.448771 0.386314 0.300221
Si Si3 0.739565 0.032371 0.348737
Si Si4 0.162414 0.455538 0.434270
Si Si5 0.787216 0.037661 0.891883
Si Si6 0.460564 0.097970 0.478364
Si Si7 0.055633 0.931063 0.603930
O O1 0.384665 0.864328 0.568079
O O2 0.699819 0.580686 0.482675
O O3 0.500000 0.500000 0.000000
O O4 0.716639 0.306314 0.186876
O O5 0.500000 0.500000 0.500000
O O6 0.574261 0.288880 0.442947
O O7 0.229814 0.610351 0.340331
O O8 0.504863 0.127282 0.912030
O O9 0.895526 0.021413 0.575958
O O10 0.829828 0.757160 0.968140
O O11 0.256938 0.366932 0.559345
O O12 0.959224 0.762877 0.637086
O O13 0.609162 0.096396 0.693562
O O14 0.856339 0.991091 0.052790
O O15 0.500000 0.000000 0.500000
O O16 0.000000 0.000000 0.500000
#
# Coordination Sequence:
#
# PCOD9057658 Si02
#       7
#     2   2   2   2   2   2   2
#     4  12  24  48  75  98 139 186 236 292 350 413
#     4  11  22  43  67  97 143 184 228 278 346 413
#     4  11  25  45  68 102 140 183 232 286 346 415
#     4  11  26  47  70 104 140 184 237 290 350 412
#     4  12  26  46  72 106 140 181 237 291 351 414
#     4  11  26  42  70 103 144 184 228 289 352 415
#     4  12  25  40  71 102 140 185 230 281 347 421
#
# _framework density 21.975078
#
# number of rings (size 3 to 8) (size 9 to 14) (size 15 to 20)
#    0.000    0.571    4.286    3.429    4.000    0.571 
#    0.000    1.429    0.000    0.000    0.000    0.000 
#    0.000    0.000    0.000    0.000    0.000    0.000 
#
# Total GULP energy -78079.422930 kJ/mol
# GULP energy per Si atom -5577.101638 kJ/mol
# Density = 2.192506 g / cm^3
# Si number density = 21.975078 Si / 1000 Ang^3
#
#
#
# Elastic Constant Matrix: (Units=GPa)
#
#
# Indices 1 2 3 4 5 6 
#
# 1 39.6284 -3.7342 -8.0043 5.0248 0.8601 5.3264
# 2 -3.7342 94.0281 13.8579 9.6815 -8.0871 1.4633
# 3 -8.0043 13.8579 53.2878 1.3575 0.2553 4.1243
# 4 5.0248 9.6815 1.3575 41.6195 -8.0391 -5.6710
# 5 0.8601 -8.0871 0.2553 -8.0391 33.9534 2.5340
# 6 5.3264 1.4633 4.1243 -5.6710 2.5340 25.1639
#
#
#
# Elastic Compliance Matrix: (Units=1/GPa)
#
#
# Indices 1 2 3 4 5 6 
#
# 1 0.027978 0.000962 0.004687 -0.005030 -0.001126 -0.007766
# 2 0.000962 0.011537 -0.002711 -0.002440 0.002256 -0.001207
# 3 0.004687 -0.002711 0.020557 -0.001386 -0.000917 -0.004424
# 4 -0.005030 -0.002440 -0.001386 0.027265 0.005488 0.007026
# 5 -0.001126 0.002256 -0.000917 0.005488 0.031449 -0.001673
# 6 -0.007766 -0.001207 -0.004424 0.007026 -0.001673 0.043930
#
#
# Mechanical properties :
#
#
# Convention : Reuss Voigt Hill
#
# Bulk Modulus (GPa) = 15.16331 21.24255 18.20293
# Shear Modulus (GPa) = 27.96070 32.46902 30.21486
#
# Velocity S-wave (km/s) = 3.57092 3.84805 3.71207
# Velocity P-wave (km/s) = 4.89052 5.42503 5.16469
#
# Compressibility (1/GPa) = 0.06594865
#
# Stress axis : x y z
#
# Youngs Moduli (GPa) = 35.74241 86.67790 48.64503
#
# Poissons Ratio (x) = -0.08341 -0.22800
# Poissons Ratio (y) = -0.03439 0.13187
# Poissons Ratio (z) = -0.16752 0.23498
#
# Static dielectric constant tensor:
#      x y z
#    x 1.834110 0.171150 -0.016000 
#    y 0.171150 1.618870 0.015610 
#    z -0.016000 0.015610 1.816670 
# 
# From -- ./inp_files/85043.got.cif
#   From: 2010.05.17/outbox.cif.g08.bks.cpg/sg2_43_cif.got.tgz:85043.got - 2010.06.03 11:33:40.
