data_PCOD9057863
_publ_section_title
;
Structure prediction by ZEFSAII (Michael W. Deem and Ramdas Pophale) SiO2 
 PCOD9057863
Probable space group: P -1
;
_chemical_formula_sum "Si O2"
_cell_formula_units_Z 16
_cell_length_a 7.863688
_cell_length_b 25.703523
_cell_length_c 11.532022
_cell_angle_alpha 149.712952
_cell_angle_beta 39.263892
_cell_angle_gamma 147.471411
_cell_volume 622.879377
_symmetry_space_group_name_H-M "P -1"
_symmetry_group_IT_number 2
_symmetry_cell_setting 'triclinic'
loop_
_space_group_symop_operation_xyz
x,y,z
-x,-y,-z
loop_
_atom_site_type_symbol
_atom_site_label
_atom_site_fract_x
_atom_site_fract_y
_atom_site_fract_z
Si Si1 0.800012 0.316898 0.979847
Si Si2 0.292457 0.627247 0.636286
Si Si3 0.203523 0.418404 0.757616
Si Si4 0.302728 0.037755 0.756094
Si Si5 0.616471 0.671223 0.171606
Si Si6 0.315501 0.976030 0.899750
Si Si7 0.057913 0.696610 0.561192
Si Si8 0.051638 0.788104 0.973065
O O1 0.498202 0.182101 0.902861
O O2 0.874675 0.353022 0.877141
O O3 0.126372 0.331368 0.886315
O O4 0.731547 0.393867 0.253303
O O5 0.620939 0.654443 0.465455
O O6 0.234211 0.732348 0.834377
O O7 0.000000 0.500000 0.500000
O O8 0.131924 0.405656 0.634433
O O9 0.432174 0.547630 0.951512
O O10 0.500000 0.000000 0.500000
O O11 0.326443 0.003970 0.810413
O O12 0.931965 0.993649 0.853723
O O13 0.364139 0.687162 0.404550
O O14 0.809780 0.777782 0.178241
O O15 0.188227 0.832735 0.702901
O O16 0.677038 0.073783 0.940053
O O17 0.900269 0.700885 0.772768
#
# Coordination Sequence:
#
# PCOD9057863 Si02
#       8
#     2   2   2   2   2   2   2   2
#     4  11  23  43  71 102 130 172 229 285 333 400
#     4  11  22  43  72  99 127 176 228 280 334 387
#     4  12  25  43  69 104 135 174 230 278 337 400
#     4  11  24  42  73 102 131 170 227 292 335 388
#     4  11  25  45  66 103 135 180 228 269 341 407
#     4  11  25  47  66 102 136 174 232 275 337 404
#     4  12  28  42  67  96 143 190 215 279 336 400
#     4  11  25  46  70  99 139 179 227 276 337 409
#
# _framework density 25.687158
#
# number of rings (size 3 to 8) (size 9 to 14) (size 15 to 20)
#    0.000    0.750    5.000    3.375    7.000    4.000 
#    0.000    0.000    0.000    0.000    0.000    0.000 
#    0.000    0.000    0.000    0.000    0.000    0.000 
#
# Total GULP energy -89543.855586 kJ/mol
# GULP energy per Si atom -5596.490974 kJ/mol
# Density = 2.562869 g / cm^3
# Si number density = 25.687158 Si / 1000 Ang^3
#
#
#
# Elastic Constant Matrix: (Units=GPa)
#
#
# Indices 1 2 3 4 5 6 
#
# 1 70.4377 5.6375 12.1057 -11.2090 7.3515 -3.6216
# 2 5.6375 80.5170 7.7260 -16.4776 6.8824 -6.2781
# 3 12.1057 7.7260 83.9503 -30.3939 2.5772 -2.0332
# 4 -11.2090 -16.4776 -30.3939 47.7614 -5.2981 5.4962
# 5 7.3515 6.8824 2.5772 -5.2981 40.6184 -2.6240
# 6 -3.6216 -6.2781 -2.0332 5.4962 -2.6240 26.6321
#
#
#
# Elastic Compliance Matrix: (Units=1/GPa)
#
#
# Indices 1 2 3 4 5 6 
#
# 1 0.015086 -0.000179 -0.001224 0.002311 -0.002242 0.001218
# 2 -0.000179 0.013618 0.000528 0.004573 -0.001575 0.002127
# 3 -0.001224 0.000528 0.015619 0.009977 0.000386 -0.000871
# 4 0.002311 0.004573 0.009977 0.030056 0.001845 -0.003867
# 5 -0.002242 -0.001575 0.000386 0.001845 0.025605 0.001495
# 6 0.001218 0.002127 -0.000871 -0.003867 0.001495 0.039095
#
#
# Mechanical properties :
#
#
# Convention : Reuss Voigt Hill
#
# Bulk Modulus (GPa) = 23.48942 31.76038 27.62490
# Shear Modulus (GPa) = 32.25388 36.96475 34.60931
#
# Velocity S-wave (km/s) = 3.54735 3.79758 3.67459
# Velocity P-wave (km/s) = 5.09338 5.62316 5.36481
#
# Compressibility (1/GPa) = 0.04257236
#
# Stress axis : x y z
#
# Youngs Moduli (GPa) = 66.28650 73.43304 64.02432
#
# Poissons Ratio (x) = 0.01316 0.07836
# Poissons Ratio (y) = 0.01188 -0.03380
# Poissons Ratio (z) = 0.08113 -0.03877
#
# Static dielectric constant tensor:
#      x y z
#    x 2.107330 -0.024720 -0.001970 
#    y -0.024720 2.041120 -0.031400 
#    z -0.001970 -0.031400 1.847380 
# 
# From -- ./inp_files/357045.got.cif
#   From: 2010.05.17/outbox.cif.g08.bks.cpg/sg2_179_cif.got.tgz:357045.got - 2010.06.03 11:33:40.
