data_PCOD9057360
_publ_section_title
;
Structure prediction by ZEFSAII (Michael W. Deem and Ramdas Pophale) SiO2 
 PCOD9057360
Probable space group: P -1
;
_chemical_formula_sum "Si O2"
_cell_formula_units_Z 14
_cell_length_a 10.465283
_cell_length_b 13.823406
_cell_length_c 18.793234
_cell_angle_alpha 145.072170
_cell_angle_beta 152.516857
_cell_angle_gamma 37.830185
_cell_volume 697.975545
_symmetry_space_group_name_H-M "P -1"
_symmetry_group_IT_number 2
_symmetry_cell_setting 'triclinic'
loop_
_space_group_symop_operation_xyz
x,y,z
-x,-y,-z
loop_
_atom_site_type_symbol
_atom_site_label
_atom_site_fract_x
_atom_site_fract_y
_atom_site_fract_z
Si Si1 0.688115 0.196008 0.037202
Si Si2 0.246608 0.974514 0.665911
Si Si3 0.829184 0.905108 0.535789
Si Si4 0.930018 0.504106 0.384479
Si Si5 0.760976 0.342490 0.015599
Si Si6 0.678561 0.623848 0.629122
Si Si7 0.202481 0.961686 0.241024
O O1 0.766661 0.201578 0.996248
O O2 0.699547 0.389023 0.186503
O O3 0.939199 0.073162 0.133056
O O4 0.395367 0.131815 0.854227
O O5 0.502597 0.819986 0.671407
O O6 0.091250 0.919538 0.624867
O O7 0.000000 0.000000 0.500000
O O8 0.519675 0.989910 0.399520
O O9 0.838672 0.703061 0.433889
O O10 0.847635 0.994334 0.674530
O O11 0.202967 0.417705 0.417455
O O12 0.000000 0.500000 0.500000
O O13 0.040532 0.410053 0.204569
O O14 0.500000 0.500000 0.000000
O O15 0.769790 0.239059 0.885254
O O16 0.500000 0.500000 0.500000
#
# Coordination Sequence:
#
# PCOD9057360 Si02
#       7
#     2   2   2   2   2   2   2
#     4  11  24  41  69  99 133 178 231 281 337 411
#     4  12  27  44  67 102 139 178 230 293 347 402
#     4  11  25  43  69  97 139 184 227 283 351 409
#     4  11  23  43  70 100 137 181 226 281 342 412
#     4  11  24  42  69  98 136 178 230 279 343 410
#     4  11  24  42  65  97 135 179 227 279 344 397
#     4  11  22  42  68  97 131 179 237 277 336 413
#
# _framework density 20.058011
#
# number of rings (size 3 to 8) (size 9 to 14) (size 15 to 20)
#    0.000    0.857    4.286    3.000    8.000    0.571 
#    2.571    0.000    0.000    5.143    0.000    0.000 
#    0.000    0.000    0.000    0.000    0.000    0.000 
#
# Total GULP energy -78167.095141 kJ/mol
# GULP energy per Si atom -5583.363939 kJ/mol
# Density = 2.001236 g / cm^3
# Si number density = 20.058011 Si / 1000 Ang^3
#
#
#
# Elastic Constant Matrix: (Units=GPa)
#
#
# Indices 1 2 3 4 5 6 
#
# 1 110.5024 42.4817 74.1893 14.8188 0.6674 -16.2672
# 2 42.4817 92.9381 68.5006 4.3663 -3.1797 -14.1956
# 3 74.1893 68.5006 180.9561 8.9337 12.2503 -1.8330
# 4 14.8188 4.3663 8.9337 41.8929 -5.2140 0.7007
# 5 0.6674 -3.1797 12.2503 -5.2140 32.0662 11.3761
# 6 -16.2672 -14.1956 -1.8330 0.7007 11.3761 34.2616
#
#
#
# Elastic Compliance Matrix: (Units=1/GPa)
#
#
# Indices 1 2 3 4 5 6 
#
# 1 0.014597 -0.001957 -0.004858 -0.004235 -0.001632 0.006488
# 2 -0.001957 0.016580 -0.005585 0.000337 0.002124 0.004930
# 3 -0.004858 -0.005585 0.009821 -0.000134 -0.003145 -0.003048
# 4 -0.004235 0.000337 -0.000134 0.026181 0.005992 -0.004403
# 5 -0.001632 0.002124 -0.003145 0.005992 0.038168 -0.012859
# 6 0.006488 0.004930 -0.003048 -0.004403 -0.012859 0.038507
#
#
# Mechanical properties :
#
#
# Convention : Reuss Voigt Hill
#
# Bulk Modulus (GPa) = 61.73686 83.85997 72.79841
# Shear Modulus (GPa) = 28.72695 34.92580 31.82637
#
# Velocity S-wave (km/s) = 3.78854 4.17734 3.98768
# Velocity P-wave (km/s) = 7.06989 8.07257 7.58781
#
# Compressibility (1/GPa) = 0.01619778
#
# Stress axis : x y z
#
# Youngs Moduli (GPa) = 68.50901 60.31211 101.82595
#
# Poissons Ratio (x) = 0.11804 0.49469
# Poissons Ratio (y) = 0.13408 0.56866
# Poissons Ratio (z) = 0.33283 0.33682
#
# Static dielectric constant tensor:
#      x y z
#    x 1.682280 0.010630 -0.013750 
#    y 0.010630 1.762950 -0.004420 
#    z -0.013750 -0.004420 1.738080 
# 
# From -- ./inp_files/204486.got.cif
#   From: 2010.05.17/outbox.cif.g08.bks.cpg/sg2_103_cif.got.tgz:204486.got - 2010.06.03 11:33:40.
