data_PCOD9057437
_publ_section_title
;
Structure prediction by ZEFSAII (Michael W. Deem and Ramdas Pophale) SiO2 
 PCOD9057437
Probable space group: P -1
;
_chemical_formula_sum "Si O2"
_cell_formula_units_Z 16
_cell_length_a 13.552904
_cell_length_b 9.775537
_cell_length_c 15.335675
_cell_angle_alpha 77.297521
_cell_angle_beta 130.776810
_cell_angle_gamma 61.397841
_cell_volume 808.667086
_symmetry_space_group_name_H-M "P -1"
_symmetry_group_IT_number 2
_symmetry_cell_setting 'triclinic'
loop_
_space_group_symop_operation_xyz
x,y,z
-x,-y,-z
loop_
_atom_site_type_symbol
_atom_site_label
_atom_site_fract_x
_atom_site_fract_y
_atom_site_fract_z
Si Si1 0.015657 0.276078 0.985649
Si Si2 0.403205 0.442675 0.989622
Si Si3 0.134595 0.418654 0.499151
Si Si4 0.776040 0.777302 0.716307
Si Si5 0.417583 0.792687 0.164411
Si Si6 0.560906 0.554906 0.784040
Si Si7 0.122701 0.160962 0.410029
Si Si8 0.665305 0.989162 0.097292
O O1 0.916447 0.503449 0.846673
O O2 0.785995 0.405514 0.877071
O O3 0.183534 0.179032 0.175533
O O4 0.176814 0.038608 0.047155
O O5 0.152465 0.639666 0.766840
O O6 0.500000 0.500000 0.000000
O O7 0.377404 0.476809 0.073976
O O8 0.588150 0.150453 0.113437
O O9 0.372719 0.293771 0.668926
O O10 0.182701 0.233558 0.499649
O O11 0.000000 0.500000 0.500000
O O12 0.939212 0.689521 0.297921
O O13 0.874923 0.779524 0.694235
O O14 0.500000 0.000000 0.500000
O O15 0.482764 0.570318 0.237978
O O16 0.378610 0.874918 0.030860
O O17 0.322622 0.860086 0.579844
O O18 0.500000 0.000000 0.000000
#
# Coordination Sequence:
#
# PCOD9057437 Si02
#       8
#     2   2   2   2   2   2   2   2
#     4  11  25  44  72  97 139 179 230 284 336 410
#     4  12  26  46  69 101 140 183 227 278 348 414
#     4  12  25  43  70 103 135 175 233 282 336 400
#     4  11  22  42  70 104 128 173 231 280 337 395
#     4  12  27  45  67 103 139 184 225 279 345 406
#     4  12  27  46  69 101 142 181 227 280 347 414
#     4  12  25  44  72 102 136 179 228 287 341 404
#     4  12  24  45  69  98 138 180 227 283 335 402
#
# _framework density 19.785647000000001
#
# number of rings (size 3 to 8) (size 9 to 14) (size 15 to 20)
#    0.000    0.250    6.250    2.625    3.500    0.500 
#    0.000    0.625    0.000    0.000    0.000    0.000 
#    0.000    0.000    0.000    0.000    0.000    0.000 
#
# Total GULP energy -89525.325914 kJ/mol
# GULP energy per Si atom -5595.332870 kJ/mol
# Density = 1.974061 g / cm^3
# Si number density = 19.785647 Si / 1000 Ang^3
#
#
#
# Elastic Constant Matrix: (Units=GPa)
#
#
# Indices 1 2 3 4 5 6 
#
# 1 93.2352 48.4405 38.2788 -15.8847 -12.5069 10.5883
# 2 48.4405 146.4457 33.9808 -15.5854 -10.7038 8.5655
# 3 38.2788 33.9808 95.7335 -5.9772 -10.4290 10.2365
# 4 -15.8847 -15.5854 -5.9772 27.9678 0.4509 1.6095
# 5 -12.5069 -10.7038 -10.4290 0.4509 27.1432 -0.6418
# 6 10.5883 8.5655 10.2365 1.6095 -0.6418 34.6735
#
#
#
# Elastic Compliance Matrix: (Units=1/GPa)
#
#
# Indices 1 2 3 4 5 6 
#
# 1 0.016137 -0.003174 -0.004091 0.006633 0.004427 -0.003162
# 2 -0.003174 0.008641 -0.001388 0.002744 0.001346 -0.000858
# 3 -0.004091 -0.001388 0.013074 -0.000217 0.002542 -0.002210
# 4 0.006633 0.002744 -0.000217 0.041211 0.003264 -0.004492
# 5 0.004427 0.001346 0.002542 0.003264 0.040291 -0.001841
# 6 -0.003162 -0.000858 -0.002210 -0.004492 -0.001841 0.030845
#
#
# Mechanical properties :
#
#
# Convention : Reuss Voigt Hill
#
# Bulk Modulus (GPa) = 48.67387 64.09053 56.38220
# Shear Modulus (GPa) = 28.67705 32.27119 30.47412
#
# Velocity S-wave (km/s) = 3.81121 4.04300 3.92881
# Velocity P-wave (km/s) = 6.63484 7.36595 7.00993
#
# Compressibility (1/GPa) = 0.02054490
#
# Stress axis : x y z
#
# Youngs Moduli (GPa) = 61.96784 115.72674 76.48703
#
# Poissons Ratio (x) = 0.36733 0.31294
# Poissons Ratio (y) = 0.19669 0.10619
# Poissons Ratio (z) = 0.25353 0.16067
#
# Static dielectric constant tensor:
#      x y z
#    x 1.771850 -0.039580 0.095600 
#    y -0.039580 1.772400 -0.032190 
#    z 0.095600 -0.032190 1.795060 
# 
# From -- ./inp_files/272847.got.cif
#   From: 2010.05.17/outbox.cif.g08.bks.cpg/sg2_137_cif.got.tgz:272847.got - 2010.06.03 11:33:40.
