data_PCOD9057337
_publ_section_title
;
Structure prediction by ZEFSAII (Michael W. Deem and Ramdas Pophale) SiO2 
 PCOD9057337
Probable space group: P -1
;
_chemical_formula_sum "Si O2"
_cell_formula_units_Z 16
_cell_length_a 9.857800
_cell_length_b 14.337830
_cell_length_c 5.188890
_cell_angle_alpha 76.745781
_cell_angle_beta 91.931531
_cell_angle_gamma 109.387754
_cell_volume 672.660161
_symmetry_space_group_name_H-M "P -1"
_symmetry_group_IT_number 2
_symmetry_cell_setting 'triclinic'
loop_
_space_group_symop_operation_xyz
x,y,z
-x,-y,-z
loop_
_atom_site_type_symbol
_atom_site_label
_atom_site_fract_x
_atom_site_fract_y
_atom_site_fract_z
Si Si1 0.922548 0.293406 0.707952
Si Si2 0.060478 0.410781 0.136480
Si Si3 0.895497 0.117637 0.478678
Si Si4 0.602287 0.870027 0.127159
Si Si5 0.385954 0.683460 0.434324
Si Si6 0.887045 0.921113 0.852049
Si Si7 0.607922 0.072064 0.256371
Si Si8 0.618981 0.449273 0.978350
O O1 0.930735 0.184611 0.694104
O O2 0.760578 0.295335 0.666818
O O3 0.012109 0.369530 0.443990
O O4 0.990553 0.327357 0.967630
O O5 0.230847 0.459776 0.101590
O O6 0.000000 0.500000 0.000000
O O7 0.760318 0.139654 0.332379
O O8 0.030731 0.133121 0.292503
O O9 0.838994 0.997838 0.615405
O O10 0.521429 0.788233 0.387133
O O11 0.642015 0.989294 0.126525
O O12 0.745583 0.855343 0.035833
O O13 0.475427 0.860747 0.921508
O O14 0.367508 0.622052 0.738041
O O15 0.413684 0.615836 0.245226
O O16 0.000000 0.000000 0.000000
O O17 0.500000 0.000000 0.500000
O O18 0.500000 0.500000 0.000000
#
# Coordination Sequence:
#
# PCOD9057337 Si02
#       8
#     2   2   2   2   2   2   2   2
#     4  12  26  44  80 113 139 183 257 307 347 440
#     4  12  24  49  78 106 143 188 236 302 382 432
#     4  11  26  42  71 102 142 195 242 302 355 421
#     4  11  26  40  72 104 141 195 241 295 362 425
#     4  12  26  46  78 109 148 183 252 308 352 449
#     4  11  24  48  65  96 154 196 236 293 361 427
#     4  11  22  42  68 101 144 189 238 292 362 424
#     4  12  28  52  75 107 149 192 233 304 388 444
#
# _framework density 23.786158
#
# number of rings (size 3 to 8) (size 9 to 14) (size 15 to 20)
#    0.000    0.500    5.000    2.250    8.750    1.000 
#    2.250    0.000    0.000    0.000    0.000    0.000 
#    0.000    0.000    0.000    0.000    0.000    0.000 
#
# Total GULP energy -89674.485170 kJ/mol
# GULP energy per Si atom -5604.655323 kJ/mol
# Density = 2.373202 g / cm^3
# Si number density = 23.786158 Si / 1000 Ang^3
#
#
#
# Elastic Constant Matrix: (Units=GPa)
#
#
# Indices 1 2 3 4 5 6 
#
# 1 123.6072 27.4005 5.3406 -3.2130 -29.2355 10.9626
# 2 27.4005 91.4731 9.9085 9.6320 -14.3755 -2.4919
# 3 5.3406 9.9085 74.0461 -8.5149 -16.0562 5.8988
# 4 -3.2130 9.6320 -8.5149 55.4617 4.5422 -15.1360
# 5 -29.2355 -14.3755 -16.0562 4.5422 43.6377 -2.7789
# 6 10.9626 -2.4919 5.8988 -15.1360 -2.7789 39.2375
#
#
#
# Elastic Compliance Matrix: (Units=1/GPa)
#
#
# Indices 1 2 3 4 5 6 
#
# 1 0.010305 -0.002267 0.001161 -0.000118 0.006419 -0.002788
# 2 -0.002267 0.012413 -0.001329 -0.002457 0.002391 0.000843
# 3 0.001161 -0.001329 0.015147 0.001719 0.005631 -0.001624
# 4 -0.000118 -0.002457 0.001719 0.020936 -0.001954 0.007556
# 5 0.006419 0.002391 0.005631 -0.001954 0.030209 -0.001102
# 6 -0.002788 0.000843 -0.001624 0.007556 -0.001102 0.029399
#
#
# Mechanical properties :
#
#
# Convention : Reuss Voigt Hill
#
# Bulk Modulus (GPa) = 30.30874 41.60287 35.95580
# Shear Modulus (GPa) = 37.23601 44.09916 40.66758
#
# Velocity S-wave (km/s) = 3.96087 4.31046 4.13936
# Velocity P-wave (km/s) = 5.80412 6.50398 6.16399
#
# Compressibility (1/GPa) = 0.03299378
#
# Stress axis : x y z
#
# Youngs Moduli (GPa) = 97.04014 80.56304 66.01857
#
# Poissons Ratio (x) = 0.18267 -0.07662
# Poissons Ratio (y) = 0.22003 0.08772
# Poissons Ratio (z) = -0.11262 0.10705
#
# Static dielectric constant tensor:
#      x y z
#    x 1.824630 -0.055520 0.033660 
#    y -0.055520 1.865960 0.037930 
#    z 0.033660 0.037930 1.941700 
# 
# From -- ./inp_files/38058.got.cif
#   From: 2010.05.17/outbox.cif.g08.bks.cpg/sg2_20_cif.got.tgz:38058.got - 2010.06.03 11:33:40.
