data_PCOD9057359
_publ_section_title
;
Structure prediction by ZEFSAII (Michael W. Deem and Ramdas Pophale) SiO2 
 PCOD9057359
Probable space group: P -1
;
_chemical_formula_sum "Si O2"
_cell_formula_units_Z 16
_cell_length_a 8.227478
_cell_length_b 13.685036
_cell_length_c 11.898571
_cell_angle_alpha 147.608650
_cell_angle_beta 117.073046
_cell_angle_gamma 71.461312
_cell_volume 632.822667
_symmetry_space_group_name_H-M "P -1"
_symmetry_group_IT_number 2
_symmetry_cell_setting 'triclinic'
loop_
_space_group_symop_operation_xyz
x,y,z
-x,-y,-z
loop_
_atom_site_type_symbol
_atom_site_label
_atom_site_fract_x
_atom_site_fract_y
_atom_site_fract_z
Si Si1 0.559024 0.710059 0.682926
Si Si2 0.903274 0.671269 0.592400
Si Si3 0.784291 0.436740 0.894860
Si Si4 0.174651 0.622426 0.885761
Si Si5 0.301067 0.989416 0.786936
Si Si6 0.588891 0.747174 0.109882
Si Si7 0.435439 0.165902 0.569663
Si Si8 0.952621 0.003441 0.809214
O O1 0.500000 0.500000 0.500000
O O2 0.723701 0.699112 0.634536
O O3 0.395058 0.811437 0.677278
O O4 0.628150 0.846552 0.941723
O O5 0.865725 0.584156 0.371784
O O6 0.018329 0.870855 0.797555
O O7 0.000000 0.500000 0.500000
O O8 0.602768 0.280906 0.668038
O O9 0.804893 0.385096 0.982779
O O10 0.706606 0.598144 0.956950
O O11 0.000000 0.500000 0.000000
O O12 0.374592 0.694045 0.967382
O O13 0.046008 0.777065 0.962283
O O14 0.081293 0.966806 0.710086
O O15 0.349295 0.063907 0.750127
O O16 0.621562 0.721873 0.229731
O O17 0.260500 0.075813 0.356721
O O18 0.500000 0.000000 0.500000
#
# Coordination Sequence:
#
# PCOD9057359 Si02
#       8
#     2   2   2   2   2   2   2   2
#     4  11  25  48  72 100 144 184 241 308 363 424
#     4  12  26  43  70 103 135 189 238 293 365 432
#     4  11  23  43  70 102 138 188 237 296 355 428
#     4  11  23  45  68 100 143 186 234 291 356 427
#     4  11  26  45  70 108 140 188 243 300 363 427
#     4  11  22  42  68  96 138 182 232 290 353 420
#     4  11  23  44  68 101 143 183 236 288 357 431
#     4  12  24  45  70 102 145 185 240 297 358 432
#
# _framework density 25.283546000000001
#
# number of rings (size 3 to 8) (size 9 to 14) (size 15 to 20)
#    0.000    0.750    2.500    6.750    0.000    4.500 
#    2.250    0.000    0.000    0.000    0.000    0.000 
#    0.000    0.000    0.000    0.000    0.000    0.000 
#
# Total GULP energy -89239.360915 kJ/mol
# GULP energy per Si atom -5577.460057 kJ/mol
# Density = 2.522600 g / cm^3
# Si number density = 25.283546 Si / 1000 Ang^3
#
#
#
# Elastic Constant Matrix: (Units=GPa)
#
#
# Indices 1 2 3 4 5 6 
#
# 1 134.3133 37.8022 25.5315 24.5404 25.0600 -19.5448
# 2 37.8022 121.3933 32.0650 44.5424 -11.3709 -15.2035
# 3 25.5315 32.0650 104.0554 22.5045 -2.0410 -2.3839
# 4 24.5404 44.5424 22.5045 52.8339 -1.7880 -6.8890
# 5 25.0600 -11.3709 -2.0410 -1.7880 36.8257 7.9222
# 6 -19.5448 -15.2035 -2.3839 -6.8890 7.9222 45.1978
#
#
#
# Elastic Compliance Matrix: (Units=1/GPa)
#
#
# Indices 1 2 3 4 5 6 
#
# 1 0.011553 -0.002672 -0.001642 -0.002042 -0.010052 0.005461
# 2 -0.002672 0.013410 -0.001367 -0.009179 0.005230 0.000967
# 3 -0.001642 -0.001367 0.011064 -0.002916 0.001443 -0.001283
# 4 -0.002042 -0.009179 -0.002916 0.028890 -0.000274 0.000327
# 5 -0.010052 0.005230 0.001443 -0.000274 0.037645 -0.009152
# 6 0.005461 0.000967 -0.001283 0.000327 -0.009152 0.026398
#
#
# Mechanical properties :
#
#
# Convention : Reuss Voigt Hill
#
# Bulk Modulus (GPa) = 40.54288 61.17326 50.85807
# Shear Modulus (GPa) = 33.66054 44.59569 39.12811
#
# Velocity S-wave (km/s) = 3.65269 4.20434 3.93819
# Velocity P-wave (km/s) = 5.81890 6.91492 6.39045
#
# Compressibility (1/GPa) = 0.02466525
#
# Stress axis : x y z
#
# Youngs Moduli (GPa) = 86.56108 74.57220 90.38448
#
# Poissons Ratio (x) = 0.19927 0.14837
# Poissons Ratio (y) = 0.23131 0.12353
# Poissons Ratio (z) = 0.14209 0.10192
#
# Static dielectric constant tensor:
#      x y z
#    x 2.103130 0.008120 -0.088310 
#    y 0.008120 2.038330 -0.073440 
#    z -0.088310 -0.073440 1.961900 
# 
# From -- ./inp_files/505948.got.cif
#   From: 2010.05.17/outbox.cif.g08.bks.cpg/sg2_253_cif.got.tgz:505948.got - 2010.06.03 11:33:40.
