data_PCOD9057085
_publ_section_title
;
Structure prediction by ZEFSAII (Michael W. Deem and Ramdas Pophale) SiO2 
 PCOD9057085
Probable space group: P -1
;
_chemical_formula_sum "Si O2"
_cell_formula_units_Z 14
_cell_length_a 12.291627
_cell_length_b 8.841069
_cell_length_c 8.832900
_cell_angle_alpha 58.304138
_cell_angle_beta 108.306009
_cell_angle_gamma 70.634854
_cell_volume 611.541762
_symmetry_space_group_name_H-M "P -1"
_symmetry_group_IT_number 2
_symmetry_cell_setting 'triclinic'
loop_
_space_group_symop_operation_xyz
x,y,z
-x,-y,-z
loop_
_atom_site_type_symbol
_atom_site_label
_atom_site_fract_x
_atom_site_fract_y
_atom_site_fract_z
Si Si1 0.895934 0.603276 0.757860
Si Si2 0.361115 0.896162 0.644798
Si Si3 0.107653 0.956600 0.702897
Si Si4 0.593657 0.883143 0.949376
Si Si5 0.139567 0.765575 0.130776
Si Si6 0.083252 0.563121 0.601067
Si Si7 0.389928 0.742249 0.402272
O O1 0.867711 0.440417 0.753448
O O2 0.995460 0.630669 0.682576
O O3 0.741787 0.842637 0.592135
O O4 0.000000 0.500000 0.000000
O O5 0.500209 0.842794 0.820802
O O6 0.402882 0.753310 0.583946
O O7 0.253247 0.896605 0.715871
O O8 0.987282 0.189155 0.619186
O O9 0.000000 0.000000 0.500000
O O10 0.164482 0.773397 0.956589
O O11 0.611409 0.059853 0.781961
O O12 0.748940 0.645956 0.188716
O O13 0.500000 0.000000 0.000000
O O14 0.249967 0.764657 0.285248
O O15 0.000000 0.000000 0.000000
O O16 0.000000 0.500000 0.500000
O O17 0.500000 0.500000 0.500000
#
# Coordination Sequence:
#
# PCOD9057085 Si02
#       7
#     2   2   2   2   2   2   2
#     4  11  22  41  69  97 129 176 226 275 335 406
#     4  11  25  46  68  97 135 181 232 281 341 417
#     4  11  24  42  67  98 131 171 225 283 336 396
#     4  12  25  45  69  98 137 181 225 278 343 418
#     4  12  23  41  67 101 137 173 222 286 342 397
#     4  11  23  42  66  94 128 173 219 266 330 406
#     4  12  27  45  66  97 135 177 225 285 348 406
#
# _framework density 22.892958
#
# number of rings (size 3 to 8) (size 9 to 14) (size 15 to 20)
#    0.000    0.571    0.000   10.714    0.000    4.571 
#    0.000    2.143    0.000    0.000    0.000    0.000 
#    0.000    0.000    0.000    0.000    0.000    0.000 
#
# Total GULP energy -78052.530441 kJ/mol
# GULP energy per Si atom -5575.180746 kJ/mol
# Density = 2.284085 g / cm^3
# Si number density = 22.892958 Si / 1000 Ang^3
#
#
#
# Elastic Constant Matrix: (Units=GPa)
#
#
# Indices 1 2 3 4 5 6 
#
# 1 126.5243 53.8454 50.4999 -1.3467 15.1528 7.8351
# 2 53.8454 148.3788 43.6217 8.9890 18.2391 -0.7434
# 3 50.4999 43.6217 96.5888 11.4109 24.2313 -5.9493
# 4 -1.3467 8.9890 11.4109 48.7361 0.4045 12.2352
# 5 15.1528 18.2391 24.2313 0.4045 65.5343 3.4276
# 6 7.8351 -0.7434 -5.9493 12.2352 3.4276 43.5396
#
#
#
# Elastic Compliance Matrix: (Units=1/GPa)
#
#
# Indices 1 2 3 4 5 6 
#
# 1 0.011484 -0.002821 -0.005394 0.003034 0.000300 -0.003728
# 2 -0.002821 0.008541 -0.001894 -0.001421 -0.001062 0.000878
# 3 -0.005394 -0.001894 0.015971 -0.004704 -0.004352 0.004785
# 4 0.003034 -0.001421 -0.004704 0.023982 0.001708 -0.008087
# 5 0.000300 -0.001062 -0.004352 0.001708 0.017215 -0.002502
# 6 -0.003728 0.000878 0.004785 -0.008087 -0.002502 0.026777
#
#
# Mechanical properties :
#
#
# Convention : Reuss Voigt Hill
#
# Bulk Modulus (GPa) = 63.37757 74.15843 68.76800
# Shear Modulus (GPa) = 38.62582 46.46366 42.54474
#
# Velocity S-wave (km/s) = 4.11205 4.51000 4.31562
# Velocity P-wave (km/s) = 7.09152 7.71907 7.41194
#
# Compressibility (1/GPa) = 0.01577845
#
# Stress axis : x y z
#
# Youngs Moduli (GPa) = 87.07601 117.08031 62.61415
#
# Poissons Ratio (x) = 0.33032 0.33772
# Poissons Ratio (y) = 0.24567 0.11859
# Poissons Ratio (z) = 0.46965 0.22175
#
# Static dielectric constant tensor:
#      x y z
#    x 1.919870 0.060530 -0.092010 
#    y 0.060530 1.875780 -0.106660 
#    z -0.092010 -0.106660 1.738190 
# 
# From -- ./inp_files/156811.got.cif
#   From: 2010.05.17/outbox.cif.g08.bks.cpg/sg2_79_cif.got.tgz:156811.got - 2010.06.03 11:33:40.
