data_PCOD9057544
_publ_section_title
;
Structure prediction by ZEFSAII (Michael W. Deem and Ramdas Pophale) SiO2 
 PCOD9057544
Probable space group: P -1
;
_chemical_formula_sum "Si O2"
_cell_formula_units_Z 12
_cell_length_a 8.880763
_cell_length_b 7.060272
_cell_length_c 17.357136
_cell_angle_alpha 114.085879
_cell_angle_beta 150.857945
_cell_angle_gamma 57.098192
_cell_volume 439.075756
_symmetry_space_group_name_H-M "P -1"
_symmetry_group_IT_number 2
_symmetry_cell_setting 'triclinic'
loop_
_space_group_symop_operation_xyz
x,y,z
-x,-y,-z
loop_
_atom_site_type_symbol
_atom_site_label
_atom_site_fract_x
_atom_site_fract_y
_atom_site_fract_z
Si Si1 0.646936 0.655317 0.635480
Si Si2 0.199978 0.704165 0.227955
Si Si3 0.607404 0.099119 0.870767
Si Si4 0.508459 0.659578 0.811812
Si Si5 0.263296 0.775729 0.888963
Si Si6 0.765810 0.821620 0.440389
O O1 0.500000 0.500000 0.500000
O O2 0.786072 0.499562 0.746455
O O3 0.151592 0.690605 0.617075
O O4 0.350661 0.905235 0.560782
O O5 0.222044 0.588164 0.135920
O O6 0.530703 0.760295 0.385173
O O7 0.900037 0.948247 0.150379
O O8 0.545781 0.882139 0.835065
O O9 0.346605 0.210883 0.702024
O O10 0.572426 0.251199 0.956926
O O11 0.000000 0.000000 0.000000
O O12 0.476567 0.669638 0.890939
O O13 0.948483 0.704598 0.741640
#
# Coordination Sequence:
#
# PCOD9057544 Si02
#       6
#     2   2   2   2   2   2
#     4  11  22  42  73 107 145 190 239 296 364 425
#     4  11  23  45  75 104 148 191 238 299 369 419
#     4  12  23  50  74 103 154 196 231 308 374 423
#     4  12  25  46  78 108 144 195 248 296 364 434
#     4  11  26  49  71 111 151 186 246 305 356 439
#     4  11  24  46  75 108 146 190 245 304 355 432
#
# _framework density 27.330133
#
# number of rings (size 3 to 8) (size 9 to 14) (size 15 to 20)
#    0.000    0.667    5.000    3.500    0.000    3.333 
#    6.000    0.833    0.000    0.000    0.000    0.000 
#    0.000    0.000    0.000    0.000    0.000    0.000 
#
# Total GULP energy -67364.598958 kJ/mol
# GULP energy per Si atom -5613.716580 kJ/mol
# Density = 2.726793 g / cm^3
# Si number density = 27.330133 Si / 1000 Ang^3
#
#
#
# Elastic Constant Matrix: (Units=GPa)
#
#
# Indices 1 2 3 4 5 6 
#
# 1 122.4382 40.1425 20.3393 14.0042 -14.8246 18.1832
# 2 40.1425 156.3460 26.7227 10.7266 -21.8331 8.3478
# 3 20.3393 26.7227 159.2437 14.5613 -6.8238 -8.5336
# 4 14.0042 10.7266 14.5613 59.9810 -1.9956 -8.1645
# 5 -14.8246 -21.8331 -6.8238 -1.9956 51.7087 17.8779
# 6 18.1832 8.3478 -8.5336 -8.1645 17.8779 53.4503
#
#
#
# Elastic Compliance Matrix: (Units=1/GPa)
#
#
# Indices 1 2 3 4 5 6 
#
# 1 0.010328 -0.001507 -0.000947 -0.002478 0.003868 -0.005101
# 2 -0.001507 0.007589 -0.000964 -0.000944 0.003329 -0.002084
# 3 -0.000947 -0.000964 0.006724 -0.001046 -0.000352 0.001504
# 4 -0.002478 -0.000944 -0.001046 0.018188 -0.002024 0.004279
# 5 0.003868 0.003329 -0.000352 -0.002024 0.025431 -0.010707
# 6 -0.005101 -0.002084 0.001504 0.004279 -0.010707 0.025245
#
#
# Mechanical properties :
#
#
# Convention : Reuss Voigt Hill
#
# Bulk Modulus (GPa) = 56.16767 68.04853 62.10810
# Shear Modulus (GPa) = 47.04741 56.41623 51.73182
#
# Velocity S-wave (km/s) = 4.15354 4.54833 4.35541
# Velocity P-wave (km/s) = 6.60293 7.24816 6.93305
#
# Compressibility (1/GPa) = 0.01780384
#
# Stress axis : x y z
#
# Youngs Moduli (GPa) = 96.82160 131.77445 148.73129
#
# Poissons Ratio (x) = 0.19864 0.14089
# Poissons Ratio (y) = 0.14595 0.14332
# Poissons Ratio (z) = 0.09172 0.12698
#
# Static dielectric constant tensor:
#      x y z
#    x 2.276300 0.009910 -0.049760 
#    y 0.009910 2.075870 -0.012970 
#    z -0.049760 -0.012970 2.189350 
# 
# From -- ./inp_files/197095.got.cif
#   From: 2010.05.17/outbox.cif.g08.bks.cpg/sg2_99_cif.got.tgz:197095.got - 2010.06.03 11:33:40.
