data_PCOD9057384
_publ_section_title
;
Structure prediction by ZEFSAII (Michael W. Deem and Ramdas Pophale) SiO2 
 PCOD9057384
Probable space group: P -1
;
_chemical_formula_sum "Si O2"
_cell_formula_units_Z 16
_cell_length_a 22.406266
_cell_length_b 5.219620
_cell_length_c 9.645623
_cell_angle_alpha 73.596587
_cell_angle_beta 119.750321
_cell_angle_gamma 130.480989
_cell_volume 743.595823
_symmetry_space_group_name_H-M "P -1"
_symmetry_group_IT_number 2
_symmetry_cell_setting 'triclinic'
loop_
_space_group_symop_operation_xyz
x,y,z
-x,-y,-z
loop_
_atom_site_type_symbol
_atom_site_label
_atom_site_fract_x
_atom_site_fract_y
_atom_site_fract_z
Si Si1 0.288697 0.440567 0.126770
Si Si2 0.948417 0.597579 0.009642
Si Si3 0.602686 0.235972 0.068230
Si Si4 0.700516 0.932256 0.242785
Si Si5 0.839282 0.667850 0.221738
Si Si6 0.001599 0.282050 0.653686
Si Si7 0.803870 0.728408 0.491099
Si Si8 0.753268 0.231829 0.740171
O O1 0.284446 0.653719 0.207027
O O2 0.293776 0.162513 0.242900
O O3 0.364285 0.668787 0.066955
O O4 0.200263 0.251052 0.959917
O O5 0.950126 0.510257 0.184335
O O6 0.852984 0.415761 0.869728
O O7 0.000000 0.500000 0.000000
O O8 0.000000 0.000000 0.000000
O O9 0.645224 0.589362 0.142203
O O10 0.640938 0.043501 0.196405
O O11 0.500000 0.000000 0.000000
O O12 0.748750 0.867856 0.423079
O O13 0.781169 0.258534 0.203450
O O14 0.940076 0.831644 0.307323
O O15 0.816024 0.711196 0.342748
O O16 0.000000 0.500000 0.500000
O O17 0.901967 0.985266 0.619601
O O18 0.756624 0.382670 0.572361
#
# Coordination Sequence:
#
# PCOD9057384 Si02
#       8
#     2   2   2   2   2   2   2   2
#     4  11  24  44  70  98 129 172 224 284 332 399
#     4  12  27  45  59  88 134 186 239 281 325 382
#     4  11  24  45  78 109 132 164 219 285 353 416
#     4  11  22  42  69 103 135 171 220 278 341 407
#     4  11  24  43  66  96 139 181 239 288 331 385
#     4  12  26  39  65  99 136 189 244 293 327 381
#     4  12  26  42  65  99 143 192 227 278 347 392
#     4  12  27  42  67  93 141 185 230 273 338 403
#
# _framework density 21.517063
#
# number of rings (size 3 to 8) (size 9 to 14) (size 15 to 20)
#    0.000    0.500    6.250    3.000    5.250    0.000 
#    0.000    0.000    0.000    4.500    0.000    0.000 
#    0.000    0.000    0.000    0.000    0.000    0.000 
#
# Total GULP energy -89529.219100 kJ/mol
# GULP energy per Si atom -5595.576194 kJ/mol
# Density = 2.146809 g / cm^3
# Si number density = 21.517063 Si / 1000 Ang^3
#
#
#
# Elastic Constant Matrix: (Units=GPa)
#
#
# Indices 1 2 3 4 5 6 
#
# 1 137.7863 49.1909 28.5694 -4.5222 21.6470 -8.1521
# 2 49.1909 92.3322 11.9571 -11.6810 21.3766 -14.7392
# 3 28.5694 11.9571 78.6468 -29.0083 8.2903 -8.2333
# 4 -4.5222 -11.6810 -29.0083 44.3202 -4.4863 5.5576
# 5 21.6470 21.3766 8.2903 -4.4863 31.4163 6.9794
# 6 -8.1521 -14.7392 -8.2333 5.5576 6.9794 41.9834
#
#
#
# Elastic Compliance Matrix: (Units=1/GPa)
#
#
# Indices 1 2 3 4 5 6 
#
# 1 0.010064 -0.004309 -0.003628 -0.002941 -0.003625 0.000722
# 2 -0.004309 0.016632 0.002039 0.003455 -0.009855 0.006583
# 3 -0.003628 0.002039 0.018609 0.011755 -0.002687 0.002551
# 4 -0.002941 0.003455 0.011755 0.031179 0.001337 -0.001402
# 5 -0.003625 -0.009855 -0.002687 0.001337 0.044665 -0.012293
# 6 0.000722 0.006583 0.002551 -0.001402 -0.012293 0.029000
#
#
# Mechanical properties :
#
#
# Convention : Reuss Voigt Hill
#
# Bulk Modulus (GPa) = 29.84254 54.24447 42.04351
# Shear Modulus (GPa) = 28.88280 38.14717 33.51499
#
# Velocity S-wave (km/s) = 3.66774 4.21513 3.95093
# Velocity P-wave (km/s) = 5.64232 6.99674 6.35572
#
# Compressibility (1/GPa) = 0.03350921
#
# Stress axis : x y z
#
# Youngs Moduli (GPa) = 99.36383 60.12594 53.73741
#
# Poissons Ratio (x) = 0.25911 0.19494
# Poissons Ratio (y) = 0.42820 -0.10959
# Poissons Ratio (z) = 0.36046 -0.12261
#
# Static dielectric constant tensor:
#      x y z
#    x 1.727480 0.060180 -0.019470 
#    y 0.060180 1.678700 -0.002220 
#    z -0.019470 -0.002220 1.811020 
# 
# From -- ./inp_files/350999.got.cif
#   From: 2010.05.17/outbox.cif.g08.bks.cpg/sg2_176_cif.got.tgz:350999.got - 2010.06.03 11:33:40.
