data_PCOD9057860
_publ_section_title
;
Structure prediction by ZEFSAII (Michael W. Deem and Ramdas Pophale) SiO2 
 PCOD9057860
Probable space group: P -1
;
_chemical_formula_sum "Si O2"
_cell_formula_units_Z 16
_cell_length_a 8.230872
_cell_length_b 14.786271
_cell_length_c 9.124223
_cell_angle_alpha 39.559120
_cell_angle_beta 67.059722
_cell_angle_gamma 77.451711
_cell_volume 644.693705
_symmetry_space_group_name_H-M "P -1"
_symmetry_group_IT_number 2
_symmetry_cell_setting 'triclinic'
loop_
_space_group_symop_operation_xyz
x,y,z
-x,-y,-z
loop_
_atom_site_type_symbol
_atom_site_label
_atom_site_fract_x
_atom_site_fract_y
_atom_site_fract_z
Si Si1 0.045249 0.210024 0.448495
Si Si2 0.891786 0.929420 0.762655
Si Si3 0.300144 0.760655 0.991655
Si Si4 0.298994 0.713530 0.709090
Si Si5 0.632035 0.586659 0.063168
Si Si6 0.952147 0.633031 0.462403
Si Si7 0.495433 0.993349 0.188208
Si Si8 0.165761 0.400551 0.745388
O O1 0.873749 0.266730 0.357477
O O2 0.087996 0.264550 0.526962
O O3 0.985127 0.040738 0.708328
O O4 0.216477 0.282534 0.206347
O O5 0.690162 0.950003 0.784947
O O6 0.892750 0.765515 0.996074
O O7 0.000000 0.000000 0.500000
O O8 0.266726 0.768859 0.817149
O O9 0.370045 0.906166 0.877717
O O10 0.454124 0.657644 0.057549
O O11 0.128836 0.694962 0.230485
O O12 0.347987 0.551983 0.873163
O O13 0.464699 0.826576 0.451590
O O14 0.686302 0.541175 0.263821
O O15 0.007281 0.495717 0.698362
O O16 0.797314 0.596760 0.444083
O O17 0.500000 0.000000 0.000000
#
# Coordination Sequence:
#
# PCOD9057860 Si02
#       8
#     2   2   2   2   2   2   2   2
#     4  11  23  45  70  99 132 178 229 276 331 402
#     4  11  22  43  72  98 129 182 227 271 334 403
#     4  12  25  46  66 103 136 178 223 279 341 400
#     4  11  25  43  72  96 137 183 226 272 336 410
#     4  12  24  44  71  99 136 177 228 280 334 398
#     4  11  27  43  70 102 134 178 224 281 339 398
#     4  11  25  45  67 101 137 178 221 278 345 397
#     4  11  24  46  70  99 135 179 226 276 337 404
#
# _framework density 24.817988
#
# number of rings (size 3 to 8) (size 9 to 14) (size 15 to 20)
#    0.000    0.750    3.750    3.375    5.250    2.000 
#    4.500    0.000    0.000    0.000    0.000    0.000 
#    0.000    0.000    0.000    0.000    0.000    0.000 
#
# Total GULP energy -89359.173333 kJ/mol
# GULP energy per Si atom -5584.948333 kJ/mol
# Density = 2.476150 g / cm^3
# Si number density = 24.817988 Si / 1000 Ang^3
#
#
#
# Elastic Constant Matrix: (Units=GPa)
#
#
# Indices 1 2 3 4 5 6 
#
# 1 73.7114 21.0063 21.5622 16.7122 -5.6491 8.3033
# 2 21.0063 90.6417 0.6142 2.6745 8.6465 34.4527
# 3 21.5622 0.6142 75.7562 -18.4165 -8.6174 6.7284
# 4 16.7122 2.6745 -18.4165 52.5942 13.4255 4.0929
# 5 -5.6491 8.6465 -8.6174 13.4255 34.1266 2.2097
# 6 8.3033 34.4527 6.7284 4.0929 2.2097 43.2736
#
#
#
# Elastic Compliance Matrix: (Units=1/GPa)
#
#
# Indices 1 2 3 4 5 6 
#
# 1 0.020268 -0.006067 -0.007818 -0.010880 0.007015 0.002828
# 2 -0.006067 0.018115 0.003312 0.004707 -0.005708 -0.013927
# 3 -0.007818 0.003312 0.017955 0.009206 -0.000913 -0.004753
# 4 -0.010880 0.004707 0.009206 0.028842 -0.011678 -0.005223
# 5 0.007015 -0.005708 -0.000913 -0.011678 0.036105 0.002601
# 6 0.002828 -0.013927 -0.004753 -0.005223 0.002601 0.034755
#
#
# Mechanical properties :
#
#
# Convention : Reuss Voigt Hill
#
# Bulk Modulus (GPa) = 28.41520 36.27496 32.34508
# Shear Modulus (GPa) = 26.46660 39.12734 32.79697
#
# Velocity S-wave (km/s) = 3.26916 3.97491 3.63919
# Velocity P-wave (km/s) = 5.07190 5.97618 5.54251
#
# Compressibility (1/GPa) = 0.03519243
#
# Stress axis : x y z
#
# Youngs Moduli (GPa) = 49.33815 55.20151 55.69569
#
# Poissons Ratio (x) = 0.33492 0.43542
# Poissons Ratio (y) = 0.29935 -0.18447
# Poissons Ratio (z) = 0.38572 -0.18283
#
# Static dielectric constant tensor:
#      x y z
#    x 1.817210 -0.621590 0.147630 
#    y -0.621590 -0.464540 0.464730 
#    z 0.147630 0.464730 1.913660 
# 
# From -- ./inp_files/205093.got.cif
#   From: 2010.05.17/outbox.cif.g08.bks.cpg/sg2_103_cif.got.tgz:205093.got - 2010.06.03 11:33:40.
