data_PCOD9057202
_publ_section_title
;
Structure prediction by ZEFSAII (Michael W. Deem and Ramdas Pophale) SiO2 
 PCOD9057202
Probable space group: P -1
;
_chemical_formula_sum "Si O2"
_cell_formula_units_Z 16
_cell_length_a 8.543618
_cell_length_b 11.652220
_cell_length_c 13.881666
_cell_angle_alpha 127.594239
_cell_angle_beta 41.785712
_cell_angle_gamma 126.303188
_cell_volume 704.588598
_symmetry_space_group_name_H-M "P -1"
_symmetry_group_IT_number 2
_symmetry_cell_setting 'triclinic'
loop_
_space_group_symop_operation_xyz
x,y,z
-x,-y,-z
loop_
_atom_site_type_symbol
_atom_site_label
_atom_site_fract_x
_atom_site_fract_y
_atom_site_fract_z
Si Si1 0.122885 0.400674 0.175777
Si Si2 0.647680 0.266133 0.722212
Si Si3 0.508179 0.139126 0.180717
Si Si4 0.676917 0.797552 0.344297
Si Si5 0.415149 0.636064 0.562272
Si Si6 0.259624 0.102759 0.972074
Si Si7 0.047781 0.653103 0.997186
Si Si8 0.977815 0.075423 0.446031
O O1 0.313846 0.560680 0.180458
O O2 0.872978 0.407637 0.345942
O O3 0.055458 0.372221 0.078122
O O4 0.208065 0.260081 0.106555
O O5 0.529755 0.233143 0.655717
O O6 0.464698 0.156284 0.822900
O O7 0.905927 0.227051 0.581784
O O8 0.544472 0.223660 0.311117
O O9 0.668575 0.261177 0.097831
O O10 0.219621 0.094548 0.282045
O O11 0.627666 0.998906 0.060242
O O12 0.577477 0.688318 0.421948
O O13 0.759058 0.964614 0.432728
O O14 0.907370 0.757624 0.169613
O O15 0.500000 0.500000 0.500000
O O16 0.000000 0.000000 0.000000
O O17 0.000000 0.500000 0.000000
O O18 0.000000 0.000000 0.500000
#
# Coordination Sequence:
#
# PCOD9057202 Si02
#       8
#     2   2   2   2   2   2   2   2
#     4  11  25  45  74 102 146 203 235 293 375 435
#     4  12  26  46  72 108 148 189 249 300 363 438
#     4  11  23  45  72 106 140 197 240 295 367 439
#     4  12  25  45  70 108 144 187 244 311 358 421
#     4  11  22  41  73 101 142 190 243 294 364 435
#     4  12  21  43  74 102 143 187 244 287 364 441
#     4  11  25  43  71 108 149 183 243 306 367 425
#     4  12  25  44  75 105 143 193 242 299 369 433
#
# _framework density 22.708289000000001
#
# number of rings (size 3 to 8) (size 9 to 14) (size 15 to 20)
#    0.000    0.500    6.250    3.000    1.750    1.000 
#    2.250    1.250    0.000    0.000    0.000    0.000 
#    0.000    0.000    0.000    0.000    0.000    0.000 
#
# Total GULP energy -89573.697330 kJ/mol
# GULP energy per Si atom -5598.356083 kJ/mol
# Density = 2.265660 g / cm^3
# Si number density = 22.708289 Si / 1000 Ang^3
#
#
#
# Elastic Constant Matrix: (Units=GPa)
#
#
# Indices 1 2 3 4 5 6 
#
# 1 25.8274 36.2350 37.8474 -1.9983 -8.3893 -2.1342
# 2 36.2350 161.3207 55.2549 -4.2867 -8.9119 -7.6956
# 3 37.8474 55.2549 114.8285 -7.2015 -23.3254 -2.5044
# 4 -1.9983 -4.2867 -7.2015 54.2863 -3.3095 -4.1456
# 5 -8.3893 -8.9119 -23.3254 -3.3095 38.6692 11.8770
# 6 -2.1342 -7.6956 -2.5044 -4.1456 11.8770 26.6723
#
#
#
# Elastic Compliance Matrix: (Units=1/GPa)
#
#
# Indices 1 2 3 4 5 6 
#
# 1 0.091665 -0.012293 -0.023810 -0.000575 0.002540 0.000332
# 2 -0.012293 0.009211 -0.000645 0.000271 -0.001643 0.002387
# 3 -0.023810 -0.000645 0.018291 0.001674 0.006831 -0.003156
# 4 -0.000575 0.000271 0.001674 0.018933 0.001861 0.002304
# 5 0.002540 -0.001643 0.006831 0.001861 0.034881 -0.014872
# 6 0.000332 0.002387 -0.003156 0.002304 -0.014872 0.044892
#
#
# Mechanical properties :
#
#
# Convention : Reuss Voigt Hill
#
# Bulk Modulus (GPa) = 21.89633 62.29456 42.09545
# Shear Modulus (GPa) = 16.30830 35.43485 25.87158
#
# Velocity S-wave (km/s) = 2.68277 3.95452 3.37902
# Velocity P-wave (km/s) = 4.38859 6.95292 5.81390
#
# Compressibility (1/GPa) = 0.04566974
#
# Stress axis : x y z
#
# Youngs Moduli (GPa) = 10.90933 108.56100 54.67203
#
# Poissons Ratio (x) = 1.33454 1.30175
# Poissons Ratio (y) = 0.13411 0.03529
# Poissons Ratio (z) = 0.25975 0.07007
#
# Static dielectric constant tensor:
#      x y z
#    x 1.862140 0.006800 -0.045770 
#    y 0.006800 1.847820 0.025430 
#    z -0.045770 0.025430 1.887250 
# 
# From -- ./inp_files/500779.got.cif
#   From: 2010.05.17/outbox.cif.g08.bks.cpg/sg2_251_cif.got.tgz:500779.got - 2010.06.03 11:33:40.
