data_PCOD9057758
_publ_section_title
;
Structure prediction by ZEFSAII (Michael W. Deem and Ramdas Pophale) SiO2 
 PCOD9057758
Probable space group: P -1
;
_chemical_formula_sum "Si O2"
_cell_formula_units_Z 14
_cell_length_a 11.979685
_cell_length_b 16.919239
_cell_length_c 9.076674
_cell_angle_alpha 130.384102
_cell_angle_beta 141.733953
_cell_angle_gamma 33.458407
_cell_volume 628.032288
_symmetry_space_group_name_H-M "P -1"
_symmetry_group_IT_number 2
_symmetry_cell_setting 'triclinic'
loop_
_space_group_symop_operation_xyz
x,y,z
-x,-y,-z
loop_
_atom_site_type_symbol
_atom_site_label
_atom_site_fract_x
_atom_site_fract_y
_atom_site_fract_z
Si Si1 0.055996 0.017202 0.390776
Si Si2 0.551652 0.232646 0.991507
Si Si3 0.542112 0.479814 0.337281
Si Si4 0.105115 0.771927 0.069090
Si Si5 0.045200 0.380698 0.802612
Si Si6 0.786894 0.870943 0.116500
Si Si7 0.259765 0.024275 0.314824
O O1 0.182061 0.856998 0.302806
O O2 0.091394 0.070174 0.634934
O O3 0.167531 0.047314 0.413583
O O4 0.761801 0.117197 0.187140
O O5 0.562412 0.352754 0.152323
O O6 0.277443 0.307471 0.846951
O O7 0.651856 0.125616 0.828902
O O8 0.500000 0.500000 0.500000
O O9 0.328374 0.612996 0.171724
O O10 0.795775 0.443836 0.537882
O O11 0.867354 0.823702 0.976220
O O12 0.981143 0.838130 0.860164
O O13 0.113072 0.261673 0.841111
O O14 0.000000 0.500000 0.000000
O O15 0.500000 0.000000 0.000000
O O16 0.500000 0.000000 0.500000
#
# Coordination Sequence:
#
# PCOD9057758 Si02
#       7
#     2   2   2   2   2   2   2
#     4  11  23  45  69  93 138 179 223 286 340 393
#     4  11  22  43  70  93 131 186 227 268 342 401
#     4  12  23  44  65 100 148 178 218 281 345 407
#     4  11  23  41  68 100 132 179 226 278 343 402
#     4  12  24  39  65  99 142 181 215 279 347 399
#     4  12  23  37  66 105 131 169 234 282 335 401
#     4  11  25  48  72  98 136 181 231 286 336 403
#
# _framework density 22.291848999999999
#
# number of rings (size 3 to 8) (size 9 to 14) (size 15 to 20)
#    0.000    0.571    4.286    5.571    2.000    1.143 
#    2.571    3.571    0.000    0.000    0.000    0.000 
#    0.000    0.000    0.000    0.000    0.000    0.000 
#
# Total GULP energy -78207.298347 kJ/mol
# GULP energy per Si atom -5586.235596 kJ/mol
# Density = 2.224111 g / cm^3
# Si number density = 22.291849 Si / 1000 Ang^3
#
#
#
# Elastic Constant Matrix: (Units=GPa)
#
#
# Indices 1 2 3 4 5 6 
#
# 1 87.8532 30.7757 30.5642 -14.8926 0.0711 -9.2383
# 2 30.7757 139.7709 33.3969 -4.6183 -0.7589 28.0950
# 3 30.5642 33.3969 76.5887 1.3854 16.8732 0.9408
# 4 -14.8926 -4.6183 1.3854 33.9123 -2.6998 18.8761
# 5 0.0711 -0.7589 16.8732 -2.6998 39.9635 -6.9621
# 6 -9.2383 28.0950 0.9408 18.8761 -6.9621 42.5751
#
#
#
# Elastic Compliance Matrix: (Units=1/GPa)
#
#
# Indices 1 2 3 4 5 6 
#
# 1 0.015574 -0.002504 -0.006009 0.005085 0.003409 0.003467
# 2 -0.002504 0.010940 -0.003859 0.006394 0.000455 -0.010437
# 3 -0.006009 -0.003859 0.019005 -0.005717 -0.008119 0.002029
# 4 0.005085 0.006394 -0.005717 0.045765 0.001608 -0.023017
# 5 0.003409 0.000455 -0.008119 0.001608 0.029383 0.004711
# 6 0.003467 -0.010437 0.002029 -0.023017 0.004711 0.042058
#
#
# Mechanical properties :
#
#
# Convention : Reuss Voigt Hill
#
# Bulk Modulus (GPa) = 48.13456 54.85402 51.49429
# Shear Modulus (GPa) = 25.72118 37.25527 31.48822
#
# Velocity S-wave (km/s) = 3.40050 4.09253 3.76246
# Velocity P-wave (km/s) = 6.08750 6.85510 6.48267
#
# Compressibility (1/GPa) = 0.02077509
#
# Stress axis : x y z
#
# Youngs Moduli (GPa) = 64.20869 91.41120 52.61866
#
# Poissons Ratio (x) = 0.22888 0.31619
# Poissons Ratio (y) = 0.16077 0.20304
# Poissons Ratio (z) = 0.38584 0.35273
#
# Static dielectric constant tensor:
#      x y z
#    x 1.900980 0.007320 -0.016060 
#    y 0.007320 1.811180 -0.006090 
#    z -0.016060 -0.006090 1.815420 
# 
# From -- ./inp_files/244284.got.cif
#   From: 2010.05.17/outbox.cif.g08.bks.cpg/sg2_123_cif.got.tgz:244284.got - 2010.06.03 11:33:40.
