data_PCOD9057920
_publ_section_title
;
Structure prediction by ZEFSAII (Michael W. Deem and Ramdas Pophale) SiO2 
 PCOD9057920
Probable space group: P -1
;
_chemical_formula_sum "Si O2"
_cell_formula_units_Z 16
_cell_length_a 9.212896
_cell_length_b 14.307829
_cell_length_c 11.685551
_cell_angle_alpha 149.970558
_cell_angle_beta 72.981236
_cell_angle_gamma 96.812658
_cell_volume 707.264890
_symmetry_space_group_name_H-M "P -1"
_symmetry_group_IT_number 2
_symmetry_cell_setting 'triclinic'
loop_
_space_group_symop_operation_xyz
x,y,z
-x,-y,-z
loop_
_atom_site_type_symbol
_atom_site_label
_atom_site_fract_x
_atom_site_fract_y
_atom_site_fract_z
Si Si1 0.317669 0.178442 0.553580
Si Si2 0.854608 0.356748 0.690999
Si Si3 0.672314 0.522256 0.516126
Si Si4 0.153194 0.842547 0.751182
Si Si5 0.864253 0.465056 0.176604
Si Si6 0.429552 0.292888 0.884739
Si Si7 0.795548 0.161510 0.720435
Si Si8 0.612319 0.904420 0.091721
O O1 0.232787 0.383361 0.735003
O O2 0.418313 0.205961 0.670087
O O3 0.197210 0.061945 0.500819
O O4 0.432250 0.040766 0.288505
O O5 0.896983 0.238514 0.440351
O O6 0.871094 0.217735 0.648286
O O7 0.963122 0.502606 0.830326
O O8 0.672909 0.484711 0.859284
O O9 0.500000 0.500000 0.500000
O O10 0.768763 0.340514 0.378896
O O11 0.776269 0.518510 0.374389
O O12 0.641756 0.724032 0.806944
O O13 0.282463 0.955839 0.815733
O O14 0.000000 0.000000 0.000000
O O15 0.856723 0.255304 0.914204
O O16 0.606766 0.262251 0.854547
O O17 0.351254 0.187368 0.887129
#
# Coordination Sequence:
#
# PCOD9057920 Si02
#       8
#     2   2   2   2   2   2   2   2
#     4  11  24  43  70 106 136 177 236 284 344 419
#     4  12  25  45  71 100 139 185 225 288 353 407
#     4  12  27  48  73 102 143 187 235 291 348 412
#     4  12  28  46  73 102 138 186 239 286 350 417
#     4  12  28  43  67 102 146 182 228 288 349 412
#     4  11  22  43  75 100 137 179 234 285 345 416
#     4  11  24  44  71 102 136 182 231 285 347 416
#     4  11  24  44  73 102 132 183 235 289 339 413
#
# _framework density 22.622356
#
# number of rings (size 3 to 8) (size 9 to 14) (size 15 to 20)
#    0.000    0.500    2.500    6.750    3.500    6.500 
#    0.000    0.000    0.000    0.000    0.000    0.000 
#    0.000    0.000    0.000    0.000    0.000    0.000 
#
# Total GULP energy -89647.486046 kJ/mol
# GULP energy per Si atom -5602.967878 kJ/mol
# Density = 2.257087 g / cm^3
# Si number density = 22.622356 Si / 1000 Ang^3
#
#
#
# Elastic Constant Matrix: (Units=GPa)
#
#
# Indices 1 2 3 4 5 6 
#
# 1 96.8327 17.9137 26.2131 -6.1152 9.1210 11.4691
# 2 17.9137 85.7762 9.4435 -14.5008 11.3098 19.8016
# 3 26.2131 9.4435 107.9714 -14.3504 19.0197 -4.3909
# 4 -6.1152 -14.5008 -14.3504 36.4199 -0.0753 7.0450
# 5 9.1210 11.3098 19.0197 -0.0753 44.0347 6.3706
# 6 11.4691 19.8016 -4.3909 7.0450 6.3706 26.6379
#
#
#
# Elastic Compliance Matrix: (Units=1/GPa)
#
#
# Indices 1 2 3 4 5 6 
#
# 1 0.011994 -0.000563 -0.002799 0.001769 -0.000318 -0.005599
# 2 -0.000563 0.016982 -0.000346 0.009317 -0.001993 -0.014426
# 3 -0.002799 -0.000346 0.011380 0.003162 -0.004768 0.003642
# 4 0.001769 0.009317 0.003162 0.035847 -0.001715 -0.016237
# 5 -0.000318 -0.001993 -0.004768 -0.001715 0.026059 -0.004947
# 6 -0.005599 -0.014426 0.003642 -0.016237 -0.004947 0.056752
#
#
# Mechanical properties :
#
#
# Convention : Reuss Voigt Hill
#
# Bulk Modulus (GPa) = 30.35921 44.19121 37.27521
# Shear Modulus (GPa) = 28.18324 37.21916 32.70120
#
# Velocity S-wave (km/s) = 3.53344 4.06055 3.80613
# Velocity P-wave (km/s) = 5.48599 6.44677 5.98569
#
# Compressibility (1/GPa) = 0.03293894
#
# Stress axis : x y z
#
# Youngs Moduli (GPa) = 83.37655 58.88593 87.87483
#
# Poissons Ratio (x) = 0.03317 0.24598
# Poissons Ratio (y) = 0.04696 0.03039
# Poissons Ratio (z) = 0.23339 0.02037
#
# Static dielectric constant tensor:
#      x y z
#    x 1.840670 0.011160 -0.024200 
#    y 0.011160 1.828230 0.006960 
#    z -0.024200 0.006960 1.820940 
# 
# From -- ./inp_files/399942.got.cif
#   From: 2010.05.17/outbox.cif.g08.bks.cpg/sg2_200_cif.got.tgz:399942.got - 2010.06.03 11:33:40.
