data_PCOD9057411
_publ_section_title
;
Structure prediction by ZEFSAII (Michael W. Deem and Ramdas Pophale) SiO2 
 PCOD9057411
Probable space group: P -1
;
_chemical_formula_sum "Si O2"
_cell_formula_units_Z 16
_cell_length_a 10.960101
_cell_length_b 23.887671
_cell_length_c 29.854837
_cell_angle_alpha 10.507595
_cell_angle_beta 32.079802
_cell_angle_gamma 31.900579
_cell_volume 746.820538
_symmetry_space_group_name_H-M "P -1"
_symmetry_group_IT_number 2
_symmetry_cell_setting 'triclinic'
loop_
_space_group_symop_operation_xyz
x,y,z
-x,-y,-z
loop_
_atom_site_type_symbol
_atom_site_label
_atom_site_fract_x
_atom_site_fract_y
_atom_site_fract_z
Si Si1 0.355125 0.329932 0.643129
Si Si2 0.502757 0.387759 0.813297
Si Si3 0.241301 0.340412 0.071938
Si Si4 0.634776 0.703824 0.665733
Si Si5 0.934731 0.377046 0.909154
Si Si6 0.962102 0.648486 0.780640
Si Si7 0.405466 0.616117 0.568281
Si Si8 0.856086 0.735384 0.480898
O O1 0.500000 0.500000 0.500000
O O2 0.448676 0.381388 0.523884
O O3 0.084322 0.474146 0.615635
O O4 0.400127 0.965679 0.926843
O O5 0.222310 0.448535 0.860379
O O6 0.540545 0.467000 0.687181
O O7 0.638830 0.613808 0.621151
O O8 0.209478 0.408594 0.081263
O O9 0.295581 0.973291 0.333930
O O10 0.449076 0.504468 0.860470
O O11 0.000000 0.500000 0.000000
O O12 0.781460 0.489476 0.825683
O O13 0.789783 0.808278 0.495773
O O14 0.500000 0.000000 0.500000
O O15 0.869448 0.591744 0.804738
O O16 0.195375 0.422479 0.779983
O O17 0.913363 0.033693 0.202041
O O18 0.000000 0.000000 0.500000
#
# Coordination Sequence:
#
# PCOD9057411 Si02
#       8
#     2   2   2   2   2   2   2   2
#     4  12  26  46  72  97 134 179 231 284 336 401
#     4  11  25  45  71 101 137 175 229 281 338 407
#     4  12  23  41  68  97 135 180 225 278 335 406
#     4  12  27  42  67 102 140 177 224 279 340 406
#     4  11  25  43  68 100 140 175 227 277 339 404
#     4  11  22  42  69  98 136 180 221 274 336 402
#     4  11  24  44  68  99 129 178 231 273 338 403
#     4  12  27  46  69 101 139 180 223 283 344 395
#
# _framework density 21.424156
#
# number of rings (size 3 to 8) (size 9 to 14) (size 15 to 20)
#    0.000    0.500    2.500    7.125    1.750    4.500 
#    0.000    0.000    0.000    0.000    0.000    0.000 
#    0.000    0.000    0.000    0.000    0.000    0.000 
#
# Total GULP energy -89605.473357 kJ/mol
# GULP energy per Si atom -5600.342085 kJ/mol
# Density = 2.137539 g / cm^3
# Si number density = 21.424156 Si / 1000 Ang^3
#
#
#
# Elastic Constant Matrix: (Units=GPa)
#
#
# Indices 1 2 3 4 5 6 
#
# 1 98.2580 41.3897 25.0737 8.3433 12.9219 2.2410
# 2 41.3897 119.1903 34.2066 10.9049 23.1079 20.6430
# 3 25.0737 34.2066 141.7015 1.5582 14.4330 -1.5978
# 4 8.3433 10.9049 1.5582 25.5540 1.3066 1.8961
# 5 12.9219 23.1079 14.4330 1.3066 41.0831 5.4214
# 6 2.2410 20.6430 -1.5978 1.8961 5.4214 30.3195
#
#
#
# Elastic Compliance Matrix: (Units=1/GPa)
#
#
# Indices 1 2 3 4 5 6 
#
# 1 0.012434 -0.003846 -0.001062 -0.002427 -0.001571 0.002076
# 2 -0.003846 0.012709 -0.002015 -0.003275 -0.004133 -0.007531
# 3 -0.001062 -0.002015 0.007912 0.000650 -0.001612 0.002115
# 4 -0.002427 -0.003275 0.000650 0.041251 0.001109 -0.000335
# 5 -0.001571 -0.004133 -0.001612 0.001109 0.027985 -0.002228
# 6 0.002076 -0.007531 0.002115 -0.000335 -0.002228 0.038487
#
#
# Mechanical properties :
#
#
# Convention : Reuss Voigt Hill
#
# Bulk Modulus (GPa) = 52.05795 62.27664 57.16730
# Shear Modulus (GPa) = 31.05075 36.62333 33.83704
#
# Velocity S-wave (km/s) = 3.81114 4.13902 3.97846
# Velocity P-wave (km/s) = 6.61195 7.20927 6.91706
#
# Compressibility (1/GPa) = 0.01920936
#
# Stress axis : x y z
#
# Youngs Moduli (GPa) = 80.42724 78.68421 126.38490
#
# Poissons Ratio (x) = 0.30261 0.13416
# Poissons Ratio (y) = 0.30931 0.25472
# Poissons Ratio (z) = 0.08538 0.15858
#
# Static dielectric constant tensor:
#      x y z
#    x 1.817270 0.017730 -0.020140 
#    y 0.017730 1.761910 0.016090 
#    z -0.020140 0.016090 1.767380 
# 
# From -- ./inp_files/623198.got.cif
#   From: 2010.05.17/outbox.cif.g08.bks.cpg/sg2_312_cif.got.tgz:623198.got - 2010.06.03 11:33:40.
