data_PCOD9057615
_publ_section_title
;
Structure prediction by ZEFSAII (Michael W. Deem and Ramdas Pophale) SiO2 
 PCOD9057615
Probable space group: P -1
;
_chemical_formula_sum "Si O2"
_cell_formula_units_Z 13
_cell_length_a 6.515994
_cell_length_b 7.620825
_cell_length_c 16.042831
_cell_angle_alpha 124.308371
_cell_angle_beta 53.875374
_cell_angle_gamma 116.743978
_cell_volume 523.185479
_symmetry_space_group_name_H-M "P -1"
_symmetry_group_IT_number 2
_symmetry_cell_setting 'triclinic'
loop_
_space_group_symop_operation_xyz
x,y,z
-x,-y,-z
loop_
_atom_site_type_symbol
_atom_site_label
_atom_site_fract_x
_atom_site_fract_y
_atom_site_fract_z
Si Si1 0.024883 0.599391 0.663034
Si Si2 0.244791 0.315702 0.736531
Si Si3 0.500000 0.000000 0.500000
Si Si4 0.431665 0.995128 0.738286
Si Si5 0.543710 0.678630 0.859850
Si Si6 0.335997 0.845324 0.113480
Si Si7 0.915914 0.780597 0.558939
O O1 0.782821 0.550855 0.769646
O O2 0.903084 0.686546 0.631201
O O3 0.236309 0.776977 0.703574
O O4 0.137505 0.401320 0.546865
O O5 0.383147 0.234738 0.601763
O O6 0.345438 0.559660 0.806598
O O7 0.937474 0.246910 0.802677
O O8 0.354460 0.163137 0.737035
O O9 0.785848 0.116027 0.489089
O O10 0.714030 0.939141 0.641324
O O11 0.442032 0.092952 0.853976
O O12 0.664743 0.925213 0.871731
O O13 0.405949 0.686745 0.983276
#
# Coordination Sequence:
#
# PCOD9057615 Si02
#       7
#     2   2   1   2   2   2   2
#     4  11  22  43  65  96 134 172 221 271 330 392
#     4  12  25  45  67 101 137 168 222 277 331 391
#     4  12  20  42  66  88 134 174 204 272 328 394
#     4  12  22  43  66  97 138 168 216 286 325 384
#     4  11  23  47  71  93 130 187 218 268 338 387
#     4  11  25  48  68  93 137 174 227 276 321 389
#     4  11  23  41  66  96 135 173 214 275 333 393
#
# _framework density 24.847784000000001
#
# number of rings (size 3 to 8) (size 9 to 14) (size 15 to 20)
#    0.000    0.615    7.692    0.923    0.000    1.846 
#    5.538    0.000    0.000    0.000    0.000    0.000 
#    0.000    0.000    0.000    0.000    0.000    0.000 
#
# Total GULP energy -72504.717689 kJ/mol
# GULP energy per Si atom -5577.285976 kJ/mol
# Density = 2.479123 g / cm^3
# Si number density = 24.847784 Si / 1000 Ang^3
#
#
#
# Elastic Constant Matrix: (Units=GPa)
#
#
# Indices 1 2 3 4 5 6 
#
# 1 106.7653 40.7187 42.8337 -16.9289 10.3336 7.6257
# 2 40.7187 75.2053 15.4251 24.4401 -7.0969 47.3666
# 3 42.8337 15.4251 247.2860 -73.7349 104.2354 9.9732
# 4 -16.9289 24.4401 -73.7349 101.7082 -69.2221 8.5172
# 5 10.3336 -7.0969 104.2354 -69.2221 107.3564 -8.2653
# 6 7.6257 47.3666 9.9732 8.5172 -8.2653 59.8932
#
#
#
# Elastic Compliance Matrix: (Units=1/GPa)
#
#
# Indices 1 2 3 4 5 6 
#
# 1 0.017861 -0.020223 -0.002185 0.009241 0.006071 0.013606
# 2 -0.020223 0.054458 0.000128 -0.020393 -0.010736 -0.039096
# 3 -0.002185 0.000128 0.007604 0.000551 -0.006973 -0.002129
# 4 0.009241 -0.020393 0.000551 0.025603 0.014757 0.013255
# 5 0.006071 -0.010736 -0.006973 0.014757 0.025094 0.010243
# 6 0.013606 -0.039096 -0.002129 0.013255 0.010243 0.045767
#
#
# Mechanical properties :
#
#
# Convention : Reuss Voigt Hill
#
# Bulk Modulus (GPa) = 28.27793 69.69017 48.98405
# Shear Modulus (GPa) = 21.48375 75.81017 48.64696
#
# Velocity S-wave (km/s) = 2.94362 5.52956 4.42950
# Velocity P-wave (km/s) = 4.79149 8.29915 6.77622
#
# Compressibility (1/GPa) = 0.03536327
#
# Stress axis : x y z
#
# Youngs Moduli (GPa) = 55.98708 18.36277 131.51710
#
# Poissons Ratio (x) = 0.37134 0.28735
# Poissons Ratio (y) = 1.13220 -0.01678
# Poissons Ratio (z) = 0.12233 -0.00234
#
# Static dielectric constant tensor:
#      x y z
#    x 1.974850 -0.080950 0.120360 
#    y -0.080950 2.045570 -0.037740 
#    z 0.120360 -0.037740 2.149620 
# 
# From -- ./inp_files/32073.got.cif
#   From: 2010.05.17/outbox.cif.g08.bks.cpg/sg2_17_cif.got.tgz:32073.got - 2010.06.03 11:33:40.
