data_PCOD9057897
_publ_section_title
;
Structure prediction by ZEFSAII (Michael W. Deem and Ramdas Pophale) SiO2 
 PCOD9057897
Probable space group: P -1
;
_chemical_formula_sum "Si O2"
_cell_formula_units_Z 16
_cell_length_a 18.147866
_cell_length_b 9.349751
_cell_length_c 11.636426
_cell_angle_alpha 127.462309
_cell_angle_beta 40.090967
_cell_angle_gamma 97.854272
_cell_volume 773.028391
_symmetry_space_group_name_H-M "P -1"
_symmetry_group_IT_number 2
_symmetry_cell_setting 'triclinic'
loop_
_space_group_symop_operation_xyz
x,y,z
-x,-y,-z
loop_
_atom_site_type_symbol
_atom_site_label
_atom_site_fract_x
_atom_site_fract_y
_atom_site_fract_z
Si Si1 0.149108 0.735999 0.199100
Si Si2 0.395135 0.383027 0.173667
Si Si3 0.603791 0.507055 0.038531
Si Si4 0.384668 0.908383 0.663591
Si Si5 0.826555 0.705653 0.081803
Si Si6 0.926454 0.246981 0.145685
Si Si7 0.725071 0.362796 0.245925
Si Si8 0.558447 0.885063 0.657482
O O1 0.240348 0.687441 0.181125
O O2 0.121716 0.549603 0.130756
O O3 0.250236 0.680047 0.940345
O O4 0.000000 0.000000 0.500000
O O5 0.497329 0.440504 0.128616
O O6 0.232309 0.549769 0.505595
O O7 0.377635 0.443873 0.088683
O O8 0.483050 0.106153 0.938001
O O9 0.521812 0.737790 0.328956
O O10 0.333659 0.763022 0.694278
O O11 0.442223 0.953098 0.728431
O O12 0.255121 0.133076 0.854826
O O13 0.703506 0.819658 0.386513
O O14 0.959872 0.703070 0.955632
O O15 0.879280 0.251785 0.073385
O O16 0.000000 0.000000 0.000000
O O17 0.613132 0.644473 0.532476
#
# Coordination Sequence:
#
# PCOD9057897 Si02
#       8
#     2   2   2   2   2   2   2   2
#     4  11  27  44  67 102 142 180 225 280 348 411
#     4  11  25  41  71 106 130 179 230 289 327 403
#     4  11  22  43  73  98 134 177 232 278 338 402
#     4  12  20  45  73  98 134 178 236 276 337 408
#     4  11  23  43  70  95 136 188 221 277 342 410
#     4  12  26  45  65 100 145 178 228 280 346 408
#     4  11  25  43  69  98 134 184 220 286 346 395
#     4  11  24  41  71 103 132 172 235 285 339 402
#
# _framework density 20.697816
#
# number of rings (size 3 to 8) (size 9 to 14) (size 15 to 20)
#    0.000    0.750    6.250    1.500    3.500    4.500 
#    0.000    1.875    0.000    0.000    0.000    0.000 
#    0.000    0.000    0.000    0.000    0.000    0.000 
#
# Total GULP energy -89553.985224 kJ/mol
# GULP energy per Si atom -5597.124076 kJ/mol
# Density = 2.065071 g / cm^3
# Si number density = 20.697816 Si / 1000 Ang^3
#
#
#
# Elastic Constant Matrix: (Units=GPa)
#
#
# Indices 1 2 3 4 5 6 
#
# 1 91.2758 22.5686 9.2160 -0.7919 -17.8996 12.1982
# 2 22.5686 129.9903 39.4811 8.0439 -8.9815 11.4820
# 3 9.2160 39.4811 96.6513 24.9270 -5.5008 18.4312
# 4 -0.7919 8.0439 24.9270 34.6831 2.3878 -10.0701
# 5 -17.8996 -8.9815 -5.5008 2.3878 34.5132 -5.5690
# 6 12.1982 11.4820 18.4312 -10.0701 -5.5690 29.5268
#
#
#
# Elastic Compliance Matrix: (Units=1/GPa)
#
#
# Indices 1 2 3 4 5 6 
#
# 1 0.013062 -0.001670 0.001330 -0.002189 0.005861 -0.005218
# 2 -0.001670 0.009129 -0.003459 0.000128 0.000870 -0.000493
# 3 0.001330 -0.003459 0.019943 -0.018761 0.001396 -0.017788
# 4 -0.002189 0.000128 -0.018761 0.050973 -0.002873 0.029408
# 5 0.005861 0.000870 0.001396 -0.002873 0.032920 0.001598
# 6 -0.005218 -0.000493 -0.017788 0.029408 0.001598 0.057650
#
#
# Mechanical properties :
#
#
# Convention : Reuss Voigt Hill
#
# Bulk Modulus (GPa) = 28.95625 51.16097 40.05861
# Shear Modulus (GPa) = 24.65617 36.18805 30.42211
#
# Velocity S-wave (km/s) = 3.45519 4.18592 3.83799
# Velocity P-wave (km/s) = 5.47157 6.93789 6.24790
#
# Compressibility (1/GPa) = 0.03453486
#
# Stress axis : x y z
#
# Youngs Moduli (GPa) = 76.55606 109.53708 50.14256
#
# Poissons Ratio (x) = 0.18298 -0.06669
# Poissons Ratio (y) = 0.12789 0.17347
# Poissons Ratio (z) = -0.10182 0.37894
#
# Static dielectric constant tensor:
#      x y z
#    x 1.736710 -0.010700 0.013880 
#    y -0.010700 1.746520 0.006460 
#    z 0.013880 0.006460 1.723330 
# 
# From -- ./inp_files/298127.got.cif
#   From: 2010.05.17/outbox.cif.g08.bks.cpg/sg2_150_cif.got.tgz:298127.got - 2010.06.03 11:33:40.
