data_PCOD9057216
_publ_section_title
;
Structure prediction by ZEFSAII (Michael W. Deem and Ramdas Pophale) SiO2 
 PCOD9057216
Probable space group: P -1
;
_chemical_formula_sum "Si O2"
_cell_formula_units_Z 15
_cell_length_a 11.025549
_cell_length_b 7.789477
_cell_length_c 13.875582
_cell_angle_alpha 112.082918
_cell_angle_beta 30.494406
_cell_angle_gamma 107.511064
_cell_volume 559.687131
_symmetry_space_group_name_H-M "P -1"
_symmetry_group_IT_number 2
_symmetry_cell_setting 'triclinic'
loop_
_space_group_symop_operation_xyz
x,y,z
-x,-y,-z
loop_
_atom_site_type_symbol
_atom_site_label
_atom_site_fract_x
_atom_site_fract_y
_atom_site_fract_z
Si Si1 0.500000 0.000000 0.500000
Si Si2 0.974987 0.662437 0.128351
Si Si3 0.911883 0.561540 0.357408
Si Si4 0.595167 0.836767 0.191184
Si Si5 0.492877 0.598779 0.805471
Si Si6 0.876810 0.736776 0.711505
Si Si7 0.047612 0.933630 0.792755
Si Si8 0.826439 0.178976 0.649615
O O1 0.487243 0.957425 0.377972
O O2 0.695769 0.168434 0.387144
O O3 0.833810 0.857662 0.238817
O O4 0.865977 0.579722 0.281156
O O5 0.249823 0.709782 0.967286
O O6 0.000000 0.500000 0.000000
O O7 0.681821 0.604628 0.590028
O O8 0.045659 0.378945 0.271202
O O9 0.117067 0.705215 0.271804
O O10 0.581026 0.614720 0.173002
O O11 0.436576 0.867764 0.209261
O O12 0.858243 0.896196 0.996092
O O13 0.631810 0.682855 0.819685
O O14 0.073160 0.706733 0.486495
O O15 0.927091 0.930279 0.768526
O O16 0.000000 0.000000 0.500000
#
# Coordination Sequence:
#
# PCOD9057216 Si02
#       8
#     1   2   2   2   2   2   2   2
#     4  12  26  50  70 100 148 190 248 298 362 436
#     4  12  30  48  68 107 149 192 250 298 368 434
#     4  11  23  45  75 102 147 200 236 295 362 429
#     4  12  25  45  76 109 146 195 245 295 369 442
#     4  11  24  46  74 107 150 189 239 303 361 444
#     4  11  22  46  76 111 142 193 246 292 373 430
#     4  12  28  45  74 109 141 193 246 304 366 436
#     4  11  22  41  73 112 150 188 239 302 365 425
#
# _framework density 26.800688999999998
#
# number of rings (size 3 to 8) (size 9 to 14) (size 15 to 20)
#    0.000    0.533    4.000    3.600    5.600    4.267 
#    0.000    0.000    0.000    0.000    0.000    0.000 
#    0.000    0.000    0.000    0.000    0.000    0.000 
#
# Total GULP energy -83780.945774 kJ/mol
# GULP energy per Si atom -5585.396385 kJ/mol
# Density = 2.673969 g / cm^3
# Si number density = 26.800689 Si / 1000 Ang^3
#
#
#
# Elastic Constant Matrix: (Units=GPa)
#
#
# Indices 1 2 3 4 5 6 
#
# 1 101.9138 39.8824 25.6927 -10.1884 10.6022 17.6788
# 2 39.8824 64.9190 13.3957 -11.2364 7.9148 24.9814
# 3 25.6927 13.3957 131.9751 -39.7575 9.7874 14.2847
# 4 -10.1884 -11.2364 -39.7575 50.4078 8.5671 -4.5851
# 5 10.6022 7.9148 9.7874 8.5671 57.0550 -3.1367
# 6 17.6788 24.9814 14.2847 -4.5851 -3.1367 53.0012
#
#
#
# Elastic Compliance Matrix: (Units=1/GPa)
#
#
# Indices 1 2 3 4 5 6 
#
# 1 0.013407 -0.007577 -0.001771 -0.000231 -0.001130 -0.000510
# 2 -0.007577 0.024602 0.001801 0.005137 -0.003598 -0.009323
# 3 -0.001771 0.001801 0.010992 0.009035 -0.003308 -0.002635
# 4 -0.000231 0.005137 0.009035 0.028961 -0.006715 -0.002671
# 5 -0.001130 -0.003598 -0.003308 -0.006715 0.020008 0.003567
# 6 -0.000510 -0.009323 -0.002635 -0.002671 0.003567 0.024122
#
#
# Mechanical properties :
#
#
# Convention : Reuss Voigt Hill
#
# Bulk Modulus (GPa) = 29.49311 50.74995 40.12153
# Shear Modulus (GPa) = 33.67299 46.74859 40.21079
#
# Velocity S-wave (km/s) = 3.54845 4.18102 3.87766
# Velocity P-wave (km/s) = 5.27420 6.50270 5.92040
#
# Compressibility (1/GPa) = 0.03390622
#
# Stress axis : x y z
#
# Youngs Moduli (GPa) = 74.58914 40.64730 90.97906
#
# Poissons Ratio (x) = 0.30797 0.16117
# Poissons Ratio (y) = 0.56514 -0.16387
# Poissons Ratio (z) = 0.13213 -0.07321
#
# Static dielectric constant tensor:
#      x y z
#    x 1.865510 -0.140340 0.272580 
#    y -0.140340 3.232330 0.779740 
#    z 0.272580 0.779740 2.074020 
# 
# From -- ./inp_files/514562.got.cif
#   From: 2010.05.17/outbox.cif.g08.bks.cpg/sg2_258_cif.got.tgz:514562.got - 2010.06.03 11:33:40.
