data_PCOD9057819
_publ_section_title
;
Structure prediction by ZEFSAII (Michael W. Deem and Ramdas Pophale) SiO2 
 PCOD9057819
Probable space group: P -1
;
_chemical_formula_sum "Si O2"
_cell_formula_units_Z 16
_cell_length_a 12.468983
_cell_length_b 6.905314
_cell_length_c 11.395001
_cell_angle_alpha 91.228921
_cell_angle_beta 52.725268
_cell_angle_gamma 117.038769
_cell_volume 649.254798
_symmetry_space_group_name_H-M "P -1"
_symmetry_group_IT_number 2
_symmetry_cell_setting 'triclinic'
loop_
_space_group_symop_operation_xyz
x,y,z
-x,-y,-z
loop_
_atom_site_type_symbol
_atom_site_label
_atom_site_fract_x
_atom_site_fract_y
_atom_site_fract_z
Si Si1 0.222386 0.929923 0.123199
Si Si2 0.812893 0.845387 0.665779
Si Si3 0.481966 0.626001 0.776721
Si Si4 0.818597 0.350929 0.666313
Si Si5 0.513310 0.940499 0.255472
Si Si6 0.985415 0.998246 0.149372
Si Si7 0.767557 0.565192 0.874928
Si Si8 0.625404 0.723782 0.346380
O O1 0.207674 0.669493 0.164523
O O2 0.058599 0.861585 0.158995
O O3 0.198792 0.910775 0.291496
O O4 0.370145 0.025604 0.931600
O O5 0.668431 0.718583 0.664746
O O6 0.748289 0.802035 0.851560
O O7 0.000000 0.000000 0.500000
O O8 0.367089 0.386469 0.783409
O O9 0.464462 0.817036 0.731537
O O10 0.410278 0.593061 0.953606
O O11 0.668120 0.233961 0.673384
O O12 0.809086 0.594131 0.704904
O O13 0.000000 0.500000 0.500000
O O14 0.555842 0.866633 0.345599
O O15 0.796082 0.871469 0.298302
O O16 0.082571 0.261990 0.137359
O O17 0.000000 0.000000 0.000000
O O18 0.500000 0.500000 0.500000
#
# Coordination Sequence:
#
# PCOD9057819 Si02
#       8
#     2   2   2   2   2   2   2   2
#     4  11  22  43  71  97 142 182 226 297 351 414
#     4  11  23  39  66 104 142 182 231 297 359 417
#     4  12  24  46  74 103 138 195 242 284 370 428
#     4  12  25  41  67 109 141 176 230 300 368 413
#     4  12  25  48  75 103 146 183 241 302 353 441
#     4  11  23  47  69  98 139 186 248 288 339 428
#     4  11  23  41  71  99 139 190 234 289 356 425
#     4  12  29  48  72 103 145 192 241 298 357 424
#
# _framework density 24.643637999999999
#
# number of rings (size 3 to 8) (size 9 to 14) (size 15 to 20)
#    0.000    0.500    5.000    3.750    5.250    0.500 
#    2.250    1.875    0.000    0.000    0.000    0.000 
#    0.000    0.000    0.000    0.000    0.000    0.000 
#
# Total GULP energy -89296.129106 kJ/mol
# GULP energy per Si atom -5581.008069 kJ/mol
# Density = 2.458755 g / cm^3
# Si number density = 24.643638 Si / 1000 Ang^3
#
#
#
# Elastic Constant Matrix: (Units=GPa)
#
#
# Indices 1 2 3 4 5 6 
#
# 1 177.8833 32.2537 52.2522 -25.9485 -12.5199 -30.2749
# 2 32.2537 117.9299 2.6210 -1.6131 -11.0108 -25.7021
# 3 52.2522 2.6210 89.1240 -25.5218 -18.3127 -4.8322
# 4 -25.9485 -1.6131 -25.5218 54.0496 -6.1388 0.2935
# 5 -12.5199 -11.0108 -18.3127 -6.1388 44.0792 -17.0458
# 6 -30.2749 -25.7021 -4.8322 0.2935 -17.0458 66.3240
#
#
#
# Elastic Compliance Matrix: (Units=1/GPa)
#
#
# Indices 1 2 3 4 5 6 
#
# 1 0.007889 -0.001056 -0.003200 0.002495 0.002371 0.003557
# 2 -0.001056 0.010325 0.002051 0.001339 0.005256 0.005013
# 3 -0.003200 0.002051 0.017215 0.007652 0.008922 0.002848
# 4 0.002495 0.001339 0.007652 0.024391 0.009365 0.004514
# 5 0.002371 0.005256 0.008922 0.009365 0.034560 0.012610
# 6 0.003557 0.005013 0.002848 0.004514 0.012610 0.022072
#
#
# Mechanical properties :
#
#
# Convention : Reuss Voigt Hill
#
# Bulk Modulus (GPa) = 32.23835 62.13234 47.18534
# Shear Modulus (GPa) = 38.10917 52.74459 45.42688
#
# Velocity S-wave (km/s) = 3.93671 4.63135 4.29808
# Velocity P-wave (km/s) = 5.81152 7.33936 6.61967
#
# Compressibility (1/GPa) = 0.03101896
#
# Stress axis : x y z
#
# Youngs Moduli (GPa) = 126.75410 96.85643 58.08949
#
# Poissons Ratio (x) = 0.10227 0.18588
# Poissons Ratio (y) = 0.13383 -0.11913
# Poissons Ratio (z) = 0.40559 -0.19864
#
# Static dielectric constant tensor:
#      x y z
#    x 2.003110 -0.216860 0.050130 
#    y -0.216860 2.189890 0.104350 
#    z 0.050130 0.104350 1.944270 
# 
# From -- ./inp_files/419418.got.cif
#   From: 2010.05.17/outbox.cif.g08.bks.cpg/sg2_210_cif.got.tgz:419418.got - 2010.06.03 11:33:40.
