data_PCOD9057092
_publ_section_title
;
Structure prediction by ZEFSAII (Michael W. Deem and Ramdas Pophale) SiO2 
 PCOD9057092
Probable space group: P -1
;
_chemical_formula_sum "Si O2"
_cell_formula_units_Z 15
_cell_length_a 9.676370
_cell_length_b 20.826554
_cell_length_c 12.356577
_cell_angle_alpha 34.348203
_cell_angle_beta 35.458088
_cell_angle_gamma 33.307092
_cell_volume 706.456945
_symmetry_space_group_name_H-M "P -1"
_symmetry_group_IT_number 2
_symmetry_cell_setting 'triclinic'
loop_
_space_group_symop_operation_xyz
x,y,z
-x,-y,-z
loop_
_atom_site_type_symbol
_atom_site_label
_atom_site_fract_x
_atom_site_fract_y
_atom_site_fract_z
Si Si1 0.957389 0.591969 0.069856
Si Si2 0.376992 0.805014 0.232764
Si Si3 0.840091 0.207570 0.098026
Si Si4 0.500000 0.500000 0.000000
Si Si5 0.239754 0.978476 0.294079
Si Si6 0.600719 0.869619 0.550056
Si Si7 0.066393 0.645014 0.687546
Si Si8 0.789775 0.926982 0.135483
O O1 0.693393 0.714340 0.122228
O O2 0.862809 0.490003 0.228830
O O3 0.215961 0.525663 0.077903
O O4 0.057853 0.631654 0.840979
O O5 0.247607 0.710104 0.448289
O O6 0.315410 0.870474 0.301415
O O7 0.236160 0.931206 0.066211
O O8 0.648777 0.142559 0.322742
O O9 0.110962 0.116917 0.121386
O O10 0.677459 0.355076 0.034198
O O11 0.946378 0.183561 0.941317
O O12 0.512994 0.945513 0.229390
O O13 0.000000 0.000000 0.500000
O O14 0.782186 0.878884 0.326230
O O15 0.763991 0.748119 0.694335
O O16 0.500000 0.000000 0.500000
#
# Coordination Sequence:
#
# PCOD9057092 Si02
#       8
#     2   2   2   1   2   2   2   2
#     4  11  25  48  73  99 143 182 233 285 343 414
#     4  11  24  43  74 102 134 187 230 281 352 415
#     4  11  24  43  66 101 138 178 233 284 344 407
#     4  12  24  48  74 100 136 188 232 286 342 410
#     4  11  22  41  69  99 138 178 228 291 350 401
#     4  12  24  42  68 101 140 181 227 284 348 410
#     4  11  26  46  68 105 139 186 228 284 349 412
#     4  11  24  42  68 105 137 179 232 290 343 414
#
# _framework density 21.232716
#
# number of rings (size 3 to 8) (size 9 to 14) (size 15 to 20)
#    0.000    0.800    2.667    6.000    3.733    3.200 
#    2.400    1.333    0.000    0.000    0.000    0.000 
#    0.000    0.000    0.000    0.000    0.000    0.000 
#
# Total GULP energy -83590.643091 kJ/mol
# GULP energy per Si atom -5572.709539 kJ/mol
# Density = 2.118439 g / cm^3
# Si number density = 21.232716 Si / 1000 Ang^3
#
#
#
# Elastic Constant Matrix: (Units=GPa)
#
#
# Indices 1 2 3 4 5 6 
#
# 1 65.6122 34.2379 25.7002 6.1941 -19.0750 4.2044
# 2 34.2379 185.3840 38.5502 0.9710 -2.4737 25.7944
# 3 25.7002 38.5502 107.3468 8.6354 -14.8914 31.6276
# 4 6.1941 0.9710 8.6354 27.1675 2.5539 1.9077
# 5 -19.0750 -2.4737 -14.8914 2.5539 29.6507 2.0283
# 6 4.2044 25.7944 31.6276 1.9077 2.0283 30.0737
#
#
#
# Elastic Compliance Matrix: (Units=1/GPa)
#
#
# Indices 1 2 3 4 5 6 
#
# 1 0.022337 -0.003711 -0.002294 -0.005613 0.013259 0.001935
# 2 -0.003711 0.006815 -0.000529 0.001279 -0.001872 -0.004725
# 3 -0.002294 -0.000529 0.016534 -0.004308 0.008311 -0.016901
# 4 -0.005613 0.001279 -0.004308 0.040123 -0.009281 0.002299
# 5 0.013259 -0.001872 0.008311 -0.009281 0.047869 -0.011628
# 6 0.001935 -0.004725 -0.016901 0.002299 -0.011628 0.055446
#
#
# Mechanical properties :
#
#
# Convention : Reuss Voigt Hill
#
# Bulk Modulus (GPa) = 30.65918 61.70218 46.18068
# Shear Modulus (GPa) = 23.46694 34.70203 29.08449
#
# Velocity S-wave (km/s) = 3.32810 4.04712 3.70509
# Velocity P-wave (km/s) = 5.40734 7.13876 6.33250
#
# Compressibility (1/GPa) = 0.03261666
#
# Stress axis : x y z
#
# Youngs Moduli (GPa) = 44.76890 146.72538 60.48190
#
# Poissons Ratio (x) = 0.54452 0.13876
# Poissons Ratio (y) = 0.16614 0.03202
# Poissons Ratio (z) = 0.10271 0.07769
#
# Static dielectric constant tensor:
#      x y z
#    x 1.817030 0.020770 0.001370 
#    y 0.020770 1.737560 0.033660 
#    z 0.001370 0.033660 1.748540 
# 
# From -- ./inp_files/402792.got.cif
#   From: 2010.05.17/outbox.cif.g08.bks.cpg/sg2_202_cif.got.tgz:402792.got - 2010.06.03 11:33:40.
