data_PCOD9057173
_publ_section_title
;
Structure prediction by ZEFSAII (Michael W. Deem and Ramdas Pophale) SiO2 
 PCOD9057173
Probable space group: P -1
;
_chemical_formula_sum "Si O2"
_cell_formula_units_Z 15
_cell_length_a 9.048022
_cell_length_b 8.220606
_cell_length_c 10.330924
_cell_angle_alpha 77.465701
_cell_angle_beta 66.231583
_cell_angle_gamma 61.906024
_cell_volume 620.029680
_symmetry_space_group_name_H-M "P -1"
_symmetry_group_IT_number 2
_symmetry_cell_setting 'triclinic'
loop_
_space_group_symop_operation_xyz
x,y,z
-x,-y,-z
loop_
_atom_site_type_symbol
_atom_site_label
_atom_site_fract_x
_atom_site_fract_y
_atom_site_fract_z
Si Si1 0.576144 0.282316 0.490133
Si Si2 0.299974 0.281728 0.373571
Si Si3 0.161101 0.074659 0.643016
Si Si4 0.865621 0.406730 0.051244
Si Si5 0.000000 0.000000 0.000000
Si Si6 0.626984 0.008409 0.158279
Si Si7 0.471320 0.291839 0.805961
Si Si8 0.784020 0.358873 0.804012
O O1 0.500000 0.500000 0.500000
O O2 0.436136 0.264854 0.443819
O O3 0.568317 0.214587 0.649246
O O4 0.766058 0.137415 0.390815
O O5 0.179133 0.190146 0.494295
O O6 0.432438 0.168913 0.230378
O O7 0.203652 0.493452 0.327150
O O8 0.965572 0.168184 0.760935
O O9 0.286210 0.082089 0.716248
O O10 0.699255 0.512007 0.185863
O O11 0.783190 0.441858 0.929997
O O12 0.000000 0.500000 0.000000
O O13 0.968986 0.188465 0.057863
O O14 0.223042 0.926187 0.946106
O O15 0.604552 0.855216 0.104229
O O16 0.612186 0.325625 0.837993
#
# Coordination Sequence:
#
# PCOD9057173 Si02
#       8
#     2   2   2   2   1   2   2   2
#     4  11  22  41  72 102 137 194 234 289 357 438
#     4  11  22  43  72 104 144 188 235 296 366 425
#     4  11  22  44  69 103 148 186 239 291 359 437
#     4  12  27  50  73 101 141 197 248 299 355 442
#     4  12  24  46  76  98 136 188 256 290 352 428
#     4  11  22  45  73 102 141 196 242 291 356 438
#     4  12  23  45  70 102 150 186 240 296 364 421
#     4  12  26  44  69 111 147 183 237 310 358 428
#
# _framework density 24.192388000000001
#
# number of rings (size 3 to 8) (size 9 to 14) (size 15 to 20)
#    0.000    0.533    6.667    2.400    1.867    0.533 
#    2.400    1.333    0.000    0.000    0.000    0.000 
#    0.000    0.000    0.000    0.000    0.000    0.000 
#
# Total GULP energy -83632.892274 kJ/mol
# GULP energy per Si atom -5575.526152 kJ/mol
# Density = 2.413733 g / cm^3
# Si number density = 24.192388 Si / 1000 Ang^3
#
#
#
# Elastic Constant Matrix: (Units=GPa)
#
#
# Indices 1 2 3 4 5 6 
#
# 1 83.3309 45.7039 16.3185 10.6259 -4.7935 34.9446
# 2 45.7039 142.8349 17.7875 24.2831 -14.6797 17.7650
# 3 16.3185 17.7875 84.6461 16.1893 -4.9949 7.1236
# 4 10.6259 24.2831 16.1893 49.4196 -9.7001 -2.8021
# 5 -4.7935 -14.6797 -4.9949 -9.7001 33.8410 -4.1375
# 6 34.9446 17.7650 7.1236 -2.8021 -4.1375 38.6707
#
#
#
# Elastic Compliance Matrix: (Units=1/GPa)
#
#
# Indices 1 2 3 4 5 6 
#
# 1 0.023041 -0.004411 -0.001300 -0.003892 -0.002290 -0.019082
# 2 -0.004411 0.009237 -0.000360 -0.003000 0.002451 -0.000146
# 3 -0.001300 -0.000360 0.012997 -0.003811 0.000327 -0.001295
# 4 -0.003892 -0.003000 -0.003811 0.025400 0.005851 0.008064
# 5 -0.002290 0.002451 0.000327 0.005851 0.032601 0.004795
# 6 -0.019082 -0.000146 -0.001295 0.008064 0.004795 0.044506
#
#
# Mechanical properties :
#
#
# Convention : Reuss Voigt Hill
#
# Bulk Modulus (GPa) = 30.18073 52.27017 41.22545
# Shear Modulus (GPa) = 29.24522 39.78639 34.51580
#
# Velocity S-wave (km/s) = 3.48064 4.05975 3.78129
# Velocity P-wave (km/s) = 5.35308 6.60517 6.01181
#
# Compressibility (1/GPa) = 0.03313373
#
# Stress axis : x y z
#
# Youngs Moduli (GPa) = 43.40156 108.25475 76.93924
#
# Poissons Ratio (x) = 0.47751 0.10000
# Poissons Ratio (y) = 0.19144 0.02770
# Poissons Ratio (z) = 0.05641 0.03898
#
# Static dielectric constant tensor:
#      x y z
#    x 1.824310 0.000000 -0.000180 
#    y 0.000000 2.019110 -0.240330 
#    z -0.000180 -0.240330 2.366830 
# 
# From -- ./inp_files/376066.got.cif
#   From: 2010.05.17/outbox.cif.g08.bks.cpg/sg2_189_cif.got.tgz:376066.got - 2010.06.03 11:33:40.
