data_PCOD9057298
_publ_section_title
;
Structure prediction by ZEFSAII (Michael W. Deem and Ramdas Pophale) SiO2 
 PCOD9057298
Probable space group: P -1
;
_chemical_formula_sum "Si O2"
_cell_formula_units_Z 16
_cell_length_a 9.550271
_cell_length_b 12.024425
_cell_length_c 14.935046
_cell_angle_alpha 27.900459
_cell_angle_beta 72.569500
_cell_angle_gamma 81.597760
_cell_volume 738.184747
_symmetry_space_group_name_H-M "P -1"
_symmetry_group_IT_number 2
_symmetry_cell_setting 'triclinic'
loop_
_space_group_symop_operation_xyz
x,y,z
-x,-y,-z
loop_
_atom_site_type_symbol
_atom_site_label
_atom_site_fract_x
_atom_site_fract_y
_atom_site_fract_z
Si Si1 0.826217 0.846738 0.612988
Si Si2 0.903098 0.314250 0.579926
Si Si3 0.687811 0.301259 0.972734
Si Si4 0.249058 0.834075 0.758360
Si Si5 0.647609 0.637857 0.970327
Si Si6 0.945150 0.816855 0.894498
Si Si7 0.888109 0.753942 0.151479
Si Si8 0.329251 0.945792 0.040882
O O1 0.806674 0.565657 0.783048
O O2 0.720552 0.804363 0.752317
O O3 0.750196 0.975091 0.457834
O O4 0.000000 0.000000 0.500000
O O5 0.871168 0.492152 0.384680
O O6 0.764946 0.171911 0.769770
O O7 0.000000 0.500000 0.500000
O O8 0.984201 0.114121 0.669401
O O9 0.704467 0.213368 0.930990
O O10 0.704706 0.109854 0.185172
O O11 0.518299 0.340041 0.988858
O O12 0.066739 0.721928 0.883156
O O13 0.343813 0.640004 0.853839
O O14 0.773019 0.722445 0.962620
O O15 0.951625 0.750277 0.043155
O O16 0.725503 0.811366 0.140591
O O17 0.000000 0.000000 0.000000
O O18 0.500000 0.000000 0.000000
#
# Coordination Sequence:
#
# PCOD9057298 Si02
#       8
#     2   2   2   2   2   2   2   2
#     4  11  24  42  66 100 130 168 227 280 324 396
#     4  11  24  40  67  99 131 167 225 281 329 396
#     4  11  26  42  69  95 137 181 218 269 344 393
#     4  11  24  41  70  96 131 174 225 273 332 392
#     4  11  25  46  62  98 137 174 218 276 331 401
#     4  11  23  39  69  96 133 172 222 276 340 391
#     4  11  22  42  66  98 133 173 223 281 335 396
#     4  11  25  46  68  99 140 178 224 278 334 405
#
# _framework density 21.674790999999999
#
# number of rings (size 3 to 8) (size 9 to 14) (size 15 to 20)
#    0.000    1.000    3.750    4.125    3.500    4.500 
#    0.000    2.500    0.000    0.000    0.000    0.000 
#    0.000    0.000    0.000    0.000    0.000    0.000 
#
# Total GULP energy -89318.260432 kJ/mol
# GULP energy per Si atom -5582.391277 kJ/mol
# Density = 2.162546 g / cm^3
# Si number density = 21.674791 Si / 1000 Ang^3
#
#
#
# Elastic Constant Matrix: (Units=GPa)
#
#
# Indices 1 2 3 4 5 6 
#
# 1 93.9154 -2.0399 18.8493 6.8505 14.4324 -15.6708
# 2 -2.0399 70.0315 15.4714 18.6915 8.7663 -5.6172
# 3 18.8493 15.4714 83.0628 29.0066 40.2348 -2.3564
# 4 6.8505 18.6915 29.0066 26.1626 10.9952 2.8595
# 5 14.4324 8.7663 40.2348 10.9952 44.5865 2.6248
# 6 -15.6708 -5.6172 -2.3564 2.8595 2.6248 43.5251
#
#
#
# Elastic Compliance Matrix: (Units=1/GPa)
#
#
# Indices 1 2 3 4 5 6 
#
# 1 0.012450 0.002334 0.000296 -0.004135 -0.004050 0.005316
# 2 0.002334 0.019080 0.004405 -0.017830 -0.004378 0.004977
# 3 0.000296 0.004405 0.034093 -0.031462 -0.024325 0.006055
# 4 -0.004135 -0.017830 -0.031462 0.082501 0.013582 -0.011732
# 5 -0.004050 -0.004378 -0.024325 0.013582 0.043606 -0.006862
# 6 0.005316 0.004977 0.006055 -0.011732 -0.006862 0.027044
#
#
# Mechanical properties :
#
#
# Convention : Reuss Voigt Hill
#
# Bulk Modulus (GPa) = 12.54795 34.61903 23.58349
# Shear Modulus (GPa) = 21.61995 37.17011 29.39503
#
# Velocity S-wave (km/s) = 3.16170 4.14563 3.68664
# Velocity P-wave (km/s) = 4.37381 6.23872 5.38757
#
# Compressibility (1/GPa) = 0.07969426
#
# Stress axis : x y z
#
# Youngs Moduli (GPa) = 80.32117 52.41002 29.33138
#
# Poissons Ratio (x) = -0.12233 -0.00870
# Poissons Ratio (y) = -0.18748 -0.12920
# Poissons Ratio (z) = -0.02381 -0.23085
#
# Static dielectric constant tensor:
#      x y z
#    x 1.789820 0.019970 0.019500 
#    y 0.019970 1.825390 -0.018810 
#    z 0.019500 -0.018810 1.803410 
# 
# From -- ./inp_files/499662.got.cif
#   From: 2010.05.17/outbox.cif.g08.bks.cpg/sg2_250_cif.got.tgz:499662.got - 2010.06.03 11:33:40.
