data_PCOD9057712
_publ_section_title
;
Structure prediction by ZEFSAII (Michael W. Deem and Ramdas Pophale) SiO2 
 PCOD9057712
Probable space group: P -1
;
_chemical_formula_sum "Si O2"
_cell_formula_units_Z 14
_cell_length_a 8.290099
_cell_length_b 12.354213
_cell_length_c 7.527145
_cell_angle_alpha 67.053842
_cell_angle_beta 123.852869
_cell_angle_gamma 120.323717
_cell_volume 546.249498
_symmetry_space_group_name_H-M "P -1"
_symmetry_group_IT_number 2
_symmetry_cell_setting 'triclinic'
loop_
_space_group_symop_operation_xyz
x,y,z
-x,-y,-z
loop_
_atom_site_type_symbol
_atom_site_label
_atom_site_fract_x
_atom_site_fract_y
_atom_site_fract_z
Si Si1 0.720270 0.113402 0.533983
Si Si2 0.902266 0.486444 0.144560
Si Si3 0.826731 0.586194 0.353902
Si Si4 0.917892 0.930561 0.688882
Si Si5 0.305705 0.875777 0.910770
Si Si6 0.536769 0.307574 0.442563
Si Si7 0.511224 0.335804 0.800600
O O1 0.735439 0.142016 0.313914
O O2 0.683467 0.227382 0.541808
O O3 0.500000 0.000000 0.500000
O O4 0.883040 0.042373 0.709541
O O5 0.017703 0.418124 0.388701
O O6 0.466738 0.626135 0.413618
O O7 0.000000 0.500000 0.000000
O O8 0.661296 0.425827 0.979492
O O9 0.650608 0.441686 0.323913
O O10 0.722222 0.685812 0.271284
O O11 0.924619 0.605828 0.205124
O O12 0.699036 0.804720 0.640239
O O13 0.103277 0.882565 0.878482
O O14 0.000000 0.000000 0.500000
O O15 0.395755 0.772058 0.085738
O O16 0.500000 0.000000 0.000000
#
# Coordination Sequence:
#
# PCOD9057712 Si02
#       7
#     2   2   2   2   2   2   2
#     4   9  19  40  67  95 137 183 237 303 368 428
#     4  11  25  48  73 109 143 195 253 297 371 443
#     4  11  26  48  73 105 155 192 240 316 366 432
#     4   9  20  40  69  98 139 192 243 301 373 430
#     4  11  23  43  65 104 138 185 252 308 361 451
#     4  11  22  43  69 103 144 197 238 303 373 431
#     4  12  25  43  72 102 150 191 243 302 370 445
#
# _framework density 25.629314999999998
#
# number of rings (size 3 to 8) (size 9 to 14) (size 15 to 20)
#    0.000    1.429    1.429    4.286    2.000    0.000 
#    7.714    6.429    0.000    0.000    0.000    0.000 
#    0.000    0.000    0.000    0.000    0.000    0.000 
#
# Total GULP energy -78006.784124 kJ/mol
# GULP energy per Si atom -5571.913152 kJ/mol
# Density = 2.557098 g / cm^3
# Si number density = 25.629315 Si / 1000 Ang^3
#
#
#
# Elastic Constant Matrix: (Units=GPa)
#
#
# Indices 1 2 3 4 5 6 
#
# 1 206.0771 45.1110 77.9872 6.7227 25.2035 -36.7590
# 2 45.1110 140.3678 20.9334 18.6384 14.2319 8.8645
# 3 77.9872 20.9334 75.3789 22.6398 9.0999 -17.1444
# 4 6.7227 18.6384 22.6398 34.0743 -11.6259 7.1322
# 5 25.2035 14.2319 9.0999 -11.6259 65.9034 -5.7988
# 6 -36.7590 8.8645 -17.1444 7.1322 -5.7988 40.1917
#
#
#
# Elastic Compliance Matrix: (Units=1/GPa)
#
#
# Indices 1 2 3 4 5 6 
#
# 1 0.009849 -0.002560 -0.009873 0.004889 -0.000600 0.004407
# 2 -0.002560 0.008897 0.001402 -0.005458 -0.002370 -0.003078
# 3 -0.009873 0.001402 0.032609 -0.023722 -0.004499 0.008131
# 4 0.004889 -0.005458 -0.023722 0.053443 0.010925 -0.012351
# 5 -0.000600 -0.002370 -0.004499 0.010925 0.018355 -0.001236
# 6 0.004407 -0.003078 0.008131 -0.012351 -0.001236 0.035072
#
#
# Mechanical properties :
#
#
# Convention : Reuss Voigt Hill
#
# Bulk Modulus (GPa) = 34.13556 78.87635 56.50596
# Shear Modulus (GPa) = 26.30893 46.55334 36.43114
#
# Velocity S-wave (km/s) = 3.20741 4.26656 3.77432
# Velocity P-wave (km/s) = 5.20235 7.42388 6.41009
#
# Compressibility (1/GPa) = 0.02929496
#
# Stress axis : x y z
#
# Youngs Moduli (GPa) = 101.53246 112.39842 30.66653
#
# Poissons Ratio (x) = 0.28769 0.30277
# Poissons Ratio (y) = 0.25988 -0.04301
# Poissons Ratio (z) = 1.00241 -0.15764
#
# Static dielectric constant tensor:
#      x y z
#    x 2.061200 0.056810 0.021340 
#    y 0.056810 1.933870 0.064700 
#    z 0.021340 0.064700 1.922730 
# 
# From -- ./inp_files/200447.got.cif
#   From: 2010.05.17/outbox.cif.g08.bks.cpg/sg2_101_cif.got.tgz:200447.got - 2010.06.03 11:33:40.
