data_PCOD9057307
_publ_section_title
;
Structure prediction by ZEFSAII (Michael W. Deem and Ramdas Pophale) SiO2 
 PCOD9057307
Probable space group: P -1
;
_chemical_formula_sum "Si O2"
_cell_formula_units_Z 16
_cell_length_a 10.449969
_cell_length_b 11.989048
_cell_length_c 13.282358
_cell_angle_alpha 124.310139
_cell_angle_beta 45.261836
_cell_angle_gamma 89.555342
_cell_volume 707.235360
_symmetry_space_group_name_H-M "P -1"
_symmetry_group_IT_number 2
_symmetry_cell_setting 'triclinic'
loop_
_space_group_symop_operation_xyz
x,y,z
-x,-y,-z
loop_
_atom_site_type_symbol
_atom_site_label
_atom_site_fract_x
_atom_site_fract_y
_atom_site_fract_z
Si Si1 0.744265 0.283734 0.258025
Si Si2 0.116341 0.679509 0.297372
Si Si3 0.720729 0.167137 0.430206
Si Si4 0.261429 0.903535 0.028290
Si Si5 0.796039 0.564176 0.061280
Si Si6 0.474494 0.697159 0.009213
Si Si7 0.458001 0.015840 0.202350
Si Si8 0.728861 0.892642 0.184306
O O1 0.500000 0.500000 0.500000
O O2 0.755538 0.200527 0.314339
O O3 0.737324 0.186990 0.118705
O O4 0.998223 0.234997 0.080808
O O5 0.295684 0.515965 0.196218
O O6 0.837501 0.833553 0.569718
O O7 0.114032 0.585142 0.150367
O O8 0.245670 0.752412 0.228029
O O9 0.460433 0.358851 0.710537
O O10 0.712767 0.008272 0.342666
O O11 0.971244 0.076597 0.304093
O O12 0.393928 0.751932 0.965877
O O13 0.402574 0.966582 0.949149
O O14 0.710513 0.748902 0.154062
O O15 0.000000 0.500000 0.000000
O O16 0.540395 0.817629 0.059057
O O17 0.528535 0.035161 0.283430
#
# Coordination Sequence:
#
# PCOD9057307 Si02
#       8
#     2   2   2   2   2   2   2   2
#     4  11  23  41  67 102 145 174 215 288 347 405
#     4  11  28  47  71 103 140 179 233 289 345 404
#     4  11  23  43  67 103 139 177 222 279 351 409
#     4  11  25  44  73 100 133 185 234 274 348 422
#     4  12  26  41  70 106 138 177 231 281 343 416
#     4  11  27  49  68 100 138 184 236 285 340 404
#     4  12  23  48  74  97 139 184 231 286 343 403
#     4  11  22  42  67 102 138 179 223 280 346 408
#
# _framework density 22.623303
#
# number of rings (size 3 to 8) (size 9 to 14) (size 15 to 20)
#    0.000    0.750    3.750    3.375    8.750    2.500 
#    0.000    0.000    0.000    0.000    0.000    0.000 
#    0.000    0.000    0.000    0.000    0.000    0.000 
#
# Total GULP energy -89560.875133 kJ/mol
# GULP energy per Si atom -5597.554696 kJ/mol
# Density = 2.257181 g / cm^3
# Si number density = 22.623303 Si / 1000 Ang^3
#
#
#
# Elastic Constant Matrix: (Units=GPa)
#
#
# Indices 1 2 3 4 5 6 
#
# 1 93.6743 37.7128 17.1811 -5.2125 -24.0298 -19.3186
# 2 37.7128 126.6045 26.6450 -11.5854 -16.8462 -10.2750
# 3 17.1811 26.6450 83.5460 -3.0732 -30.4561 -3.8247
# 4 -5.2125 -11.5854 -3.0732 29.7461 1.4700 -7.6432
# 5 -24.0298 -16.8462 -30.4561 1.4700 36.8782 5.1590
# 6 -19.3186 -10.2750 -3.8247 -7.6432 5.1590 42.8533
#
#
#
# Elastic Compliance Matrix: (Units=1/GPa)
#
#
# Indices 1 2 3 4 5 6 
#
# 1 0.015180 -0.002935 0.001376 0.002685 0.008784 0.005683
# 2 -0.002935 0.009700 -0.002152 0.003371 0.000416 0.001362
# 3 0.001376 -0.002152 0.017673 0.000521 0.014484 0.000031
# 4 0.002685 0.003371 0.000521 0.037629 0.001009 0.008655
# 5 0.008784 0.000416 0.014484 0.001009 0.044935 0.000123
# 6 0.005683 0.001362 0.000031 0.008655 0.000123 0.027756
#
#
# Mechanical properties :
#
#
# Convention : Reuss Voigt Hill
#
# Bulk Modulus (GPa) = 28.46563 51.87805 40.17184
# Shear Modulus (GPa) = 29.06878 36.71459 32.89168
#
# Velocity S-wave (km/s) = 3.58844 4.03285 3.81712
# Velocity P-wave (km/s) = 5.45701 6.68328 6.10103
#
# Compressibility (1/GPa) = 0.03513009
#
# Stress axis : x y z
#
# Youngs Moduli (GPa) = 65.87787 103.09019 56.58189
#
# Poissons Ratio (x) = 0.30261 -0.07784
# Poissons Ratio (y) = 0.19338 0.12176
# Poissons Ratio (z) = -0.09062 0.22184
#
# Static dielectric constant tensor:
#      x y z
#    x 1.899120 0.025790 0.000810 
#    y 0.025790 1.827970 -0.011620 
#    z 0.000810 -0.011620 1.840860 
# 
# From -- ./inp_files/519805.got.cif
#   From: 2010.05.17/outbox.cif.g08.bks.cpg/sg2_260_cif.got.tgz:519805.got - 2010.06.03 11:33:40.
