data_PCOD9057989
_publ_section_title
;
Structure prediction by ZEFSAII (Michael W. Deem and Ramdas Pophale) SiO2 
 PCOD9057989
Probable space group: P -1
;
_chemical_formula_sum "Si O2"
_cell_formula_units_Z 16
_cell_length_a 12.462860
_cell_length_b 7.397623
_cell_length_c 18.709633
_cell_angle_alpha 78.791807
_cell_angle_beta 155.741561
_cell_angle_gamma 91.263208
_cell_volume 641.591785
_symmetry_space_group_name_H-M "P -1"
_symmetry_group_IT_number 2
_symmetry_cell_setting 'triclinic'
loop_
_space_group_symop_operation_xyz
x,y,z
-x,-y,-z
loop_
_atom_site_type_symbol
_atom_site_label
_atom_site_fract_x
_atom_site_fract_y
_atom_site_fract_z
Si Si1 0.208146 0.627087 0.773501
Si Si2 0.033670 0.269418 0.172227
Si Si3 0.384746 0.355300 0.766139
Si Si4 0.345303 0.230194 0.491222
Si Si5 0.282020 0.141976 0.174649
Si Si6 0.353698 0.617660 0.596533
Si Si7 0.764608 0.948068 0.219349
Si Si8 0.794165 0.370432 0.762499
O O1 0.239973 0.526020 0.723847
O O2 0.939444 0.621548 0.654489
O O3 0.188702 0.853934 0.745266
O O4 0.500000 0.500000 0.000000
O O5 0.228148 0.134316 0.363480
O O6 0.131741 0.215196 0.154778
O O7 0.063162 0.481403 0.189991
O O8 0.719997 0.281893 0.987935
O O9 0.299497 0.168784 0.743728
O O10 0.679462 0.541021 0.357078
O O11 0.589342 0.293088 0.599547
O O12 0.510048 0.081055 0.665854
O O13 0.472436 0.269210 0.265264
O O14 0.045177 0.188483 0.966957
O O15 0.565880 0.498273 0.672827
O O16 0.058053 0.785461 0.379445
O O17 0.500000 0.000000 0.000000
#
# Coordination Sequence:
#
# PCOD9057989 Si02
#       8
#     2   2   2   2   2   2   2   2
#     4  12  25  46  70  99 144 182 225 295 345 403
#     4  11  22  44  67  99 135 180 225 283 349 409
#     4  12  24  46  72  99 143 184 232 282 349 419
#     4  12  24  42  68 103 136 175 235 291 341 408
#     4  11  22  45  69  95 138 182 226 282 347 416
#     4  11  23  46  69  96 140 183 228 283 349 413
#     4  12  25  44  71 103 133 186 237 281 346 415
#     4  11  23  43  71  97 136 184 224 287 353 407
#
# _framework density 24.937977
#
# number of rings (size 3 to 8) (size 9 to 14) (size 15 to 20)
#    0.000    0.500    6.250    3.000    0.000    0.500 
#    4.500    0.000    0.000    0.000    0.000    0.000 
#    0.000    0.000    0.000    0.000    0.000    0.000 
#
# Total GULP energy -89596.702493 kJ/mol
# GULP energy per Si atom -5599.793906 kJ/mol
# Density = 2.488122 g / cm^3
# Si number density = 24.937977 Si / 1000 Ang^3
#
#
#
# Elastic Constant Matrix: (Units=GPa)
#
#
# Indices 1 2 3 4 5 6 
#
# 1 79.8712 16.9166 9.6328 -7.0719 8.3727 12.9989
# 2 16.9166 118.8794 21.0160 -3.1950 5.7776 19.9988
# 3 9.6328 21.0160 178.7220 6.0786 14.3775 2.9139
# 4 -7.0719 -3.1950 6.0786 43.2332 3.4123 -0.8173
# 5 8.3727 5.7776 14.3775 3.4123 32.9594 2.0668
# 6 12.9989 19.9988 2.9139 -0.8173 2.0668 34.8791
#
#
#
# Elastic Compliance Matrix: (Units=1/GPa)
#
#
# Indices 1 2 3 4 5 6 
#
# 1 0.014041 -0.000966 -0.000397 0.002451 -0.003202 -0.004398
# 2 -0.000966 0.009617 -0.000957 0.000654 -0.000776 -0.005013
# 3 -0.000397 -0.000957 0.005932 -0.000786 -0.002258 0.000316
# 4 0.002451 0.000654 -0.000786 0.023905 -0.002838 -0.000494
# 5 -0.003202 -0.000776 -0.002258 -0.002838 0.032579 -0.000170
# 6 -0.004398 -0.005013 0.000316 -0.000494 -0.000170 0.033156
#
#
# Mechanical properties :
#
#
# Convention : Reuss Voigt Hill
#
# Bulk Modulus (GPa) = 40.08037 52.51149 46.29593
# Shear Modulus (GPa) = 37.82484 44.20815 41.01650
#
# Velocity S-wave (km/s) = 3.89878 4.21494 4.05994
# Velocity P-wave (km/s) = 6.03111 6.69255 6.37042
#
# Compressibility (1/GPa) = 0.02494987
#
# Stress axis : x y z
#
# Youngs Moduli (GPa) = 71.21865 103.98088 168.56613
#
# Poissons Ratio (x) = 0.10049 0.06696
# Poissons Ratio (y) = 0.06883 0.16129
# Poissons Ratio (z) = 0.02829 0.09949
#
# Static dielectric constant tensor:
#      x y z
#    x 1.958700 0.021690 -0.018800 
#    y 0.021690 2.083630 -0.024940 
#    z -0.018800 -0.024940 1.979710 
# 
# From -- ./inp_files/611641.got.cif
#   From: 2010.05.17/outbox.cif.g08.bks.cpg/sg2_306_cif.got.tgz:611641.got - 2010.06.03 11:33:40.
