data_PCOD9057400
_publ_section_title
;
Structure prediction by ZEFSAII (Michael W. Deem and Ramdas Pophale) SiO2 
 PCOD9057400
Probable space group: P -1
;
_chemical_formula_sum "Si O2"
_cell_formula_units_Z 16
_cell_length_a 11.412320
_cell_length_b 9.326180
_cell_length_c 13.607136
_cell_angle_alpha 74.949215
_cell_angle_beta 32.584521
_cell_angle_gamma 84.239505
_cell_volume 733.402242
_symmetry_space_group_name_H-M "P -1"
_symmetry_group_IT_number 2
_symmetry_cell_setting 'triclinic'
loop_
_space_group_symop_operation_xyz
x,y,z
-x,-y,-z
loop_
_atom_site_type_symbol
_atom_site_label
_atom_site_fract_x
_atom_site_fract_y
_atom_site_fract_z
Si Si1 0.961246 0.375117 0.830424
Si Si2 0.506622 0.126529 0.217558
Si Si3 0.566086 0.842585 0.952115
Si Si4 0.082250 0.302149 0.160656
Si Si5 0.753206 0.407713 0.666549
Si Si6 0.622639 0.219767 0.593743
Si Si7 0.626629 0.653402 0.590597
Si Si8 0.265561 0.410894 0.799360
O O1 0.146085 0.348387 0.627001
O O2 0.092937 0.403714 0.835671
O O3 0.884144 0.532644 0.838786
O O4 0.752938 0.233625 0.012775
O O5 0.379214 0.146193 0.203396
O O6 0.389242 0.187666 0.381179
O O7 0.505799 0.951017 0.262680
O O8 0.764048 0.801693 0.882967
O O9 0.357717 0.701614 0.147919
O O10 0.500000 0.000000 0.000000
O O11 0.824710 0.225150 0.375616
O O12 0.147413 0.335849 0.995470
O O13 0.727420 0.299266 0.607621
O O14 0.617968 0.534029 0.708196
O O15 0.000000 0.500000 0.500000
O O16 0.453467 0.318038 0.657541
O O17 0.409818 0.579437 0.692606
#
# Coordination Sequence:
#
# PCOD9057400 Si02
#       8
#     2   2   2   2   2   2   2   2
#     4  12  25  44  77 102 136 187 237 290 346 408
#     4  12  27  44  67 106 143 182 234 285 353 416
#     4  12  25  46  70  99 148 182 224 289 351 414
#     4  12  24  44  74 101 131 192 234 279 350 414
#     4  11  22  42  69  95 138 181 229 280 335 409
#     4  11  26  46  65 105 144 179 230 287 351 407
#     4  11  24  42  69 107 139 176 241 289 335 416
#     4  11  23  47  74 102 141 180 239 295 338 409
#
# _framework density 21.816133000000001
#
# number of rings (size 3 to 8) (size 9 to 14) (size 15 to 20)
#    0.000    0.500    7.500    1.500    1.750    5.000 
#    0.000    1.250    0.000    0.000    0.000    0.000 
#    0.000    0.000    0.000    0.000    0.000    0.000 
#
# Total GULP energy -89573.213240 kJ/mol
# GULP energy per Si atom -5598.325827 kJ/mol
# Density = 2.176648 g / cm^3
# Si number density = 21.816133 Si / 1000 Ang^3
#
#
#
# Elastic Constant Matrix: (Units=GPa)
#
#
# Indices 1 2 3 4 5 6 
#
# 1 71.2415 38.9273 5.1286 13.4426 -5.7883 -7.0441
# 2 38.9273 116.1465 20.6147 0.4505 -13.3005 0.2347
# 3 5.1286 20.6147 90.2637 10.9428 -9.1152 -9.4141
# 4 13.4426 0.4505 10.9428 39.1800 6.5911 -2.6818
# 5 -5.7883 -13.3005 -9.1152 6.5911 21.6263 1.7947
# 6 -7.0441 0.2347 -9.4141 -2.6818 1.7947 18.2335
#
#
#
# Elastic Compliance Matrix: (Units=1/GPa)
#
#
# Indices 1 2 3 4 5 6 
#
# 1 0.020031 -0.006686 0.002514 -0.007652 0.004010 0.007602
# 2 -0.006686 0.011781 -0.002557 0.001888 0.004150 -0.004186
# 3 0.002514 -0.002557 0.013408 -0.005094 0.005756 0.006611
# 4 -0.007652 0.001888 -0.005094 0.031711 -0.012724 0.000306
# 5 0.004010 0.004150 0.005756 -0.012724 0.056415 -0.002957
# 6 0.007602 -0.004186 0.006611 0.000306 -0.002957 0.061584
#
#
# Mechanical properties :
#
#
# Convention : Reuss Voigt Hill
#
# Bulk Modulus (GPa) = 31.48402 45.22142 38.35272
# Shear Modulus (GPa) = 22.83369 30.00670 26.42020
#
# Velocity S-wave (km/s) = 3.23870 3.71271 3.48377
# Velocity P-wave (km/s) = 5.33370 6.25719 5.81381
#
# Compressibility (1/GPa) = 0.03176214
#
# Stress axis : x y z
#
# Youngs Moduli (GPa) = 49.92380 84.88285 74.58208
#
# Poissons Ratio (x) = 0.56754 -0.18753
# Poissons Ratio (y) = 0.33380 0.19071
# Poissons Ratio (z) = -0.12553 0.21705
#
# Static dielectric constant tensor:
#      x y z
#    x 1.814960 0.020040 0.016930 
#    y 0.020040 1.773380 0.019470 
#    z 0.016930 0.019470 1.812590 
# 
# From -- ./inp_files/515295.got.cif
#   From: 2010.05.17/outbox.cif.g08.bks.cpg/sg2_258_cif.got.tgz:515295.got - 2010.06.03 11:33:40.
