data_PCOD9057777
_publ_section_title
;
Structure prediction by ZEFSAII (Michael W. Deem and Ramdas Pophale) SiO2 
 PCOD9057777
Probable space group: P -1
;
_chemical_formula_sum "Si O2"
_cell_formula_units_Z 16
_cell_length_a 9.785825
_cell_length_b 6.404464
_cell_length_c 17.089094
_cell_angle_alpha 92.202710
_cell_angle_beta 132.655851
_cell_angle_gamma 102.829887
_cell_volume 740.878316
_symmetry_space_group_name_H-M "P -1"
_symmetry_group_IT_number 2
_symmetry_cell_setting 'triclinic'
loop_
_space_group_symop_operation_xyz
x,y,z
-x,-y,-z
loop_
_atom_site_type_symbol
_atom_site_label
_atom_site_fract_x
_atom_site_fract_y
_atom_site_fract_z
Si Si1 0.895358 0.152866 0.498091
Si Si2 0.338975 0.258415 0.927618
Si Si3 0.602690 0.846775 0.500054
Si Si4 0.220770 0.422406 0.351349
Si Si5 0.901190 0.419843 0.348528
Si Si6 0.027093 0.462446 0.877036
Si Si7 0.463108 0.939329 0.866807
Si Si8 0.154887 0.858315 0.059970
O O1 0.855198 0.296240 0.412898
O O2 0.058350 0.322740 0.619237
O O3 0.715184 0.985238 0.472402
O O4 0.000000 0.000000 0.500000
O O5 0.147676 0.322371 0.877506
O O6 0.372989 0.129515 0.861320
O O7 0.500000 0.500000 0.000000
O O8 0.395052 0.109278 0.013244
O O9 0.430808 0.610761 0.416538
O O10 0.744311 0.806256 0.621600
O O11 0.500000 0.000000 0.500000
O O12 0.111847 0.438973 0.391372
O O13 0.078493 0.440422 0.228178
O O14 0.723284 0.281726 0.222705
O O15 0.887926 0.284068 0.879787
O O16 0.129673 0.676288 0.976749
O O17 0.613906 0.996404 0.853444
O O18 0.000000 0.000000 0.000000
#
# Coordination Sequence:
#
# PCOD9057777 Si02
#       8
#     2   2   2   2   2   2   2   2
#     4  11  24  48  69  98 142 184 227 301 353 419
#     4  11  22  43  70  97 142 179 235 292 341 417
#     4  11  24  47  72  99 139 180 232 292 357 421
#     4  11  25  44  72 108 131 182 244 289 351 434
#     4  11  25  43  71 106 139 179 243 288 356 423
#     4  11  25  44  70 100 140 186 236 291 349 419
#     4  11  25  42  69 106 137 185 238 289 349 422
#     4  11  24  47  64  99 149 187 227 291 353 422
#
# _framework density 21.595987999999998
#
# number of rings (size 3 to 8) (size 9 to 14) (size 15 to 20)
#    0.000    1.000    5.000    0.750    3.500    4.000 
#    2.250    0.000    0.000    0.000    0.000    0.000 
#    0.000    0.000    0.000    0.000    0.000    0.000 
#
# Total GULP energy -89142.488931 kJ/mol
# GULP energy per Si atom -5571.405558 kJ/mol
# Density = 2.154683 g / cm^3
# Si number density = 21.595988 Si / 1000 Ang^3
#
#
#
# Elastic Constant Matrix: (Units=GPa)
#
#
# Indices 1 2 3 4 5 6 
#
# 1 161.1662 65.7271 33.7402 -1.1174 12.2164 7.4356
# 2 65.7271 89.6769 17.6094 -6.4295 4.0197 -5.7258
# 3 33.7402 17.6094 56.0849 -12.9806 3.7786 -2.6577
# 4 -1.1174 -6.4295 -12.9806 42.7672 6.5950 1.2405
# 5 12.2164 4.0197 3.7786 6.5950 19.1666 -2.5333
# 6 7.4356 -5.7258 -2.6577 1.2405 -2.5333 65.5007
#
#
#
# Elastic Compliance Matrix: (Units=1/GPa)
#
#
# Indices 1 2 3 4 5 6 
#
# 1 0.010206 -0.006704 -0.004159 -0.001312 -0.004098 -0.002047
# 2 -0.006704 0.016438 -0.000609 0.001963 0.000556 0.002158
# 3 -0.004159 -0.000609 0.022514 0.007221 -0.004007 0.001041
# 4 -0.001312 0.001963 0.007221 0.027461 -0.010489 -0.000312
# 5 -0.004098 0.000556 -0.004007 -0.010489 0.059445 0.002849
# 6 -0.002047 0.002158 0.001041 -0.000312 0.002849 0.015846
#
#
# Mechanical properties :
#
#
# Convention : Reuss Voigt Hill
#
# Bulk Modulus (GPa) = 38.14912 60.12016 49.13464
# Shear Modulus (GPa) = 27.23411 38.14367 32.68889
#
# Velocity S-wave (km/s) = 3.55501 4.20722 3.89479
# Velocity P-wave (km/s) = 5.87827 7.17635 6.55950
#
# Compressibility (1/GPa) = 0.02621292
#
# Stress axis : x y z
#
# Youngs Moduli (GPa) = 97.98440 60.83393 44.41696
#
# Poissons Ratio (x) = 0.40786 0.18474
# Poissons Ratio (y) = 0.65693 0.02704
# Poissons Ratio (z) = 0.40754 0.03703
#
# Static dielectric constant tensor:
#      x y z
#    x 1.810240 -0.027770 0.003990 
#    y -0.027770 1.744740 0.003510 
#    z 0.003990 0.003510 1.828110 
# 
# From -- ./inp_files/553569.got.cif
#   From: 2010.05.17/outbox.cif.g08.bks.cpg/sg2_277_cif.got.tgz:553569.got - 2010.06.03 11:33:40.
