data_PCOD9057149
_publ_section_title
;
Structure prediction by ZEFSAII (Michael W. Deem and Ramdas Pophale) SiO2 
 PCOD9057149
Probable space group: P -1
;
_chemical_formula_sum "Si O2"
_cell_formula_units_Z 16
_cell_length_a 16.129192
_cell_length_b 9.609941
_cell_length_c 23.589194
_cell_angle_alpha 46.269500
_cell_angle_beta 18.024139
_cell_angle_gamma 46.305290
_cell_volume 808.289853
_symmetry_space_group_name_H-M "P -1"
_symmetry_group_IT_number 2
_symmetry_cell_setting 'triclinic'
loop_
_space_group_symop_operation_xyz
x,y,z
-x,-y,-z
loop_
_atom_site_type_symbol
_atom_site_label
_atom_site_fract_x
_atom_site_fract_y
_atom_site_fract_z
Si Si1 0.829041 0.213225 0.546374
Si Si2 0.275180 0.069851 0.966802
Si Si3 0.224780 0.437224 0.588618
Si Si4 0.153753 0.417595 0.368438
Si Si5 0.337867 0.910399 0.846957
Si Si6 0.280415 0.667738 0.121241
Si Si7 0.158318 0.594066 0.819859
Si Si8 0.834797 0.703709 0.205122
O O1 0.849611 0.330956 0.441368
O O2 0.947735 0.342769 0.479536
O O3 0.000000 0.000000 0.500000
O O4 0.520096 0.192280 0.765535
O O5 0.369764 0.874978 0.995298
O O6 0.220955 0.999683 0.957975
O O7 0.020351 0.194331 0.127479
O O8 0.527375 0.385328 0.380977
O O9 0.222493 0.379741 0.672340
O O10 0.000507 0.335917 0.729463
O O11 0.389034 0.236817 0.277581
O O12 0.258836 0.598794 0.218558
O O13 0.000000 0.500000 0.500000
O O14 0.365254 0.098608 0.737773
O O15 0.123652 0.782544 0.996937
O O16 0.500000 0.500000 0.000000
O O17 0.161180 0.457979 0.800778
O O18 0.000000 0.500000 0.000000
#
# Coordination Sequence:
#
# PCOD9057149 Si02
#       8
#     2   2   2   2   2   2   2   2
#     4  11  22  41  71  92 128 177 219 268 330 396
#     4  12  22  43  65  99 129 176 220 267 336 390
#     4  11  23  43  69  96 130 175 222 271 330 388
#     4  11  25  42  67  99 131 169 220 275 328 388
#     4  11  22  42  70  91 137 175 221 263 341 395
#     4  11  22  45  71  95 128 178 224 269 324 402
#     4  12  25  40  65  98 140 169 218 277 333 386
#     4  11  24  42  67  98 131 177 217 277 324 396
#
# _framework density 19.794878000000001
#
# number of rings (size 3 to 8) (size 9 to 14) (size 15 to 20)
#    0.000    0.750    6.250    1.125    1.750    1.500 
#    2.250    0.625    0.000    0.000    0.000    0.000 
#    0.000    0.000    0.000    0.000    0.000    0.000 
#
# Total GULP energy -89354.079189 kJ/mol
# GULP energy per Si atom -5584.629949 kJ/mol
# Density = 1.974982 g / cm^3
# Si number density = 19.794878 Si / 1000 Ang^3
#
#
#
# Elastic Constant Matrix: (Units=GPa)
#
#
# Indices 1 2 3 4 5 6 
#
# 1 84.8799 36.0906 34.1128 -1.6753 15.9187 -20.4899
# 2 36.0906 106.2016 25.9121 -8.9666 16.7803 -27.2611
# 3 34.1128 25.9121 82.4805 0.3560 7.4855 -11.8307
# 4 -1.6753 -8.9666 0.3560 32.3059 -8.9586 6.3922
# 5 15.9187 16.7803 7.4855 -8.9586 50.1518 -14.6222
# 6 -20.4899 -27.2611 -11.8307 6.3922 -14.6222 33.0512
#
#
#
# Elastic Compliance Matrix: (Units=1/GPa)
#
#
# Indices 1 2 3 4 5 6 
#
# 1 0.016734 -0.002807 -0.005028 -0.001589 -0.002286 0.005555
# 2 -0.002807 0.013045 -0.001775 0.001785 -0.000627 0.007762
# 3 -0.005028 -0.001775 0.014903 -0.001098 0.000058 0.000992
# 4 -0.001589 0.001785 -0.001098 0.033560 0.004823 -0.004262
# 5 -0.002286 -0.000627 0.000058 0.004823 0.023993 0.007768
# 6 0.005555 0.007762 0.000992 -0.004262 0.007768 0.044718
#
#
# Mechanical properties :
#
#
# Convention : Reuss Voigt Hill
#
# Bulk Modulus (GPa) = 39.27357 51.75476 45.51417
# Shear Modulus (GPa) = 28.62715 34.93156 31.77935
#
# Velocity S-wave (km/s) = 3.80701 4.20536 4.01113
# Velocity P-wave (km/s) = 6.26161 7.05566 6.67046
#
# Compressibility (1/GPa) = 0.02546242
#
# Stress axis : x y z
#
# Youngs Moduli (GPa) = 59.75888 76.65693 67.10136
#
# Poissons Ratio (x) = 0.21517 0.33738
# Poissons Ratio (y) = 0.16774 0.11909
# Poissons Ratio (z) = 0.30047 0.13605
#
# Static dielectric constant tensor:
#      x y z
#    x 1.694440 -0.059560 -0.065980 
#    y -0.059560 1.703280 -0.027200 
#    z -0.065980 -0.027200 1.676320 
# 
# From -- ./inp_files/218796.got.cif
#   From: 2010.05.17/outbox.cif.g08.bks.cpg/sg2_110_cif.got.tgz:218796.got - 2010.06.03 11:33:40.
