data_PCOD9057585
_publ_section_title
;
Structure prediction by ZEFSAII (Michael W. Deem and Ramdas Pophale) SiO2 
 PCOD9057585
Probable space group: P -1
;
_chemical_formula_sum "Si O2"
_cell_formula_units_Z 16
_cell_length_a 11.227992
_cell_length_b 14.085432
_cell_length_c 9.500979
_cell_angle_alpha 140.316175
_cell_angle_beta 45.406872
_cell_angle_gamma 131.139518
_cell_volume 660.011241
_symmetry_space_group_name_H-M "P -1"
_symmetry_group_IT_number 2
_symmetry_cell_setting 'triclinic'
loop_
_space_group_symop_operation_xyz
x,y,z
-x,-y,-z
loop_
_atom_site_type_symbol
_atom_site_label
_atom_site_fract_x
_atom_site_fract_y
_atom_site_fract_z
Si Si1 0.263458 0.193931 0.153180
Si Si2 0.901907 0.313977 0.055326
Si Si3 0.313398 0.385307 0.058988
Si Si4 0.105756 0.595223 0.329168
Si Si5 0.388444 0.127144 0.510916
Si Si6 0.858972 0.839419 0.473963
Si Si7 0.207403 0.851931 0.755578
Si Si8 0.661062 0.219079 0.886918
O O1 0.283731 0.329924 0.180118
O O2 0.155430 0.187135 0.377934
O O3 0.459812 0.204558 0.048687
O O4 0.204184 0.027195 0.937805
O O5 0.869984 0.205066 0.093293
O O6 0.935533 0.488936 0.277458
O O7 0.748219 0.258161 0.009858
O O8 0.069632 0.292280 0.809041
O O9 0.175798 0.476468 0.231164
O O10 0.500000 0.500000 0.000000
O O11 0.307720 0.231731 0.799093
O O12 0.107801 0.741078 0.590212
O O13 0.244638 0.655432 0.160105
O O14 0.323803 0.158890 0.444643
O O15 0.593198 0.161671 0.414546
O O16 0.318418 0.943929 0.374478
O O17 0.000000 0.000000 0.500000
#
# Coordination Sequence:
#
# PCOD9057585 Si02
#       8
#     2   2   2   2   2   2   2   2
#     4  11  24  44  76 103 132 182 234 283 336 410
#     4  12  25  45  68 101 143 182 225 285 343 406
#     4  12  23  45  68 103 141 177 229 281 343 406
#     4  12  25  45  68 101 143 182 225 285 343 406
#     4  11  22  42  76  99 136 180 228 293 334 410
#     4  12  23  45  68 103 141 177 229 281 343 406
#     4  11  23  44  71 103 135 178 234 279 344 407
#     4  11  23  44  71 103 135 178 234 279 344 407
#
# _framework density 24.242011000000002
#
# number of rings (size 3 to 8) (size 9 to 14) (size 15 to 20)
#    0.000    0.500    6.250    2.250    0.000    4.000 
#    6.750    2.500    0.000    0.000    0.000    0.000 
#    0.000    0.000    0.000    0.000    0.000    0.000 
#
# Total GULP energy -89686.194025 kJ/mol
# GULP energy per Si atom -5605.387127 kJ/mol
# Density = 2.418683 g / cm^3
# Si number density = 24.242011 Si / 1000 Ang^3
#
#
#
# Elastic Constant Matrix: (Units=GPa)
#
#
# Indices 1 2 3 4 5 6 
#
# 1 53.5399 36.3878 24.0654 15.8653 9.7385 12.3592
# 2 36.3878 146.6893 59.8245 3.3769 24.1128 -11.4094
# 3 24.0654 59.8245 120.7045 11.5936 16.1897 -6.9366
# 4 15.8653 3.3769 11.5936 37.4482 1.2666 11.4650
# 5 9.7385 24.1128 16.1897 1.2666 38.0723 -1.0855
# 6 12.3592 -11.4094 -6.9366 11.4650 -1.0855 36.6781
#
#
#
# Elastic Compliance Matrix: (Units=1/GPa)
#
#
# Indices 1 2 3 4 5 6 
#
# 1 0.029152 -0.006588 -0.002010 -0.008048 -0.002441 -0.009809
# 2 -0.006588 0.010739 -0.003446 0.001704 -0.003586 0.004270
# 3 -0.002010 -0.003446 0.011076 -0.002995 -0.001840 0.002582
# 4 -0.008048 0.001704 -0.002995 0.033206 0.000930 -0.007676
# 5 -0.002441 -0.003586 -0.001840 0.000930 0.029912 -0.000046
# 6 -0.009809 0.004270 0.002582 -0.007676 -0.000046 0.034784
#
#
# Mechanical properties :
#
#
# Convention : Reuss Voigt Hill
#
# Bulk Modulus (GPa) = 37.20448 62.38768 49.79608
# Shear Modulus (GPa) = 27.48490 35.81678 31.65084
#
# Velocity S-wave (km/s) = 3.37081 3.84795 3.61726
# Velocity P-wave (km/s) = 5.52541 6.74786 6.16700
#
# Compressibility (1/GPa) = 0.02687848
#
# Stress axis : x y z
#
# Youngs Moduli (GPa) = 34.30294 93.11606 90.28161
#
# Poissons Ratio (x) = 0.61345 0.18148
# Poissons Ratio (y) = 0.22599 0.31115
# Poissons Ratio (z) = 0.06896 0.32092
#
# Static dielectric constant tensor:
#      x y z
#    x 1.935370 0.014470 -0.016640 
#    y 0.014470 1.902180 0.013580 
#    z -0.016640 0.013580 1.913630 
# 
# From -- ./inp_files/218879.got.cif
#   From: 2010.05.17/outbox.cif.g08.bks.cpg/sg2_110_cif.got.tgz:218879.got - 2010.06.03 11:33:40.
