data_PCOD9057190
_publ_section_title
;
Structure prediction by ZEFSAII (Michael W. Deem and Ramdas Pophale) SiO2 
 PCOD9057190
Probable space group: P -1
;
_chemical_formula_sum "Si O2"
_cell_formula_units_Z 14
_cell_length_a 5.319313
_cell_length_b 12.301916
_cell_length_c 13.725124
_cell_angle_alpha 45.149340
_cell_angle_beta 56.685908
_cell_angle_gamma 74.103242
_cell_volume 522.255439
_symmetry_space_group_name_H-M "P -1"
_symmetry_group_IT_number 2
_symmetry_cell_setting 'triclinic'
loop_
_space_group_symop_operation_xyz
x,y,z
-x,-y,-z
loop_
_atom_site_type_symbol
_atom_site_label
_atom_site_fract_x
_atom_site_fract_y
_atom_site_fract_z
Si Si1 0.907115 0.479261 0.144549
Si Si2 0.692086 0.687197 0.520698
Si Si3 0.303882 0.212327 0.933829
Si Si4 0.370798 0.915306 0.870454
Si Si5 0.633720 0.274897 0.619786
Si Si6 0.248650 0.231815 0.255532
Si Si7 0.827875 0.976123 0.414507
O O1 0.588285 0.360594 0.313679
O O2 0.830636 0.636682 0.102632
O O3 0.186839 0.404318 0.174542
O O4 0.000000 0.500000 0.000000
O O5 0.557331 0.647259 0.467890
O O6 0.795799 0.874958 0.388979
O O7 0.011531 0.637924 0.509530
O O8 0.507172 0.260768 0.764520
O O9 0.512354 0.159370 0.008399
O O10 0.994095 0.090923 0.046919
O O11 0.443860 0.814038 0.823524
O O12 0.574318 0.090868 0.715017
O O13 0.106921 0.138691 0.439950
O O14 0.035402 0.145074 0.268419
O O15 0.500000 0.000000 0.500000
#
# Coordination Sequence:
#
# PCOD9057190 Si02
#       7
#     2   2   2   2   2   2   2
#     4  12  28  50  70 111 154 200 241 296 380 456
#     4  12  26  46  79 108 145 193 249 313 364 434
#     4  12  29  49  73 108 155 200 240 302 369 449
#     4  12  25  46  77 111 144 192 246 315 371 426
#     4  12  26  50  79 109 141 193 261 309 363 426
#     4  11  24  42  73 107 150 186 241 305 373 444
#     4  11  22  41  72 112 141 182 245 314 372 420
#
# _framework density 26.806805000000001
#
# number of rings (size 3 to 8) (size 9 to 14) (size 15 to 20)
#    0.000    0.286    4.286    4.286    4.000    4.000 
#    0.000    0.000    0.000    0.000    0.000    0.000 
#    0.000    0.000    0.000    0.000    0.000    0.000 
#
# Total GULP energy -78359.838345 kJ/mol
# GULP energy per Si atom -5597.131310 kJ/mol
# Density = 2.674579 g / cm^3
# Si number density = 26.806805 Si / 1000 Ang^3
#
#
#
# Elastic Constant Matrix: (Units=GPa)
#
#
# Indices 1 2 3 4 5 6 
#
# 1 130.2189 15.1956 44.9793 15.2353 2.6047 11.2890
# 2 15.1956 94.3557 15.5552 12.2476 18.2147 6.1931
# 3 44.9793 15.5552 129.8502 34.2431 3.3469 4.6188
# 4 15.2353 12.2476 34.2431 55.3351 -0.5986 5.7506
# 5 2.6047 18.2147 3.3469 -0.5986 58.8126 6.3321
# 6 11.2890 6.1931 4.6188 5.7506 6.3321 27.6260
#
#
#
# Elastic Compliance Matrix: (Units=1/GPa)
#
#
# Indices 1 2 3 4 5 6 
#
# 1 0.009055 -0.000822 -0.002884 -0.000204 0.000346 -0.003071
# 2 -0.000822 0.011815 -0.000469 -0.002032 -0.003508 -0.001007
# 3 -0.002884 -0.000469 0.010188 -0.005498 -0.000452 0.000828
# 4 -0.000204 -0.002032 -0.005498 0.022366 0.001562 -0.003556
# 5 0.000346 -0.003508 -0.000452 0.001562 0.018531 -0.003852
# 6 -0.003071 -0.001007 0.000828 -0.003556 -0.003852 0.039163
#
#
# Mechanical properties :
#
#
# Convention : Reuss Voigt Hill
#
# Bulk Modulus (GPa) = 44.03457 56.20946 50.12201
# Shear Modulus (GPa) = 39.35886 46.93438 43.14662
#
# Velocity S-wave (km/s) = 3.83592 4.18884 4.01626
# Velocity P-wave (km/s) = 6.00678 6.66401 6.34391
#
# Compressibility (1/GPa) = 0.02270943
#
# Stress axis : x y z
#
# Youngs Moduli (GPa) = 110.44208 84.63881 98.15036
#
# Poissons Ratio (x) = 0.06954 0.28307
# Poissons Ratio (y) = 0.09074 0.04599
# Poissons Ratio (z) = 0.31852 0.03966
#
# Static dielectric constant tensor:
#      x y z
#    x 2.209270 -0.011580 0.009950 
#    y -0.011580 2.145130 -0.027050 
#    z 0.009950 -0.027050 2.132020 
# 
# From -- ./inp_files/370804.got.cif
#   From: 2010.05.17/outbox.cif.g08.bks.cpg/sg2_186_cif.got.tgz:370804.got - 2010.06.03 11:33:40.
