data_PCOD9057908
_publ_section_title
;
Structure prediction by ZEFSAII (Michael W. Deem and Ramdas Pophale) SiO2 
 PCOD9057908
Probable space group: P -1
;
_chemical_formula_sum "Si O2"
_cell_formula_units_Z 16
_cell_length_a 9.064901
_cell_length_b 14.588610
_cell_length_c 7.886195
_cell_angle_alpha 121.823457
_cell_angle_beta 63.332231
_cell_angle_gamma 78.239409
_cell_volume 644.997843
_symmetry_space_group_name_H-M "P -1"
_symmetry_group_IT_number 2
_symmetry_cell_setting 'triclinic'
loop_
_space_group_symop_operation_xyz
x,y,z
-x,-y,-z
loop_
_atom_site_type_symbol
_atom_site_label
_atom_site_fract_x
_atom_site_fract_y
_atom_site_fract_z
Si Si1 0.667300 0.459602 0.015087
Si Si2 0.986793 0.798057 0.537361
Si Si3 0.662717 0.073375 0.992642
Si Si4 0.253044 0.312773 0.293453
Si Si5 0.759811 0.664634 0.078375
Si Si6 0.185780 0.569111 0.751673
Si Si7 0.401783 0.952378 0.632545
Si Si8 0.070769 0.836456 0.904040
O O1 0.757750 0.539255 0.989478
O O2 0.823411 0.301816 0.771416
O O3 0.500000 0.500000 0.000000
O O4 0.634483 0.487098 0.258753
O O5 0.886665 0.723897 0.579846
O O6 0.064780 0.828549 0.696122
O O7 0.819316 0.938851 0.680276
O O8 0.480758 0.191079 0.097306
O O9 0.589379 0.030789 0.152341
O O10 0.783867 0.126229 0.066476
O O11 0.221246 0.320229 0.116553
O O12 0.217450 0.447521 0.510366
O O13 0.965210 0.635509 0.023034
O O14 0.547403 0.793550 0.378391
O O15 0.149619 0.691363 0.786125
O O16 0.500000 0.000000 0.500000
O O17 0.161355 0.047854 0.811295
#
# Coordination Sequence:
#
# PCOD9057908 Si02
#       8
#     2   2   2   2   2   2   2   2
#     4  12  30  43  71 107 140 186 234 307 359 417
#     4  11  23  47  70  99 145 180 243 284 354 431
#     4  11  27  44  73 107 144 192 231 295 362 412
#     4  12  25  45  74 105 138 191 240 291 344 436
#     4  12  24  46  70 104 141 184 244 291 350 420
#     4  12  25  48  72 101 144 189 239 290 361 422
#     4  11  22  43  74 103 141 183 240 287 344 421
#     4  11  25  46  72 105 146 192 231 294 358 421
#
# _framework density 24.806284999999999
#
# number of rings (size 3 to 8) (size 9 to 14) (size 15 to 20)
#    0.000    0.500    3.750    4.875    8.750    1.500 
#    0.000    1.250    0.000    0.000    0.000    0.000 
#    0.000    0.000    0.000    0.000    0.000    0.000 
#
# Total GULP energy -89650.908525 kJ/mol
# GULP energy per Si atom -5603.181783 kJ/mol
# Density = 2.474982 g / cm^3
# Si number density = 24.806285 Si / 1000 Ang^3
#
#
#
# Elastic Constant Matrix: (Units=GPa)
#
#
# Indices 1 2 3 4 5 6 
#
# 1 107.9212 35.9438 36.4941 12.3578 2.4864 -27.1456
# 2 35.9438 90.1705 9.5925 30.7160 -4.4530 -10.8322
# 3 36.4941 9.5925 131.2213 35.6384 -6.3660 -7.6788
# 4 12.3578 30.7160 35.6384 48.3926 -3.7027 1.3988
# 5 2.4864 -4.4530 -6.3660 -3.7027 27.3905 10.5034
# 6 -27.1456 -10.8322 -7.6788 1.3988 10.5034 41.0616
#
#
#
# Elastic Compliance Matrix: (Units=1/GPa)
#
#
# Indices 1 2 3 4 5 6 
#
# 1 0.014548 -0.005187 -0.003906 0.001708 -0.006322 0.009078
# 2 -0.005187 0.017241 0.003702 -0.012259 0.001799 0.001769
# 3 -0.003906 0.003702 0.011100 -0.009367 0.002181 0.000231
# 4 0.001708 -0.012259 -0.009367 0.035275 0.002643 -0.005734
# 5 -0.006322 0.001799 0.002181 0.002643 0.043838 -0.014601
# 6 0.009078 0.001769 0.000231 -0.005734 -0.014601 0.034795
#
#
# Mechanical properties :
#
#
# Convention : Reuss Voigt Hill
#
# Bulk Modulus (GPa) = 31.14557 54.81932 42.98244
# Shear Modulus (GPa) = 28.04570 39.85445 33.95007
#
# Velocity S-wave (km/s) = 3.36607 4.01262 3.70348
# Velocity P-wave (km/s) = 5.26213 6.60418 5.97098
#
# Compressibility (1/GPa) = 0.03210730
#
# Stress axis : x y z
#
# Youngs Moduli (GPa) = 68.73890 58.00081 90.09331
#
# Poissons Ratio (x) = 0.30085 0.35191
# Poissons Ratio (y) = 0.35655 -0.33356
# Poissons Ratio (z) = 0.26850 -0.21474
#
# Static dielectric constant tensor:
#      x y z
#    x 1.972960 0.006450 -0.027210 
#    y 0.006450 1.939350 -0.017310 
#    z -0.027210 -0.017310 2.021620 
# 
# From -- ./inp_files/208900.got.cif
#   From: 2010.05.17/outbox.cif.g08.bks.cpg/sg2_105_cif.got.tgz:208900.got - 2010.06.03 11:33:40.
