data_PCOD9057150
_publ_section_title
;
Structure prediction by ZEFSAII (Michael W. Deem and Ramdas Pophale) SiO2 
 PCOD9057150
Probable space group: P -1
;
_chemical_formula_sum "Si O2"
_cell_formula_units_Z 14
_cell_length_a 12.099811
_cell_length_b 9.849852
_cell_length_c 11.958921
_cell_angle_alpha 93.052415
_cell_angle_beta 134.176104
_cell_angle_gamma 52.728175
_cell_volume 620.838440
_symmetry_space_group_name_H-M "P -1"
_symmetry_group_IT_number 2
_symmetry_cell_setting 'triclinic'
loop_
_space_group_symop_operation_xyz
x,y,z
-x,-y,-z
loop_
_atom_site_type_symbol
_atom_site_label
_atom_site_fract_x
_atom_site_fract_y
_atom_site_fract_z
Si Si1 0.497600 0.548563 0.127550
Si Si2 0.853865 0.974729 0.182051
Si Si3 0.085662 0.139594 0.538985
Si Si4 0.694670 0.947744 0.711649
Si Si5 0.559903 0.959850 0.857756
Si Si6 0.707683 0.159558 0.551558
Si Si7 0.266954 0.462445 0.102545
O O1 0.384030 0.506435 0.118587
O O2 0.788955 0.376191 0.353437
O O3 0.500000 0.500000 0.000000
O O4 0.310439 0.807046 0.999111
O O5 0.838927 0.006518 0.307245
O O6 0.143182 0.803052 0.344619
O O7 0.730649 0.916655 0.066069
O O8 0.261930 0.148407 0.676078
O O9 0.157613 0.021820 0.463937
O O10 0.589040 0.019390 0.764714
O O11 0.500000 0.000000 0.500000
O O12 0.735808 0.061391 0.682993
O O13 0.967720 0.685837 0.902519
O O14 0.659655 0.735538 0.904002
O O15 0.414298 0.368963 0.320025
#
# Coordination Sequence:
#
# PCOD9057150 Si02
#       7
#     2   2   2   2   2   2   2
#     4  12  22  38  72  95 127 175 226 255 313 396
#     4  12  24  44  62 103 137 163 213 277 326 375
#     4  11  22  42  66  98 130 175 213 262 321 391
#     4  12  23  45  70  94 128 170 227 264 312 395
#     4  11  27  42  65  99 138 166 209 279 330 368
#     4  11  22  41  71  94 125 176 222 259 311 391
#     4  11  23  43  68  96 119 178 226 254 316 395
#
# _framework density 22.550149000000001
#
# number of rings (size 3 to 8) (size 9 to 14) (size 15 to 20)
#    0.000    0.571    7.143    3.000    0.000    1.143 
#    2.571    0.714    0.000    0.000    0.000    0.000 
#    0.000    0.000    0.000    0.000    0.000    0.000 
#
# Total GULP energy -78253.657190 kJ/mol
# GULP energy per Si atom -5589.546942 kJ/mol
# Density = 2.249882 g / cm^3
# Si number density = 22.550149 Si / 1000 Ang^3
#
#
#
# Elastic Constant Matrix: (Units=GPa)
#
#
# Indices 1 2 3 4 5 6 
#
# 1 138.5157 14.7316 40.6941 3.2034 -3.3541 5.2570
# 2 14.7316 25.7427 31.6523 6.7037 2.7585 15.7523
# 3 40.6941 31.6523 152.4429 -9.6140 25.9523 2.6709
# 4 3.2034 6.7037 -9.6140 26.1071 7.1703 -0.6026
# 5 -3.3541 2.7585 25.9523 7.1703 59.9184 3.8127
# 6 5.2570 15.7523 2.6709 -0.6026 3.8127 22.0476
#
#
#
# Elastic Compliance Matrix: (Units=1/GPa)
#
#
# Indices 1 2 3 4 5 6 
#
# 1 0.008204 0.001844 -0.003124 -0.003353 0.002345 -0.003393
# 2 0.001844 0.236473 -0.059049 -0.096889 0.037289 -0.171336
# 3 -0.003124 -0.059049 0.023030 0.028769 -0.013629 0.043287
# 4 -0.003353 -0.096889 0.028769 0.082084 -0.022636 0.072696
# 5 0.002345 0.037289 -0.013629 -0.022636 0.025663 -0.030607
# 6 -0.003393 -0.171336 0.043287 0.072696 -0.030607 0.170615
#
#
# Mechanical properties :
#
#
# Convention : Reuss Voigt Hill
#
# Bulk Modulus (GPa) = 6.80040 54.53970 30.67005
# Shear Modulus (GPa) = 6.98574 36.92282 21.95428
#
# Velocity S-wave (km/s) = 1.76199 4.05083 3.12360
# Velocity P-wave (km/s) = 2.67613 6.79098 5.16135
#
# Compressibility (1/GPa) = 0.14705022
#
# Stress axis : x y z
#
# Youngs Moduli (GPa) = 121.88914 4.22882 43.42080
#
# Poissons Ratio (x) = -0.00780 0.13566
# Poissons Ratio (y) = -0.22480 2.56394
# Poissons Ratio (z) = 0.38081 0.24971
#
# Static dielectric constant tensor:
#      x y z
#    x 1.636350 -0.015620 0.004890 
#    y -0.015620 1.887470 -0.013420 
#    z 0.004890 -0.013420 1.865150 
# 
# From -- ./inp_files/428228.got.cif
#   From: 2010.05.17/outbox.cif.g08.bks.cpg/sg2_215_cif.got.tgz:428228.got - 2010.06.03 11:33:40.
