data_PCOD9057729
_publ_section_title
;
Structure prediction by ZEFSAII (Michael W. Deem and Ramdas Pophale) SiO2 
 PCOD9057729
Probable space group: P -1
;
_chemical_formula_sum "Si O2"
_cell_formula_units_Z 16
_cell_length_a 11.889416
_cell_length_b 10.924092
_cell_length_c 8.926563
_cell_angle_alpha 106.554881
_cell_angle_beta 51.147640
_cell_angle_gamma 127.736825
_cell_volume 704.748863
_symmetry_space_group_name_H-M "P -1"
_symmetry_group_IT_number 2
_symmetry_cell_setting 'triclinic'
loop_
_space_group_symop_operation_xyz
x,y,z
-x,-y,-z
loop_
_atom_site_type_symbol
_atom_site_label
_atom_site_fract_x
_atom_site_fract_y
_atom_site_fract_z
Si Si1 0.085844 0.933251 0.300760
Si Si2 0.270569 0.778441 0.559865
Si Si3 0.438002 0.113549 0.436051
Si Si4 0.045344 0.435326 0.076363
Si Si5 0.184995 0.707893 0.279877
Si Si6 0.458399 0.224951 0.122415
Si Si7 0.593873 0.527902 0.267244
Si Si8 0.859279 0.873171 0.189176
O O1 0.129779 0.822140 0.310016
O O2 0.960352 0.850763 0.231851
O O3 0.274865 0.090781 0.153616
O O4 0.000000 0.000000 0.500000
O O5 0.399938 0.759122 0.548706
O O6 0.114315 0.737792 0.793415
O O7 0.173623 0.685848 0.458546
O O8 0.408975 0.949628 0.430123
O O9 0.469219 0.169596 0.260449
O O10 0.245839 0.067333 0.622978
O O11 0.071725 0.549021 0.226972
O O12 0.000000 0.500000 0.000000
O O13 0.229424 0.467694 0.885333
O O14 0.383383 0.762398 0.092070
O O15 0.471398 0.384340 0.204080
O O16 0.500000 0.500000 0.500000
O O17 0.692513 0.709353 0.202601
O O18 0.000000 0.000000 0.000000
#
# Coordination Sequence:
#
# PCOD9057729 Si02
#       8
#     2   2   2   2   2   2   2   2
#     4  12  23  43  67  99 134 177 228 284 349 411
#     4  11  23  41  66 100 138 175 233 288 343 404
#     4  11  23  41  66  97 139 179 229 289 340 417
#     4  11  24  42  67 101 135 182 234 282 343 416
#     4  11  24  41  72  97 136 180 229 287 346 407
#     4  11  23  43  67 102 133 183 235 278 347 420
#     4  11  22  43  69  96 139 179 227 281 341 416
#     4  12  26  42  68 100 139 181 232 285 351 408
#
# _framework density 22.703120999999999
#
# number of rings (size 3 to 8) (size 9 to 14) (size 15 to 20)
#    0.000    0.750    3.750    3.750    1.750    1.000 
#    0.000    0.625    0.000    0.000    0.000    0.000 
#    0.000    0.000    0.000    0.000    0.000    0.000 
#
# Total GULP energy -89182.231755 kJ/mol
# GULP energy per Si atom -5573.889485 kJ/mol
# Density = 2.265145 g / cm^3
# Si number density = 22.703121 Si / 1000 Ang^3
#
#
#
# Elastic Constant Matrix: (Units=GPa)
#
#
# Indices 1 2 3 4 5 6 
#
# 1 56.9231 8.7905 23.5599 7.3055 8.0510 22.8702
# 2 8.7905 91.9591 27.5978 -5.1775 1.1292 4.9466
# 3 23.5599 27.5978 133.7365 -13.5455 8.4499 -12.3340
# 4 7.3055 -5.1775 -13.5455 40.8729 -2.2757 -0.0959
# 5 8.0510 1.1292 8.4499 -2.2757 24.4147 6.2501
# 6 22.8702 4.9466 -12.3340 -0.0959 6.2501 23.7072
#
#
#
# Elastic Compliance Matrix: (Units=1/GPa)
#
#
# Indices 1 2 3 4 5 6 
#
# 1 0.046337 0.002207 -0.015029 -0.012979 0.002344 -0.053651
# 2 0.002207 0.012115 -0.003647 0.000014 0.001773 -0.007022
# 3 -0.015029 -0.003647 0.014101 0.006660 -0.005283 0.024015
# 4 -0.012979 0.000014 0.006660 0.029066 0.000603 0.015941
# 5 0.002344 0.001773 -0.005283 0.000603 0.046504 -0.017637
# 6 -0.053651 -0.007022 0.024015 0.015941 -0.017637 0.112613
#
#
# Mechanical properties :
#
#
# Convention : Reuss Voigt Hill
#
# Bulk Modulus (GPa) = 25.24322 44.72388 34.98355
# Shear Modulus (GPa) = 16.29317 32.64364 24.46841
#
# Velocity S-wave (km/s) = 2.68183 3.79601 3.28648
# Velocity P-wave (km/s) = 4.55330 6.24141 5.46295
#
# Compressibility (1/GPa) = 0.03961459
#
# Stress axis : x y z
#
# Youngs Moduli (GPa) = 21.58101 82.54483 70.91797
#
# Poissons Ratio (x) = -0.18221 1.06585
# Poissons Ratio (y) = -0.04764 0.25864
# Poissons Ratio (z) = 0.32435 0.30105
#
# Static dielectric constant tensor:
#      x y z
#    x 1.819880 -0.008580 -0.084790 
#    y -0.008580 2.126980 0.056910 
#    z -0.084790 0.056910 1.770570 
# 
# From -- ./inp_files/207765.got.cif
#   From: 2010.05.17/outbox.cif.g08.bks.cpg/sg2_104_cif.got.tgz:207765.got - 2010.06.03 11:33:40.
