data_PCOD9057716
_publ_section_title
;
Structure prediction by ZEFSAII (Michael W. Deem and Ramdas Pophale) SiO2 
 PCOD9057716
Probable space group: P -1
;
_chemical_formula_sum "Si O2"
_cell_formula_units_Z 16
_cell_length_a 8.280819
_cell_length_b 8.859023
_cell_length_c 13.635789
_cell_angle_alpha 129.226775
_cell_angle_beta 88.992893
_cell_angle_gamma 76.178988
_cell_volume 733.306528
_symmetry_space_group_name_H-M "P -1"
_symmetry_group_IT_number 2
_symmetry_cell_setting 'triclinic'
loop_
_space_group_symop_operation_xyz
x,y,z
-x,-y,-z
loop_
_atom_site_type_symbol
_atom_site_label
_atom_site_fract_x
_atom_site_fract_y
_atom_site_fract_z
Si Si1 0.347842 0.096564 0.240414
Si Si2 0.591692 0.166876 0.046153
Si Si3 0.869371 0.846401 0.382993
Si Si4 0.746499 0.842376 0.170692
Si Si5 0.098470 0.898461 0.857747
Si Si6 0.810686 0.058981 0.649524
Si Si7 0.046305 0.453213 0.364391
Si Si8 0.347566 0.502079 0.075214
O O1 0.251730 0.330737 0.302536
O O2 0.551219 0.999636 0.220468
O O3 0.244989 0.083867 0.333684
O O4 0.312185 0.934508 0.096548
O O5 0.711879 0.197542 0.140677
O O6 0.444122 0.372649 0.112033
O O7 0.500000 0.000000 0.000000
O O8 0.781617 0.795846 0.266118
O O9 0.994418 0.963537 0.385204
O O10 0.971362 0.648515 0.370108
O O11 0.744163 0.010649 0.525177
O O12 0.878351 0.939443 0.156494
O O13 0.757209 0.630219 0.028670
O O14 0.033198 0.722312 0.742059
O O15 0.000000 0.000000 0.000000
O O16 0.747784 0.277809 0.791885
O O17 0.000000 0.500000 0.500000
O O18 0.500000 0.500000 0.000000
#
# Coordination Sequence:
#
# PCOD9057716 Si02
#       8
#     2   2   2   2   2   2   2   2
#     4  11  22  46  73  96 145 183 231 294 352 417
#     4  11  22  43  69 104 142 183 228 296 362 419
#     4  11  28  45  70 104 143 187 241 287 348 433
#     4  11  26  47  69 110 141 180 239 298 357 423
#     4  12  26  43  73 102 143 187 236 294 355 427
#     4  11  24  46  71  98 142 191 226 292 357 420
#     4  12  27  48  72 101 140 191 241 287 356 422
#     4  11  23  42  73 102 140 182 232 292 361 416
#
# _framework density 21.818981000000001
#
# number of rings (size 3 to 8) (size 9 to 14) (size 15 to 20)
#    0.000    0.750    7.500    0.750    7.000    1.000 
#    2.250    0.625    0.000    0.000    0.000    0.000 
#    0.000    0.000    0.000    0.000    0.000    0.000 
#
# Total GULP energy -89185.394277 kJ/mol
# GULP energy per Si atom -5574.087142 kJ/mol
# Density = 2.176932 g / cm^3
# Si number density = 21.818981 Si / 1000 Ang^3
#
#
#
# Elastic Constant Matrix: (Units=GPa)
#
#
# Indices 1 2 3 4 5 6 
#
# 1 51.4759 46.5589 38.9258 -0.7871 1.6943 3.6756
# 2 46.5589 108.2032 58.3447 -13.2653 3.7332 3.7209
# 3 38.9258 58.3447 161.8695 -10.8994 1.7075 -5.2656
# 4 -0.7871 -13.2653 -10.8994 42.2663 1.2801 2.5649
# 5 1.6943 3.7332 1.7075 1.2801 32.4636 -7.2678
# 6 3.6756 3.7209 -5.2656 2.5649 -7.2678 41.3406
#
#
#
# Elastic Compliance Matrix: (Units=1/GPa)
#
#
# Indices 1 2 3 4 5 6 
#
# 1 0.034335 -0.013123 -0.003885 -0.004338 -0.000392 -0.002166
# 2 -0.013123 0.016991 -0.002688 0.004520 -0.001589 -0.001265
# 3 -0.003885 -0.002688 0.008203 0.001088 0.000404 0.001636
# 4 -0.004338 0.004520 0.001088 0.025438 -0.001750 -0.001768
# 5 -0.000392 -0.001589 0.000404 -0.001750 0.032406 0.006035
# 6 -0.002166 -0.001265 0.001636 -0.001768 0.006035 0.025875
#
#
# Mechanical properties :
#
#
# Convention : Reuss Voigt Hill
#
# Bulk Modulus (GPa) = 49.66208 67.68971 58.67589
# Shear Modulus (GPa) = 26.40572 35.06205 30.73388
#
# Velocity S-wave (km/s) = 3.48259 4.01303 3.75718
# Velocity P-wave (km/s) = 6.24353 7.25005 6.76553
#
# Compressibility (1/GPa) = 0.02013609
#
# Stress axis : x y z
#
# Youngs Moduli (GPa) = 29.12457 58.85596 121.90185
#
# Poissons Ratio (x) = 0.77237 0.47360
# Poissons Ratio (y) = 0.38220 0.32772
# Poissons Ratio (z) = 0.11315 0.15823
#
# Static dielectric constant tensor:
#      x y z
#    x 1.872820 -0.008080 -0.045180 
#    y -0.008080 1.899180 -0.059980 
#    z -0.045180 -0.059980 1.873890 
# 
# From -- ./inp_files/383532.got.cif
#   From: 2010.05.17/outbox.cif.g08.bks.cpg/sg2_192_cif.got.tgz:383532.got - 2010.06.03 11:33:40.
