data_PCOD9057676
_publ_section_title
;
Structure prediction by ZEFSAII (Michael W. Deem and Ramdas Pophale) SiO2 
 PCOD9057676
Probable space group: P -1
;
_chemical_formula_sum "Si O2"
_cell_formula_units_Z 16
_cell_length_a 8.188600
_cell_length_b 18.382504
_cell_length_c 5.694518
_cell_angle_alpha 54.446130
_cell_angle_beta 103.445923
_cell_angle_gamma 117.126061
_cell_volume 620.037650
_symmetry_space_group_name_H-M "P -1"
_symmetry_group_IT_number 2
_symmetry_cell_setting 'triclinic'
loop_
_space_group_symop_operation_xyz
x,y,z
-x,-y,-z
loop_
_atom_site_type_symbol
_atom_site_label
_atom_site_fract_x
_atom_site_fract_y
_atom_site_fract_z
Si Si1 0.518448 0.924266 0.459763
Si Si2 0.091181 0.381907 0.521090
Si Si3 0.898066 0.956235 0.300744
Si Si4 0.782788 0.737465 0.539659
Si Si5 0.583036 0.578805 0.083544
Si Si6 0.264365 0.761461 0.430600
Si Si7 0.232263 0.590381 0.107304
Si Si8 0.499678 0.237868 0.884231
O O1 0.698210 0.962580 0.275397
O O2 0.312884 0.860937 0.404763
O O3 0.500000 0.000000 0.500000
O O4 0.540538 0.838995 0.780977
O O5 0.139264 0.343067 0.359514
O O6 0.237706 0.406901 0.734999
O O7 0.068118 0.484790 0.286186
O O8 0.917485 0.280532 0.709005
O O9 0.883401 0.845034 0.472625
O O10 0.000000 0.000000 0.500000
O O11 0.000000 0.000000 0.000000
O O12 0.679329 0.743043 0.256559
O O13 0.630610 0.681962 0.783640
O O14 0.401600 0.557819 0.207143
O O15 0.500000 0.500000 0.000000
O O16 0.448134 0.798759 0.269023
O O17 0.233682 0.665693 0.761370
O O18 0.314160 0.664990 0.206262
#
# Coordination Sequence:
#
# PCOD9057676 Si02
#       8
#     2   2   2   2   2   2   2   2
#     4  11  27  51  80 112 155 207 266 335 416 494
#     4  12  27  40  71 113 150 202 266 330 382 479
#     4  12  29  51  83 120 156 209 273 346 411 487
#     4  12  24  46  75 105 155 197 265 322 396 477
#     4  12  23  41  71 106 146 200 259 316 387 466
#     4  11  26  46  72 105 154 203 259 329 403 481
#     4  11  22  43  68 103 149 203 259 313 398 471
#     4  11  22  46  75 100 150 208 252 320 410 475
#
# _framework density 25.804884000000001
#
# number of rings (size 3 to 8) (size 9 to 14) (size 15 to 20)
#    0.000    0.500    5.000    3.000    3.500    4.000 
#    0.000    0.000    0.000    0.000    0.000    0.000 
#    0.000    0.000    0.000    0.000    0.000    0.000 
#
# Total GULP energy -89078.839514 kJ/mol
# GULP energy per Si atom -5567.427470 kJ/mol
# Density = 2.574615 g / cm^3
# Si number density = 25.804884 Si / 1000 Ang^3
#
#
#
# Elastic Constant Matrix: (Units=GPa)
#
#
# Indices 1 2 3 4 5 6 
#
# 1 87.6997 44.6595 19.8465 7.1183 -19.3390 6.6027
# 2 44.6595 225.2025 64.3406 -4.8939 -18.2110 13.9426
# 3 19.8465 64.3406 90.9398 -7.5179 -5.9951 5.2647
# 4 7.1183 -4.8939 -7.5179 38.7925 2.9413 1.6074
# 5 -19.3390 -18.2110 -5.9951 2.9413 27.5619 7.8945
# 6 6.6027 13.9426 5.2647 1.6074 7.8945 40.2398
#
#
#
# Elastic Compliance Matrix: (Units=1/GPa)
#
#
# Indices 1 2 3 4 5 6 
#
# 1 0.015654 -0.001578 -0.001685 -0.004082 0.011104 -0.003817
# 2 -0.001578 0.006151 -0.003701 0.000225 0.002679 -0.001923
# 3 -0.001685 -0.003701 0.014167 0.002656 -0.000757 -0.000252
# 4 -0.004082 0.000225 0.002656 0.027451 -0.005110 0.000150
# 5 0.011104 0.002679 -0.000757 -0.005110 0.049719 -0.012201
# 6 -0.003817 -0.001923 -0.000252 0.000150 -0.012201 0.028564
#
#
# Mechanical properties :
#
#
# Convention : Reuss Voigt Hill
#
# Bulk Modulus (GPa) = 45.36071 73.50392 59.43232
# Shear Modulus (GPa) = 30.67807 39.65187 35.16497
#
# Velocity S-wave (km/s) = 3.45171 3.92421 3.69552
# Velocity P-wave (km/s) = 5.78811 7.00563 6.42577
#
# Compressibility (1/GPa) = 0.02204551
#
# Stress axis : x y z
#
# Youngs Moduli (GPa) = 63.87974 162.56619 70.58722
#
# Poissons Ratio (x) = 0.25645 0.11892
# Poissons Ratio (y) = 0.10077 0.26127
# Poissons Ratio (z) = 0.10762 0.60171
#
# Static dielectric constant tensor:
#      x y z
#    x 3.097350 -1.515490 -0.624270 
#    y -1.515490 5.075690 1.295610 
#    z -0.624270 1.295610 2.572600 
# 
# From -- ./inp_files/46689.got.cif
#   From: 2010.05.17/outbox.cif.g08.bks.cpg/sg2_24_cif.got.tgz:46689.got - 2010.06.03 11:33:40.
