data_PCOD9057069
_publ_section_title
;
Structure prediction by ZEFSAII (Michael W. Deem and Ramdas Pophale) SiO2 
 PCOD9057069
Probable space group: P -1
;
_chemical_formula_sum "Si O2"
_cell_formula_units_Z 16
_cell_length_a 14.745197
_cell_length_b 8.600992
_cell_length_c 11.628661
_cell_angle_alpha 135.540982
_cell_angle_beta 132.082384
_cell_angle_gamma 37.992744
_cell_volume 615.679297
_symmetry_space_group_name_H-M "P -1"
_symmetry_group_IT_number 2
_symmetry_cell_setting 'triclinic'
loop_
_space_group_symop_operation_xyz
x,y,z
-x,-y,-z
loop_
_atom_site_type_symbol
_atom_site_label
_atom_site_fract_x
_atom_site_fract_y
_atom_site_fract_z
Si Si1 0.584430 0.768374 0.660257
Si Si2 0.365394 0.045852 0.979481
Si Si3 0.778901 0.791643 0.403644
Si Si4 0.610620 0.466322 0.258904
Si Si5 0.801556 0.272954 0.111740
Si Si6 0.705110 0.002274 0.705460
Si Si7 0.192850 0.805829 0.504817
Si Si8 0.942909 0.783445 0.161702
O O1 0.641997 0.454928 0.537781
O O2 0.406205 0.998935 0.653189
O O3 0.664808 0.842895 0.672933
O O4 0.665437 0.765546 0.842265
O O5 0.199816 0.158165 0.853417
O O6 0.434913 0.735683 0.907849
O O7 0.500000 0.000000 0.000000
O O8 0.850073 0.480303 0.252634
O O9 0.793138 0.825503 0.572447
O O10 0.838721 0.934663 0.455431
O O11 0.654164 0.488727 0.180223
O O12 0.468364 0.740297 0.339870
O O13 0.761485 0.297875 0.377505
O O14 0.896274 0.005660 0.136217
O O15 0.771048 0.146661 0.907969
O O16 0.062497 0.775243 0.340693
O O17 0.000000 0.500000 0.000000
#
# Coordination Sequence:
#
# PCOD9057069 Si02
#       8
#     2   2   2   2   2   2   2   2
#     4  12  21  44  71 105 150 189 257 309 377 439
#     4  11  24  40  74 112 141 187 255 317 367 440
#     4  12  26  41  70 113 153 192 257 318 368 443
#     4  11  22  41  69 106 148 189 250 310 376 443
#     4  11  24  45  71 108 146 203 255 305 379 449
#     4  12  22  42  72 107 150 199 251 318 377 442
#     4  12  26  44  69 108 148 204 246 306 379 456
#     4  11  24  49  77 103 158 203 244 308 388 466
#
# _framework density 25.987552999999998
#
# number of rings (size 3 to 8) (size 9 to 14) (size 15 to 20)
#    0.000    0.500    6.250    3.375    1.750    2.500 
#    0.000    0.625    0.000    3.000    0.000    0.000 
#    0.000    0.000    0.000    0.000    0.000    0.000 
#
# Total GULP energy -89174.298112 kJ/mol
# GULP energy per Si atom -5573.393632 kJ/mol
# Density = 2.592840 g / cm^3
# Si number density = 25.987553 Si / 1000 Ang^3
#
#
#
# Elastic Constant Matrix: (Units=GPa)
#
#
# Indices 1 2 3 4 5 6 
#
# 1 101.1336 13.4656 30.7236 -14.4494 11.6296 12.1673
# 2 13.4656 86.3887 20.3118 -3.1571 7.5150 5.3916
# 3 30.7236 20.3118 139.8174 -19.8144 -17.3511 10.3300
# 4 -14.4494 -3.1571 -19.8144 54.7494 1.8465 9.8185
# 5 11.6296 7.5150 -17.3511 1.8465 27.0039 -3.9456
# 6 12.1673 5.3916 10.3300 9.8185 -3.9456 28.2128
#
#
#
# Elastic Compliance Matrix: (Units=1/GPa)
#
#
# Indices 1 2 3 4 5 6 
#
# 1 0.013256 -0.000003 -0.002904 0.004060 -0.008920 -0.007314
# 2 -0.000003 0.012757 -0.002255 0.000561 -0.005411 -0.002563
# 3 -0.002904 -0.002255 0.009552 0.002601 0.007596 -0.001657
# 4 0.004060 0.000561 0.002601 0.022412 -0.003385 -0.011084
# 5 -0.008920 -0.005411 0.007596 -0.003385 0.048971 0.010127
# 6 -0.007314 -0.002563 -0.001657 -0.011084 0.010127 0.044969
#
#
# Mechanical properties :
#
#
# Convention : Reuss Voigt Hill
#
# Bulk Modulus (GPa) = 39.61757 50.70462 45.16109
# Shear Modulus (GPa) = 29.29891 39.51580 34.40736
#
# Velocity S-wave (km/s) = 3.36135 3.90367 3.64262
# Velocity P-wave (km/s) = 5.50843 6.31440 5.92514
#
# Compressibility (1/GPa) = 0.02524133
#
# Stress axis : x y z
#
# Youngs Moduli (GPa) = 75.43676 78.38538 104.69448
#
# Poissons Ratio (x) = 0.00021 0.30401
# Poissons Ratio (y) = 0.00021 0.23613
# Poissons Ratio (z) = 0.21905 0.17679
#
# Static dielectric constant tensor:
#      x y z
#    x 2.171610 -0.025850 -0.002220 
#    y -0.025850 2.144700 0.080430 
#    z -0.002220 0.080430 2.298520 
# 
# From -- ./inp_files/448227.got.cif
#   From: 2010.05.17/outbox.cif.g08.bks.cpg/sg2_225_cif.got.tgz:448227.got - 2010.06.03 11:33:40.
