data_PCOD9057148
_publ_section_title
;
Structure prediction by ZEFSAII (Michael W. Deem and Ramdas Pophale) SiO2 
 PCOD9057148
Probable space group: P -1
;
_chemical_formula_sum "Si O2"
_cell_formula_units_Z 16
_cell_length_a 10.752804
_cell_length_b 11.396126
_cell_length_c 12.098719
_cell_angle_alpha 134.107906
_cell_angle_beta 117.820182
_cell_angle_gamma 51.678665
_cell_volume 833.553658
_symmetry_space_group_name_H-M "P -1"
_symmetry_group_IT_number 2
_symmetry_cell_setting 'triclinic'
loop_
_space_group_symop_operation_xyz
x,y,z
-x,-y,-z
loop_
_atom_site_type_symbol
_atom_site_label
_atom_site_fract_x
_atom_site_fract_y
_atom_site_fract_z
Si Si1 0.678697 0.356378 0.447980
Si Si2 0.571756 0.217654 0.120161
Si Si3 0.655336 0.903320 0.670238
Si Si4 0.497032 0.313371 0.905192
Si Si5 0.112824 0.432693 0.304867
Si Si6 0.269746 0.187001 0.023559
Si Si7 0.232440 0.262619 0.630482
Si Si8 0.302904 0.005322 0.679898
O O1 0.500000 0.500000 0.500000
O O2 0.661208 0.310413 0.283216
O O3 0.794271 0.445361 0.570420
O O4 0.723699 0.167932 0.410606
O O5 0.691141 0.001231 0.019028
O O6 0.498085 0.307151 0.033429
O O7 0.423072 0.221171 0.127765
O O8 0.795362 0.744638 0.694534
O O9 0.678861 0.834364 0.508656
O O10 0.488192 0.931467 0.673050
O O11 0.638578 0.109765 0.799118
O O12 0.344602 0.319151 0.786178
O O13 0.500000 0.500000 0.000000
O O14 0.933028 0.561964 0.348577
O O15 0.126310 0.354973 0.134362
O O16 0.264626 0.134830 0.858755
O O17 0.207804 0.121371 0.610057
#
# Coordination Sequence:
#
# PCOD9057148 Si02
#       8
#     2   2   2   2   2   2   2   2
#     4  11  21  33  64  97 114 158 207 252 294 364
#     4  10  18  35  60  91 113 148 211 252 291 350
#     4  11  21  43  64  85 126 167 206 245 295 378
#     4  11  23  41  64  91 113 161 216 256 293 354
#     4  12  23  40  63  93 127 163 201 246 314 371
#     4  10  17  36  65  87 115 157 199 253 301 357
#     4  11  26  41  60  92 130 166 195 249 320 360
#     4  10  20  40  63  92 120 158 209 254 304 349
#
# _framework density 19.194922999999999
#
# number of rings (size 3 to 8) (size 9 to 14) (size 15 to 20)
#    0.000    1.250    6.250    2.625    1.750    2.000 
#    0.000    3.125    0.000    0.000    0.000    0.000 
#    0.000    0.000    0.000    0.000    0.000    0.000 
#
# Total GULP energy -89232.538766 kJ/mol
# GULP energy per Si atom -5577.033673 kJ/mol
# Density = 1.915123 g / cm^3
# Si number density = 19.194923 Si / 1000 Ang^3
#
#
#
# Elastic Constant Matrix: (Units=GPa)
#
#
# Indices 1 2 3 4 5 6 
#
# 1 44.9056 37.1865 50.9946 5.7740 -5.9641 6.1099
# 2 37.1865 115.3298 51.5307 6.3061 3.4371 7.7800
# 3 50.9946 51.5307 117.9627 6.7471 -8.7659 16.9170
# 4 5.7740 6.3061 6.7471 30.0760 7.6330 -3.5332
# 5 -5.9641 3.4371 -8.7659 7.6330 21.5107 4.9990
# 6 6.1099 7.7800 16.9170 -3.5332 4.9990 30.3396
#
#
#
# Elastic Compliance Matrix: (Units=1/GPa)
#
#
# Indices 1 2 3 4 5 6 
#
# 1 0.051540 -0.008930 -0.016861 -0.007417 0.011827 -0.001500
# 2 -0.008930 0.012638 -0.002334 0.001264 -0.006131 0.001016
# 3 -0.016861 -0.002334 0.018492 -0.002847 0.006019 -0.007640
# 4 -0.007417 0.001264 -0.002847 0.041606 -0.020743 0.011020
# 5 0.011827 -0.006131 0.006019 -0.020743 0.064562 -0.017219
# 6 -0.001500 0.001016 -0.007640 0.011020 -0.017219 0.041382
#
#
# Mechanical properties :
#
#
# Convention : Reuss Voigt Hill
#
# Bulk Modulus (GPa) = 37.85153 61.95799 49.90476
# Shear Modulus (GPa) = 16.93320 25.61767 21.27544
#
# Velocity S-wave (km/s) = 2.97336 3.65719 3.33286
# Velocity P-wave (km/s) = 5.61695 7.08391 6.39265
#
# Compressibility (1/GPa) = 0.02641901
#
# Stress axis : x y z
#
# Youngs Moduli (GPa) = 19.40229 79.12549 54.07854
#
# Poissons Ratio (x) = 0.70662 0.91183
# Poissons Ratio (y) = 0.17327 0.12622
# Poissons Ratio (z) = 0.32715 0.18467
#
# Static dielectric constant tensor:
#      x y z
#    x 1.667950 0.026760 -0.027440 
#    y 0.026760 1.695020 0.005860 
#    z -0.027440 0.005860 1.725490 
# 
# From -- ./inp_files/257443.got.cif
#   From: 2010.05.17/outbox.cif.g08.bks.cpg/sg2_129_cif.got.tgz:257443.got - 2010.06.03 11:33:40.
