data_PCOD9057135
_publ_section_title
;
Structure prediction by ZEFSAII (Michael W. Deem and Ramdas Pophale) SiO2 
 PCOD9057135
Probable space group: P -1
;
_chemical_formula_sum "Si O2"
_cell_formula_units_Z 14
_cell_length_a 8.305234
_cell_length_b 11.430258
_cell_length_c 11.860271
_cell_angle_alpha 55.951957
_cell_angle_beta 81.924997
_cell_angle_gamma 45.229210
_cell_volume 597.444360
_symmetry_space_group_name_H-M "P -1"
_symmetry_group_IT_number 2
_symmetry_cell_setting 'triclinic'
loop_
_space_group_symop_operation_xyz
x,y,z
-x,-y,-z
loop_
_atom_site_type_symbol
_atom_site_label
_atom_site_fract_x
_atom_site_fract_y
_atom_site_fract_z
Si Si1 0.965214 0.391702 0.889625
Si Si2 0.250860 0.743535 0.102902
Si Si3 0.411221 0.706440 0.346212
Si Si4 0.058566 0.026572 0.601138
Si Si5 0.603849 0.972732 0.790136
Si Si6 0.516443 0.254293 0.125109
Si Si7 0.205474 0.198034 0.382636
O O1 0.844726 0.352104 0.844600
O O2 0.776938 0.535101 0.936955
O O3 0.935456 0.559531 0.738936
O O4 0.226167 0.168820 0.039060
O O5 0.414125 0.675917 0.230284
O O6 0.391759 0.698470 0.001792
O O7 0.000000 0.000000 0.000000
O O8 0.500000 0.500000 0.500000
O O9 0.129151 0.899822 0.322810
O O10 0.520336 0.790008 0.316241
O O11 0.056822 0.193514 0.482648
O O12 0.335417 0.814290 0.736760
O O13 0.000000 0.000000 0.500000
O O14 0.438469 0.939542 0.809970
O O15 0.769323 0.867565 0.715141
O O16 0.500000 0.000000 0.500000
#
# Coordination Sequence:
#
# PCOD9057135 Si02
#       7
#     2   2   2   2   2   2   2
#     4  11  24  44  73 101 135 178 226 278 334 404
#     4  12  25  47  66  98 144 177 225 276 340 407
#     4  12  29  45  67 101 139 183 222 282 341 401
#     4  12  24  43  71 101 138 179 229 278 338 399
#     4  11  23  46  68 102 138 172 230 280 333 402
#     4  11  24  44  76 101 130 183 230 277 334 403
#     4  11  22  41  71 103 134 172 226 287 329 390
#
# _framework density 23.433145
#
# number of rings (size 3 to 8) (size 9 to 14) (size 15 to 20)
#    0.000    0.571    7.143    2.143    4.000    2.857 
#    2.571    1.429    0.000    0.000    0.000    0.000 
#    0.000    0.000    0.000    0.000    0.000    0.000 
#
# Total GULP energy -78252.226000 kJ/mol
# GULP energy per Si atom -5589.444714 kJ/mol
# Density = 2.337981 g / cm^3
# Si number density = 23.433145 Si / 1000 Ang^3
#
#
#
# Elastic Constant Matrix: (Units=GPa)
#
#
# Indices 1 2 3 4 5 6 
#
# 1 74.0490 15.3072 20.6805 -3.2646 -1.4874 29.9361
# 2 15.3072 41.3703 20.4357 -6.8939 -1.8832 25.9073
# 3 20.6805 20.4357 104.0819 -3.7107 -2.9801 18.7267
# 4 -3.2646 -6.8939 -3.7107 42.6564 5.2448 -7.7996
# 5 -1.4874 -1.8832 -2.9801 5.2448 39.6651 -2.1122
# 6 29.9361 25.9073 18.7267 -7.7996 -2.1122 49.8907
#
#
#
# Elastic Compliance Matrix: (Units=1/GPa)
#
#
# Indices 1 2 3 4 5 6 
#
# 1 0.018162 0.000809 -0.001859 -0.000611 0.000090 -0.010711
# 2 0.000809 0.037700 -0.004215 0.002454 0.000216 -0.018087
# 3 -0.001859 -0.004215 0.010961 -0.000080 0.000522 -0.000800
# 4 -0.000611 0.002454 -0.000080 0.024679 -0.003024 0.002852
# 5 0.000090 0.000216 0.000522 -0.003024 0.025677 0.000252
# 6 -0.010711 -0.018087 -0.000800 0.002852 0.000252 0.036620
#
#
# Mechanical properties :
#
#
# Convention : Reuss Voigt Hill
#
# Bulk Modulus (GPa) = 17.76452 36.92755 27.34604
# Shear Modulus (GPa) = 27.30812 37.31428 32.31120
#
# Velocity S-wave (km/s) = 3.41744 3.99478 3.71734
# Velocity P-wave (km/s) = 4.81345 6.08856 5.48817
#
# Compressibility (1/GPa) = 0.05629199
#
# Stress axis : x y z
#
# Youngs Moduli (GPa) = 55.06014 26.52486 91.23340
#
# Poissons Ratio (x) = -0.02145 0.16964
# Poissons Ratio (y) = -0.04452 0.38454
# Poissons Ratio (z) = 0.10238 0.11180
#
# Static dielectric constant tensor:
#      x y z
#    x 1.905570 0.002870 -0.010580 
#    y 0.002870 1.897290 -0.074640 
#    z -0.010580 -0.074640 1.816080 
# 
# From -- ./inp_files/187468.got.cif
#   From: 2010.05.17/outbox.cif.g08.bks.cpg/sg2_94_cif.got.tgz:187468.got - 2010.06.03 11:33:40.
