data_PCOD9057303
_publ_section_title
;
Structure prediction by ZEFSAII (Michael W. Deem and Ramdas Pophale) SiO2 
 PCOD9057303
Probable space group: P -1
;
_chemical_formula_sum "Si O2"
_cell_formula_units_Z 16
_cell_length_a 20.160854
_cell_length_b 9.712205
_cell_length_c 11.731332
_cell_angle_alpha 127.077006
_cell_angle_beta 135.000822
_cell_angle_gamma 28.060110
_cell_volume 762.502873
_symmetry_space_group_name_H-M "P -1"
_symmetry_group_IT_number 2
_symmetry_cell_setting 'triclinic'
loop_
_space_group_symop_operation_xyz
x,y,z
-x,-y,-z
loop_
_atom_site_type_symbol
_atom_site_label
_atom_site_fract_x
_atom_site_fract_y
_atom_site_fract_z
Si Si1 0.968006 0.861418 0.051256
Si Si2 0.008839 0.204675 0.222458
Si Si3 0.702958 0.734993 0.232001
Si Si4 0.301268 0.253062 0.267033
Si Si5 0.560403 0.631270 0.867060
Si Si6 0.331193 0.765955 0.369894
Si Si7 0.382941 0.729346 0.077407
Si Si8 0.637884 0.897023 0.479533
O O1 0.128574 0.552755 0.154555
O O2 0.977599 0.783169 0.891534
O O3 0.976738 0.054686 0.143210
O O4 0.803022 0.059107 0.017753
O O5 0.864848 0.525056 0.257748
O O6 0.178279 0.000027 0.380098
O O7 0.723586 0.694786 0.371756
O O8 0.582892 0.066940 0.221858
O O9 0.625107 0.676134 0.056572
O O10 0.305465 0.269716 0.417152
O O11 0.359716 0.969978 0.170607
O O12 0.449159 0.149834 0.353972
O O13 0.686778 0.380268 0.801085
O O14 0.525098 0.505314 0.825192
O O15 0.500000 0.500000 0.500000
O O16 0.329934 0.948196 0.393698
O O17 0.500000 0.500000 0.000000
#
# Coordination Sequence:
#
# PCOD9057303 Si02
#       8
#     2   2   2   2   2   2   2   2
#     4  11  23  44  67 105 129 175 232 277 342 394
#     4  11  23  41  71  99 137 167 225 296 330 392
#     4  11  24  40  71 101 134 172 224 290 335 386
#     4  11  25  42  70  93 138 194 216 273 333 413
#     4  11  22  42  67 101 129 172 228 277 335 394
#     4  12  22  43  67  96 135 178 217 272 345 406
#     4  12  24  42  67 100 139 174 229 281 326 406
#     4  11  24  44  65  96 145 176 229 262 342 408
#
# _framework density 20.983526999999999
#
# number of rings (size 3 to 8) (size 9 to 14) (size 15 to 20)
#    0.000    0.750    5.000    2.625    5.250    0.500 
#    0.000    0.625    0.000    0.000    0.000    0.000 
#    0.000    0.000    0.000    0.000    0.000    0.000 
#
# Total GULP energy -89221.346876 kJ/mol
# GULP energy per Si atom -5576.334180 kJ/mol
# Density = 2.093577 g / cm^3
# Si number density = 20.983527 Si / 1000 Ang^3
#
#
#
# Elastic Constant Matrix: (Units=GPa)
#
#
# Indices 1 2 3 4 5 6 
#
# 1 94.9707 51.4405 36.0410 -4.6778 4.8295 -23.5853
# 2 51.4405 120.4439 48.3286 -5.6604 -3.1357 -17.3874
# 3 36.0410 48.3286 82.1921 -1.2977 -2.2249 -12.5441
# 4 -4.6778 -5.6604 -1.2977 33.5660 1.2506 1.5020
# 5 4.8295 -3.1357 -2.2249 1.2506 39.8501 4.8700
# 6 -23.5853 -17.3874 -12.5441 1.5020 4.8700 42.7260
#
#
#
# Elastic Compliance Matrix: (Units=1/GPa)
#
#
# Indices 1 2 3 4 5 6 
#
# 1 0.016155 -0.004622 -0.003468 0.001177 -0.003329 0.006357
# 2 -0.004622 0.012566 -0.005180 0.001194 0.001116 0.000873
# 3 -0.003468 -0.005180 0.016876 -0.000775 0.000874 0.000860
# 4 0.001177 0.001194 -0.000775 0.030168 -0.001035 -0.000034
# 5 -0.003329 0.001116 0.000874 -0.001035 0.026164 -0.004073
# 6 0.006357 0.000873 0.000860 -0.000034 -0.004073 0.027987
#
#
# Mechanical properties :
#
#
# Convention : Reuss Voigt Hill
#
# Bulk Modulus (GPa) = 52.47184 63.24746 57.85965
# Shear Modulus (GPa) = 30.71119 34.01485 32.36302
#
# Velocity S-wave (km/s) = 3.82983 4.03056 3.93148
# Velocity P-wave (km/s) = 6.67962 7.20191 6.94568
#
# Compressibility (1/GPa) = 0.01905784
#
# Stress axis : x y z
#
# Youngs Moduli (GPa) = 61.90089 79.57856 59.25706
#
# Poissons Ratio (x) = 0.36780 0.20548
# Poissons Ratio (y) = 0.28610 0.30695
# Poissons Ratio (z) = 0.21465 0.41222
#
# Static dielectric constant tensor:
#      x y z
#    x 1.796770 -0.031560 -0.006450 
#    y -0.031560 1.743940 0.004840 
#    z -0.006450 0.004840 1.825130 
# 
# From -- ./inp_files/462357.got.cif
#   From: 2010.05.17/outbox.cif.g08.bks.cpg/sg2_232_cif.got.tgz:462357.got - 2010.06.03 11:33:40.
