data_PCOD9057418
_publ_section_title
;
Structure prediction by ZEFSAII (Michael W. Deem and Ramdas Pophale) SiO2 
 PCOD9057418
Probable space group: P -1
;
_chemical_formula_sum "Si O2"
_cell_formula_units_Z 16
_cell_length_a 14.836027
_cell_length_b 8.174867
_cell_length_c 9.033305
_cell_angle_alpha 86.011432
_cell_angle_beta 80.196941
_cell_angle_gamma 137.398334
_cell_volume 698.881787
_symmetry_space_group_name_H-M "P -1"
_symmetry_group_IT_number 2
_symmetry_cell_setting 'triclinic'
loop_
_space_group_symop_operation_xyz
x,y,z
-x,-y,-z
loop_
_atom_site_type_symbol
_atom_site_label
_atom_site_fract_x
_atom_site_fract_y
_atom_site_fract_z
Si Si1 0.821040 0.057613 0.535799
Si Si2 0.661435 0.768648 0.897115
Si Si3 0.112570 0.468474 0.570876
Si Si4 0.838452 0.742719 0.025315
Si Si5 0.669484 0.659823 0.341339
Si Si6 0.114464 0.536112 0.896536
Si Si7 0.419333 0.753067 0.442202
Si Si8 0.380872 0.091348 0.837332
O O1 0.841249 0.280668 0.492707
O O2 0.979541 0.225273 0.529767
O O3 0.709994 0.870582 0.710739
O O4 0.767676 0.885834 0.418758
O O5 0.500000 0.500000 0.000000
O O6 0.764033 0.764415 0.930078
O O7 0.671800 0.950179 0.979256
O O8 0.064863 0.401588 0.760274
O O9 0.253466 0.558097 0.499212
O O10 0.755399 0.660443 0.206152
O O11 0.840783 0.552430 0.004220
O O12 0.000000 0.000000 0.000000
O O13 0.560192 0.392073 0.470035
O O14 0.607935 0.713054 0.247263
O O15 0.254955 0.828474 0.806636
O O16 0.000000 0.500000 0.000000
O O17 0.481053 0.818288 0.255464
O O18 0.500000 0.000000 0.500000
#
# Coordination Sequence:
#
# PCOD9057418 Si02
#       8
#     2   2   2   2   2   2   2   2
#     4  11  24  46  68 100 147 186 226 295 363 419
#     4  11  26  48  68 102 148 184 236 293 362 422
#     4  11  24  43  68 104 141 184 232 294 356 418
#     4  11  24  44  71 103 136 184 237 287 343 427
#     4  11  22  42  70 100 133 181 236 280 349 420
#     4  12  22  44  71 101 135 180 242 289 343 422
#     4  12  22  40  65 101 136 173 238 288 339 414
#     4  11  23  42  68  99 130 184 228 277 348 415
#
# _framework density 22.893713000000002
#
# number of rings (size 3 to 8) (size 9 to 14) (size 15 to 20)
#    0.000    0.750    3.750    4.125    0.000    4.500 
#    2.250    1.250    0.000    0.000    0.000    0.000 
#    0.000    0.000    0.000    0.000    0.000    0.000 
#
# Total GULP energy -89422.885769 kJ/mol
# GULP energy per Si atom -5588.930361 kJ/mol
# Density = 2.284161 g / cm^3
# Si number density = 22.893713 Si / 1000 Ang^3
#
#
#
# Elastic Constant Matrix: (Units=GPa)
#
#
# Indices 1 2 3 4 5 6 
#
# 1 91.4533 12.2210 21.1175 -6.8683 -20.1532 3.7583
# 2 12.2210 89.4238 -5.8434 -1.8313 10.7830 -1.5838
# 3 21.1175 -5.8434 62.0869 0.4695 -10.8306 6.8601
# 4 -6.8683 -1.8313 0.4695 41.7038 0.5791 -0.8594
# 5 -20.1532 10.7830 -10.8306 0.5791 39.9921 -7.0437
# 6 3.7583 -1.5838 6.8601 -0.8594 -7.0437 38.4487
#
#
#
# Elastic Compliance Matrix: (Units=1/GPa)
#
#
# Indices 1 2 3 4 5 6 
#
# 1 0.013848 -0.002910 -0.003875 0.002113 0.006772 0.000506
# 2 -0.002910 0.012203 0.001395 0.000097 -0.004428 -0.000271
# 3 -0.003875 0.001395 0.018212 -0.000862 0.002188 -0.002432
# 4 0.002113 0.000097 -0.000862 0.024345 0.000558 0.000598
# 5 0.006772 -0.004428 0.002188 0.000558 0.030980 0.004453
# 6 0.000506 -0.000271 -0.002432 0.000598 0.004453 0.027211
#
#
# Mechanical properties :
#
#
# Convention : Reuss Voigt Hill
#
# Bulk Modulus (GPa) = 29.86482 33.10604 31.48543
# Shear Modulus (GPa) = 33.61543 38.39352 36.00448
#
# Velocity S-wave (km/s) = 3.83603 4.09960 3.97000
# Velocity P-wave (km/s) = 5.71782 6.07463 5.89892
#
# Compressibility (1/GPa) = 0.03348421
#
# Stress axis : x y z
#
# Youngs Moduli (GPa) = 72.21028 81.94901 54.90738
#
# Poissons Ratio (x) = 0.23849 0.21274
# Poissons Ratio (y) = 0.21015 -0.07660
# Poissons Ratio (z) = 0.27979 -0.11432
#
# Static dielectric constant tensor:
#      x y z
#    x 2.146430 -0.203470 -0.101810 
#    y -0.203470 2.091710 0.145400 
#    z -0.101810 0.145400 1.981330 
# 
# From -- ./inp_files/257898.got.cif
#   From: 2010.05.17/outbox.cif.g08.bks.cpg/sg2_129_cif.got.tgz:257898.got - 2010.06.03 11:33:40.
