data_PCOD9057356
_publ_section_title
;
Structure prediction by ZEFSAII (Michael W. Deem and Ramdas Pophale) SiO2 
 PCOD9057356
Probable space group: P -1
;
_chemical_formula_sum "Si O2"
_cell_formula_units_Z 14
_cell_length_a 10.795518
_cell_length_b 7.698445
_cell_length_c 15.096916
_cell_angle_alpha 124.756275
_cell_angle_beta 40.010854
_cell_angle_gamma 98.798107
_cell_volume 559.061238
_symmetry_space_group_name_H-M "P -1"
_symmetry_group_IT_number 2
_symmetry_cell_setting 'triclinic'
loop_
_space_group_symop_operation_xyz
x,y,z
-x,-y,-z
loop_
_atom_site_type_symbol
_atom_site_label
_atom_site_fract_x
_atom_site_fract_y
_atom_site_fract_z
Si Si1 0.770460 0.269628 0.441014
Si Si2 0.555253 0.485847 0.813180
Si Si3 0.590198 0.727155 0.557447
Si Si4 0.273852 0.261924 0.890357
Si Si5 0.796931 0.746193 0.280818
Si Si6 0.744619 0.957837 0.834587
Si Si7 0.038253 0.226038 0.528002
O O1 0.643527 0.422544 0.644853
O O2 0.640821 0.465439 0.489860
O O3 0.802162 0.997949 0.353267
O O4 0.031601 0.201913 0.274584
O O5 0.473774 0.297650 0.826039
O O6 0.773236 0.452530 0.735177
O O7 0.330669 0.753820 0.032479
O O8 0.608991 0.762986 0.453844
O O9 0.797927 0.748444 0.488445
O O10 0.352232 0.979053 0.790319
O O11 0.257714 0.288709 0.799751
O O12 0.027764 0.497882 0.117269
O O13 0.837358 0.833089 0.652146
O O14 0.500000 0.000000 0.000000
O O15 0.000000 0.000000 0.500000
#
# Coordination Sequence:
#
# PCOD9057356 Si02
#       7
#     2   2   2   2   2   2   2
#     4  11  24  42  69 100 136 169 228 276 327 404
#     4  11  22  42  68  95 136 181 216 267 344 391
#     4  12  24  43  69 101 130 173 221 278 332 394
#     4  11  24  45  70  92 133 178 222 276 335 395
#     4  11  25  48  66  96 133 175 226 277 331 398
#     4  11  23  41  64  97 140 183 214 272 340 397
#     4  11  23  40  64 103 137 172 224 276 328 410
#
# _framework density 25.041979000000001
#
# number of rings (size 3 to 8) (size 9 to 14) (size 15 to 20)
#    0.000    0.857    4.286    3.000    0.000    6.857 
#    0.000    1.429    0.000    0.000    0.000    0.000 
#    0.000    0.000    0.000    0.000    0.000    0.000 
#
# Total GULP energy -78287.994184 kJ/mol
# GULP energy per Si atom -5591.999585 kJ/mol
# Density = 2.498498 g / cm^3
# Si number density = 25.041979 Si / 1000 Ang^3
#
#
#
# Elastic Constant Matrix: (Units=GPa)
#
#
# Indices 1 2 3 4 5 6 
#
# 1 66.5045 8.8269 26.9948 2.0487 -19.4684 7.5305
# 2 8.8269 120.5858 33.0095 24.1875 -18.0196 16.4789
# 3 26.9948 33.0095 151.5006 28.2645 -33.4545 -5.8845
# 4 2.0487 24.1875 28.2645 38.0730 -1.1632 -10.1557
# 5 -19.4684 -18.0196 -33.4545 -1.1632 44.6997 2.3847
# 6 7.5305 16.4789 -5.8845 -10.1557 2.3847 33.0837
#
#
#
# Elastic Compliance Matrix: (Units=1/GPa)
#
#
# Indices 1 2 3 4 5 6 
#
# 1 0.018631 0.001635 -0.001816 -0.002223 0.007710 -0.006617
# 2 0.001635 0.012654 -0.000155 -0.010601 0.005976 -0.010388
# 3 -0.001816 -0.000155 0.009575 -0.006816 0.006154 -0.000342
# 4 -0.002223 -0.010601 -0.006816 0.042787 -0.010213 0.018444
# 5 0.007710 0.005976 0.006154 -0.010213 0.032967 -0.009148
# 6 -0.006617 -0.010388 -0.000342 0.018444 -0.009148 0.043167
#
#
# Mechanical properties :
#
#
# Convention : Reuss Voigt Hill
#
# Bulk Modulus (GPa) = 24.88153 52.91705 38.89929
# Shear Modulus (GPa) = 28.76066 41.15524 34.95795
#
# Velocity S-wave (km/s) = 3.39263 4.05835 3.74033
# Velocity P-wave (km/s) = 5.03031 6.56791 5.84985
#
# Compressibility (1/GPa) = 0.04019045
#
# Stress axis : x y z
#
# Youngs Moduli (GPa) = 53.67321 79.02389 104.43790
#
# Poissons Ratio (x) = -0.12924 0.18965
# Poissons Ratio (y) = -0.08778 0.01616
# Poissons Ratio (z) = 0.09746 0.01223
#
# Static dielectric constant tensor:
#      x y z
#    x 2.011780 0.009810 0.022470 
#    y 0.009810 2.036350 0.095730 
#    z 0.022470 0.095730 1.923770 
# 
# From -- ./inp_files/566915.got.cif
#   From: 2010.05.17/outbox.cif.g08.bks.cpg/sg2_284_cif.got.tgz:566915.got - 2010.06.03 11:33:40.
