data_PCOD9057932
_publ_section_title
;
Structure prediction by ZEFSAII (Michael W. Deem and Ramdas Pophale) SiO2 
 PCOD9057932
Probable space group: P -1
;
_chemical_formula_sum "Si O2"
_cell_formula_units_Z 14
_cell_length_a 14.269814
_cell_length_b 10.782466
_cell_length_c 5.220016
_cell_angle_alpha 111.892555
_cell_angle_beta 91.139655
_cell_angle_gamma 129.468294
_cell_volume 537.041259
_symmetry_space_group_name_H-M "P -1"
_symmetry_group_IT_number 2
_symmetry_cell_setting 'triclinic'
loop_
_space_group_symop_operation_xyz
x,y,z
-x,-y,-z
loop_
_atom_site_type_symbol
_atom_site_label
_atom_site_fract_x
_atom_site_fract_y
_atom_site_fract_z
Si Si1 0.614760 0.589529 0.783174
Si Si2 0.734130 0.802300 0.458071
Si Si3 0.070237 0.699607 0.539883
Si Si4 0.314193 0.974142 0.121870
Si Si5 0.845163 0.645810 0.293703
Si Si6 0.767582 0.319671 0.762495
Si Si7 0.609246 0.311544 0.370086
O O1 0.500000 0.500000 0.500000
O O2 0.727448 0.751536 0.720669
O O3 0.610613 0.426213 0.682549
O O4 0.628553 0.668779 0.122280
O O5 0.720766 0.947163 0.606763
O O6 0.840989 0.799699 0.361011
O O7 0.125412 0.688473 0.276475
O O8 0.000000 0.500000 0.500000
O O9 0.969183 0.719066 0.516158
O O10 0.196117 0.864844 0.833962
O O11 0.459266 0.147863 0.158781
O O12 0.317840 0.829406 0.132885
O O13 0.709499 0.473418 0.297211
O O14 0.840293 0.531271 0.978973
O O15 0.675316 0.250405 0.461078
#
# Coordination Sequence:
#
# PCOD9057932 Si02
#       7
#     2   2   2   2   2   2   2
#     4  11  22  43  75 105 158 196 240 294 384 451
#     4  11  26  46  74 115 149 200 247 312 372 453
#     4  12  26  49  71 102 146 202 253 307 375 451
#     4  12  28  43  74 113 151 188 250 316 381 438
#     4  11  25  48  78 100 147 202 253 298 377 455
#     4  12  24  45  75 103 144 196 251 310 375 449
#     4  11  24  44  73 111 145 190 247 311 376 448
#
# _framework density 26.068764000000002
#
# number of rings (size 3 to 8) (size 9 to 14) (size 15 to 20)
#    0.000    0.571    5.714    1.286    2.000    4.000 
#    0.000    0.714    0.000    0.000    0.000    0.000 
#    0.000    0.000    0.000    0.000    0.000    0.000 
#
# Total GULP energy -78102.052286 kJ/mol
# GULP energy per Si atom -5578.718020 kJ/mol
# Density = 2.600943 g / cm^3
# Si number density = 26.068764 Si / 1000 Ang^3
#
#
#
# Elastic Constant Matrix: (Units=GPa)
#
#
# Indices 1 2 3 4 5 6 
#
# 1 143.5987 20.6435 52.0954 8.9362 12.1462 -5.2362
# 2 20.6435 51.2369 12.8776 0.5007 23.5706 10.5954
# 3 52.0954 12.8776 156.0805 4.8835 17.3709 16.3043
# 4 8.9362 0.5007 4.8835 33.1053 -3.6486 4.7421
# 5 12.1462 23.5706 17.3709 -3.6486 48.4343 -0.6525
# 6 -5.2362 10.5954 16.3043 4.7421 -0.6525 31.9044
#
#
#
# Elastic Compliance Matrix: (Units=1/GPa)
#
#
# Indices 1 2 3 4 5 6 
#
# 1 0.008980 -0.004166 -0.003171 -0.002503 0.000790 0.004866
# 2 -0.004166 0.029706 0.001730 0.000552 -0.014150 -0.011805
# 3 -0.003171 0.001730 0.008223 0.000048 -0.003065 -0.005367
# 4 -0.002503 0.000552 0.000048 0.031922 0.002675 -0.005309
# 5 0.000790 -0.014150 -0.003065 0.002675 0.028724 0.006585
# 6 0.004866 -0.011805 -0.005367 -0.005309 0.006585 0.039729
#
#
# Mechanical properties :
#
#
# Convention : Reuss Voigt Hill
#
# Bulk Modulus (GPa) = 28.01591 58.01657 43.01624
# Shear Modulus (GPa) = 29.34345 40.37543 34.85944
#
# Velocity S-wave (km/s) = 3.35866 3.93976 3.66076
# Velocity P-wave (km/s) = 5.08046 6.55737 5.86558
#
# Compressibility (1/GPa) = 0.03569401
#
# Stress axis : x y z
#
# Youngs Moduli (GPa) = 111.36249 33.66342 121.61112
#
# Poissons Ratio (x) = 0.14025 0.38567
# Poissons Ratio (y) = 0.46395 -0.21042
# Poissons Ratio (z) = 0.35317 -0.05825
#
# Static dielectric constant tensor:
#      x y z
#    x 2.153040 0.058720 -0.047340 
#    y 0.058720 2.207270 -0.017310 
#    z -0.047340 -0.017310 2.087680 
# 
# From -- ./inp_files/77805.got.cif
#   From: 2010.05.17/outbox.cif.g08.bks.cpg/sg2_39_cif.got.tgz:77805.got - 2010.06.03 11:33:40.
