data_PCOD9057376
_publ_section_title
;
Structure prediction by ZEFSAII (Michael W. Deem and Ramdas Pophale) SiO2 
 PCOD9057376
Probable space group: P -1
;
_chemical_formula_sum "Si O2"
_cell_formula_units_Z 16
_cell_length_a 25.706632
_cell_length_b 8.493591
_cell_length_c 10.723762
_cell_angle_alpha 43.518373
_cell_angle_beta 27.078395
_cell_angle_gamma 33.917558
_cell_volume 593.873050
_symmetry_space_group_name_H-M "P -1"
_symmetry_group_IT_number 2
_symmetry_cell_setting 'triclinic'
loop_
_space_group_symop_operation_xyz
x,y,z
-x,-y,-z
loop_
_atom_site_type_symbol
_atom_site_label
_atom_site_fract_x
_atom_site_fract_y
_atom_site_fract_z
Si Si1 0.160214 0.404446 0.731365
Si Si2 0.290301 0.447672 0.936556
Si Si3 0.210164 0.207217 0.469281
Si Si4 0.550742 0.417324 0.733544
Si Si5 0.823673 0.086061 0.626853
Si Si6 0.534758 0.138645 0.158212
Si Si7 0.972296 0.258566 0.829486
Si Si8 0.725001 0.153156 0.068979
O O1 0.169795 0.662612 0.582722
O O2 0.232150 0.277079 0.517711
O O3 0.000000 0.500000 0.000000
O O4 0.240379 0.150754 0.804015
O O5 0.257669 0.732221 0.903005
O O6 0.187129 0.531336 0.992726
O O7 0.261055 0.320293 0.190653
O O8 0.437622 0.161805 0.741192
O O9 0.301855 0.867296 0.456515
O O10 0.046335 0.358580 0.700658
O O11 0.490260 0.304499 0.027627
O O12 0.561387 0.644795 0.652713
O O13 0.431980 0.586537 0.786338
O O14 0.685049 0.094230 0.890050
O O15 0.824898 0.099813 0.767372
O O16 0.945465 0.833037 0.426711
O O17 0.000000 0.000000 0.000000
#
# Coordination Sequence:
#
# PCOD9057376 Si02
#       8
#     2   2   2   2   2   2   2   2
#     4  12  27  45  66 103 139 179 230 275 335 406
#     4  11  22  42  69 101 130 178 224 272 346 391
#     4  11  23  43  68  98 136 176 226 281 331 403
#     4   9  20  42  68  98 132 174 228 274 339 400
#     4  11  23  44  68  99 138 176 222 279 341 395
#     4   9  20  40  71  99 129 175 227 279 334 404
#     4  12  25  41  66  98 140 176 224 282 334 405
#     4  11  25  44  72  99 135 182 223 278 342 403
#
# _framework density 26.941787000000001
#
# number of rings (size 3 to 8) (size 9 to 14) (size 15 to 20)
#    0.000    1.250    3.750    2.625    1.750    6.500 
#    2.250    0.625    0.000    0.000    0.000    0.000 
#    0.000    0.000    0.000    0.000    0.000    0.000 
#
# Total GULP energy -89594.667902 kJ/mol
# GULP energy per Si atom -5599.666744 kJ/mol
# Density = 2.688047 g / cm^3
# Si number density = 26.941787 Si / 1000 Ang^3
#
#
#
# Elastic Constant Matrix: (Units=GPa)
#
#
# Indices 1 2 3 4 5 6 
#
# 1 95.6093 36.3833 27.8952 8.8671 11.0151 -5.5077
# 2 36.3833 132.9199 28.7530 -4.1082 9.7927 -0.9951
# 3 27.8952 28.7530 86.6122 -11.0701 8.6270 -7.4668
# 4 8.8671 -4.1082 -11.0701 30.9994 -4.0437 0.1611
# 5 11.0151 9.7927 8.6270 -4.0437 38.3984 -1.9722
# 6 -5.5077 -0.9951 -7.4668 0.1611 -1.9722 58.2788
#
#
#
# Elastic Compliance Matrix: (Units=1/GPa)
#
#
# Indices 1 2 3 4 5 6 
#
# 1 0.013604 -0.002857 -0.003857 -0.006030 -0.002909 0.000661
# 2 -0.002857 0.008794 -0.001784 0.001228 -0.000913 -0.000383
# 3 -0.003857 -0.001784 0.014346 0.005856 -0.000973 0.001394
# 4 -0.006030 0.001228 0.005856 0.036756 0.003984 0.000235
# 5 -0.002909 -0.000913 -0.000973 0.003984 0.027774 0.000514
# 6 0.000661 -0.000383 0.001394 0.000235 0.000514 0.017410
#
#
# Mechanical properties :
#
#
# Convention : Reuss Voigt Hill
#
# Bulk Modulus (GPa) = 50.63970 55.68938 53.16454
# Shear Modulus (GPa) = 35.14628 40.34264 37.74446
#
# Velocity S-wave (km/s) = 3.61574 3.87382 3.74701
# Velocity P-wave (km/s) = 6.02231 6.38152 6.20452
#
# Compressibility (1/GPa) = 0.01974735
#
# Stress axis : x y z
#
# Youngs Moduli (GPa) = 73.50744 113.71981 69.70635
#
# Poissons Ratio (x) = 0.32484 0.26887
# Poissons Ratio (y) = 0.20998 0.12438
# Poissons Ratio (z) = 0.28353 0.20291
#
# Static dielectric constant tensor:
#      x y z
#    x 2.060590 0.014030 -0.013950 
#    y 0.014030 2.107840 0.010190 
#    z -0.013950 0.010190 2.142960 
# 
# From -- ./inp_files/476365.got.cif
#   From: 2010.05.17/outbox.cif.g08.bks.cpg/sg2_239_cif.got.tgz:476365.got - 2010.06.03 11:33:40.
