data_PCOD9057482
_publ_section_title
;
Structure prediction by ZEFSAII (Michael W. Deem and Ramdas Pophale) SiO2 
 PCOD9057482
Probable space group: P -1
;
_chemical_formula_sum "Si O2"
_cell_formula_units_Z 16
_cell_length_a 11.177744
_cell_length_b 13.438875
_cell_length_c 9.492006
_cell_angle_alpha 77.827866
_cell_angle_beta 90.059366
_cell_angle_gamma 146.171467
_cell_volume 735.151532
_symmetry_space_group_name_H-M "P -1"
_symmetry_group_IT_number 2
_symmetry_cell_setting 'triclinic'
loop_
_space_group_symop_operation_xyz
x,y,z
-x,-y,-z
loop_
_atom_site_type_symbol
_atom_site_label
_atom_site_fract_x
_atom_site_fract_y
_atom_site_fract_z
Si Si1 0.989951 0.743926 0.576798
Si Si2 0.692027 0.723389 0.903974
Si Si3 0.495804 0.115930 0.431553
Si Si4 0.595947 0.352881 0.584514
Si Si5 0.226051 0.606970 0.917391
Si Si6 0.389751 0.145307 0.940728
Si Si7 0.993347 0.235926 0.099278
Si Si8 0.256254 0.227378 0.423509
O O1 0.862864 0.567672 0.537871
O O2 0.795621 0.690421 0.591712
O O3 0.036853 0.754182 0.739372
O O4 0.230393 0.949493 0.450511
O O5 0.654192 0.734409 0.742492
O O6 0.914063 0.812979 0.878570
O O7 0.500000 0.500000 0.000000
O O8 0.708771 0.830548 0.976696
O O9 0.560160 0.223307 0.539303
O O10 0.500000 0.000000 0.500000
O O11 0.667263 0.274529 0.262247
O O12 0.500526 0.274502 0.764367
O O13 0.434680 0.315022 0.510271
O O14 0.416980 0.760790 0.988967
O O15 0.161423 0.439989 0.970079
O O16 0.000000 0.500000 0.000000
O O17 0.224221 0.937507 0.946696
O O18 0.000000 0.000000 0.500000
#
# Coordination Sequence:
#
# PCOD9057482 Si02
#       8
#     2   2   2   2   2   2   2   2
#     4  11  23  45  72 107 150 188 232 292 348 423
#     4  11  22  42  71 106 152 188 231 288 348 424
#     4  12  28  51  75 102 139 184 244 303 355 425
#     4  12  24  45  76 107 144 192 234 289 361 421
#     4  12  28  51  75 102 139 184 244 303 355 425
#     4  12  24  45  76 107 144 192 234 289 361 421
#     4  11  23  45  72 107 150 188 232 292 348 423
#     4  11  22  42  71 106 152 188 231 288 348 424
#
# _framework density 21.764220999999999
#
# number of rings (size 3 to 8) (size 9 to 14) (size 15 to 20)
#    0.000    0.500    5.000    3.750    0.000    2.000 
#    0.000    0.000    0.000    0.000    0.000    0.000 
#    0.000    0.000    0.000    0.000    0.000    0.000 
#
# Total GULP energy -89418.128064 kJ/mol
# GULP energy per Si atom -5588.633004 kJ/mol
# Density = 2.171469 g / cm^3
# Si number density = 21.764221 Si / 1000 Ang^3
#
#
#
# Elastic Constant Matrix: (Units=GPa)
#
#
# Indices 1 2 3 4 5 6 
#
# 1 83.9354 2.9259 11.0308 9.7636 -6.8361 -2.0874
# 2 2.9259 119.7717 -20.2935 2.9754 -6.8138 -2.8373
# 3 11.0308 -20.2935 77.3105 -15.1116 -2.0024 3.1322
# 4 9.7636 2.9754 -15.1116 36.5401 0.3253 2.6931
# 5 -6.8361 -6.8138 -2.0024 0.3253 27.3080 -4.9623
# 6 -2.0874 -2.8373 3.1322 2.6931 -4.9623 23.1455
#
#
#
# Elastic Compliance Matrix: (Units=1/GPa)
#
#
# Indices 1 2 3 4 5 6 
#
# 1 0.013270 -0.000438 -0.003011 -0.005001 0.003578 0.002900
# 2 -0.000438 0.008946 0.002486 0.000304 0.002524 0.001227
# 3 -0.003011 0.002486 0.015557 0.007241 0.000407 -0.002827
# 4 -0.005001 0.000304 0.007241 0.032102 -0.002039 -0.005566
# 5 0.003578 0.002524 0.000407 -0.002039 0.039902 0.009369
# 6 0.002900 0.001227 -0.002827 -0.005566 0.009369 0.046656
#
#
# Mechanical properties :
#
#
# Convention : Reuss Voigt Hill
#
# Bulk Modulus (GPa) = 27.89513 29.81598 28.85555
# Shear Modulus (GPa) = 29.35871 36.55568 32.95719
#
# Velocity S-wave (km/s) = 3.67678 4.10277 3.89560
# Velocity P-wave (km/s) = 5.55606 6.01439 5.78976
#
# Compressibility (1/GPa) = 0.03584855
#
# Stress axis : x y z
#
# Youngs Moduli (GPa) = 75.35742 111.77918 64.27835
#
# Poissons Ratio (x) = 0.04893 0.19352
# Poissons Ratio (y) = 0.03299 -0.15978
# Poissons Ratio (z) = 0.22687 -0.27786
#
# Static dielectric constant tensor:
#      x y z
#    x 1.881030 -0.014310 0.000290 
#    y -0.014310 1.880270 -0.043030 
#    z 0.000290 -0.043030 1.774250 
# 
# From -- ./inp_files/272935.got.cif
#   From: 2010.05.17/outbox.cif.g08.bks.cpg/sg2_137_cif.got.tgz:272935.got - 2010.06.03 11:33:40.
