data_PCOD9057232
_publ_section_title
;
Structure prediction by ZEFSAII (Michael W. Deem and Ramdas Pophale) SiO2 
 PCOD9057232
Probable space group: P -1
;
_chemical_formula_sum "Si O2"
_cell_formula_units_Z 16
_cell_length_a 32.577080
_cell_length_b 11.527216
_cell_length_c 18.960723
_cell_angle_alpha 157.705745
_cell_angle_beta 18.535670
_cell_angle_gamma 148.881633
_cell_volume 845.370263
_symmetry_space_group_name_H-M "P -1"
_symmetry_group_IT_number 2
_symmetry_cell_setting 'triclinic'
loop_
_space_group_symop_operation_xyz
x,y,z
-x,-y,-z
loop_
_atom_site_type_symbol
_atom_site_label
_atom_site_fract_x
_atom_site_fract_y
_atom_site_fract_z
Si Si1 0.616872 0.240214 0.132942
Si Si2 0.625123 0.151635 0.902962
Si Si3 0.848725 0.535263 0.578334
Si Si4 0.578320 0.542893 0.825949
Si Si5 0.410524 0.307041 0.844583
Si Si6 0.142261 0.458765 0.048508
Si Si7 0.834846 0.175995 0.255554
Si Si8 0.870109 0.899546 0.276218
O O1 0.500000 0.500000 0.500000
O O2 0.618778 0.230756 0.039811
O O3 0.751955 0.329049 0.989630
O O4 0.601923 0.894728 0.984893
O O5 0.759591 0.932765 0.534735
O O6 0.620956 0.465035 0.041829
O O7 0.500000 0.000000 0.000000
O O8 0.825509 0.422857 0.473963
O O9 0.992000 0.623368 0.398086
O O10 0.857063 0.225736 0.438600
O O11 0.722338 0.758723 0.939187
O O12 0.488597 0.480198 0.871449
O O13 0.713936 0.296445 0.469404
O O14 0.500000 0.500000 0.000000
O O15 0.500000 0.000000 0.500000
O O16 0.151119 0.336540 0.884641
O O17 0.169377 0.154949 0.885301
O O18 0.978775 0.165293 0.981843
#
# Coordination Sequence:
#
# PCOD9057232 Si02
#       8
#     2   2   2   2   2   2   2   2
#     4  12  26  39  61  93 121 160 203 250 302 360
#     4  11  22  42  60  84 127 159 203 248 297 359
#     4   8  16  36  62  87 120 156 202 245 288 361
#     4  12  24  41  63  89 125 157 204 252 300 362
#     4  11  24  40  62  93 121 163 202 246 305 352
#     4   9  18  37  65  92 113 154 210 247 292 357
#     4   9  17  35  65  88 118 158 201 246 297 352
#     4   8  17  36  62  88 115 163 198 243 300 355
#
# _framework density 18.926617
#
# number of rings (size 3 to 8) (size 9 to 14) (size 15 to 20)
#    0.000    2.000    2.500    3.000    5.250    0.000 
#    2.250    6.250    0.000    0.000    0.000    0.000 
#    0.000    0.000    0.000    0.000    0.000    0.000 
#
# Total GULP energy -89298.346300 kJ/mol
# GULP energy per Si atom -5581.146644 kJ/mol
# Density = 1.888354 g / cm^3
# Si number density = 18.926617 Si / 1000 Ang^3
#
#
#
# Elastic Constant Matrix: (Units=GPa)
#
#
# Indices 1 2 3 4 5 6 
#
# 1 76.7790 40.3603 34.7583 -13.6482 5.2061 0.5527
# 2 40.3603 116.8041 57.5084 -16.6549 11.0163 15.2268
# 3 34.7583 57.5084 146.3134 -31.5222 10.4381 2.5704
# 4 -13.6482 -16.6549 -31.5222 33.6072 -3.0703 -2.5465
# 5 5.2061 11.0163 10.4381 -3.0703 28.2695 -2.4571
# 6 0.5527 15.2268 2.5704 -2.5465 -2.4571 25.8404
#
#
#
# Elastic Compliance Matrix: (Units=1/GPa)
#
#
# Indices 1 2 3 4 5 6 
#
# 1 0.016882 -0.005105 -0.001349 0.003297 0.000006 0.003107
# 2 -0.005105 0.013521 -0.003644 0.000286 -0.003632 -0.007813
# 3 -0.001349 -0.003644 0.010199 0.007240 -0.001158 0.001765
# 4 0.003297 0.000286 0.007240 0.038342 0.001026 0.002917
# 5 0.000006 -0.003632 -0.001158 0.001026 0.037844 0.005955
# 6 0.003107 -0.007813 0.001765 0.002917 0.005955 0.043915
#
#
# Mechanical properties :
#
#
# Convention : Reuss Voigt Hill
#
# Bulk Modulus (GPa) = 49.00291 67.23893 58.12092
# Shear Modulus (GPa) = 26.63839 31.36139 28.99989
#
# Velocity S-wave (km/s) = 3.75568 4.07504 3.91861
# Velocity P-wave (km/s) = 6.68985 7.59898 7.15886
#
# Compressibility (1/GPa) = 0.02040695
#
# Stress axis : x y z
#
# Youngs Moduli (GPa) = 59.23609 73.95897 98.05147
#
# Poissons Ratio (x) = 0.37753 0.13225
# Poissons Ratio (y) = 0.30238 0.35728
# Poissons Ratio (z) = 0.07990 0.26949
#
# Static dielectric constant tensor:
#      x y z
#    x 1.666890 -0.019890 -0.039220 
#    y -0.019890 1.660820 -0.008400 
#    z -0.039220 -0.008400 1.698680 
# 
# From -- ./inp_files/186799.got.cif
#   From: 2010.05.17/outbox.cif.g08.bks.cpg/sg2_94_cif.got.tgz:186799.got - 2010.06.03 11:33:40.
