data_PCOD9057517
_publ_section_title
;
Structure prediction by ZEFSAII (Michael W. Deem and Ramdas Pophale) SiO2 
 PCOD9057517
Probable space group: P -1
;
_chemical_formula_sum "Si O2"
_cell_formula_units_Z 14
_cell_length_a 8.039400
_cell_length_b 6.320170
_cell_length_c 12.997981
_cell_angle_alpha 120.845260
_cell_angle_beta 101.542338
_cell_angle_gamma 95.765114
_cell_volume 539.124395
_symmetry_space_group_name_H-M "P -1"
_symmetry_group_IT_number 2
_symmetry_cell_setting 'triclinic'
loop_
_space_group_symop_operation_xyz
x,y,z
-x,-y,-z
loop_
_atom_site_type_symbol
_atom_site_label
_atom_site_fract_x
_atom_site_fract_y
_atom_site_fract_z
Si Si1 0.707496 0.297995 0.693473
Si Si2 0.694813 0.443969 0.497709
Si Si3 0.248144 0.412093 0.794590
Si Si4 0.440857 0.041149 0.750367
Si Si5 0.966557 0.962104 0.676433
Si Si6 0.398353 0.219403 0.134159
Si Si7 0.888690 0.114538 0.097766
O O1 0.730579 0.328798 0.582608
O O2 0.716629 0.582448 0.802868
O O3 0.520342 0.139841 0.673208
O O4 0.836494 0.146034 0.719209
O O5 0.500000 0.500000 0.500000
O O6 0.687920 0.230106 0.358098
O O7 0.844830 0.696718 0.555720
O O8 0.405917 0.605758 0.805668
O O9 0.128433 0.600355 0.858801
O O10 0.364529 0.267478 0.842690
O O11 0.117421 0.149606 0.672944
O O12 0.590481 0.979602 0.824837
O O13 0.040860 0.908204 0.784207
O O14 0.308040 0.058594 0.986953
O O15 0.000000 0.000000 0.000000
#
# Coordination Sequence:
#
# PCOD9057517 Si02
#       7
#     2   2   2   2   2   2   2
#     4  11  22  42  72 108 131 179 234 278 343 401
#     4  12  23  43  74 102 137 177 232 286 335 403
#     4  11  27  45  68 101 142 183 229 273 350 406
#     4  11  24  43  72 103 138 180 228 283 342 402
#     4  12  26  44  68 103 141 178 232 282 335 406
#     4  11  24  45  71 102 142 181 225 283 339 407
#     4  12  26  47  71 101 137 178 234 286 335 406
#
# _framework density 25.968032999999998
#
# number of rings (size 3 to 8) (size 9 to 14) (size 15 to 20)
#    0.000    0.571    2.857    5.143    0.000    6.286 
#    0.000    3.571    0.000    0.000    0.000    0.000 
#    0.000    0.000    0.000    0.000    0.000    0.000 
#
# Total GULP energy -78165.776011 kJ/mol
# GULP energy per Si atom -5583.269715 kJ/mol
# Density = 2.590893 g / cm^3
# Si number density = 25.968033 Si / 1000 Ang^3
#
#
#
# Elastic Constant Matrix: (Units=GPa)
#
#
# Indices 1 2 3 4 5 6 
#
# 1 103.8674 62.7393 22.1939 13.6657 7.3113 -8.3210
# 2 62.7393 188.0605 86.7429 20.2637 0.3662 -30.4739
# 3 22.1939 86.7429 108.9658 13.3419 18.9617 -17.5822
# 4 13.6657 20.2637 13.3419 28.1795 3.7620 -12.8719
# 5 7.3113 0.3662 18.9617 3.7620 39.8133 22.0802
# 6 -8.3210 -30.4739 -17.5822 -12.8719 22.0802 68.6844
#
#
#
# Elastic Compliance Matrix: (Units=1/GPa)
#
#
# Indices 1 2 3 4 5 6 
#
# 1 0.012795 -0.004951 0.002386 -0.003099 -0.003415 0.000481
# 2 -0.004951 0.011086 -0.008370 -0.002170 0.004889 0.000198
# 3 0.002386 -0.008370 0.018223 0.000141 -0.011873 0.005084
# 4 -0.003099 -0.002170 0.000141 0.044247 -0.009170 0.009938
# 5 -0.003415 0.004889 -0.011873 -0.009170 0.041238 -0.016259
# 6 0.000481 0.000198 0.005084 0.009938 -0.016259 0.023096
#
#
# Mechanical properties :
#
#
# Convention : Reuss Voigt Hill
#
# Bulk Modulus (GPa) = 49.41759 82.69400 66.05580
# Shear Modulus (GPa) = 27.88642 42.61662 35.25152
#
# Velocity S-wave (km/s) = 3.28056 4.05547 3.68842
# Velocity P-wave (km/s) = 5.78108 7.33776 6.60544
#
# Compressibility (1/GPa) = 0.02023571
#
# Stress axis : x y z
#
# Youngs Moduli (GPa) = 78.15707 90.20381 54.87548
#
# Poissons Ratio (x) = 0.44656 -0.13095
# Poissons Ratio (y) = 0.38692 0.45929
# Poissons Ratio (z) = -0.18650 0.75498
#
# Static dielectric constant tensor:
#      x y z
#    x 2.261960 0.006800 0.051210 
#    y 0.006800 1.988970 0.029360 
#    z 0.051210 0.029360 1.993430 
# 
# From -- ./inp_files/134837.got.cif
#   From: 2010.05.17/outbox.cif.g08.bks.cpg/sg2_68_cif.got.tgz:134837.got - 2010.06.03 11:33:40.
