data_PCOD9057648
_publ_section_title
;
Structure prediction by ZEFSAII (Michael W. Deem and Ramdas Pophale) SiO2 
 PCOD9057648
Probable space group: P -1
;
_chemical_formula_sum "Si O2"
_cell_formula_units_Z 10
_cell_length_a 13.272475
_cell_length_b 7.519338
_cell_length_c 7.216646
_cell_angle_alpha 96.811210
_cell_angle_beta 46.726588
_cell_angle_gamma 66.766893
_cell_volume 392.044251
_symmetry_space_group_name_H-M "P -1"
_symmetry_group_IT_number 2
_symmetry_cell_setting 'triclinic'
loop_
_space_group_symop_operation_xyz
x,y,z
-x,-y,-z
loop_
_atom_site_type_symbol
_atom_site_label
_atom_site_fract_x
_atom_site_fract_y
_atom_site_fract_z
Si Si1 0.403933 0.358513 0.771353
Si Si2 0.108127 0.809566 0.673977
Si Si3 0.375729 0.890636 0.203356
Si Si4 0.789311 0.634816 0.318393
Si Si5 0.277340 0.867118 0.938344
O O1 0.606697 0.202911 0.403962
O O2 0.303869 0.302270 0.758728
O O3 0.298936 0.636234 0.918684
O O4 0.439183 0.291186 0.933190
O O5 0.243004 0.835440 0.411488
O O6 0.000000 0.000000 0.000000
O O7 0.936025 0.897932 0.773575
O O8 0.289460 0.143707 0.425420
O O9 0.786123 0.445218 0.399053
O O10 0.379841 0.883974 0.976111
O O11 0.000000 0.500000 0.000000
#
# Coordination Sequence:
#
# PCOD9057648 Si02
#       5
#     2   2   2   2   2
#     4  11  22  43  67  94 135 172 215 270 324 386
#     4  12  21  44  69  94 133 172 215 264 323 389
#     4  12  25  42  69 101 129 172 221 265 324 388
#     4  12  24  42  70  96 129 177 216 268 331 381
#     4  11  23  42  70  97 131 175 216 267 325 384
#
# _framework density 25.507325000000002
#
# number of rings (size 3 to 8) (size 9 to 14) (size 15 to 20)
#    0.000    0.400    6.000    3.000    0.000    1.600 
#    0.000    2.000    0.000    0.000    0.000    0.000 
#    0.000    0.000    0.000    0.000    0.000    0.000 
#
# Total GULP energy -56127.020277 kJ/mol
# GULP energy per Si atom -5612.702028 kJ/mol
# Density = 2.544927 g / cm^3
# Si number density = 25.507325 Si / 1000 Ang^3
#
#
#
# Elastic Constant Matrix: (Units=GPa)
#
#
# Indices 1 2 3 4 5 6 
#
# 1 185.0925 30.5792 22.8179 13.9265 -10.4231 -12.7007
# 2 30.5792 100.5429 8.8217 9.7375 -6.7387 9.8975
# 3 22.8179 8.8217 77.4344 -1.5517 -27.9150 -11.7289
# 4 13.9265 9.7375 -1.5517 41.2059 -9.3221 -4.8294
# 5 -10.4231 -6.7387 -27.9150 -9.3221 45.1444 6.9797
# 6 -12.7007 9.8975 -11.7289 -4.8294 6.9797 47.6404
#
#
#
# Elastic Compliance Matrix: (Units=1/GPa)
#
#
# Indices 1 2 3 4 5 6 
#
# 1 0.006081 -0.001730 -0.001533 -0.001612 -0.000366 0.001493
# 2 -0.001730 0.011171 -0.001096 -0.002351 0.000628 -0.003382
# 3 -0.001533 -0.001096 0.018024 0.004314 0.011043 0.003076
# 4 -0.001612 -0.002351 0.004314 0.027490 0.007180 0.002856
# 5 -0.000366 0.000628 0.011043 0.007180 0.030669 -0.001275
# 6 0.001493 -0.003382 0.003076 0.002856 -0.001275 0.023325
#
#
# Mechanical properties :
#
#
# Convention : Reuss Voigt Hill
#
# Bulk Modulus (GPa) = 37.65313 54.16747 45.91030
# Shear Modulus (GPa) = 37.22187 46.85486 42.03837
#
# Velocity S-wave (km/s) = 3.82417 4.29058 4.06407
# Velocity P-wave (km/s) = 5.85601 6.76961 6.32931
#
# Compressibility (1/GPa) = 0.02655822
#
# Stress axis : x y z
#
# Youngs Moduli (GPa) = 164.45601 89.51657 55.48159
#
# Poissons Ratio (x) = 0.15489 0.08503
# Poissons Ratio (y) = 0.28457 0.06080
# Poissons Ratio (z) = 0.25205 0.09809
#
# Static dielectric constant tensor:
#      x y z
#    x 1.992410 -0.037450 -0.041950 
#    y -0.037450 2.000780 0.002680 
#    z -0.041950 0.002680 2.023510 
# 
# From -- ./inp_files/442482.got.cif
#   From: 2010.05.17/outbox.cif.g08.bks.cpg/sg2_222_cif.got.tgz:442482.got - 2010.06.03 11:33:40.
