data_PCOD9057735
_publ_section_title
;
Structure prediction by ZEFSAII (Michael W. Deem and Ramdas Pophale) SiO2 
 PCOD9057735
Probable space group: P -1
;
_chemical_formula_sum "Si O2"
_cell_formula_units_Z 16
_cell_length_a 11.109511
_cell_length_b 14.303384
_cell_length_c 9.544937
_cell_angle_alpha 102.933320
_cell_angle_beta 115.140144
_cell_angle_gamma 31.288391
_cell_volume 681.100521
_symmetry_space_group_name_H-M "P -1"
_symmetry_group_IT_number 2
_symmetry_cell_setting 'triclinic'
loop_
_space_group_symop_operation_xyz
x,y,z
-x,-y,-z
loop_
_atom_site_type_symbol
_atom_site_label
_atom_site_fract_x
_atom_site_fract_y
_atom_site_fract_z
Si Si1 0.936180 0.319056 0.473853
Si Si2 0.857429 0.078494 0.305741
Si Si3 0.709733 0.627309 0.310277
Si Si4 0.795690 0.176241 0.857629
Si Si5 0.457675 0.922349 0.513860
Si Si6 0.500845 0.476731 0.161447
Si Si7 0.063210 0.368053 0.807049
Si Si8 0.600229 0.778808 0.835794
O O1 0.930491 0.420628 0.413611
O O2 0.659322 0.444724 0.342521
O O3 0.146743 0.113203 0.451211
O O4 0.994921 0.319325 0.659561
O O5 0.643327 0.289022 0.209339
O O6 0.678420 0.094247 0.224170
O O7 0.000000 0.000000 0.500000
O O8 0.106530 0.918927 0.275251
O O9 0.474016 0.702924 0.178433
O O10 0.823495 0.621141 0.240489
O O11 0.579606 0.769364 0.418935
O O12 0.786210 0.298466 0.882724
O O13 0.000000 0.000000 0.000000
O O14 0.500000 0.000000 0.500000
O O15 0.581711 0.843243 0.701173
O O16 0.500000 0.500000 0.000000
O O17 0.806373 0.565341 0.827860
O O18 0.282590 0.227489 0.987588
#
# Coordination Sequence:
#
# PCOD9057735 Si02
#       8
#     2   2   2   2   2   2   2   2
#     4  11  23  41  72  97 139 181 231 297 351 425
#     4  12  26  49  72 104 151 194 240 301 363 428
#     4  11  22  43  70 100 138 182 237 289 356 425
#     4  11  23  43  73 103 144 189 240 300 358 422
#     4  12  23  43  69 103 132 183 241 284 356 431
#     4  11  25  45  72 108 140 186 253 295 356 433
#     4  11  23  45  69 101 142 186 229 287 369 417
#     4  11  26  45  70 102 149 189 231 299 362 426
#
# _framework density 23.491392999999999
#
# number of rings (size 3 to 8) (size 9 to 14) (size 15 to 20)
#    0.000    0.750    3.750    4.125    3.500    1.000 
#    2.250    0.000    0.000    0.000    0.000    0.000 
#    0.000    0.000    0.000    0.000    0.000    0.000 
#
# Total GULP energy -89171.917152 kJ/mol
# GULP energy per Si atom -5573.244822 kJ/mol
# Density = 2.343793 g / cm^3
# Si number density = 23.491393 Si / 1000 Ang^3
#
#
#
# Elastic Constant Matrix: (Units=GPa)
#
#
# Indices 1 2 3 4 5 6 
#
# 1 48.2206 5.4493 9.3115 2.8167 6.8317 0.9908
# 2 5.4493 113.1753 26.8200 -2.4019 -11.2306 10.5780
# 3 9.3115 26.8200 110.8310 -0.2074 5.5102 15.6908
# 4 2.8167 -2.4019 -0.2074 43.0778 -0.0766 -1.5707
# 5 6.8317 -11.2306 5.5102 -0.0766 32.4026 -13.5419
# 6 0.9908 10.5780 15.6908 -1.5707 -13.5419 40.6974
#
#
#
# Elastic Compliance Matrix: (Units=1/GPa)
#
#
# Indices 1 2 3 4 5 6 
#
# 1 0.022003 -0.001246 -0.001022 -0.001587 -0.005634 -0.001754
# 2 -0.001246 0.009913 -0.002459 0.000621 0.004019 -0.000237
# 3 -0.001022 -0.002459 0.010627 -0.000207 -0.004510 -0.004942
# 4 -0.001587 0.000621 -0.000207 0.023399 0.001161 0.001247
# 5 -0.005634 0.004019 -0.004510 0.001161 0.040164 0.014240
# 6 -0.001754 -0.000237 -0.004942 0.001247 0.014240 0.031368
#
#
# Mechanical properties :
#
#
# Convention : Reuss Voigt Hill
#
# Bulk Modulus (GPa) = 30.22153 39.48761 34.85457
# Shear Modulus (GPa) = 31.65419 38.61196 35.13308
#
# Velocity S-wave (km/s) = 3.67479 4.05861 3.87146
# Velocity P-wave (km/s) = 5.55862 6.22969 5.90370
#
# Compressibility (1/GPa) = 0.03308899
#
# Stress axis : x y z
#
# Youngs Moduli (GPa) = 45.44816 100.87993 94.09842
#
# Poissons Ratio (x) = 0.12571 0.09613
# Poissons Ratio (y) = 0.05664 0.23141
# Poissons Ratio (z) = 0.04643 0.24809
#
# Static dielectric constant tensor:
#      x y z
#    x 1.905530 0.089770 0.065810 
#    y 0.089770 2.062420 -0.066060 
#    z 0.065810 -0.066060 1.881820 
# 
# From -- ./inp_files/273464.got.cif
#   From: 2010.05.17/outbox.cif.g08.bks.cpg/sg2_137_cif.got.tgz:273464.got - 2010.06.03 11:33:40.
