data_PCOD9057629
_publ_section_title
;
Structure prediction by ZEFSAII (Michael W. Deem and Ramdas Pophale) SiO2 
 PCOD9057629
Probable space group: P -1
;
_chemical_formula_sum "Si O2"
_cell_formula_units_Z 16
_cell_length_a 7.787221
_cell_length_b 14.878112
_cell_length_c 15.027319
_cell_angle_alpha 141.956699
_cell_angle_beta 100.066707
_cell_angle_gamma 53.710039
_cell_volume 700.456175
_symmetry_space_group_name_H-M "P -1"
_symmetry_group_IT_number 2
_symmetry_cell_setting 'triclinic'
loop_
_space_group_symop_operation_xyz
x,y,z
-x,-y,-z
loop_
_atom_site_type_symbol
_atom_site_label
_atom_site_fract_x
_atom_site_fract_y
_atom_site_fract_z
Si Si1 0.754192 0.639028 0.229561
Si Si2 0.928182 0.776876 0.961058
Si Si3 0.711898 0.981791 0.413701
Si Si4 0.548632 0.357132 0.127375
Si Si5 0.188340 0.098552 0.149493
Si Si6 0.395866 0.529084 0.609328
Si Si7 0.450238 0.154666 0.340364
Si Si8 0.743056 0.416116 0.903197
O O1 0.768558 0.799555 0.332275
O O2 0.957659 0.448652 0.171206
O O3 0.459550 0.803172 0.372443
O O4 0.808936 0.512534 0.047050
O O5 0.797664 0.850816 0.909954
O O6 0.181940 0.725422 0.939887
O O7 0.713137 0.969431 0.160622
O O8 0.995286 0.845143 0.291661
O O9 0.522867 0.065510 0.377880
O O10 0.443347 0.507892 0.322016
O O11 0.363236 0.472911 0.116162
O O12 0.614164 0.154166 0.007046
O O13 0.233972 0.191825 0.301028
O O14 0.893875 0.220218 0.220684
O O15 0.500000 0.500000 0.500000
O O16 0.370433 0.373149 0.501392
O O17 0.500000 0.500000 0.000000
#
# Coordination Sequence:
#
# PCOD9057629 Si02
#       8
#     2   2   2   2   2   2   2   2
#     4  11  24  45  66  98 138 181 226 280 348 406
#     4  11  22  43  66  95 135 178 219 282 344 406
#     4  11  25  44  69  97 140 178 225 289 341 404
#     4  11  23  44  66  97 132 179 224 275 342 407
#     4  11  24  41  69  97 132 173 231 276 342 407
#     4  11  24  44  65  98 140 172 219 283 344 406
#     4  12  23  42  68  99 130 177 227 281 341 403
#     4  12  24  44  69  99 133 181 231 280 336 410
#
# _framework density 22.842257
#
# number of rings (size 3 to 8) (size 9 to 14) (size 15 to 20)
#    0.000    0.750    2.500    6.375    1.750    0.500 
#    9.000    0.000    0.000    0.000    0.000    0.000 
#    0.000    0.000    0.000    0.000    0.000    0.000 
#
# Total GULP energy -89515.981227 kJ/mol
# GULP energy per Si atom -5594.748827 kJ/mol
# Density = 2.279027 g / cm^3
# Si number density = 22.842257 Si / 1000 Ang^3
#
#
#
# Elastic Constant Matrix: (Units=GPa)
#
#
# Indices 1 2 3 4 5 6 
#
# 1 30.2439 24.8004 3.8320 0.0933 -7.4631 5.2081
# 2 24.8004 191.0709 31.9915 -8.4078 10.2737 4.1753
# 3 3.8320 31.9915 88.0549 -10.1166 -11.7104 -1.1010
# 4 0.0933 -8.4078 -10.1166 39.4373 6.3159 -1.6064
# 5 -7.4631 10.2737 -11.7104 6.3159 47.0772 5.3432
# 6 5.2081 4.1753 -1.1010 -1.6064 5.3432 27.5304
#
#
#
# Elastic Compliance Matrix: (Units=1/GPa)
#
#
# Indices 1 2 3 4 5 6 
#
# 1 0.041859 -0.006095 0.001224 -0.003004 0.009695 -0.009002
# 2 -0.006095 0.006651 -0.002422 0.001369 -0.003291 0.000766
# 3 0.001224 -0.002422 0.012922 0.002217 0.003631 0.000077
# 4 -0.003004 0.001369 0.002217 0.027008 -0.004169 0.002834
# 5 0.009695 -0.003291 0.003631 -0.004169 0.025688 -0.006419
# 6 -0.009002 0.000766 0.000077 0.002834 -0.006419 0.039325
#
#
# Mechanical properties :
#
#
# Convention : Reuss Voigt Hill
#
# Bulk Modulus (GPa) = 21.34601 47.84637 34.59619
# Shear Modulus (GPa) = 27.22542 39.39203 33.30873
#
# Velocity S-wave (km/s) = 3.45612 4.15724 3.82279
# Velocity P-wave (km/s) = 5.02908 6.63592 5.88758
#
# Compressibility (1/GPa) = 0.04684715
#
# Stress axis : x y z
#
# Youngs Moduli (GPa) = 23.88950 150.35995 77.38947
#
# Poissons Ratio (x) = 0.91644 -0.09476
# Poissons Ratio (y) = 0.14561 0.18742
# Poissons Ratio (z) = -0.02925 0.36414
#
# Static dielectric constant tensor:
#      x y z
#    x 1.904570 0.004880 -0.039570 
#    y 0.004880 1.828930 -0.020980 
#    z -0.039570 -0.020980 1.852100 
# 
# From -- ./inp_files/206552.got.cif
#   From: 2010.05.17/outbox.cif.g08.bks.cpg/sg2_104_cif.got.tgz:206552.got - 2010.06.03 11:33:40.
