data_PCOD9057147
_publ_section_title
;
Structure prediction by ZEFSAII (Michael W. Deem and Ramdas Pophale) SiO2 
 PCOD9057147
Probable space group: P -1
;
_chemical_formula_sum "Si O2"
_cell_formula_units_Z 16
_cell_length_a 10.303053
_cell_length_b 11.063197
_cell_length_c 13.267355
_cell_angle_alpha 145.746397
_cell_angle_beta 60.727029
_cell_angle_gamma 97.375488
_cell_volume 614.291943
_symmetry_space_group_name_H-M "P -1"
_symmetry_group_IT_number 2
_symmetry_cell_setting 'triclinic'
loop_
_space_group_symop_operation_xyz
x,y,z
-x,-y,-z
loop_
_atom_site_type_symbol
_atom_site_label
_atom_site_fract_x
_atom_site_fract_y
_atom_site_fract_z
Si Si1 0.994562 0.684910 0.800753
Si Si2 0.289791 0.007878 0.710884
Si Si3 0.775389 0.308405 0.876851
Si Si4 0.794218 0.707218 0.249360
Si Si5 0.572047 0.059214 0.740096
Si Si6 0.947865 0.260901 0.562480
Si Si7 0.684255 0.722988 0.842991
Si Si8 0.361727 0.554242 0.501909
O O1 0.059906 0.385540 0.580639
O O2 0.837970 0.782510 0.841050
O O3 0.158291 0.705277 0.726731
O O4 0.894463 0.817072 0.034719
O O5 0.263452 0.046403 0.628943
O O6 0.378776 0.730950 0.536369
O O7 0.411202 0.115421 0.767181
O O8 0.624846 0.263143 0.868931
O O9 0.872574 0.312077 0.740546
O O10 0.921989 0.049256 0.706023
O O11 0.705812 0.557969 0.143322
O O12 0.740225 0.805556 0.449941
O O13 0.000000 0.500000 0.000000
O O14 0.488791 0.064616 0.882194
O O15 0.781734 0.444651 0.676166
O O16 0.627340 0.672343 0.723815
O O17 0.500000 0.500000 0.500000
#
# Coordination Sequence:
#
# PCOD9057147 Si02
#       8
#     2   2   2   2   2   2   2   2
#     4   9  21  49  72 102 147 202 259 318 379 454
#     4  11  26  46  71 110 152 197 255 314 377 463
#     4  11  22  41  71 113 152 200 242 304 376 466
#     4  12  26  44  72 115 159 200 247 303 379 475
#     4  11  26  44  72 111 160 196 246 307 385 467
#     4   9  20  40  74 102 151 195 255 298 380 469
#     4   9  23  47  71 108 149 202 253 312 384 455
#     4  12  27  45  79 109 149 198 266 333 390 427
#
# _framework density 26.046247000000001
#
# number of rings (size 3 to 8) (size 9 to 14) (size 15 to 20)
#    0.750    0.750    1.250    2.625    7.000    2.000 
#    0.000    3.750    0.000    0.000    0.000    0.000 
#    0.000    0.000    0.000    0.000    0.000    0.000 
#
# Total GULP energy -89469.122572 kJ/mol
# GULP energy per Si atom -5591.820161 kJ/mol
# Density = 2.598696 g / cm^3
# Si number density = 26.046247 Si / 1000 Ang^3
#
#
#
# Elastic Constant Matrix: (Units=GPa)
#
#
# Indices 1 2 3 4 5 6 
#
# 1 164.0270 69.6718 67.0460 -20.5898 9.2278 19.1502
# 2 69.6718 114.4179 26.0168 11.9063 -9.6703 0.5077
# 3 67.0460 26.0168 95.7531 -24.5884 -3.0222 -6.2905
# 4 -20.5898 11.9063 -24.5884 35.6193 7.7512 -9.1211
# 5 9.2278 -9.6703 -3.0222 7.7512 37.2476 -5.9606
# 6 19.1502 0.5077 -6.2905 -9.1211 -5.9606 54.9639
#
#
#
# Elastic Compliance Matrix: (Units=1/GPa)
#
#
# Indices 1 2 3 4 5 6 
#
# 1 0.014655 -0.008938 -0.006560 0.007462 -0.008917 -0.005503
# 2 -0.008938 0.016634 -0.001251 -0.013224 0.009447 0.001647
# 3 -0.006560 -0.001251 0.018609 0.010761 0.001593 0.006385
# 4 0.007462 -0.013224 0.010761 0.048576 -0.013664 0.005333
# 5 -0.008917 0.009447 0.001593 -0.013664 0.035243 0.004756
# 6 -0.005503 0.001647 0.006385 0.005333 0.004756 0.022227
#
#
# Mechanical properties :
#
#
# Convention : Reuss Voigt Hill
#
# Bulk Modulus (GPa) = 60.96837 77.74082 69.35459
# Shear Modulus (GPa) = 25.65298 39.66371 32.65835
#
# Velocity S-wave (km/s) = 3.14172 3.90656 3.54483
# Velocity P-wave (km/s) = 6.05137 7.08945 6.59088
#
# Compressibility (1/GPa) = 0.01640195
#
# Stress axis : x y z
#
# Youngs Moduli (GPa) = 68.23538 60.11768 53.73604
#
# Poissons Ratio (x) = 0.53733 0.35249
# Poissons Ratio (y) = 0.60989 0.06720
# Poissons Ratio (z) = 0.44761 0.07518
#
# Static dielectric constant tensor:
#      x y z
#    x 2.114270 0.013790 -0.025320 
#    y 0.013790 2.033740 0.083950 
#    z -0.025320 0.083950 2.071430 
# 
# From -- ./inp_files/504596.got.cif
#   From: 2010.05.17/outbox.cif.g08.bks.cpg/sg2_253_cif.got.tgz:504596.got - 2010.06.03 11:33:40.
