data_PCOD9057916
_publ_section_title
;
Structure prediction by ZEFSAII (Michael W. Deem and Ramdas Pophale) SiO2 
 PCOD9057916
Probable space group: P -1
;
_chemical_formula_sum "Si O2"
_cell_formula_units_Z 14
_cell_length_a 12.346763
_cell_length_b 18.020664
_cell_length_c 8.016847
_cell_angle_alpha 66.760642
_cell_angle_beta 113.260352
_cell_angle_gamma 160.737796
_cell_volume 539.210911
_symmetry_space_group_name_H-M "P -1"
_symmetry_group_IT_number 2
_symmetry_cell_setting 'triclinic'
loop_
_space_group_symop_operation_xyz
x,y,z
-x,-y,-z
loop_
_atom_site_type_symbol
_atom_site_label
_atom_site_fract_x
_atom_site_fract_y
_atom_site_fract_z
Si Si1 0.418540 0.572610 0.953993
Si Si2 0.586263 0.304808 0.909084
Si Si3 0.249080 0.670782 0.344730
Si Si4 0.325141 0.953486 0.549868
Si Si5 0.615493 0.482104 0.586961
Si Si6 0.311457 0.189448 0.406614
Si Si7 0.996321 0.172249 0.859157
O O1 0.680316 0.784363 0.802888
O O2 0.135020 0.335813 0.909451
O O3 0.259914 0.551035 0.964743
O O4 0.671113 0.669078 0.106150
O O5 0.799044 0.396375 0.811007
O O6 0.454889 0.304643 0.746200
O O7 0.289716 0.057511 0.006395
O O8 0.407554 0.857771 0.310947
O O9 0.556735 0.813651 0.469496
O O10 0.000000 0.500000 0.500000
O O11 0.500000 0.000000 0.500000
O O12 0.173104 0.914905 0.344616
O O13 0.995411 0.719625 0.654598
O O14 0.500000 0.500000 0.500000
O O15 0.574624 0.422984 0.427957
O O16 0.000000 0.000000 0.500000
#
# Coordination Sequence:
#
# PCOD9057916 Si02
#       7
#     2   2   2   2   2   2   2
#     4  11  23  43  76 109 164 184 251 314 390 444
#     4  11  25  44  74 108 150 198 248 312 382 440
#     4  11  26  48  74 106 150 203 260 304 375 460
#     4  12  25  48  76 102 148 199 255 310 370 455
#     4  11  23  41  70 111 146 193 251 298 369 443
#     4  11  22  43  74 110 146 200 249 305 372 454
#     4  11  25  45  72 116 151 201 242 319 389 450
#
# _framework density 25.963867
#
# number of rings (size 3 to 8) (size 9 to 14) (size 15 to 20)
#    0.000    0.857    1.429    6.429    4.000    1.143 
#    0.000    7.143    0.000    0.000    0.000    0.000 
#    0.000    0.000    0.000    0.000    0.000    0.000 
#
# Total GULP energy -77975.915607 kJ/mol
# GULP energy per Si atom -5569.708258 kJ/mol
# Density = 2.590477 g / cm^3
# Si number density = 25.963867 Si / 1000 Ang^3
#
#
#
# Elastic Constant Matrix: (Units=GPa)
#
#
# Indices 1 2 3 4 5 6 
#
# 1 140.5685 32.5550 5.8733 2.7610 -41.3383 -8.7967
# 2 32.5550 116.9803 15.3008 -21.0097 -28.6378 -16.3590
# 3 5.8733 15.3008 83.8521 -25.6887 -6.0693 -3.7259
# 4 2.7610 -21.0097 -25.6887 38.7143 -4.1392 1.7390
# 5 -41.3383 -28.6378 -6.0693 -4.1392 49.1372 11.2596
# 6 -8.7967 -16.3590 -3.7259 1.7390 11.2596 43.4617
#
#
#
# Elastic Compliance Matrix: (Units=1/GPa)
#
#
# Indices 1 2 3 4 5 6 
#
# 1 0.009527 -0.000928 -0.000103 -0.000433 0.007507 -0.000357
# 2 -0.000928 0.011985 0.000800 0.007676 0.006394 0.002429
# 3 -0.000103 0.000800 0.015390 0.010972 0.003124 0.000351
# 4 -0.000433 0.007676 0.010972 0.038239 0.008695 -0.000040
# 5 0.007507 0.006394 0.003124 0.008695 0.032563 -0.004590
# 6 -0.000357 0.002429 0.000351 -0.000040 -0.004590 0.025071
#
#
# Mechanical properties :
#
#
# Convention : Reuss Voigt Hill
#
# Bulk Modulus (GPa) = 27.44143 49.87323 38.65733
# Shear Modulus (GPa) = 34.39175 45.44077 39.91626
#
# Velocity S-wave (km/s) = 3.64345 4.18802 3.92519
# Velocity P-wave (km/s) = 5.31900 6.52966 5.95517
#
# Compressibility (1/GPa) = 0.03644126
#
# Stress axis : x y z
#
# Youngs Moduli (GPa) = 104.96630 83.43461 64.97709
#
# Poissons Ratio (x) = 0.07740 0.00670
# Poissons Ratio (y) = 0.09738 -0.05200
# Poissons Ratio (z) = 0.01082 -0.06677
#
# Static dielectric constant tensor:
#      x y z
#    x 2.542080 -1.338470 0.339180 
#    y -1.338470 5.721150 -1.128640 
#    z 0.339180 -1.128640 2.680860 
# 
# From -- ./inp_files/279319.got.cif
#   From: 2010.05.17/outbox.cif.g08.bks.cpg/sg2_140_cif.got.tgz:279319.got - 2010.06.03 11:33:40.
