data_PCOD9057649
_publ_section_title
;
Structure prediction by ZEFSAII (Michael W. Deem and Ramdas Pophale) SiO2 
 PCOD9057649
Probable space group: P -1
;
_chemical_formula_sum "Si O2"
_cell_formula_units_Z 12
_cell_length_a 10.418156
_cell_length_b 11.542887
_cell_length_c 7.441157
_cell_angle_alpha 59.020122
_cell_angle_beta 116.458839
_cell_angle_gamma 68.973592
_cell_volume 441.306676
_symmetry_space_group_name_H-M "P -1"
_symmetry_group_IT_number 2
_symmetry_cell_setting 'triclinic'
loop_
_space_group_symop_operation_xyz
x,y,z
-x,-y,-z
loop_
_atom_site_type_symbol
_atom_site_label
_atom_site_fract_x
_atom_site_fract_y
_atom_site_fract_z
Si Si1 0.580360 0.118293 0.129029
Si Si2 0.044700 0.680587 0.173084
Si Si3 0.764938 0.719605 0.499287
Si Si4 0.696813 0.344192 0.394457
Si Si5 0.121527 0.896978 0.846547
Si Si6 0.426321 0.849692 0.470647
O O1 0.649817 0.194386 0.987360
O O2 0.548242 0.165823 0.283225
O O3 0.788255 0.861291 0.438316
O O4 0.375561 0.193802 0.842563
O O5 0.047253 0.528740 0.216035
O O6 0.221131 0.576087 0.529017
O O7 0.127385 0.738912 0.042089
O O8 0.797765 0.902655 0.897782
O O9 0.619250 0.773045 0.533907
O O10 0.606305 0.282942 0.502753
O O11 0.500000 0.500000 0.000000
O O12 0.938187 0.107468 0.682044
O O13 0.000000 0.000000 0.500000
#
# Coordination Sequence:
#
# PCOD9057649 Si02
#       6
#     2   2   2   2   2   2
#     4  11  23  46  67  97 136 175 222 271 333 392
#     4  11  24  43  67 100 131 174 223 274 332 393
#     4  11  26  43  69  97 137 178 217 273 331 402
#     4  11  23  39  67  99 131 171 225 277 330 392
#     4  11  22  43  67  95 132 171 220 278 325 386
#     4  11  23  43  66  97 133 174 224 274 326 393
#
# _framework density 27.191973999999998
#
# number of rings (size 3 to 8) (size 9 to 14) (size 15 to 20)
#    0.000    1.000    3.333    5.500    2.333    2.000 
#    0.000    9.167    0.000    0.000    0.000    0.000 
#    0.000    0.000    0.000    0.000    0.000    0.000 
#
# Total GULP energy -67144.184576 kJ/mol
# GULP energy per Si atom -5595.348715 kJ/mol
# Density = 2.713008 g / cm^3
# Si number density = 27.191974 Si / 1000 Ang^3
#
#
#
# Elastic Constant Matrix: (Units=GPa)
#
#
# Indices 1 2 3 4 5 6 
#
# 1 59.0694 3.3016 7.5606 17.3286 -2.5070 -6.9771
# 2 3.3016 112.8156 33.3198 9.6197 -0.9559 8.4752
# 3 7.5606 33.3198 125.6486 3.4206 7.5000 -16.3939
# 4 17.3286 9.6197 3.4206 57.6352 -0.7621 -12.0000
# 5 -2.5070 -0.9559 7.5000 -0.7621 32.6172 -1.8725
# 6 -6.9771 8.4752 -16.3939 -12.0000 -1.8725 33.3805
#
#
#
# Elastic Compliance Matrix: (Units=1/GPa)
#
#
# Indices 1 2 3 4 5 6 
#
# 1 0.018848 0.000040 -0.000877 -0.005245 0.001627 0.001704
# 2 0.000040 0.010509 -0.003448 -0.002648 0.000740 -0.005263
# 3 -0.000877 -0.003448 0.009778 0.001461 -0.002044 0.005905
# 4 -0.005245 -0.002648 0.001461 0.020912 0.000121 0.007818
# 5 0.001627 0.000740 -0.002044 0.000121 0.031333 0.000949
# 6 0.001704 -0.005263 0.005905 0.007818 0.000949 0.037414
#
#
# Mechanical properties :
#
#
# Convention : Reuss Voigt Hill
#
# Bulk Modulus (GPa) = 32.71535 42.87750 37.79642
# Shear Modulus (GPa) = 33.88637 41.61668 37.75152
#
# Velocity S-wave (km/s) = 3.53397 3.91637 3.73008
# Velocity P-wave (km/s) = 5.35811 6.02107 5.69924
#
# Compressibility (1/GPa) = 0.03056669
#
# Stress axis : x y z
#
# Youngs Moduli (GPa) = 53.05509 95.16006 102.26528
#
# Poissons Ratio (x) = -0.00384 0.08966
# Poissons Ratio (y) = -0.00214 0.35260
# Poissons Ratio (z) = 0.04652 0.32811
#
# Static dielectric constant tensor:
#      x y z
#    x 2.029090 0.080860 -0.066270 
#    y 0.080860 2.188390 0.038400 
#    z -0.066270 0.038400 2.185450 
# 
# From -- ./inp_files/165229.got.cif
#   From: 2010.05.17/outbox.cif.g08.bks.cpg/sg2_83_cif.got.tgz:165229.got - 2010.06.03 11:33:40.
