data_PCOD9057644
_publ_section_title
;
Structure prediction by ZEFSAII (Michael W. Deem and Ramdas Pophale) SiO2 
 PCOD9057644
Probable space group: P -1
;
_chemical_formula_sum "Si O2"
_cell_formula_units_Z 16
_cell_length_a 20.910561
_cell_length_b 13.408908
_cell_length_c 6.126882
_cell_angle_alpha 94.581308
_cell_angle_beta 85.598336
_cell_angle_gamma 156.834466
_cell_volume 673.620731
_symmetry_space_group_name_H-M "P -1"
_symmetry_group_IT_number 2
_symmetry_cell_setting 'triclinic'
loop_
_space_group_symop_operation_xyz
x,y,z
-x,-y,-z
loop_
_atom_site_type_symbol
_atom_site_label
_atom_site_fract_x
_atom_site_fract_y
_atom_site_fract_z
Si Si1 0.617169 0.636216 0.191634
Si Si2 0.911613 0.821559 0.203753
Si Si3 0.292133 0.494468 0.414488
Si Si4 0.090369 0.894226 0.086840
Si Si5 0.372548 0.986772 0.348236
Si Si6 0.775033 0.013289 0.536357
Si Si7 0.420854 0.634668 0.962291
Si Si8 0.118198 0.448607 0.301037
O O1 0.645821 0.754741 0.402853
O O2 0.500000 0.500000 0.000000
O O3 0.571603 0.455198 0.201462
O O4 0.797350 0.893390 0.086999
O O5 0.831939 0.746006 0.440045
O O6 0.021827 0.885797 0.245316
O O7 0.741659 0.540676 0.096338
O O8 0.000000 0.000000 0.000000
O O9 0.451768 0.767427 0.539289
O O10 0.376290 0.550224 0.209635
O O11 0.183885 0.432593 0.345130
O O12 0.201038 0.981058 0.215949
O O13 0.942170 0.633535 0.949007
O O14 0.279333 0.950242 0.460132
O O15 0.262498 0.732664 0.355547
O O16 0.420815 0.077557 0.096988
O O17 0.955151 0.250409 0.435220
#
# Coordination Sequence:
#
# PCOD9057644 Si02
#       8
#     2   2   2   2   2   2   2   2
#     4  11  24  43  67  99 142 181 233 294 361 429
#     4  11  22  43  67 104 140 177 232 287 357 428
#     4  11  24  44  73 103 147 185 233 296 364 422
#     4  11  23  42  69 100 140 182 233 289 359 424
#     4  11  26  44  69 105 141 190 247 292 349 421
#     4  11  25  46  72 102 140 193 239 296 359 418
#     4  11  24  42  66 104 139 185 230 285 361 417
#     4  11  24  45  72 103 142 188 242 300 350 417
#
# _framework density 23.752238999999999
#
# number of rings (size 3 to 8) (size 9 to 14) (size 15 to 20)
#    0.000    1.000    3.750    2.250    0.000    7.500 
#    0.000    0.000    0.000    0.000    0.000    0.000 
#    0.000    0.000    0.000    0.000    0.000    0.000 
#
# Total GULP energy -89193.849662 kJ/mol
# GULP energy per Si atom -5574.615604 kJ/mol
# Density = 2.369818 g / cm^3
# Si number density = 23.752239 Si / 1000 Ang^3
#
#
#
# Elastic Constant Matrix: (Units=GPa)
#
#
# Indices 1 2 3 4 5 6 
#
# 1 100.4426 23.5425 27.1388 3.7373 3.6179 16.5391
# 2 23.5425 131.8084 40.2811 3.3315 -4.6158 3.6119
# 3 27.1388 40.2811 103.4277 -2.0270 -12.5481 -4.5943
# 4 3.7373 3.3315 -2.0270 43.2593 13.9636 2.9796
# 5 3.6179 -4.6158 -12.5481 13.9636 30.5334 1.5590
# 6 16.5391 3.6119 -4.5943 2.9796 1.5590 34.8950
#
#
#
# Elastic Compliance Matrix: (Units=1/GPa)
#
#
# Indices 1 2 3 4 5 6 
#
# 1 0.012206 -0.001084 -0.003381 0.000180 -0.002775 -0.006010
# 2 -0.001084 0.008798 -0.003118 -0.000877 0.000617 -0.000760
# 3 -0.003381 -0.003118 0.012547 -0.000821 0.005287 0.003411
# 4 0.000180 -0.000877 -0.000821 0.027436 -0.012943 -0.001867
# 5 -0.002775 0.000617 0.005287 -0.012943 0.041203 0.001212
# 6 -0.006010 -0.000760 0.003411 -0.001867 0.001212 0.032139
#
#
# Mechanical properties :
#
#
# Convention : Reuss Voigt Hill
#
# Bulk Modulus (GPa) = 54.39147 57.51149 55.95148
# Shear Modulus (GPa) = 32.12872 38.05198 35.09035
#
# Velocity S-wave (km/s) = 3.68184 4.00689 3.84780
# Velocity P-wave (km/s) = 6.40499 6.75814 6.58393
#
# Compressibility (1/GPa) = 0.01838523
#
# Stress axis : x y z
#
# Youngs Moduli (GPa) = 81.92489 113.66372 79.70089
#
# Poissons Ratio (x) = 0.12322 0.26945
# Poissons Ratio (y) = 0.08881 0.24851
# Poissons Ratio (z) = 0.27697 0.35441
#
# Static dielectric constant tensor:
#      x y z
#    x 1.870960 0.002500 0.022450 
#    y 0.002500 1.898360 0.001360 
#    z 0.022450 0.001360 2.124810 
# 
# From -- ./inp_files/124306.got.cif
#   From: 2010.05.17/outbox.cif.g08.bks.cpg/sg2_63_cif.got.tgz:124306.got - 2010.06.03 11:33:40.
