data_PCOD9057424
_publ_section_title
;
Structure prediction by ZEFSAII (Michael W. Deem and Ramdas Pophale) SiO2 
 PCOD9057424
Probable space group: P -1
;
_chemical_formula_sum "Si O2"
_cell_formula_units_Z 16
_cell_length_a 11.608674
_cell_length_b 21.175741
_cell_length_c 9.048866
_cell_angle_alpha 73.251419
_cell_angle_beta 107.433270
_cell_angle_gamma 158.805053
_cell_volume 767.026615
_symmetry_space_group_name_H-M "P -1"
_symmetry_group_IT_number 2
_symmetry_cell_setting 'triclinic'
loop_
_space_group_symop_operation_xyz
x,y,z
-x,-y,-z
loop_
_atom_site_type_symbol
_atom_site_label
_atom_site_fract_x
_atom_site_fract_y
_atom_site_fract_z
Si Si1 0.136473 0.254776 0.262494
Si Si2 0.194672 0.649179 0.374361
Si Si3 0.203955 0.915236 0.057453
Si Si4 0.912775 0.891158 0.131580
Si Si5 0.111994 0.987977 0.479966
Si Si6 0.049966 0.698670 0.835423
Si Si7 0.832414 0.592646 0.155291
Si Si8 0.195836 0.557530 0.156738
O O1 0.475415 0.422663 0.194340
O O2 0.092730 0.174588 0.416835
O O3 0.078857 0.297738 0.281303
O O4 0.868634 0.112801 0.126024
O O5 0.264283 0.642020 0.258951
O O6 0.000000 0.500000 0.500000
O O7 0.986590 0.607434 0.281929
O O8 0.520536 0.835333 0.452454
O O9 0.031953 0.887771 0.092917
O O10 0.042414 0.764657 0.143965
O O11 0.578619 0.106748 0.108395
O O12 0.534300 0.703127 0.132016
O O13 0.067583 0.969363 0.300525
O O14 0.000000 0.000000 0.000000
O O15 0.000000 0.000000 0.500000
O O16 0.000465 0.609046 0.777042
O O17 0.858427 0.593811 0.988001
O O18 0.000000 0.500000 0.000000
#
# Coordination Sequence:
#
# PCOD9057424 Si02
#       8
#     2   2   2   2   2   2   2   2
#     4  11  23  43  71 100 136 178 223 282 339 400
#     4  12  27  44  68 101 139 181 222 278 344 398
#     4  11  23  42  71 101 134 180 229 277 330 405
#     4  12  27  45  70 101 133 179 230 278 336 406
#     4  12  25  47  68 100 138 177 226 279 343 397
#     4  11  22  42  70 101 137 177 228 277 332 401
#     4  11  22  43  70 100 136 179 228 273 339 404
#     4  12  25  44  70 101 138 176 229 276 332 403
#
# _framework density 20.859772
#
# number of rings (size 3 to 8) (size 9 to 14) (size 15 to 20)
#    0.000    0.500    2.500    8.250    3.500    0.000 
#    2.250    2.500    0.000    0.000    0.000    0.000 
#    0.000    0.000    0.000    0.000    0.000    0.000 
#
# Total GULP energy -89569.141481 kJ/mol
# GULP energy per Si atom -5598.071343 kJ/mol
# Density = 2.081229 g / cm^3
# Si number density = 20.859772 Si / 1000 Ang^3
#
#
#
# Elastic Constant Matrix: (Units=GPa)
#
#
# Indices 1 2 3 4 5 6 
#
# 1 149.3555 28.9654 35.3942 4.3839 20.6615 -10.3890
# 2 28.9654 114.7814 31.6895 4.4219 4.9469 2.7475
# 3 35.3942 31.6895 92.9765 -11.2890 18.8546 -17.3483
# 4 4.3839 4.4219 -11.2890 29.2371 -6.8215 2.8816
# 5 20.6615 4.9469 18.8546 -6.8215 34.6851 -3.2070
# 6 -10.3890 2.7475 -17.3483 2.8816 -3.2070 44.1950
#
#
#
# Elastic Compliance Matrix: (Units=1/GPa)
#
#
# Indices 1 2 3 4 5 6 
#
# 1 0.008128 -0.001243 -0.001992 -0.002851 -0.004040 0.001099
# 2 -0.001243 0.010211 -0.003864 -0.002468 0.000693 -0.002233
# 3 -0.001992 -0.003864 0.015463 0.005139 -0.005183 0.005131
# 4 -0.002851 -0.002468 0.005139 0.038627 0.006805 -0.000524
# 5 -0.004040 0.000693 -0.005183 0.006805 0.035210 -0.000916
# 6 0.001099 -0.002233 0.005131 -0.000524 -0.000916 0.025006
#
#
# Mechanical properties :
#
#
# Convention : Reuss Voigt Hill
#
# Bulk Modulus (GPa) = 51.01126 61.02351 56.01739
# Shear Modulus (GPa) = 32.59920 39.02773 35.81346
#
# Velocity S-wave (km/s) = 3.95749 4.33015 4.14801
# Velocity P-wave (km/s) = 6.73719 7.37007 7.06072
#
# Compressibility (1/GPa) = 0.01960352
#
# Stress axis : x y z
#
# Youngs Moduli (GPa) = 123.03614 97.92982 64.67101
#
# Poissons Ratio (x) = 0.12177 0.12883
# Poissons Ratio (y) = 0.15298 0.24987
# Poissons Ratio (z) = 0.24509 0.37838
#
# Static dielectric constant tensor:
#      x y z
#    x 1.747580 -0.029050 -0.016190 
#    y -0.029050 1.770820 0.011200 
#    z -0.016190 0.011200 1.734400 
# 
# From -- ./inp_files/243108.got.cif
#   From: 2010.05.17/outbox.cif.g08.bks.cpg/sg2_122_cif.got.tgz:243108.got - 2010.06.03 11:33:40.
