data_PCOD9057775
_publ_section_title
;
Structure prediction by ZEFSAII (Michael W. Deem and Ramdas Pophale) SiO2 
 PCOD9057775
Probable space group: P -1
;
_chemical_formula_sum "Si O2"
_cell_formula_units_Z 14
_cell_length_a 15.111888
_cell_length_b 19.626632
_cell_length_c 8.484185
_cell_angle_alpha 33.501480
_cell_angle_beta 46.253366
_cell_angle_gamma 26.708098
_cell_volume 609.596454
_symmetry_space_group_name_H-M "P -1"
_symmetry_group_IT_number 2
_symmetry_cell_setting 'triclinic'
loop_
_space_group_symop_operation_xyz
x,y,z
-x,-y,-z
loop_
_atom_site_type_symbol
_atom_site_label
_atom_site_fract_x
_atom_site_fract_y
_atom_site_fract_z
Si Si1 0.992930 0.857429 0.674457
Si Si2 0.296803 0.989942 0.990178
Si Si3 0.023847 0.357209 0.099602
Si Si4 0.678633 0.459270 0.861714
Si Si5 0.990037 0.931314 0.983394
Si Si6 0.624836 0.778263 0.214840
Si Si7 0.264989 0.221153 0.378875
O O1 0.811392 0.977834 0.785678
O O2 0.962838 0.788267 0.702339
O O3 0.992721 0.988892 0.339113
O O4 0.192557 0.667756 0.893806
O O5 0.223707 0.966259 0.979168
O O6 0.525295 0.820530 0.088238
O O7 0.213193 0.192139 0.660651
O O8 0.125075 0.282576 0.290584
O O9 0.155545 0.344314 0.854181
O O10 0.797303 0.587284 0.915330
O O11 0.621460 0.651056 0.557946
O O12 0.500000 0.500000 0.000000
O O13 0.827888 0.309709 0.816732
O O14 0.000000 0.000000 0.000000
O O15 0.500000 0.000000 0.000000
O O16 0.500000 0.000000 0.500000
#
# Coordination Sequence:
#
# PCOD9057775 Si02
#       7
#     2   2   2   2   2   2   2
#     4  11  23  42  72  96 139 182 243 297 364 427
#     4  11  22  43  70  97 139 184 240 293 365 418
#     4  11  24  41  67 103 139 185 242 286 374 435
#     4  11  25  45  71 104 142 189 252 300 362 440
#     4  11  24  47  71  99 141 192 241 307 368 433
#     4  12  24  41  73 107 144 186 241 304 363 437
#     4  11  24  43  63  98 146 187 228 302 361 429
#
# _framework density 22.966014000000001
#
# number of rings (size 3 to 8) (size 9 to 14) (size 15 to 20)
#    0.000    0.857    2.857    6.000    2.000    2.286 
#    2.571    1.429    0.000    0.000    0.000    0.000 
#    0.000    0.000    0.000    0.000    0.000    0.000 
#
# Total GULP energy -78153.556550 kJ/mol
# GULP energy per Si atom -5582.396896 kJ/mol
# Density = 2.291374 g / cm^3
# Si number density = 22.966014 Si / 1000 Ang^3
#
#
#
# Elastic Constant Matrix: (Units=GPa)
#
#
# Indices 1 2 3 4 5 6 
#
# 1 69.2667 7.0284 6.7902 -18.9742 -12.0472 3.6169
# 2 7.0284 74.1139 24.4003 -10.4499 -6.9683 -6.7854
# 3 6.7902 24.4003 148.7771 -3.7373 -9.2499 -0.7374
# 4 -18.9742 -10.4499 -3.7373 30.2759 -0.3825 3.8575
# 5 -12.0472 -6.9683 -9.2499 -0.3825 42.0294 0.5774
# 6 3.6169 -6.7854 -0.7374 3.8575 0.5774 38.7041
#
#
#
# Elastic Compliance Matrix: (Units=1/GPa)
#
#
# Indices 1 2 3 4 5 6 
#
# 1 0.018963 0.000285 -0.000269 0.012408 0.005578 -0.003047
# 2 0.000285 0.015297 -0.002254 0.004941 0.002138 0.002088
# 3 -0.000269 -0.002254 0.007172 -0.000015 0.001131 -0.000249
# 4 0.012408 0.004941 -0.000015 0.043165 0.004829 -0.004668
# 5 0.005578 0.002138 0.001131 0.004829 0.026053 -0.000995
# 6 -0.003047 0.002088 -0.000249 -0.004668 -0.000995 0.026963
#
#
# Mechanical properties :
#
#
# Convention : Reuss Voigt Hill
#
# Bulk Modulus (GPa) = 27.05947 40.95506 34.00727
# Shear Modulus (GPa) = 32.38192 39.13113 35.75652
#
# Velocity S-wave (km/s) = 3.75906 4.13228 3.95008
# Velocity P-wave (km/s) = 5.53613 6.37489 5.97026
#
# Compressibility (1/GPa) = 0.03695563
#
# Stress axis : x y z
#
# Youngs Moduli (GPa) = 52.73536 65.37323 139.42800
#
# Poissons Ratio (x) = -0.01865 0.03748
# Poissons Ratio (y) = -0.01504 0.31432
# Poissons Ratio (z) = 0.01418 0.14738
#
# Static dielectric constant tensor:
#      x y z
#    x 1.890860 -0.020900 -0.029490 
#    y -0.020900 1.964410 0.024930 
#    z -0.029490 0.024930 1.879860 
# 
# From -- ./inp_files/319178.got.cif
#   From: 2010.05.17/outbox.cif.g08.bks.cpg/sg2_160_cif.got.tgz:319178.got - 2010.06.03 11:33:40.
