data_PCOD9057981
_publ_section_title
;
Structure prediction by ZEFSAII (Michael W. Deem and Ramdas Pophale) SiO2 
 PCOD9057981
Probable space group: P -1
;
_chemical_formula_sum "Si O2"
_cell_formula_units_Z 16
_cell_length_a 11.000449
_cell_length_b 8.941484
_cell_length_c 14.387323
_cell_angle_alpha 31.495217
_cell_angle_beta 97.057645
_cell_angle_gamma 85.747631
_cell_volume 688.635942
_symmetry_space_group_name_H-M "P -1"
_symmetry_group_IT_number 2
_symmetry_cell_setting 'triclinic'
loop_
_space_group_symop_operation_xyz
x,y,z
-x,-y,-z
loop_
_atom_site_type_symbol
_atom_site_label
_atom_site_fract_x
_atom_site_fract_y
_atom_site_fract_z
Si Si1 0.034435 0.871596 0.325831
Si Si2 0.848763 0.244781 0.944235
Si Si3 0.221697 0.103679 0.316759
Si Si4 0.549611 0.282159 0.363421
Si Si5 0.633384 0.173162 0.234190
Si Si6 0.384306 0.897226 0.084262
Si Si7 0.134580 0.447743 0.409195
Si Si8 0.628061 0.790080 0.892425
O O1 0.151933 0.633566 0.403286
O O2 0.973291 0.689144 0.488073
O O3 0.085896 0.093198 0.273482
O O4 0.941260 0.048137 0.138826
O O5 0.788675 0.583008 0.801649
O O6 0.741534 0.086636 0.996666
O O7 0.898111 0.331546 0.801757
O O8 0.318309 0.056553 0.264803
O O9 0.299024 0.824076 0.538291
O O10 0.550087 0.364940 0.211962
O O11 0.458441 0.532737 0.290247
O O12 0.500000 0.000000 0.500000
O O13 0.527044 0.121980 0.183755
O O14 0.739860 0.851427 0.439733
O O15 0.693763 0.424773 0.073916
O O16 0.340231 0.086950 0.072961
O O17 0.500000 0.000000 0.000000
#
# Coordination Sequence:
#
# PCOD9057981 Si02
#       8
#     2   2   2   2   2   2   2   2
#     4  11  28  47  72 105 141 194 249 296 354 429
#     4  12  25  49  73 102 150 190 241 303 357 427
#     4  12  25  45  71 105 140 188 240 294 361 431
#     4  12  22  44  68 101 146 180 230 293 365 431
#     4  11  22  44  67 102 140 186 228 294 365 429
#     4  12  26  42  71 111 143 191 233 298 370 432
#     4  11  25  48  74 100 143 192 242 303 358 419
#     4  11  25  40  72 104 143 182 236 294 365 433
#
# _framework density 23.234338000000001
#
# number of rings (size 3 to 8) (size 9 to 14) (size 15 to 20)
#    0.000    0.500    5.000    2.250    5.250    2.000 
#    2.250    0.000    0.000    0.000    0.000    0.000 
#    0.000    0.000    0.000    0.000    0.000    0.000 
#
# Total GULP energy -89307.893284 kJ/mol
# GULP energy per Si atom -5581.743330 kJ/mol
# Density = 2.318146 g / cm^3
# Si number density = 23.234338 Si / 1000 Ang^3
#
#
#
# Elastic Constant Matrix: (Units=GPa)
#
#
# Indices 1 2 3 4 5 6 
#
# 1 76.5163 52.2734 37.5661 12.8740 -8.8138 20.3193
# 2 52.2734 101.2215 6.3684 -2.1565 -7.1072 27.0578
# 3 37.5661 6.3684 92.9809 8.9795 -4.4934 11.3157
# 4 12.8740 -2.1565 8.9795 38.9365 -3.5799 -1.9365
# 5 -8.8138 -7.1072 -4.4934 -3.5799 32.3549 4.7411
# 6 20.3193 27.0578 11.3157 -1.9365 4.7411 46.5698
#
#
#
# Elastic Compliance Matrix: (Units=1/GPa)
#
#
# Indices 1 2 3 4 5 6 
#
# 1 0.030130 -0.014001 -0.009847 -0.008325 0.003328 -0.003304
# 2 -0.014001 0.018655 0.004781 0.004477 0.002314 -0.005941
# 3 -0.009847 0.004781 0.014690 0.000094 0.000729 -0.002121
# 4 -0.008325 0.004477 0.000094 0.028913 0.001628 0.002045
# 5 0.003328 0.002314 0.000729 0.001628 0.033529 -0.006319
# 6 -0.003304 -0.005941 -0.002121 0.002045 -0.006319 0.027610
#
#
# Mechanical properties :
#
#
# Convention : Reuss Voigt Hill
#
# Bulk Modulus (GPa) = 39.46099 51.45940 45.46019
# Shear Modulus (GPa) = 24.98638 35.20628 30.09633
#
# Velocity S-wave (km/s) = 3.28290 3.89687 3.60299
# Velocity P-wave (km/s) = 5.60274 6.51487 6.07594
#
# Compressibility (1/GPa) = 0.02534148
#
# Stress axis : x y z
#
# Youngs Moduli (GPa) = 33.18941 53.60505 68.07257
#
# Poissons Ratio (x) = 0.75052 0.67033
# Poissons Ratio (y) = 0.46468 -0.32549
# Poissons Ratio (z) = 0.32683 -0.25631
#
# Static dielectric constant tensor:
#      x y z
#    x 1.948520 -0.011960 -0.058030 
#    y -0.011960 1.887160 0.006810 
#    z -0.058030 0.006810 2.015290 
# 
# From -- ./inp_files/226533.got.cif
#   From: 2010.05.17/outbox.cif.g08.bks.cpg/sg2_114_cif.got.tgz:226533.got - 2010.06.03 11:33:40.
