data_PCOD9057249
_publ_section_title
;
Structure prediction by ZEFSAII (Michael W. Deem and Ramdas Pophale) SiO2 
 PCOD9057249
Probable space group: P -1
;
_chemical_formula_sum "Si O2"
_cell_formula_units_Z 14
_cell_length_a 19.650532
_cell_length_b 12.183739
_cell_length_c 9.437039
_cell_angle_alpha 39.621589
_cell_angle_beta 48.319123
_cell_angle_gamma 26.275141
_cell_volume 635.185871
_symmetry_space_group_name_H-M "P -1"
_symmetry_group_IT_number 2
_symmetry_cell_setting 'triclinic'
loop_
_space_group_symop_operation_xyz
x,y,z
-x,-y,-z
loop_
_atom_site_type_symbol
_atom_site_label
_atom_site_fract_x
_atom_site_fract_y
_atom_site_fract_z
Si Si1 0.725661 0.715903 0.347654
Si Si2 0.950309 0.912902 0.489884
Si Si3 0.083926 0.193648 0.658663
Si Si4 0.132797 0.128336 0.063186
Si Si5 0.378044 0.226885 0.262018
Si Si6 0.659555 0.330019 0.004450
Si Si7 0.877192 0.384440 0.991067
O O1 0.693055 0.767940 0.510779
O O2 0.864448 0.374465 0.461531
O O3 0.561243 0.917139 0.308357
O O4 0.785635 0.811326 0.120383
O O5 0.922821 0.843979 0.456329
O O6 0.878111 0.933527 0.705485
O O7 0.885488 0.198584 0.255994
O O8 0.000000 0.500000 0.500000
O O9 0.987843 0.205107 0.877011
O O10 0.257455 0.918656 0.748507
O O11 0.961636 0.395214 0.963725
O O12 0.228222 0.854420 0.102529
O O13 0.357105 0.457742 0.112738
O O14 0.286859 0.333031 0.136937
O O15 0.500000 0.500000 0.000000
#
# Coordination Sequence:
#
# PCOD9057249 Si02
#       7
#     2   2   2   2   2   2   2
#     4  11  23  40  65  96 131 170 214 272 330 374
#     4  12  22  43  64  99 135 171 213 272 331 385
#     4  11  23  38  66  97 123 169 225 264 310 386
#     4  11  25  39  67  99 133 174 212 271 331 391
#     4  11  23  41  66  96 128 171 222 278 313 379
#     4  11  22  42  64  93 127 168 224 264 320 385
#     4  11  23  41  66  96 130 173 227 260 317 392
#
# _framework density 22.040790999999999
#
# number of rings (size 3 to 8) (size 9 to 14) (size 15 to 20)
#    0.000    0.857    4.286    4.714    0.000    0.000 
#    0.000    3.571    0.000    0.000    0.000    0.000 
#    0.000    0.000    0.000    0.000    0.000    0.000 
#
# Total GULP energy -78311.320512 kJ/mol
# GULP energy per Si atom -5593.665751 kJ/mol
# Density = 2.199063 g / cm^3
# Si number density = 22.040791 Si / 1000 Ang^3
#
#
#
# Elastic Constant Matrix: (Units=GPa)
#
#
# Indices 1 2 3 4 5 6 
#
# 1 78.6919 30.3348 45.1381 12.5371 22.6787 -22.7873
# 2 30.3348 77.6788 45.4367 -8.1371 22.7443 -30.3458
# 3 45.1381 45.4367 158.2637 17.6857 16.9733 -21.2808
# 4 12.5371 -8.1371 17.6857 32.8396 -1.2267 9.3168
# 5 22.6787 22.7443 16.9733 -1.2267 41.1128 -5.4203
# 6 -22.7873 -30.3458 -21.2808 9.3168 -5.4203 41.0180
#
#
#
# Elastic Compliance Matrix: (Units=1/GPa)
#
#
# Indices 1 2 3 4 5 6 
#
# 1 0.022391 -0.001339 -0.002137 -0.011395 -0.009530 0.011669
# 2 -0.001339 0.023950 -0.004435 0.004994 -0.008901 0.012363
# 3 -0.002137 -0.004435 0.009028 -0.005565 -0.000067 0.001471
# 4 -0.011395 0.004994 -0.005565 0.043399 0.005178 -0.014696
# 5 -0.009530 -0.008901 -0.000067 0.005178 0.033545 -0.008657
# 6 0.011669 0.012363 0.001471 -0.014696 -0.008657 0.042966
#
#
# Mechanical properties :
#
#
# Convention : Reuss Voigt Hill
#
# Bulk Modulus (GPa) = 25.28664 61.82819 43.55741
# Shear Modulus (GPa) = 24.47600 35.90906 30.19253
#
# Velocity S-wave (km/s) = 3.33601 4.04073 3.70516
# Velocity P-wave (km/s) = 5.13188 7.06276 6.17328
#
# Compressibility (1/GPa) = 0.03954657
#
# Stress axis : x y z
#
# Youngs Moduli (GPa) = 44.66146 41.75447 110.76408
#
# Poissons Ratio (x) = 0.05590 0.23672
# Poissons Ratio (y) = 0.05979 0.49125
# Poissons Ratio (z) = 0.09545 0.18518
#
# Static dielectric constant tensor:
#      x y z
#    x 1.850710 -0.024830 -0.023980 
#    y -0.024830 1.840350 -0.035680 
#    z -0.023980 -0.035680 1.843460 
# 
# From -- ./inp_files/332704.got.cif
#   From: 2010.05.17/outbox.cif.g08.bks.cpg/sg2_167_cif.got.tgz:332704.got - 2010.06.03 11:33:40.
