data_PCOD9057439
_publ_section_title
;
Structure prediction by ZEFSAII (Michael W. Deem and Ramdas Pophale) SiO2 
 PCOD9057439
Probable space group: P -1
;
_chemical_formula_sum "Si O2"
_cell_formula_units_Z 14
_cell_length_a 11.907031
_cell_length_b 6.176493
_cell_length_c 8.728609
_cell_angle_alpha 107.520582
_cell_angle_beta 104.274069
_cell_angle_gamma 95.591349
_cell_volume 582.931531
_symmetry_space_group_name_H-M "P -1"
_symmetry_group_IT_number 2
_symmetry_cell_setting 'triclinic'
loop_
_space_group_symop_operation_xyz
x,y,z
-x,-y,-z
loop_
_atom_site_type_symbol
_atom_site_label
_atom_site_fract_x
_atom_site_fract_y
_atom_site_fract_z
Si Si1 0.575761 0.513751 0.872108
Si Si2 0.799333 0.499826 0.127009
Si Si3 0.406443 0.116901 0.578529
Si Si4 0.013170 0.245562 0.141095
Si Si5 0.712995 0.688804 0.684081
Si Si6 0.899437 0.028834 0.360203
Si Si7 0.292575 0.718631 0.623020
O O1 0.477473 0.363539 0.701831
O O2 0.633979 0.715280 0.813418
O O3 0.500000 0.500000 0.000000
O O4 0.696030 0.435039 0.953199
O O5 0.829928 0.777725 0.226501
O O6 0.741709 0.389656 0.244915
O O7 0.919802 0.411632 0.098085
O O8 0.304104 0.137122 0.423959
O O9 0.500000 0.000000 0.500000
O O10 0.377544 0.966878 0.692405
O O11 0.154068 0.320467 0.219912
O O12 0.962487 0.174827 0.274578
O O13 0.000000 0.000000 0.000000
O O14 0.672045 0.447146 0.529006
O O15 0.824738 0.195948 0.452184
O O16 0.000000 0.000000 0.500000
#
# Coordination Sequence:
#
# PCOD9057439 Si02
#       7
#     2   2   2   2   2   2   2
#     4  12  27  47  73 103 148 190 234 304 359 420
#     4  11  26  46  71 111 148 185 238 296 361 425
#     4  12  27  46  72 103 136 193 247 290 351 427
#     4  11  26  43  71 104 145 188 232 296 361 425
#     4  12  26  47  73 103 143 186 246 294 355 430
#     4  11  22  42  70 104 142 185 237 286 355 426
#     4  11  23  44  72 102 140 187 235 294 353 424
#
# _framework density 24.016544
#
# number of rings (size 3 to 8) (size 9 to 14) (size 15 to 20)
#    0.000    0.571    1.429    6.429    4.000    7.429 
#    0.000    0.000    0.000    0.000    0.000    0.000 
#    0.000    0.000    0.000    0.000    0.000    0.000 
#
# Total GULP energy -77988.805939 kJ/mol
# GULP energy per Si atom -5570.628996 kJ/mol
# Density = 2.396188 g / cm^3
# Si number density = 24.016544 Si / 1000 Ang^3
#
#
#
# Elastic Constant Matrix: (Units=GPa)
#
#
# Indices 1 2 3 4 5 6 
#
# 1 124.5743 33.9993 43.3492 -13.5674 -1.0661 2.4939
# 2 33.9993 40.6117 1.7063 -16.5643 -6.4500 15.8329
# 3 43.3492 1.7063 77.8691 -12.3881 5.3153 -3.7224
# 4 -13.5674 -16.5643 -12.3881 34.7177 3.4864 -9.7981
# 5 -1.0661 -6.4500 5.3153 3.4864 54.6154 -8.5978
# 6 2.4939 15.8329 -3.7224 -9.7981 -8.5978 54.5025
#
#
#
# Elastic Compliance Matrix: (Units=1/GPa)
#
#
# Indices 1 2 3 4 5 6 
#
# 1 0.014142 -0.013679 -0.007980 -0.003226 -0.000011 0.002200
# 2 -0.013679 0.046519 0.008795 0.017293 0.001869 -0.008884
# 3 -0.007980 0.008795 0.018452 0.007875 -0.001373 0.000270
# 4 -0.003226 0.017293 0.007875 0.039430 -0.000893 0.002610
# 5 -0.000011 0.001869 -0.001373 -0.000893 0.019069 0.002211
# 6 0.002200 -0.008884 0.000270 0.002610 0.002211 0.021664
#
#
# Mechanical properties :
#
#
# Convention : Reuss Voigt Hill
#
# Bulk Modulus (GPa) = 18.73258 44.57384 31.65321
# Shear Modulus (GPa) = 24.65467 39.70049 32.17758
#
# Velocity S-wave (km/s) = 3.20749 4.07018 3.66431
# Velocity P-wave (km/s) = 4.64049 6.37875 5.57775
#
# Compressibility (1/GPa) = 0.05338294
#
# Stress axis : x y z
#
# Youngs Moduli (GPa) = 70.70939 21.49640 54.19612
#
# Poissons Ratio (x) = 0.29406 0.43251
# Poissons Ratio (y) = 0.96727 -0.47664
# Poissons Ratio (z) = 0.56429 -0.18906
#
# Static dielectric constant tensor:
#      x y z
#    x 1.585960 0.326990 0.173330 
#    y 0.326990 1.742240 -0.099500 
#    z 0.173330 -0.099500 1.762000 
# 
# From -- ./inp_files/206631.got.cif
#   From: 2010.05.17/outbox.cif.g08.bks.cpg/sg2_104_cif.got.tgz:206631.got - 2010.06.03 11:33:40.
