data_PCOD9057779
_publ_section_title
;
Structure prediction by ZEFSAII (Michael W. Deem and Ramdas Pophale) SiO2 
 PCOD9057779
Probable space group: P -1
;
_chemical_formula_sum "Si O2"
_cell_formula_units_Z 14
_cell_length_a 13.417671
_cell_length_b 12.161759
_cell_length_c 11.427403
_cell_angle_alpha 37.290027
_cell_angle_beta 33.061302
_cell_angle_gamma 39.336584
_cell_volume 583.342964
_symmetry_space_group_name_H-M "P -1"
_symmetry_group_IT_number 2
_symmetry_cell_setting 'triclinic'
loop_
_space_group_symop_operation_xyz
x,y,z
-x,-y,-z
loop_
_atom_site_type_symbol
_atom_site_label
_atom_site_fract_x
_atom_site_fract_y
_atom_site_fract_z
Si Si1 0.447803 0.957077 0.404414
Si Si2 0.877145 0.107156 0.676347
Si Si3 0.751788 0.453843 0.910012
Si Si4 0.965797 0.074378 0.101957
Si Si5 0.082663 0.286172 0.152401
Si Si6 0.448194 0.218125 0.982756
Si Si7 0.391881 0.301413 0.351143
O O1 0.238451 0.930409 0.641317
O O2 0.473755 0.023280 0.194109
O O3 0.436302 0.127138 0.363113
O O4 0.618026 0.778576 0.441537
O O5 0.878236 0.069110 0.846127
O O6 0.000843 0.238125 0.398783
O O7 0.951106 0.886077 0.744735
O O8 0.663515 0.212094 0.750088
O O9 0.656255 0.615362 0.963184
O O10 0.776135 0.538985 0.686690
O O11 0.583989 0.361550 0.123207
O O12 0.931397 0.299174 0.925967
O O13 0.000000 0.000000 0.000000
O O14 0.308472 0.242973 0.990296
O O15 0.000000 0.500000 0.000000
#
# Coordination Sequence:
#
# PCOD9057779 Si02
#       7
#     2   2   2   2   2   2   2
#     4   9  18  35  59  86 135 174 218 268 332 390
#     4  11  26  45  72 103 134 182 224 286 341 405
#     4   9  19  35  58  88 135 174 223 271 328 390
#     4  11  23  39  61  96 141 182 219 274 340 404
#     4  11  25  51  73  97 139 170 234 290 341 402
#     4  11  22  43  70  98 131 174 229 279 348 402
#     4   8  16  30  54  83 119 182 212 254 318 386
#
# _framework density 23.999603
#
# number of rings (size 3 to 8) (size 9 to 14) (size 15 to 20)
#    0.000    2.000    1.429    1.286   12.000    0.571 
#    5.143    4.286    0.000    0.000    0.000    0.000 
#    0.000    0.000    0.000    0.000    0.000    0.000 
#
# Total GULP energy -78114.066036 kJ/mol
# GULP energy per Si atom -5579.576145 kJ/mol
# Density = 2.394498 g / cm^3
# Si number density = 23.999603 Si / 1000 Ang^3
#
#
#
# Elastic Constant Matrix: (Units=GPa)
#
#
# Indices 1 2 3 4 5 6 
#
# 1 115.2445 44.3719 67.7690 -7.0005 8.2612 22.7600
# 2 44.3719 90.9153 61.9960 -12.3239 10.6601 1.1298
# 3 67.7690 61.9960 124.5956 -1.7481 7.7789 50.9492
# 4 -7.0005 -12.3239 -1.7481 38.8239 -11.8478 18.6802
# 5 8.2612 10.6601 7.7789 -11.8478 39.2189 7.6939
# 6 22.7600 1.1298 50.9492 18.6802 7.6939 126.9588
#
#
#
# Elastic Compliance Matrix: (Units=1/GPa)
#
#
# Indices 1 2 3 4 5 6 
#
# 1 0.013163 -0.002043 -0.006061 0.001296 -0.000611 -0.000063
# 2 -0.002043 0.019434 -0.009977 0.002547 -0.002888 0.003998
# 3 -0.006061 -0.009977 0.018856 0.000212 0.001591 -0.006519
# 4 0.001296 0.002547 0.000212 0.032615 0.009973 -0.005743
# 5 -0.000611 -0.002888 0.001591 0.009973 0.029850 -0.003780
# 6 -0.000063 0.003998 -0.006519 -0.005743 -0.003780 0.011543
#
#
# Mechanical properties :
#
#
# Convention : Reuss Voigt Hill
#
# Bulk Modulus (GPa) = 65.39799 75.44770 70.42284
# Shear Modulus (GPa) = 29.99016 51.44155 40.71586
#
# Velocity S-wave (km/s) = 3.53882 4.63475 4.12335
# Velocity P-wave (km/s) = 6.63373 7.75542 7.21640
#
# Compressibility (1/GPa) = 0.01529099
#
# Stress axis : x y z
#
# Youngs Moduli (GPa) = 75.97166 51.45539 53.03226
#
# Poissons Ratio (x) = 0.10514 0.32141
# Poissons Ratio (y) = 0.15524 0.52912
# Poissons Ratio (z) = 0.46043 0.51339
#
# Static dielectric constant tensor:
#      x y z
#    x 1.953600 -0.021030 0.016450 
#    y -0.021030 1.979520 -0.035270 
#    z 0.016450 -0.035270 1.975170 
# 
# From -- ./inp_files/427333.got.cif
#   From: 2010.05.17/outbox.cif.g08.bks.cpg/sg2_214_cif.got.tgz:427333.got - 2010.06.03 11:33:40.
