data_PCOD9057583
_publ_section_title
;
Structure prediction by ZEFSAII (Michael W. Deem and Ramdas Pophale) SiO2 
 PCOD9057583
Probable space group: P -1
;
_chemical_formula_sum "Si O2"
_cell_formula_units_Z 14
_cell_length_a 18.379534
_cell_length_b 5.259034
_cell_length_c 8.960811
_cell_angle_alpha 80.009879
_cell_angle_beta 135.155384
_cell_angle_gamma 96.840121
_cell_volume 601.519360
_symmetry_space_group_name_H-M "P -1"
_symmetry_group_IT_number 2
_symmetry_cell_setting 'triclinic'
loop_
_space_group_symop_operation_xyz
x,y,z
-x,-y,-z
loop_
_atom_site_type_symbol
_atom_site_label
_atom_site_fract_x
_atom_site_fract_y
_atom_site_fract_z
Si Si1 0.223657 0.384870 0.146201
Si Si2 0.160425 0.975447 0.635132
Si Si3 0.340044 0.582379 0.029595
Si Si4 0.692547 0.589067 0.311116
Si Si5 0.531101 0.895747 0.221121
Si Si6 0.041519 0.273179 0.688883
Si Si7 0.284702 0.839787 0.409247
O O1 0.307421 0.392790 0.132677
O O2 0.250016 0.640778 0.251707
O O3 0.233400 0.115924 0.275460
O O4 0.110022 0.385888 0.909142
O O5 0.223023 0.195916 0.618808
O O6 0.114976 0.097154 0.709797
O O7 0.061285 0.883841 0.407464
O O8 0.238210 0.749992 0.823510
O O9 0.433837 0.774631 0.174523
O O10 0.366764 0.439938 0.928355
O O11 0.614647 0.678269 0.317257
O O12 0.740506 0.317203 0.460170
O O13 0.594280 0.094310 0.394736
O O14 0.500000 0.000000 0.000000
O O15 0.000000 0.500000 0.500000
#
# Coordination Sequence:
#
# PCOD9057583 Si02
#       7
#     2   2   2   2   2   2   2
#     4  12  27  49  72 110 159 189 241 318 384 428
#     4  11  22  42  76 112 141 183 265 304 357 434
#     4  12  25  43  79 110 143 202 251 307 359 450
#     4  12  23  47  74 108 150 198 251 302 363 447
#     4  12  25  45  77 109 147 201 260 296 361 448
#     4  11  23  44  76 113 139 195 251 311 364 450
#     4  12  28  49  70 109 162 194 236 315 385 437
#
# _framework density 23.274394999999998
#
# number of rings (size 3 to 8) (size 9 to 14) (size 15 to 20)
#    0.000    0.286    7.143    1.286    2.000    1.143 
#    0.000    1.429    0.000    0.000    0.000    0.000 
#    0.000    0.000    0.000    0.000    0.000    0.000 
#
# Total GULP energy -78332.569153 kJ/mol
# GULP energy per Si atom -5595.183511 kJ/mol
# Density = 2.322142 g / cm^3
# Si number density = 23.274395 Si / 1000 Ang^3
#
#
#
# Elastic Constant Matrix: (Units=GPa)
#
#
# Indices 1 2 3 4 5 6 
#
# 1 42.0786 9.5361 -0.7103 3.5155 18.1540 -3.2112
# 2 9.5361 124.5083 53.8624 17.6044 7.8077 10.6536
# 3 -0.7103 53.8624 139.2265 37.4478 12.2327 -1.4343
# 4 3.5155 17.6044 37.4478 60.5549 5.5500 -3.0978
# 5 18.1540 7.8077 12.2327 5.5500 33.7971 8.9190
# 6 -3.2112 10.6536 -1.4343 -3.0978 8.9190 41.8262
#
#
#
# Elastic Compliance Matrix: (Units=1/GPa)
#
#
# Indices 1 2 3 4 5 6 
#
# 1 0.034346 -0.003471 0.003694 -0.000937 -0.020954 0.008046
# 2 -0.003471 0.010314 -0.004041 -0.000659 0.001976 -0.003502
# 3 0.003694 -0.004041 0.010546 -0.005018 -0.004649 0.002294
# 4 -0.000937 -0.000659 -0.005018 0.020065 -0.001266 0.001680
# 5 -0.020954 0.001976 -0.004649 -0.001266 0.045460 -0.012059
# 6 0.008046 -0.003502 0.002294 0.001680 -0.012059 0.028193
#
#
# Mechanical properties :
#
#
# Convention : Reuss Voigt Hill
#
# Bulk Modulus (GPa) = 21.02042 47.90998 34.46520
# Shear Modulus (GPa) = 28.99935 43.44398 36.22166
#
# Velocity S-wave (km/s) = 3.53367 4.32510 3.94926
# Velocity P-wave (km/s) = 5.06954 6.75067 5.96958
#
# Compressibility (1/GPa) = 0.04757280
#
# Stress axis : x y z
#
# Youngs Moduli (GPa) = 29.11508 96.95357 94.81849
#
# Poissons Ratio (x) = 0.33649 -0.35025
# Poissons Ratio (y) = 0.10105 0.38312
# Poissons Ratio (z) = -0.10755 0.39174
#
# Static dielectric constant tensor:
#      x y z
#    x 1.891820 -0.055200 -0.013690 
#    y -0.055200 1.944330 -0.000200 
#    z -0.013690 -0.000200 1.906540 
# 
# From -- ./inp_files/88014.got.cif
#   From: 2010.05.17/outbox.cif.g08.bks.cpg/sg2_45_cif.got.tgz:88014.got - 2010.06.03 11:33:40.
