data_PCOD9057589
_publ_section_title
;
Structure prediction by ZEFSAII (Michael W. Deem and Ramdas Pophale) SiO2 
 PCOD9057589
Probable space group: P -1
;
_chemical_formula_sum "Si O2"
_cell_formula_units_Z 16
_cell_length_a 14.687871
_cell_length_b 11.818039
_cell_length_c 13.891449
_cell_angle_alpha 145.407821
_cell_angle_beta 132.661939
_cell_angle_gamma 73.093860
_cell_volume 773.779121
_symmetry_space_group_name_H-M "P -1"
_symmetry_group_IT_number 2
_symmetry_cell_setting 'triclinic'
loop_
_space_group_symop_operation_xyz
x,y,z
-x,-y,-z
loop_
_atom_site_type_symbol
_atom_site_label
_atom_site_fract_x
_atom_site_fract_y
_atom_site_fract_z
Si Si1 0.568088 0.804561 0.350072
Si Si2 0.680772 0.037088 0.385012
Si Si3 0.168442 0.663809 0.789117
Si Si4 0.620293 0.460980 0.241192
Si Si5 0.700597 0.525406 0.729005
Si Si6 0.762945 0.354176 0.963071
Si Si7 0.970453 0.781758 0.257725
Si Si8 0.342961 0.270278 0.351353
O O1 0.622543 0.634788 0.282881
O O2 0.382263 0.635947 0.128720
O O3 0.593844 0.921118 0.344692
O O4 0.672966 0.052684 0.668729
O O5 0.690739 0.277799 0.532973
O O6 0.857580 0.128224 0.585706
O O7 0.565110 0.799668 0.062890
O O8 0.281142 0.628144 0.785678
O O9 0.000000 0.500000 0.500000
O O10 0.150826 0.564687 0.815877
O O11 0.250004 0.964983 0.066187
O O12 0.684474 0.630812 0.502529
O O13 0.533969 0.418952 0.586086
O O14 0.706470 0.650620 0.721271
O O15 0.855176 0.719081 0.042756
O O16 0.877107 0.523328 0.074852
O O17 0.000000 0.000000 0.500000
#
# Coordination Sequence:
#
# PCOD9057589 Si02
#       8
#     2   2   2   2   2   2   2   2
#     4  11  22  42  78 102 137 179 237 294 346 418
#     4  12  24  44  72 107 140 180 237 292 352 423
#     4  12  28  48  69 102 144 182 240 293 337 421
#     4  12  25  46  77 102 136 188 243 281 355 416
#     4  11  24  46  70  99 148 184 231 290 349 420
#     4  11  23  45  72 103 142 182 228 296 355 404
#     4  12  27  42  69 109 147 181 230 297 360 410
#     4  11  25  49  71  99 140 194 235 285 344 420
#
# _framework density 20.677737
#
# number of rings (size 3 to 8) (size 9 to 14) (size 15 to 20)
#    0.000    0.500    5.000    3.000    3.500    2.000 
#    0.000    0.000    0.000    0.000    0.000    0.000 
#    0.000    0.000    0.000    0.000    0.000    0.000 
#
# Total GULP energy -89555.212342 kJ/mol
# GULP energy per Si atom -5597.200771 kJ/mol
# Density = 2.063067 g / cm^3
# Si number density = 20.677737 Si / 1000 Ang^3
#
#
#
# Elastic Constant Matrix: (Units=GPa)
#
#
# Indices 1 2 3 4 5 6 
#
# 1 63.7143 28.5879 35.9509 -8.2056 -7.3927 -11.3805
# 2 28.5879 113.6408 58.2295 -7.8425 -11.3125 -16.1493
# 3 35.9509 58.2295 121.7751 -19.8772 -13.8041 -18.5576
# 4 -8.2056 -7.8425 -19.8772 35.7095 -7.1992 -0.6735
# 5 -7.3927 -11.3125 -13.8041 -7.1992 38.8739 1.3115
# 6 -11.3805 -16.1493 -18.5576 -0.6735 1.3115 20.1973
#
#
#
# Elastic Compliance Matrix: (Units=1/GPa)
#
#
# Indices 1 2 3 4 5 6 
#
# 1 0.020317 -0.002045 -0.003202 0.003063 0.002469 0.006813
# 2 -0.002045 0.012398 -0.004418 0.000189 0.001530 0.004608
# 3 -0.003202 -0.004418 0.014047 0.007092 0.004152 0.007536
# 4 0.003063 0.000189 0.007092 0.034738 0.009287 0.008949
# 5 0.002469 0.001530 0.004152 0.009287 0.029671 0.004813
# 6 0.006813 0.004608 0.007536 0.008949 0.004813 0.063945
#
#
# Mechanical properties :
#
#
# Convention : Reuss Voigt Hill
#
# Bulk Modulus (GPa) = 36.45456 60.51853 48.48655
# Shear Modulus (GPa) = 24.55904 30.71360 27.63632
#
# Velocity S-wave (km/s) = 3.45005 3.85820 3.65982
# Velocity P-wave (km/s) = 5.79125 7.01275 6.43107
#
# Compressibility (1/GPa) = 0.02743141
#
# Stress axis : x y z
#
# Youngs Moduli (GPa) = 49.21911 80.65686 71.19122
#
# Poissons Ratio (x) = 0.16494 0.22797
# Poissons Ratio (y) = 0.10065 0.31454
# Poissons Ratio (z) = 0.15761 0.35636
#
# Static dielectric constant tensor:
#      x y z
#    x 1.740960 0.001770 0.001340 
#    y 0.001770 1.717090 0.006540 
#    z 0.001340 0.006540 1.767740 
# 
# From -- ./inp_files/274414.got.cif
#   From: 2010.05.17/outbox.cif.g08.bks.cpg/sg2_138_cif.got.tgz:274414.got - 2010.06.03 11:33:40.
