data_PCOD9057116
_publ_section_title
;
Structure prediction by ZEFSAII (Michael W. Deem and Ramdas Pophale) SiO2 
 PCOD9057116
Probable space group: P -1
;
_chemical_formula_sum "Si O2"
_cell_formula_units_Z 10
_cell_length_a 15.908716
_cell_length_b 11.079404
_cell_length_c 5.063268
_cell_angle_alpha 50.761994
_cell_angle_beta 128.210995
_cell_angle_gamma 139.226279
_cell_volume 433.902589
_symmetry_space_group_name_H-M "P -1"
_symmetry_group_IT_number 2
_symmetry_cell_setting 'triclinic'
loop_
_space_group_symop_operation_xyz
x,y,z
-x,-y,-z
loop_
_atom_site_type_symbol
_atom_site_label
_atom_site_fract_x
_atom_site_fract_y
_atom_site_fract_z
Si Si1 0.758836 0.826994 0.307300
Si Si2 0.558518 0.184806 0.543372
Si Si3 0.036876 0.865203 0.384807
Si Si4 0.749510 0.603151 0.105073
Si Si5 0.319380 0.990272 0.730870
O O1 0.735995 0.731441 0.114517
O O2 0.903929 0.036323 0.348583
O O3 0.665888 0.883454 0.160078
O O4 0.745745 0.675912 0.707092
O O5 0.635023 0.381495 0.255832
O O6 0.500000 0.000000 0.500000
O O7 0.438918 0.137261 0.563358
O O8 0.662459 0.175395 0.938040
O O9 0.167117 0.894066 0.476586
O O10 0.895737 0.656491 0.376721
O O11 0.000000 0.000000 0.000000
#
# Coordination Sequence:
#
# PCOD9057116 Si02
#       5
#     2   2   2   2   2
#     4   9  22  40  68  97 125 159 218 269 316 374
#     4  11  26  42  60  91 138 175 211 258 320 389
#     4   8  18  41  67  98 123 160 213 278 317 370
#     4  11  22  41  70  97 125 168 217 265 321 382
#     4   9  23  43  64  88 137 165 212 267 326 366
#
# _framework density 23.046648999999999
#
# number of rings (size 3 to 8) (size 9 to 14) (size 15 to 20)
#    1.200    1.200    0.000    0.600    8.400    2.400 
#    3.600    1.000    0.000    0.000    0.000    0.000 
#    0.000    0.000    0.000    0.000    0.000    0.000 
#
# Total GULP energy -55769.255044 kJ/mol
# GULP energy per Si atom -5576.925504 kJ/mol
# Density = 2.299419 g / cm^3
# Si number density = 23.046649 Si / 1000 Ang^3
#
#
#
# Elastic Constant Matrix: (Units=GPa)
#
#
# Indices 1 2 3 4 5 6 
#
# 1 129.6424 23.5576 30.2963 16.5718 26.8495 28.2836
# 2 23.5576 51.1805 -7.7716 3.8589 6.6997 12.2613
# 3 30.2963 -7.7716 74.0967 9.7625 11.5224 10.3553
# 4 16.5718 3.8589 9.7625 22.8554 10.4602 -1.7518
# 5 26.8495 6.6997 11.5224 10.4602 40.8140 11.2992
# 6 28.2836 12.2613 10.3553 -1.7518 11.2992 30.1692
#
#
#
# Elastic Compliance Matrix: (Units=1/GPa)
#
#
# Indices 1 2 3 4 5 6 
#
# 1 0.012210 -0.003159 -0.002851 -0.006541 -0.002661 -0.008568
# 2 -0.003159 0.024475 0.005805 -0.005210 0.000364 -0.009417
# 3 -0.002851 0.005805 0.016993 -0.006276 -0.000711 -0.005617
# 4 -0.006541 -0.005210 -0.006276 0.059754 -0.013639 0.018982
# 5 -0.002661 0.000364 -0.000711 -0.013639 0.032790 -0.010482
# 6 -0.008568 -0.009417 -0.005617 0.018982 -0.010482 0.051962
#
#
# Mechanical properties :
#
#
# Convention : Reuss Voigt Hill
#
# Bulk Modulus (GPa) = 18.77303 38.56490 28.66897
# Shear Modulus (GPa) = 23.11063 32.69021 27.90042
#
# Velocity S-wave (km/s) = 3.17010 3.77030 3.48315
# Velocity P-wave (km/s) = 4.64357 5.97690 5.35192
#
# Compressibility (1/GPa) = 0.05326791
#
# Stress axis : x y z
#
# Youngs Moduli (GPa) = 81.89886 40.85761 58.84825
#
# Poissons Ratio (x) = 0.12907 0.16776
# Poissons Ratio (y) = 0.25871 -0.34159
# Poissons Ratio (z) = 0.23348 -0.23716
#
# Static dielectric constant tensor:
#      x y z
#    x 1.892010 0.033950 -0.015060 
#    y 0.033950 1.901120 0.075820 
#    z -0.015060 0.075820 1.995850 
# 
# From -- ./inp_files/26565.got.cif
#   From: 2010.05.17/outbox.cif.g08.bks.cpg/sg2_14_cif.got.tgz:26565.got - 2010.06.03 11:33:40.
