data_PCOD9057097
_publ_section_title
;
Structure prediction by ZEFSAII (Michael W. Deem and Ramdas Pophale) SiO2 
 PCOD9057097
Probable space group: P -1
;
_chemical_formula_sum "Si O2"
_cell_formula_units_Z 16
_cell_length_a 18.080544
_cell_length_b 15.568865
_cell_length_c 27.559529
_cell_angle_alpha 162.281759
_cell_angle_beta 20.539544
_cell_angle_gamma 158.516228
_cell_volume 772.609323
_symmetry_space_group_name_H-M "P -1"
_symmetry_group_IT_number 2
_symmetry_cell_setting 'triclinic'
loop_
_space_group_symop_operation_xyz
x,y,z
-x,-y,-z
loop_
_atom_site_type_symbol
_atom_site_label
_atom_site_fract_x
_atom_site_fract_y
_atom_site_fract_z
Si Si1 0.942316 0.773185 0.484552
Si Si2 0.956207 0.752671 0.131294
Si Si3 0.599211 0.273889 0.711453
Si Si4 0.386653 0.170870 0.368016
Si Si5 0.207390 0.033634 0.029783
Si Si6 0.490180 0.775553 0.427752
Si Si7 0.949759 0.794159 0.593165
Si Si8 0.107545 0.925923 0.846383
O O1 0.758205 0.796405 0.571794
O O2 0.899310 0.921280 0.641441
O O3 0.895884 0.417000 0.330974
O O4 0.193476 0.944481 0.400236
O O5 0.688990 0.648669 0.230283
O O6 0.085405 0.838002 0.046537
O O7 0.018865 0.027538 0.279712
O O8 0.000000 0.500000 0.000000
O O9 0.679314 0.622530 0.834851
O O10 0.819743 0.251273 0.588306
O O11 0.543521 0.002404 0.561619
O O12 0.359416 0.174930 0.830380
O O13 0.500000 0.500000 0.500000
O O14 0.591453 0.060875 0.167263
O O15 0.026513 0.031686 0.097116
O O16 0.249926 0.518539 0.442199
O O17 0.500000 0.000000 0.500000
O O18 0.000000 0.000000 0.000000
#
# Coordination Sequence:
#
# PCOD9057097 Si02
#       8
#     2   2   2   2   2   2   2   2
#     4  11  25  47  67 107 133 185 235 275 351 418
#     4  11  28  45  68 103 142 188 228 286 349 408
#     4  11  22  41  70 100 137 176 223 292 342 402
#     4  11  28  46  73  97 144 187 228 286 348 414
#     4  12  26  46  68 107 139 178 238 291 343 416
#     4  11  22  43  70 100 134 181 230 281 344 408
#     4  11  24  44  74 100 139 181 234 279 341 423
#     4  12  25  42  73 105 138 179 234 290 348 407
#
# _framework density 20.709043000000001
#
# number of rings (size 3 to 8) (size 9 to 14) (size 15 to 20)
#    0.000    0.750    2.500    3.750    7.000    4.500 
#    2.250    0.000    0.000    0.000    0.000    0.000 
#    0.000    0.000    0.000    0.000    0.000    0.000 
#
# Total GULP energy -89227.584504 kJ/mol
# GULP energy per Si atom -5576.724031 kJ/mol
# Density = 2.066191 g / cm^3
# Si number density = 20.709043 Si / 1000 Ang^3
#
#
#
# Elastic Constant Matrix: (Units=GPa)
#
#
# Indices 1 2 3 4 5 6 
#
# 1 104.1221 66.3737 24.9042 -19.6077 -12.7283 -16.0245
# 2 66.3737 144.3517 38.0491 -25.6458 -14.4044 -1.5750
# 3 24.9042 38.0491 74.1608 -16.2906 -18.8360 -4.4368
# 4 -19.6077 -25.6458 -16.2906 33.5532 -2.1665 2.9333
# 5 -12.7283 -14.4044 -18.8360 -2.1665 33.4123 0.2258
# 6 -16.0245 -1.5750 -4.4368 2.9333 0.2258 39.8820
#
#
#
# Elastic Compliance Matrix: (Units=1/GPa)
#
#
# Indices 1 2 3 4 5 6 
#
# 1 0.015511 -0.005965 0.000041 0.004262 0.003599 0.005668
# 2 -0.005965 0.011205 -0.002657 0.004099 0.001343 -0.002559
# 3 0.000041 -0.002657 0.019243 0.007872 0.010219 0.001415
# 4 0.004262 0.004099 0.007872 0.039943 0.010420 -0.000247
# 5 0.003599 0.001343 0.010219 0.010420 0.038305 0.001653
# 6 0.005668 -0.002559 0.001415 -0.000247 0.001653 0.027416
#
#
# Mechanical properties :
#
#
# Convention : Reuss Voigt Hill
#
# Bulk Modulus (GPa) = 34.72615 64.58764 49.65690
# Shear Modulus (GPa) = 28.02916 34.25667 31.14291
#
# Velocity S-wave (km/s) = 3.68295 4.07158 3.88213
# Velocity P-wave (km/s) = 5.90682 7.30476 6.64267
#
# Compressibility (1/GPa) = 0.02879674
#
# Stress axis : x y z
#
# Youngs Moduli (GPa) = 64.46830 89.24609 51.96625
#
# Poissons Ratio (x) = 0.53234 -0.00211
# Poissons Ratio (y) = 0.38455 0.13809
# Poissons Ratio (z) = -0.00262 0.23715
#
# Static dielectric constant tensor:
#      x y z
#    x 1.798760 0.061250 -0.035810 
#    y 0.061250 1.787890 -0.046420 
#    z -0.035810 -0.046420 1.787880 
# 
# From -- ./inp_files/620487.got.cif
#   From: 2010.05.17/outbox.cif.g08.bks.cpg/sg2_311_cif.got.tgz:620487.got - 2010.06.03 11:33:40.
