data_PCOD9057419
_publ_section_title
;
Structure prediction by ZEFSAII (Michael W. Deem and Ramdas Pophale) SiO2 
 PCOD9057419
Probable space group: P -1
;
_chemical_formula_sum "Si O2"
_cell_formula_units_Z 13
_cell_length_a 21.272695
_cell_length_b 15.654917
_cell_length_c 12.264951
_cell_angle_alpha 27.549719
_cell_angle_beta 29.748513
_cell_angle_gamma 19.161195
_cell_volume 607.242990
_symmetry_space_group_name_H-M "P -1"
_symmetry_group_IT_number 2
_symmetry_cell_setting 'triclinic'
loop_
_space_group_symop_operation_xyz
x,y,z
-x,-y,-z
loop_
_atom_site_type_symbol
_atom_site_label
_atom_site_fract_x
_atom_site_fract_y
_atom_site_fract_z
Si Si1 0.895606 0.299290 0.951830
Si Si2 0.498272 0.720223 0.529115
Si Si3 0.135073 0.325421 0.274011
Si Si4 0.531045 0.368345 0.717166
Si Si5 0.500000 0.500000 0.000000
Si Si6 0.852024 0.335645 0.719739
Si Si7 0.221374 0.271159 0.963370
O O1 0.933740 0.439182 0.806208
O O2 0.903121 0.314678 0.793147
O O3 0.676863 0.479965 0.103904
O O4 0.041526 0.970937 0.133045
O O5 0.591071 0.456292 0.613724
O O6 0.448408 0.677956 0.765356
O O7 0.303994 0.016002 0.428018
O O8 0.652552 0.715324 0.304541
O O9 0.221956 0.310905 0.047757
O O10 0.953859 0.393476 0.441152
O O11 0.500000 0.500000 0.500000
O O12 0.678400 0.037206 0.857330
O O13 0.627249 0.538083 0.811915
O O14 0.000000 0.500000 0.000000
#
# Coordination Sequence:
#
# PCOD9057419 Si02
#       7
#     2   2   2   2   1   2   2
#     4  11  22  42  70 100 133 188 240 284 348 425
#     4  12  24  44  72 101 144 190 242 291 355 429
#     4  12  23  45  74 104 134 190 243 294 351 432
#     4  12  22  43  75 103 140 189 239 292 355 425
#     4  12  26  44  68 102 150 186 228 302 362 418
#     4  11  23  44  65 101 141 183 236 288 357 423
#     4  12  27  45  71 112 147 181 238 304 367 424
#
# _framework density 21.408232999999999
#
# number of rings (size 3 to 8) (size 9 to 14) (size 15 to 20)
#    0.000    0.308    6.154    3.692    0.000    1.846 
#    0.000    3.846    0.000    0.000    0.000    0.000 
#    0.000    0.000    0.000    0.000    0.000    0.000 
#
# Total GULP energy -72480.604664 kJ/mol
# GULP energy per Si atom -5575.431128 kJ/mol
# Density = 2.135951 g / cm^3
# Si number density = 21.408233 Si / 1000 Ang^3
#
#
#
# Elastic Constant Matrix: (Units=GPa)
#
#
# Indices 1 2 3 4 5 6 
#
# 1 82.1672 37.4632 22.7044 -21.3613 -10.7411 2.2523
# 2 37.4632 36.6866 59.0733 5.4669 -6.8788 29.4613
# 3 22.7044 59.0733 109.8625 0.7816 -11.5834 -15.8287
# 4 -21.3613 5.4669 0.7816 26.8368 4.4984 -20.5055
# 5 -10.7411 -6.8788 -11.5834 4.4984 46.7183 -6.8460
# 6 2.2523 29.4613 -15.8287 -20.5055 -6.8460 29.3902
#
#
#
# Elastic Compliance Matrix: (Units=1/GPa)
#
#
# Indices 1 2 3 4 5 6 
#
# 1 0.012213 0.005743 -0.006887 0.001731 0.000447 -0.009089
# 2 0.005743 -0.003833 0.003954 0.020329 0.002762 0.020358
# 3 -0.006887 0.003954 0.007380 -0.013024 0.000860 -0.008347
# 4 0.001731 0.020329 -0.013024 0.029573 -0.003826 -0.007783
# 5 0.000447 0.002762 0.000860 -0.003826 0.022531 0.000239
# 6 -0.009089 0.020358 -0.008347 -0.007783 0.000239 0.004444
#
#
# Mechanical properties :
#
#
# Convention : Reuss Voigt Hill
#
# Bulk Modulus (GPa) = 46.77231 51.91090 49.34161
# Shear Modulus (GPa) = 67.73639 27.88744 47.81192
#
# Velocity S-wave (km/s) = 5.63108 3.61314 4.73095
# Velocity P-wave (km/s) = 8.01087 6.45810 7.27602
#
# Compressibility (1/GPa) = 0.02138017
#
# Stress axis : x y z
#
# Youngs Moduli (GPa) = 81.88312 -260.92358 135.49647
#
# Poissons Ratio (x) = 1.49846 0.93311
# Poissons Ratio (y) = -0.47025 -0.53570
# Poissons Ratio (z) = 0.56389 1.03159
#
# Static dielectric constant tensor:
#      x y z
#    x 1.734610 -0.035740 0.023150 
#    y -0.035740 1.756450 0.062490 
#    z 0.023150 0.062490 1.764850 
# 
# From -- ./inp_files/177061.got.cif
#   From: 2010.05.17/outbox.cif.g08.bks.cpg/sg2_89_cif.got.tgz:177061.got - 2010.06.03 11:33:40.
