data_PCOD9057325
_publ_section_title
;
Structure prediction by ZEFSAII (Michael W. Deem and Ramdas Pophale) SiO2 
 PCOD9057325
Probable space group: P -1
;
_chemical_formula_sum "Si O2"
_cell_formula_units_Z 16
_cell_length_a 8.539453
_cell_length_b 9.323936
_cell_length_c 23.777416
_cell_angle_alpha 43.434585
_cell_angle_beta 50.905953
_cell_angle_gamma 85.171371
_cell_volume 721.020355
_symmetry_space_group_name_H-M "P -1"
_symmetry_group_IT_number 2
_symmetry_cell_setting 'triclinic'
loop_
_space_group_symop_operation_xyz
x,y,z
-x,-y,-z
loop_
_atom_site_type_symbol
_atom_site_label
_atom_site_fract_x
_atom_site_fract_y
_atom_site_fract_z
Si Si1 0.766073 0.281161 0.068976
Si Si2 0.637956 0.739430 0.676845
Si Si3 0.058933 0.120888 0.013982
Si Si4 0.794559 0.613621 0.419047
Si Si5 0.685097 0.469058 0.929648
Si Si6 0.840198 0.970406 0.686517
Si Si7 0.950531 0.323210 0.406857
Si Si8 0.818000 0.100693 0.850778
O O1 0.850475 0.461202 0.941278
O O2 0.451791 0.127919 0.199728
O O3 0.000000 0.500000 0.000000
O O4 0.791572 0.055268 0.115968
O O5 0.818118 0.941056 0.633326
O O6 0.773956 0.619660 0.660447
O O7 0.327385 0.468916 0.846819
O O8 0.701825 0.973671 0.552425
O O9 0.132683 0.995808 0.077379
O O10 0.000000 0.000000 0.000000
O O11 0.500000 0.500000 0.500000
O O12 0.829133 0.392286 0.462197
O O13 0.010640 0.865215 0.251943
O O14 0.901341 0.737644 0.422126
O O15 0.840507 0.732552 0.776453
O O16 0.500000 0.500000 0.000000
O O17 0.499392 0.168153 0.022194
O O18 0.064136 0.578280 0.263898
#
# Coordination Sequence:
#
# PCOD9057325 Si02
#       8
#     2   2   2   2   2   2   2   2
#     4  11  21  37  62 104 138 167 219 291 339 401
#     4  11  23  46  66 101 138 181 231 279 345 407
#     4  12  27  40  68 105 135 177 227 289 346 407
#     4  10  23  44  70  99 133 184 232 278 338 414
#     4  10  17  36  66  96 131 170 215 277 345 390
#     4  11  22  40  71 103 131 181 230 285 344 405
#     4   9  24  45  67  90 142 185 221 280 336 414
#     4  10  21  46  66  96 134 179 229 281 336 414
#
# _framework density 22.190776
#
# number of rings (size 3 to 8) (size 9 to 14) (size 15 to 20)
#    0.750    0.750    5.000    0.750    3.500    4.000 
#    4.500    1.250    0.000    0.000    0.000    0.000 
#    0.000    0.000    0.000    0.000    0.000    0.000 
#
# Total GULP energy -89179.835194 kJ/mol
# GULP energy per Si atom -5573.739700 kJ/mol
# Density = 2.214027 g / cm^3
# Si number density = 22.190776 Si / 1000 Ang^3
#
#
#
# Elastic Constant Matrix: (Units=GPa)
#
#
# Indices 1 2 3 4 5 6 
#
# 1 138.7253 48.1340 33.5841 -20.1419 5.6227 4.2029
# 2 48.1340 85.1746 14.8414 -10.4109 -5.4877 -5.8734
# 3 33.5841 14.8414 75.9540 -16.5531 19.2554 -18.2229
# 4 -20.1419 -10.4109 -16.5531 26.5277 -5.9053 1.6731
# 5 5.6227 -5.4877 19.2554 -5.9053 37.1661 -2.3608
# 6 4.2029 -5.8734 -18.2229 1.6731 -2.3608 34.4743
#
#
#
# Elastic Compliance Matrix: (Units=1/GPa)
#
#
# Indices 1 2 3 4 5 6 
#
# 1 0.010648 -0.005167 -0.003912 0.003894 -0.000010 -0.004436
# 2 -0.005167 0.015518 -0.000405 0.002580 0.003896 0.003201
# 3 -0.003912 -0.000405 0.021417 0.007626 -0.008668 0.010765
# 4 0.003894 0.002580 0.007626 0.047068 0.003443 0.001948
# 5 -0.000010 0.003896 -0.008668 0.003443 0.032403 -0.001865
# 6 -0.004436 0.003201 0.010765 0.001948 -0.001865 0.035561
#
#
# Mechanical properties :
#
#
# Convention : Reuss Voigt Hill
#
# Bulk Modulus (GPa) = 34.94513 54.77476 44.85994
# Shear Modulus (GPa) = 26.16140 33.18659 29.67399
#
# Velocity S-wave (km/s) = 3.43728 3.87138 3.66077
# Velocity P-wave (km/s) = 5.61560 6.68735 6.17477
#
# Compressibility (1/GPa) = 0.02861629
#
# Stress axis : x y z
#
# Youngs Moduli (GPa) = 93.91129 64.44120 46.69174
#
# Poissons Ratio (x) = 0.33294 0.18265
# Poissons Ratio (y) = 0.48520 0.01892
# Poissons Ratio (z) = 0.36736 0.02611
#
# Static dielectric constant tensor:
#      x y z
#    x 1.802000 -0.011700 0.030130 
#    y -0.011700 1.866750 0.016130 
#    z 0.030130 0.016130 1.912510 
# 
# From -- ./inp_files/616623.got.cif
#   From: 2010.05.17/outbox.cif.g08.bks.cpg/sg2_309_cif.got.tgz:616623.got - 2010.06.03 11:33:40.
