data_PCOD9057039
_publ_section_title
;
Structure prediction by ZEFSAII (Michael W. Deem and Ramdas Pophale) SiO2 
 PCOD9057039
Probable space group: P -1
;
_chemical_formula_sum "Si O2"
_cell_formula_units_Z 15
_cell_length_a 12.126117
_cell_length_b 7.562917
_cell_length_c 13.319629
_cell_angle_alpha 63.247879
_cell_angle_beta 62.924406
_cell_angle_gamma 32.114044
_cell_volume 572.793158
_symmetry_space_group_name_H-M "P -1"
_symmetry_group_IT_number 2
_symmetry_cell_setting 'triclinic'
loop_
_space_group_symop_operation_xyz
x,y,z
-x,-y,-z
loop_
_atom_site_type_symbol
_atom_site_label
_atom_site_fract_x
_atom_site_fract_y
_atom_site_fract_z
Si Si1 0.763205 0.737520 0.351937
Si Si2 0.418852 0.418187 0.617702
Si Si3 0.000000 0.500000 0.500000
Si Si4 0.780635 0.980899 0.737208
Si Si5 0.726135 0.116993 0.110164
Si Si6 0.952348 0.137213 0.699273
Si Si7 0.109238 0.721414 0.922110
Si Si8 0.657948 0.944721 0.003407
O O1 0.622796 0.730114 0.386569
O O2 0.789199 0.757701 0.451159
O O3 0.701494 0.004516 0.242612
O O4 0.004275 0.364675 0.316941
O O5 0.500000 0.500000 0.500000
O O6 0.585991 0.170661 0.700675
O O7 0.189685 0.775961 0.660727
O O8 0.075997 0.599209 0.378927
O O9 0.764079 0.918583 0.872325
O O10 0.797125 0.197210 0.685773
O O11 0.707474 0.367151 0.092527
O O12 0.604119 0.170733 0.055015
O O13 0.965680 0.820191 0.045057
O O14 0.956751 0.053717 0.832595
O O15 0.195990 0.412470 0.912070
O O16 0.500000 0.000000 0.000000
#
# Coordination Sequence:
#
# PCOD9057039 Si02
#       8
#     2   2   1   2   2   2   2   2
#     4  11  23  43  69  94 131 175 221 278 332 398
#     4  11  24  44  66  96 131 174 230 280 330 388
#     4  12  24  42  68  96 128 180 228 266 338 394
#     4  11  22  43  69  97 130 172 225 271 329 404
#     4  11  22  41  68  98 136 172 218 280 335 400
#     4  11  23  43  69  94 131 175 221 278 332 398
#     4  11  22  41  68  98 136 172 218 280 335 400
#     4  12  23  39  68 102 136 177 217 269 341 409
#
# _framework density 26.187463999999999
#
# number of rings (size 3 to 8) (size 9 to 14) (size 15 to 20)
#    0.000    0.800    4.000    5.200    0.000    2.667 
#    0.000    6.000    0.000    0.000    0.000    0.000 
#    0.000    0.000    0.000    0.000    0.000    0.000 
#
# Total GULP energy -83756.038989 kJ/mol
# GULP energy per Si atom -5583.735933 kJ/mol
# Density = 2.612786 g / cm^3
# Si number density = 26.187464 Si / 1000 Ang^3
#
#
#
# Elastic Constant Matrix: (Units=GPa)
#
#
# Indices 1 2 3 4 5 6 
#
# 1 273.3264 24.0682 114.8722 -13.2966 38.1806 -8.8153
# 2 24.0682 53.0083 15.6515 1.3128 -19.1641 -0.0537
# 3 114.8722 15.6515 237.7111 -4.5871 77.9910 2.9135
# 4 -13.2966 1.3128 -4.5871 34.6383 19.5197 -5.7863
# 5 38.1806 -19.1641 77.9910 19.5197 148.3789 -7.6371
# 6 -8.8153 -0.0537 2.9135 -5.7863 -7.6371 45.2548
#
#
#
# Elastic Compliance Matrix: (Units=1/GPa)
#
#
# Indices 1 2 3 4 5 6 
#
# 1 0.004918 -0.001962 -0.001983 0.002313 -0.000716 0.001258
# 2 -0.001962 0.022493 -0.002368 -0.004896 0.005302 0.000066
# 3 -0.001983 -0.002368 0.006541 0.002006 -0.003557 -0.001154
# 4 0.002313 -0.004896 0.002006 0.034556 -0.006642 0.003613
# 5 -0.000716 0.005302 -0.003557 -0.006642 0.010403 0.001002
# 6 0.001258 0.000066 -0.001154 0.003613 0.001002 0.023048
#
#
# Mechanical properties :
#
#
# Convention : Reuss Voigt Hill
#
# Bulk Modulus (GPa) = 46.89153 97.02552 71.95853
# Shear Modulus (GPa) = 41.08674 72.95135 57.01904
#
# Velocity S-wave (km/s) = 3.96529 5.28373 4.67126
# Velocity P-wave (km/s) = 6.23776 8.62291 7.52543
#
# Compressibility (1/GPa) = 0.02132581
#
# Stress axis : x y z
#
# Youngs Moduli (GPa) = 203.33073 44.45796 152.88459
#
# Poissons Ratio (x) = 0.08724 0.30321
# Poissons Ratio (y) = 0.39901 0.36196
# Poissons Ratio (z) = 0.40326 0.10526
#
# Static dielectric constant tensor:
#      x y z
#    x 2.107280 -0.037300 0.005020 
#    y -0.037300 2.161950 0.065460 
#    z 0.005020 0.065460 2.071130 
# 
# From -- ./inp_files/512744.got.cif
#   From: 2010.05.17/outbox.cif.g08.bks.cpg/sg2_257_cif.got.tgz:512744.got - 2010.06.03 11:33:40.
