data_PCOD9057208
_publ_section_title
;
Structure prediction by ZEFSAII (Michael W. Deem and Ramdas Pophale) SiO2 
 PCOD9057208
Probable space group: P -1
;
_chemical_formula_sum "Si O2"
_cell_formula_units_Z 16
_cell_length_a 10.756031
_cell_length_b 16.623348
_cell_length_c 8.315961
_cell_angle_alpha 138.645761
_cell_angle_beta 134.171719
_cell_angle_gamma 41.987484
_cell_volume 623.925821
_symmetry_space_group_name_H-M "P -1"
_symmetry_group_IT_number 2
_symmetry_cell_setting 'triclinic'
loop_
_space_group_symop_operation_xyz
x,y,z
-x,-y,-z
loop_
_atom_site_type_symbol
_atom_site_label
_atom_site_fract_x
_atom_site_fract_y
_atom_site_fract_z
Si Si1 0.794069 0.674202 0.303051
Si Si2 0.040544 0.895717 0.734437
Si Si3 0.317312 0.961219 0.855154
Si Si4 0.801077 0.414932 0.615127
Si Si5 0.414601 0.348369 0.456164
Si Si6 0.294881 0.556674 0.051968
Si Si7 0.111638 0.262886 0.180136
Si Si8 0.619323 0.923523 0.334948
O O1 0.830572 0.755898 0.606890
O O2 0.667323 0.768807 0.186397
O O3 0.001798 0.585410 0.273259
O O4 0.687894 0.593777 0.160807
O O5 0.162939 0.933058 0.774842
O O6 0.167951 0.733284 0.645821
O O7 0.827644 0.922827 0.517956
O O8 0.000000 0.000000 0.000000
O O9 0.434789 0.815192 0.652241
O O10 0.485083 0.970966 0.130170
O O11 0.188053 0.122104 0.936740
O O12 0.631963 0.556795 0.604221
O O13 0.783924 0.401848 0.771081
O O14 0.518187 0.419076 0.759515
O O15 0.214372 0.350594 0.335501
O O16 0.119726 0.652058 0.920210
O O17 0.500000 0.000000 0.500000
#
# Coordination Sequence:
#
# PCOD9057208 Si02
#       8
#     2   2   2   2   2   2   2   2
#     4  11  24  47  74 103 145 184 235 299 356 414
#     4  11  23  41  72 108 142 177 234 301 350 408
#     4  12  25  47  69 104 147 184 240 290 351 428
#     4  11  24  48  75 107 140 181 246 299 343 418
#     4  12  28  45  74 105 140 191 242 288 352 427
#     4  12  26  45  73 105 140 188 234 294 359 415
#     4  12  28  49  67 104 152 187 233 295 357 427
#     4  11  22  41  73 105 134 183 236 289 353 405
#
# _framework density 25.644075000000001
#
# number of rings (size 3 to 8) (size 9 to 14) (size 15 to 20)
#    0.000    0.500    5.000    3.000    5.250    2.000 
#    0.000    0.000    0.000    0.000    0.000    0.000 
#    0.000    0.000    0.000    0.000    0.000    0.000 
#
# Total GULP energy -89498.071269 kJ/mol
# GULP energy per Si atom -5593.629454 kJ/mol
# Density = 2.558571 g / cm^3
# Si number density = 25.644075 Si / 1000 Ang^3
#
#
#
# Elastic Constant Matrix: (Units=GPa)
#
#
# Indices 1 2 3 4 5 6 
#
# 1 86.5940 -5.3009 7.0014 7.3181 25.1614 2.9914
# 2 -5.3009 91.0002 33.6659 3.8064 21.5811 6.8938
# 3 7.0014 33.6659 119.1854 23.7103 13.0432 5.0171
# 4 7.3181 3.8064 23.7103 32.1743 -1.1814 7.2612
# 5 25.1614 21.5811 13.0432 -1.1814 54.1347 2.6997
# 6 2.9914 6.8938 5.0171 7.2612 2.6997 31.4286
#
#
#
# Elastic Compliance Matrix: (Units=1/GPa)
#
#
# Indices 1 2 3 4 5 6 
#
# 1 0.014354 0.002910 -0.000033 -0.003773 -0.007884 -0.000450
# 2 0.002910 0.014025 -0.003493 0.000579 -0.005969 -0.002417
# 3 -0.000033 -0.003493 0.011099 -0.008035 -0.001491 0.000982
# 4 -0.003773 0.000579 -0.008035 0.039790 0.004730 -0.008084
# 5 -0.007884 -0.005969 -0.001491 0.004730 0.025026 -0.000945
# 6 -0.000450 -0.002417 0.000982 -0.008084 -0.000945 0.034183
#
#
# Mechanical properties :
#
#
# Convention : Reuss Voigt Hill
#
# Bulk Modulus (GPa) = 26.14614 40.83471 33.49042
# Shear Modulus (GPa) = 32.79600 40.97508 36.88554
#
# Velocity S-wave (km/s) = 3.58004 4.00163 3.79669
# Velocity P-wave (km/s) = 5.22559 6.10811 5.68400
#
# Compressibility (1/GPa) = 0.03824657
#
# Stress axis : x y z
#
# Youngs Moduli (GPa) = 69.66671 71.30068 90.09771
#
# Poissons Ratio (x) = -0.20748 0.00297
# Poissons Ratio (y) = -0.20272 0.31469
# Poissons Ratio (z) = 0.00229 0.24904
#
# Static dielectric constant tensor:
#      x y z
#    x 1.926490 -0.156070 -0.099740 
#    y -0.156070 1.865440 -0.017520 
#    z -0.099740 -0.017520 2.035490 
# 
# From -- ./inp_files/280186.got.cif
#   From: 2010.05.17/outbox.cif.g08.bks.cpg/sg2_141_cif.got.tgz:280186.got - 2010.06.03 11:33:40.
