data_PCOD9057942
_publ_section_title
;
Structure prediction by ZEFSAII (Michael W. Deem and Ramdas Pophale) SiO2 
 PCOD9057942
Probable space group: P -1
;
_chemical_formula_sum "Si O2"
_cell_formula_units_Z 12
_cell_length_a 12.241507
_cell_length_b 6.911669
_cell_length_c 8.620600
_cell_angle_alpha 99.197362
_cell_angle_beta 80.409694
_cell_angle_gamma 49.986138
_cell_volume 515.255288
_symmetry_space_group_name_H-M "P -1"
_symmetry_group_IT_number 2
_symmetry_cell_setting 'triclinic'
loop_
_space_group_symop_operation_xyz
x,y,z
-x,-y,-z
loop_
_atom_site_type_symbol
_atom_site_label
_atom_site_fract_x
_atom_site_fract_y
_atom_site_fract_z
Si Si1 0.427085 0.609651 0.257850
Si Si2 0.904115 0.318793 0.087038
Si Si3 0.082455 0.436926 0.187162
Si Si4 0.158393 0.690569 0.418189
Si Si5 0.584889 0.102649 0.997547
Si Si6 0.393841 0.321477 0.598157
O O1 0.262668 0.708884 0.291915
O O2 0.449386 0.731036 0.125944
O O3 0.475851 0.675159 0.401604
O O4 0.536449 0.290519 0.177801
O O5 0.724718 0.523677 0.204527
O O6 0.963449 0.404553 0.212559
O O7 0.940165 0.383637 0.924916
O O8 0.000000 0.000000 0.000000
O O9 0.115064 0.531032 0.340162
O O10 0.238166 0.143216 0.070469
O O11 0.274078 0.517304 0.513461
O O12 0.000000 0.000000 0.500000
O O13 0.500000 0.000000 0.000000
O O14 0.500000 0.000000 0.500000
#
# Coordination Sequence:
#
# PCOD9057942 Si02
#       6
#     2   2   2   2   2   2
#     4  11  26  45  74 106 150 191 240 308 370 437
#     4  11  26  48  74 106 146 194 250 307 371 431
#     4  11  25  44  76 104 140 191 255 304 355 447
#     4  12  28  47  73 109 153 196 244 300 375 443
#     4  11  22  43  76 107 135 186 254 305 358 431
#     4  12  28  48  74 109 153 196 244 304 377 441
#
# _framework density 23.289425999999999
#
# number of rings (size 3 to 8) (size 9 to 14) (size 15 to 20)
#    0.000    0.667    1.667    4.500   11.667    2.000 
#    0.000    0.000    0.000    0.000    0.000    0.000 
#    0.000    0.000    0.000    0.000    0.000    0.000 
#
# Total GULP energy -66957.677057 kJ/mol
# GULP energy per Si atom -5579.806421 kJ/mol
# Density = 2.323642 g / cm^3
# Si number density = 23.289426 Si / 1000 Ang^3
#
#
#
# Elastic Constant Matrix: (Units=GPa)
#
#
# Indices 1 2 3 4 5 6 
#
# 1 115.1209 41.6639 7.7718 11.8399 14.6787 14.9556
# 2 41.6639 154.9613 35.2794 31.1211 7.3592 3.3206
# 3 7.7718 35.2794 41.9042 11.9467 3.1703 10.5824
# 4 11.8399 31.1211 11.9467 47.7090 -5.0281 -3.6100
# 5 14.6787 7.3592 3.1703 -5.0281 46.2637 6.9084
# 6 14.9556 3.3206 10.5824 -3.6100 6.9084 43.0218
#
#
#
# Elastic Compliance Matrix: (Units=1/GPa)
#
#
# Indices 1 2 3 4 5 6 
#
# 1 0.010549 -0.002697 0.001996 -0.001923 -0.002715 -0.003675
# 2 -0.002697 0.009483 -0.006767 -0.003784 -0.000853 0.001689
# 3 0.001996 -0.006767 0.032867 -0.005070 -0.001090 -0.008506
# 4 -0.001923 -0.003784 -0.005070 0.025862 0.003808 0.003766
# 5 -0.002715 -0.000853 -0.001090 0.003808 0.023424 -0.002164
# 6 -0.003675 0.001689 -0.008506 0.003766 -0.002164 0.027147
#
#
# Mechanical properties :
#
#
# Convention : Reuss Voigt Hill
#
# Bulk Modulus (GPa) = 26.34137 53.49073 39.91605
# Shear Modulus (GPa) = 31.86266 42.55032 37.20649
#
# Velocity S-wave (km/s) = 3.70282 4.27901 4.00130
# Velocity P-wave (km/s) = 5.44207 6.88701 6.20673
#
# Compressibility (1/GPa) = 0.03796309
#
# Stress axis : x y z
#
# Youngs Moduli (GPa) = 94.79370 105.44915 30.42555
#
# Poissons Ratio (x) = 0.28438 -0.06072
# Poissons Ratio (y) = 0.25564 0.20589
# Poissons Ratio (z) = -0.18918 0.71359
#
# Static dielectric constant tensor:
#      x y z
#    x 2.219280 0.173960 -0.132350 
#    y 0.173960 2.103510 -0.154620 
#    z -0.132350 -0.154620 2.077840 
# 
# From -- ./inp_files/228588.got.cif
#   From: 2010.05.17/outbox.cif.g08.bks.cpg/sg2_115_cif.got.tgz:228588.got - 2010.06.03 11:33:40.
