data_PCOD9057887
_publ_section_title
;
Structure prediction by ZEFSAII (Michael W. Deem and Ramdas Pophale) SiO2 
 PCOD9057887
Probable space group: P -1
;
_chemical_formula_sum "Si O2"
_cell_formula_units_Z 14
_cell_length_a 9.027603
_cell_length_b 7.896292
_cell_length_c 11.625752
_cell_angle_alpha 105.765766
_cell_angle_beta 119.021864
_cell_angle_gamma 52.214360
_cell_volume 572.326470
_symmetry_space_group_name_H-M "P -1"
_symmetry_group_IT_number 2
_symmetry_cell_setting 'triclinic'
loop_
_space_group_symop_operation_xyz
x,y,z
-x,-y,-z
loop_
_atom_site_type_symbol
_atom_site_label
_atom_site_fract_x
_atom_site_fract_y
_atom_site_fract_z
Si Si1 0.536166 0.766596 0.973749
Si Si2 0.013708 0.424342 0.139468
Si Si3 0.627110 0.012440 0.446317
Si Si4 0.126320 0.832380 0.336024
Si Si5 0.050266 0.383378 0.619000
Si Si6 0.862272 0.978312 0.031806
Si Si7 0.603149 0.582185 0.728849
O O1 0.488434 0.695731 0.823422
O O2 0.367334 0.808571 0.009907
O O3 0.772819 0.588234 0.054952
O O4 0.500000 0.000000 0.000000
O O5 0.007956 0.430451 0.276441
O O6 0.157553 0.504273 0.179162
O O7 0.126702 0.214459 0.064950
O O8 0.826533 0.003889 0.564569
O O9 0.488799 0.237135 0.368944
O O10 0.500000 0.000000 0.500000
O O11 0.713985 0.821863 0.349667
O O12 0.353821 0.640249 0.336218
O O13 0.062337 0.725796 0.390204
O O14 0.958857 0.934953 0.188410
O O15 0.000000 0.500000 0.500000
O O16 0.000000 0.000000 0.000000
#
# Coordination Sequence:
#
# PCOD9057887 Si02
#       7
#     2   2   2   2   2   2   2
#     4  12  22  42  75 105 141 194 240 297 376 439
#     4  11  24  46  72 108 151 182 249 303 366 445
#     4  12  26  45  72 106 145 199 251 303 369 437
#     4  11  25  48  73 104 152 192 247 311 364 441
#     4  11  26  46  73 106 147 199 244 306 368 440
#     4  12  28  45  73 112 152 193 242 309 371 441
#     4  11  22  43  73 109 143 190 250 306 364 439
#
# _framework density 24.461563000000002
#
# number of rings (size 3 to 8) (size 9 to 14) (size 15 to 20)
#    0.000    0.571    2.857    6.429    4.000    0.571 
#    2.571    0.000    0.000    0.000    0.000    0.000 
#    0.000    0.000    0.000    0.000    0.000    0.000 
#
# Total GULP energy -78129.978309 kJ/mol
# GULP energy per Si atom -5580.712736 kJ/mol
# Density = 2.440589 g / cm^3
# Si number density = 24.461563 Si / 1000 Ang^3
#
#
#
# Elastic Constant Matrix: (Units=GPa)
#
#
# Indices 1 2 3 4 5 6 
#
# 1 114.0227 14.8419 40.1966 9.2987 -25.6696 -24.2911
# 2 14.8419 82.9576 22.4191 14.1476 -9.0580 -41.7833
# 3 40.1966 22.4191 114.4704 14.7627 -25.4541 -10.8847
# 4 9.2987 14.1476 14.7627 32.7040 -9.2071 -10.6223
# 5 -25.6696 -9.0580 -25.4541 -9.2071 36.0366 8.3873
# 6 -24.2911 -41.7833 -10.8847 -10.6223 8.3873 50.6989
#
#
#
# Elastic Compliance Matrix: (Units=1/GPa)
#
#
# Indices 1 2 3 4 5 6 
#
# 1 0.012076 0.002283 -0.002867 0.000531 0.005844 0.006196
# 2 0.002283 0.022018 -0.003002 -0.002956 0.000105 0.017958
# 3 -0.002867 -0.003002 0.011589 -0.002500 0.005396 -0.002776
# 4 0.000531 -0.002956 -0.002500 0.035784 0.006136 0.003763
# 5 0.005844 0.000105 0.005396 0.006136 0.037522 -0.000877
# 6 0.006196 0.017958 -0.002776 0.003763 -0.000877 0.037831
#
#
# Mechanical properties :
#
#
# Convention : Reuss Voigt Hill
#
# Bulk Modulus (GPa) = 25.96675 51.81843 38.89259
# Shear Modulus (GPa) = 28.27585 39.48742 33.88164
#
# Velocity S-wave (km/s) = 3.40359 4.02215 3.72573
# Velocity P-wave (km/s) = 5.10727 6.54216 5.86873
#
# Compressibility (1/GPa) = 0.03851079
#
# Stress axis : x y z
#
# Youngs Moduli (GPa) = 82.80668 45.41747 86.28852
#
# Poissons Ratio (x) = -0.10368 0.24743
# Poissons Ratio (y) = -0.18903 0.25900
# Poissons Ratio (z) = 0.23745 0.13632
#
# Static dielectric constant tensor:
#      x y z
#    x 2.146950 0.371030 0.154700 
#    y 0.371030 2.686310 0.322090 
#    z 0.154700 0.322090 2.237410 
# 
# From -- ./inp_files/383012.got.cif
#   From: 2010.05.17/outbox.cif.g08.bks.cpg/sg2_192_cif.got.tgz:383012.got - 2010.06.03 11:33:40.
