data_PCOD9057602
_publ_section_title
;
Structure prediction by ZEFSAII (Michael W. Deem and Ramdas Pophale) SiO2 
 PCOD9057602
Probable space group: P -1
;
_chemical_formula_sum "Si O2"
_cell_formula_units_Z 14
_cell_length_a 9.923241
_cell_length_b 9.124067
_cell_length_c 20.857063
_cell_angle_alpha 146.090689
_cell_angle_beta 46.192169
_cell_angle_gamma 116.032014
_cell_volume 715.834210
_symmetry_space_group_name_H-M "P -1"
_symmetry_group_IT_number 2
_symmetry_cell_setting 'triclinic'
loop_
_space_group_symop_operation_xyz
x,y,z
-x,-y,-z
loop_
_atom_site_type_symbol
_atom_site_label
_atom_site_fract_x
_atom_site_fract_y
_atom_site_fract_z
Si Si1 0.225025 0.294451 0.357243
Si Si2 0.867240 0.269478 0.815522
Si Si3 0.698281 0.722325 0.128577
Si Si4 0.372088 0.308507 0.453436
Si Si5 0.054446 0.835124 0.111071
Si Si6 0.017527 0.704427 0.356348
Si Si7 0.301186 0.236804 0.171126
O O1 0.315602 0.362154 0.416840
O O2 0.322500 0.326623 0.269446
O O3 0.000000 0.500000 0.500000
O O4 0.227282 0.975562 0.246625
O O5 0.010251 0.181433 0.799240
O O6 0.966789 0.288881 0.722888
O O7 0.715065 0.567144 0.998085
O O8 0.882871 0.834492 0.119245
O O9 0.502587 0.980527 0.297777
O O10 0.758121 0.455391 0.060148
O O11 0.500000 0.500000 0.500000
O O12 0.173082 0.365321 0.581013
O O13 0.132673 0.090053 0.173481
O O14 0.219622 0.487388 0.239619
O O15 0.000000 0.000000 0.500000
O O16 0.500000 0.000000 0.000000
#
# Coordination Sequence:
#
# PCOD9057602 Si02
#       7
#     2   2   2   2   2   2   2
#     4  11  22  43  64  89 128 178 211 260 331 386
#     4   9  20  39  69  86 119 172 215 263 312 379
#     4   9  20  40  69  87 125 170 221 252 329 384
#     4  12  26  41  65  98 135 172 211 269 334 390
#     4   8  19  41  65  90 125 169 212 264 322 379
#     4  12  24  42  62  99 134 163 219 278 320 373
#     4  11  24  38  65  92 127 165 224 265 311 389
#
# _framework density 19.557600999999998
#
# number of rings (size 3 to 8) (size 9 to 14) (size 15 to 20)
#    0.857    0.857    2.857    0.857    6.000    0.571 
#    2.571    2.143    0.000    0.000    0.000    0.000 
#    0.000    0.000    0.000    0.000    0.000    0.000 
#
# Total GULP energy -78042.175493 kJ/mol
# GULP energy per Si atom -5574.441107 kJ/mol
# Density = 1.951309 g / cm^3
# Si number density = 19.557601 Si / 1000 Ang^3
#
#
#
# Elastic Constant Matrix: (Units=GPa)
#
#
# Indices 1 2 3 4 5 6 
#
# 1 110.8414 31.4086 39.0181 2.3586 14.0607 -5.7882
# 2 31.4086 58.6228 27.1661 -0.2639 7.5311 -8.3529
# 3 39.0181 27.1661 120.8647 -0.6183 -6.7839 -20.8972
# 4 2.3586 -0.2639 -0.6183 29.8370 -6.0052 4.5382
# 5 14.0607 7.5311 -6.7839 -6.0052 35.6061 5.7598
# 6 -5.7882 -8.3529 -20.8972 4.5382 5.7598 24.7607
#
#
#
# Elastic Compliance Matrix: (Units=1/GPa)
#
#
# Indices 1 2 3 4 5 6 
#
# 1 0.012027 -0.004349 -0.003155 -0.002048 -0.004804 0.000175
# 2 -0.004349 0.022067 -0.002909 -0.001240 -0.004565 0.005262
# 3 -0.003155 -0.002909 0.011352 -0.000065 0.002846 0.007212
# 4 -0.002048 -0.001240 -0.000065 0.036939 0.008872 -0.009786
# 5 -0.004804 -0.004565 0.002846 0.008872 0.034593 -0.009934
# 6 0.000175 0.005262 0.007212 -0.009786 -0.009934 0.052394
#
#
# Mechanical properties :
#
#
# Convention : Reuss Voigt Hill
#
# Bulk Modulus (GPa) = 40.61599 53.94605 47.28102
# Shear Modulus (GPa) = 25.20108 30.88983 28.04545
#
# Velocity S-wave (km/s) = 3.59354 3.97851 3.79092
# Velocity P-wave (km/s) = 6.16689 6.98196 6.58704
#
# Compressibility (1/GPa) = 0.02462084
#
# Stress axis : x y z
#
# Youngs Moduli (GPa) = 83.14611 45.31729 88.08706
#
# Poissons Ratio (x) = 0.19708 0.27792
# Poissons Ratio (y) = 0.36159 0.25622
# Poissons Ratio (z) = 0.26233 0.13181
#
# Static dielectric constant tensor:
#      x y z
#    x 1.680990 0.001870 -0.025450 
#    y 0.001870 1.702310 0.014960 
#    z -0.025450 0.014960 1.702450 
# 
# From -- ./inp_files/586955.got.cif
#   From: 2010.05.17/outbox.cif.g08.bks.cpg/sg2_294_cif.got.tgz:586955.got - 2010.06.03 11:33:40.
