data_PCOD9057333
_publ_section_title
;
Structure prediction by ZEFSAII (Michael W. Deem and Ramdas Pophale) SiO2 
 PCOD9057333
Probable space group: P -1
;
_chemical_formula_sum "Si O2"
_cell_formula_units_Z 16
_cell_length_a 25.667183
_cell_length_b 8.142522
_cell_length_c 14.401185
_cell_angle_alpha 57.115250
_cell_angle_beta 19.073482
_cell_angle_gamma 49.436070
_cell_volume 715.383669
_symmetry_space_group_name_H-M "P -1"
_symmetry_group_IT_number 2
_symmetry_cell_setting 'triclinic'
loop_
_space_group_symop_operation_xyz
x,y,z
-x,-y,-z
loop_
_atom_site_type_symbol
_atom_site_label
_atom_site_fract_x
_atom_site_fract_y
_atom_site_fract_z
Si Si1 0.068518 0.525078 0.617260
Si Si2 0.085294 0.789725 0.686946
Si Si3 0.369168 0.050078 0.292737
Si Si4 0.706265 0.210045 0.162439
Si Si5 0.812345 0.227586 0.276350
Si Si6 0.696294 0.581375 0.196538
Si Si7 0.203941 0.791182 0.202019
Si Si8 0.406095 0.764122 0.048435
O O1 0.079905 0.627977 0.665784
O O2 0.167142 0.257369 0.544666
O O3 0.186657 0.576873 0.329118
O O4 0.859599 0.637180 0.900295
O O5 0.157827 0.695367 0.695932
O O6 0.220309 0.873871 0.390582
O O7 0.879368 0.994247 0.980838
O O8 0.343208 0.844075 0.429670
O O9 0.459897 0.139354 0.187042
O O10 0.500000 0.000000 0.000000
O O11 0.700159 0.428415 0.151408
O O12 0.512975 0.221914 0.502421
O O13 0.741436 0.209093 0.994628
O O14 0.747766 0.422497 0.249755
O O15 0.000000 0.000000 0.000000
O O16 0.344841 0.797598 0.035324
O O17 0.000000 0.000000 0.500000
O O18 0.500000 0.500000 0.000000
#
# Coordination Sequence:
#
# PCOD9057333 Si02
#       8
#     2   2   2   2   2   2   2   2
#     4  11  24  44  68 101 132 174 228 278 341 393
#     4  11  22  43  70  94 137 171 218 289 326 395
#     4  12  24  40  70 103 133 174 220 279 339 395
#     4  11  24  47  66  92 141 181 219 277 337 395
#     4  12  24  45  69  94 135 179 222 274 336 395
#     4  11  27  46  65  97 140 181 227 273 329 413
#     4  11  23  44  71  98 132 175 219 283 341 387
#     4  11  22  42  68 101 134 164 221 285 332 390
#
# _framework density 22.365621000000001
#
# number of rings (size 3 to 8) (size 9 to 14) (size 15 to 20)
#    0.000    0.750    8.750    0.000    3.500    1.500 
#    6.750    0.000    0.000    0.000    0.000    0.000 
#    0.000    0.000    0.000    0.000    0.000    0.000 
#
# Total GULP energy -89547.335748 kJ/mol
# GULP energy per Si atom -5596.708484 kJ/mol
# Density = 2.231472 g / cm^3
# Si number density = 22.365621 Si / 1000 Ang^3
#
#
#
# Elastic Constant Matrix: (Units=GPa)
#
#
# Indices 1 2 3 4 5 6 
#
# 1 138.3772 -3.5297 27.5229 -1.5592 -8.9865 3.1156
# 2 -3.5297 28.2029 3.9319 1.3641 -8.3231 -2.1003
# 3 27.5229 3.9319 118.4508 5.7778 -21.7975 12.7865
# 4 -1.5592 1.3641 5.7778 31.0148 2.2208 -7.4252
# 5 -8.9865 -8.3231 -21.7975 2.2208 39.0742 -1.4387
# 6 3.1156 -2.1003 12.7865 -7.4252 -1.4387 24.0446
#
#
#
# Elastic Compliance Matrix: (Units=1/GPa)
#
#
# Indices 1 2 3 4 5 6 
#
# 1 0.007675 0.001519 -0.001690 0.000625 0.001121 0.000297
# 2 0.001519 0.038547 -0.000366 -0.001334 0.008559 0.003465
# 3 -0.001690 -0.000366 0.010754 -0.004009 0.005523 -0.006440
# 4 0.000625 -0.001334 -0.004009 0.036466 -0.003973 0.012958
# 5 0.001121 0.008559 0.005523 -0.003973 0.030917 -0.001712
# 6 0.000297 0.003465 -0.006440 0.012958 -0.001712 0.049177
#
#
# Mechanical properties :
#
#
# Convention : Reuss Voigt Hill
#
# Bulk Modulus (GPa) = 17.88866 37.87569 27.88218
# Shear Modulus (GPa) = 25.87385 35.96712 30.92048
#
# Velocity S-wave (km/s) = 3.40495 4.01452 3.72223
# Velocity P-wave (km/s) = 4.84499 6.20161 5.56480
#
# Compressibility (1/GPa) = 0.05590133
#
# Stress axis : x y z
#
# Youngs Moduli (GPa) = 130.29915 25.94233 92.98627
#
# Poissons Ratio (x) = -0.03940 0.15713
# Poissons Ratio (y) = -0.19791 0.03407
# Poissons Ratio (z) = 0.22018 0.00951
#
# Static dielectric constant tensor:
#      x y z
#    x 1.817840 0.023370 -0.014290 
#    y 0.023370 1.872100 -0.000520 
#    z -0.014290 -0.000520 1.861010 
# 
# From -- ./inp_files/543830.got.cif
#   From: 2010.05.17/outbox.cif.g08.bks.cpg/sg2_272_cif.got.tgz:543830.got - 2010.06.03 11:33:40.
