data_PCOD9057561
_publ_section_title
;
Structure prediction by ZEFSAII (Michael W. Deem and Ramdas Pophale) SiO2 
 PCOD9057561
Probable space group: P -1
;
_chemical_formula_sum "Si O2"
_cell_formula_units_Z 15
_cell_length_a 12.798934
_cell_length_b 19.933190
_cell_length_c 19.498806
_cell_angle_alpha 26.630703
_cell_angle_beta 18.502587
_cell_angle_gamma 34.775671
_cell_volume 695.409357
_symmetry_space_group_name_H-M "P -1"
_symmetry_group_IT_number 2
_symmetry_cell_setting 'triclinic'
loop_
_space_group_symop_operation_xyz
x,y,z
-x,-y,-z
loop_
_atom_site_type_symbol
_atom_site_label
_atom_site_fract_x
_atom_site_fract_y
_atom_site_fract_z
Si Si1 0.698595 0.070244 0.154405
Si Si2 0.968734 0.937554 0.499958
Si Si3 0.287579 0.699403 0.824753
Si Si4 0.660014 0.795235 0.049168
Si Si5 0.642973 0.507250 0.248432
Si Si6 0.500000 0.000000 0.500000
Si Si7 0.856052 0.630882 0.431599
Si Si8 0.877538 0.369487 0.361093
O O1 0.366709 0.023116 0.359416
O O2 0.620308 0.029310 0.319042
O O3 0.829461 0.247919 0.899589
O O4 0.000000 0.000000 0.000000
O O5 0.956201 0.757456 0.665222
O O6 0.000000 0.000000 0.500000
O O7 0.272977 0.033978 0.177362
O O8 0.396198 0.811040 0.718948
O O9 0.601952 0.696982 0.580529
O O10 0.987409 0.766935 0.912923
O O11 0.124372 0.518774 0.100043
O O12 0.625630 0.682919 0.108433
O O13 0.342491 0.727646 0.354739
O O14 0.359809 0.426700 0.448193
O O15 0.645739 0.432070 0.390952
O O16 0.000000 0.500000 0.000000
O O17 0.000000 0.500000 0.500000
#
# Coordination Sequence:
#
# PCOD9057561 Si02
#       8
#     2   2   2   2   2   1   2   2
#     4  12  28  50  76 108 152 208 247 308 386 452
#     4  12  27  47  74 108 150 189 253 315 366 449
#     4  11  23  48  71 103 146 192 249 306 361 459
#     4  11  23  44  71 104 143 188 251 300 372 437
#     4  11  22  42  74  97 135 196 238 298 362 439
#     4  12  26  48  76 106 150 200 256 304 368 458
#     4  12  26  46  71 110 150 193 254 307 379 455
#     4  11  25  43  73 106 144 187 250 308 370 437
#
# _framework density 21.570029999999999
#
# number of rings (size 3 to 8) (size 9 to 14) (size 15 to 20)
#    0.000    0.533    5.333    3.600    7.467    0.000 
#    4.800    1.333    0.000    0.000    0.000    0.000 
#    0.000    0.000    0.000    0.000    0.000    0.000 
#
# Total GULP energy -83574.285781 kJ/mol
# GULP energy per Si atom -5571.619052 kJ/mol
# Density = 2.152094 g / cm^3
# Si number density = 21.570030 Si / 1000 Ang^3
#
#
#
# Elastic Constant Matrix: (Units=GPa)
#
#
# Indices 1 2 3 4 5 6 
#
# 1 111.2265 47.5888 64.5645 -3.9787 8.3994 30.0251
# 2 47.5888 107.4863 31.6492 -29.4595 -4.4187 26.1923
# 3 64.5645 31.6492 145.4670 -22.7409 18.1440 9.8147
# 4 -3.9787 -29.4595 -22.7409 41.1090 0.5644 4.3482
# 5 8.3994 -4.4187 18.1440 0.5644 34.8107 -11.5683
# 6 30.0251 26.1923 9.8147 4.3482 -11.5683 34.2580
#
#
#
# Elastic Compliance Matrix: (Units=1/GPa)
#
#
# Indices 1 2 3 4 5 6 
#
# 1 0.017944 -0.004356 -0.005996 -0.003333 -0.005757 -0.012199
# 2 -0.004356 0.017790 0.001412 0.014473 -0.001867 -0.012656
# 3 -0.005996 0.001412 0.010949 0.006698 -0.004648 -0.001381
# 4 -0.003333 0.014473 0.006698 0.040046 -0.007358 -0.017631
# 5 -0.005757 -0.001867 -0.004648 -0.007358 0.039790 0.022175
# 6 -0.012199 -0.012656 -0.001381 -0.017631 0.022175 0.059680
#
#
# Mechanical properties :
#
#
# Convention : Reuss Voigt Hill
#
# Bulk Modulus (GPa) = 34.71992 72.42052 53.57022
# Shear Modulus (GPa) = 23.39946 36.72737 30.06341
#
# Velocity S-wave (km/s) = 3.29722 4.13086 3.73736
# Velocity P-wave (km/s) = 5.53416 7.50996 6.59645
#
# Compressibility (1/GPa) = 0.02880191
#
# Stress axis : x y z
#
# Youngs Moduli (GPa) = 55.72903 56.21054 91.33592
#
# Poissons Ratio (x) = 0.24487 0.54768
# Poissons Ratio (y) = 0.24277 -0.12899
# Poissons Ratio (z) = 0.33417 -0.07938
#
# Static dielectric constant tensor:
#      x y z
#    x 1.766430 -0.003610 0.012790 
#    y -0.003610 1.826310 -0.043690 
#    z 0.012790 -0.043690 1.813940 
# 
# From -- ./inp_files/263306.got.cif
#   From: 2010.05.17/outbox.cif.g08.bks.cpg/sg2_132_cif.got.tgz:263306.got - 2010.06.03 11:33:40.
