data_PCOD9057736
_publ_section_title
;
Structure prediction by ZEFSAII (Michael W. Deem and Ramdas Pophale) SiO2 
 PCOD9057736
Probable space group: P -1
;
_chemical_formula_sum "Si O2"
_cell_formula_units_Z 16
_cell_length_a 29.260327
_cell_length_b 16.242798
_cell_length_c 19.168017
_cell_angle_alpha 161.842215
_cell_angle_beta 161.941574
_cell_angle_gamma 17.517358
_cell_volume 751.726112
_symmetry_space_group_name_H-M "P -1"
_symmetry_group_IT_number 2
_symmetry_cell_setting 'triclinic'
loop_
_space_group_symop_operation_xyz
x,y,z
-x,-y,-z
loop_
_atom_site_type_symbol
_atom_site_label
_atom_site_fract_x
_atom_site_fract_y
_atom_site_fract_z
Si Si1 0.103847 0.598658 0.082626
Si Si2 0.085167 0.177017 0.814004
Si Si3 0.673570 0.690454 0.082425
Si Si4 0.616354 0.611163 0.792326
Si Si5 0.984331 0.758143 0.527857
Si Si6 0.406551 0.589584 0.862565
Si Si7 0.216758 0.264606 0.350351
Si Si8 0.710710 0.380899 0.034888
O O1 0.204839 0.530382 0.102001
O O2 0.103067 0.893901 0.349771
O O3 0.175548 0.283953 0.974912
O O4 0.906442 0.711248 0.871582
O O5 0.226128 0.909438 0.851999
O O6 0.000000 0.000000 0.500000
O O7 0.000000 0.500000 0.000000
O O8 0.832186 0.724969 0.313775
O O9 0.706058 0.535837 0.079895
O O10 0.496036 0.020900 0.086472
O O11 0.650986 0.506568 0.838388
O O12 0.500000 0.500000 0.500000
O O13 0.096716 0.522885 0.440710
O O14 0.120023 0.701789 0.740923
O O15 0.354090 0.333326 0.571846
O O16 0.500000 0.500000 0.000000
O O17 0.539879 0.585546 0.997631
O O18 0.286659 0.938589 0.226582
#
# Coordination Sequence:
#
# PCOD9057736 Si02
#       8
#     2   2   2   2   2   2   2   2
#     4  11  23  44  70  99 140 185 242 294 372 434
#     4  12  28  48  78 114 148 196 255 311 368 456
#     4  11  24  43  66 101 135 176 241 291 363 438
#     4  11  23  43  66  95 134 183 226 298 362 431
#     4  11  22  43  70 100 138 184 229 294 365 441
#     4  12  25  49  72 105 147 191 249 304 375 440
#     4  11  23  43  71  95 138 190 232 296 367 439
#     4  11  26  42  69 103 135 184 233 300 362 439
#
# _framework density 21.284347
#
# number of rings (size 3 to 8) (size 9 to 14) (size 15 to 20)
#    0.000    0.750    5.000    2.250    1.750    2.500 
#    4.500    0.000    0.000    0.000    0.000    0.000 
#    0.000    0.000    0.000    0.000    0.000    0.000 
#
# Total GULP energy -89182.660191 kJ/mol
# GULP energy per Si atom -5573.916262 kJ/mol
# Density = 2.123590 g / cm^3
# Si number density = 21.284347 Si / 1000 Ang^3
#
#
#
# Elastic Constant Matrix: (Units=GPa)
#
#
# Indices 1 2 3 4 5 6 
#
# 1 85.8268 18.5911 34.2262 4.6928 -0.8390 6.6749
# 2 18.5911 97.2632 25.0288 9.4005 -6.3041 5.9676
# 3 34.2262 25.0288 103.3501 -10.8620 3.3597 8.0171
# 4 4.6928 9.4005 -10.8620 37.9255 -1.8169 2.3649
# 5 -0.8390 -6.3041 3.3597 -1.8169 30.8711 2.1629
# 6 6.6749 5.9676 8.0171 2.3649 2.1629 39.4470
#
#
#
# Elastic Compliance Matrix: (Units=1/GPa)
#
#
# Indices 1 2 3 4 5 6 
#
# 1 0.013952 -0.001132 -0.004556 -0.002653 0.000567 -0.001136
# 2 -0.001132 0.011784 -0.002847 -0.003415 0.002551 -0.000948
# 3 -0.004556 -0.002847 0.012562 0.004884 -0.001676 -0.001552
# 4 -0.002653 -0.003415 0.004884 0.029079 0.000537 -0.001800
# 5 0.000567 0.002551 -0.001676 0.000537 0.033283 -0.001998
# 6 -0.001136 -0.000948 -0.001552 -0.001800 -0.001998 0.026219
#
#
# Mechanical properties :
#
#
# Convention : Reuss Voigt Hill
#
# Bulk Modulus (GPa) = 47.10501 49.12580 48.11540
# Shear Modulus (GPa) = 33.10716 35.55497 34.33107
#
# Velocity S-wave (km/s) = 3.94822 4.09158 4.02054
# Velocity P-wave (km/s) = 6.55469 6.74182 6.64891
#
# Compressibility (1/GPa) = 0.02122917
#
# Stress axis : x y z
#
# Youngs Moduli (GPa) = 71.67377 84.86128 79.60368
#
# Poissons Ratio (x) = 0.09604 0.36264
# Poissons Ratio (y) = 0.08112 0.22666
# Poissons Ratio (z) = 0.32651 0.24163
#
# Static dielectric constant tensor:
#      x y z
#    x 1.783610 -0.046470 -0.040680 
#    y -0.046470 1.704620 0.130390 
#    z -0.040680 0.130390 1.807410 
# 
# From -- ./inp_files/112322.got.cif
#   From: 2010.05.17/outbox.cif.g08.bks.cpg/sg2_57_cif.got.tgz:112322.got - 2010.06.03 11:33:40.
