data_PCOD9057485
_publ_section_title
;
Structure prediction by ZEFSAII (Michael W. Deem and Ramdas Pophale) SiO2 
 PCOD9057485
Probable space group: P -1
;
_chemical_formula_sum "Si O2"
_cell_formula_units_Z 16
_cell_length_a 8.332984
_cell_length_b 11.940424
_cell_length_c 12.091922
_cell_angle_alpha 59.787729
_cell_angle_beta 97.067330
_cell_angle_gamma 49.678358
_cell_volume 580.523098
_symmetry_space_group_name_H-M "P -1"
_symmetry_group_IT_number 2
_symmetry_cell_setting 'triclinic'
loop_
_space_group_symop_operation_xyz
x,y,z
-x,-y,-z
loop_
_atom_site_type_symbol
_atom_site_label
_atom_site_fract_x
_atom_site_fract_y
_atom_site_fract_z
Si Si1 0.681553 0.972532 0.199301
Si Si2 0.431409 0.410182 0.655887
Si Si3 0.914209 0.265092 0.849506
Si Si4 0.816359 0.561791 0.197263
Si Si5 0.941081 0.929173 0.434840
Si Si6 0.771674 0.412409 0.083763
Si Si7 0.340675 0.955859 0.249614
Si Si8 0.649249 0.672301 0.742253
O O1 0.779946 0.036063 0.245477
O O2 0.573247 0.919144 0.286622
O O3 0.929549 0.785595 0.222396
O O4 0.398741 0.194711 0.996022
O O5 0.731414 0.259962 0.806312
O O6 0.267037 0.398602 0.704432
O O7 0.520331 0.279910 0.614629
O O8 0.207843 0.671336 0.537146
O O9 0.681386 0.518827 0.752618
O O10 0.154784 0.086176 0.053697
O O11 0.746413 0.472512 0.177414
O O12 0.131173 0.383114 0.274240
O O13 0.657974 0.058521 0.407053
O O14 0.000000 0.000000 0.500000
O O15 0.500000 0.500000 0.000000
O O16 0.761415 0.544308 0.934990
O O17 0.082145 0.143712 0.221568
#
# Coordination Sequence:
#
# PCOD9057485 Si02
#       8
#     2   2   2   2   2   2   2   2
#     4  12  24  43  77 102 139 188 237 286 352 425
#     4  12  27  44  70 104 152 182 230 294 350 419
#     4  11  22  42  71 109 135 179 233 296 347 407
#     4  12  22  42  75 107 131 186 240 290 351 402
#     4  12  28  50  66  99 148 192 233 287 354 425
#     4  11  23  37  68 110 136 171 232 296 345 404
#     4  11  23  43  70 110 141 174 233 301 348 408
#     4  11  22  44  72  98 143 181 231 292 349 415
#
# _framework density 27.561349
#
# number of rings (size 3 to 8) (size 9 to 14) (size 15 to 20)
#    0.000    0.500    6.250    4.125    1.750    1.500 
#    0.000    0.000    0.000    0.000    0.000    0.000 
#    0.000    0.000    0.000    0.000    0.000    0.000 
#
# Total GULP energy -89284.369604 kJ/mol
# GULP energy per Si atom -5580.273100 kJ/mol
# Density = 2.749862 g / cm^3
# Si number density = 27.561349 Si / 1000 Ang^3
#
#
#
# Elastic Constant Matrix: (Units=GPa)
#
#
# Indices 1 2 3 4 5 6 
#
# 1 105.8807 11.6752 23.8058 -5.9096 10.3526 -8.2557
# 2 11.6752 123.2929 34.4407 -35.0053 -10.0554 10.0638
# 3 23.8058 34.4407 84.5080 -25.2823 6.6366 -3.0941
# 4 -5.9096 -35.0053 -25.2823 58.2480 -8.4575 3.1565
# 5 10.3526 -10.0554 6.6366 -8.4575 20.5107 -6.9585
# 6 -8.2557 10.0638 -3.0941 3.1565 -6.9585 57.1216
#
#
#
# Elastic Compliance Matrix: (Units=1/GPa)
#
#
# Indices 1 2 3 4 5 6 
#
# 1 0.010685 -0.001328 -0.002490 -0.001660 -0.005564 0.001057
# 2 -0.001328 0.012200 -0.003259 0.007350 0.010165 -0.001686
# 3 -0.002490 -0.003259 0.015324 0.003902 -0.003556 0.000396
# 4 -0.001660 0.007350 0.003902 0.025079 0.013144 -0.001108
# 5 -0.005564 0.010165 -0.003556 0.013144 0.064595 0.004355
# 6 0.001057 -0.001686 0.000396 -0.001108 0.004355 0.018569
#
#
# Mechanical properties :
#
#
# Convention : Reuss Voigt Hill
#
# Bulk Modulus (GPa) = 41.56986 50.39168 45.98077
# Shear Modulus (GPa) = 29.65182 43.42671 36.53927
#
# Velocity S-wave (km/s) = 3.28357 3.97374 3.64503
# Velocity P-wave (km/s) = 5.43058 6.27513 5.86807
#
# Compressibility (1/GPa) = 0.02405589
#
# Stress axis : x y z
#
# Youngs Moduli (GPa) = 93.59299 81.96496 65.25695
#
# Poissons Ratio (x) = 0.10881 0.16247
# Poissons Ratio (y) = 0.12425 0.21269
# Poissons Ratio (z) = 0.23301 0.26715
#
# Static dielectric constant tensor:
#      x y z
#    x 2.185850 0.106480 -0.074580 
#    y 0.106480 2.198190 0.031010 
#    z -0.074580 0.031010 2.307370 
# 
# From -- ./inp_files/500295.got.cif
#   From: 2010.05.17/outbox.cif.g08.bks.cpg/sg2_251_cif.got.tgz:500295.got - 2010.06.03 11:33:40.
