data_PCOD9057886
_publ_section_title
;
Structure prediction by ZEFSAII (Michael W. Deem and Ramdas Pophale) SiO2 
 PCOD9057886
Probable space group: P -1
;
_chemical_formula_sum "Si O2"
_cell_formula_units_Z 14
_cell_length_a 21.351691
_cell_length_b 8.707974
_cell_length_c 9.105304
_cell_angle_alpha 74.753667
_cell_angle_beta 132.620827
_cell_angle_gamma 141.941443
_cell_volume 616.869253
_symmetry_space_group_name_H-M "P -1"
_symmetry_group_IT_number 2
_symmetry_cell_setting 'triclinic'
loop_
_space_group_symop_operation_xyz
x,y,z
-x,-y,-z
loop_
_atom_site_type_symbol
_atom_site_label
_atom_site_fract_x
_atom_site_fract_y
_atom_site_fract_z
Si Si1 0.430824 0.390559 0.081305
Si Si2 0.149340 0.455025 0.393545
Si Si3 0.502409 0.867773 0.161606
Si Si4 0.667133 0.312919 0.773507
Si Si5 0.733552 0.663540 0.555620
Si Si6 0.045427 0.681617 0.670059
Si Si7 0.979208 0.644156 0.095970
O O1 0.459926 0.618183 0.120570
O O2 0.552638 0.453993 0.329248
O O3 0.500000 0.500000 0.000000
O O4 0.238444 0.036040 0.876545
O O5 0.225995 0.401867 0.490176
O O6 0.059830 0.331366 0.441077
O O7 0.311742 0.826877 0.556892
O O8 0.039777 0.325743 0.108734
O O9 0.377432 0.723392 0.123664
O O10 0.500000 0.000000 0.000000
O O11 0.748838 0.592359 0.749535
O O12 0.500000 0.000000 0.500000
O O13 0.803374 0.397704 0.954162
O O14 0.871779 0.020092 0.678435
O O15 0.000220 0.503634 0.786990
O O16 0.000000 0.500000 0.500000
#
# Coordination Sequence:
#
# PCOD9057886 Si02
#       7
#     2   2   2   2   2   2   2
#     4  12  28  48  70 106 146 188 236 299 357 428
#     4  11  24  46  72 105 141 191 235 293 356 422
#     4  12  27  45  74 106 147 188 241 291 363 426
#     4  11  22  43  73 109 141 193 234 298 356 424
#     4  11  24  46  76 105 147 183 245 293 356 426
#     4  12  28  47  72 106 146 188 238 295 362 422
#     4  11  24  44  74 101 152 184 242 294 354 426
#
# _framework density 22.695246000000001
#
# number of rings (size 3 to 8) (size 9 to 14) (size 15 to 20)
#    0.000    0.571    2.857    6.429    8.000    0.571 
#    0.000    2.143    0.000    0.000    0.000    0.000 
#    0.000    0.000    0.000    0.000    0.000    0.000 
#
# Total GULP energy -78199.176828 kJ/mol
# GULP energy per Si atom -5585.655488 kJ/mol
# Density = 2.264359 g / cm^3
# Si number density = 22.695246 Si / 1000 Ang^3
#
#
#
# Elastic Constant Matrix: (Units=GPa)
#
#
# Indices 1 2 3 4 5 6 
#
# 1 199.1372 45.0290 43.1787 19.0348 -4.7141 7.4168
# 2 45.0290 98.5273 23.0177 31.0564 -4.4421 -19.0272
# 3 43.1787 23.0177 72.3627 28.3501 1.6676 -14.4134
# 4 19.0348 31.0564 28.3501 57.3563 -0.8587 -1.0258
# 5 -4.7141 -4.4421 1.6676 -0.8587 28.1817 7.0543
# 6 7.4168 -19.0272 -14.4134 -1.0258 7.0543 35.3888
#
#
#
# Elastic Compliance Matrix: (Units=1/GPa)
#
#
# Indices 1 2 3 4 5 6 
#
# 1 0.007056 -0.003757 -0.005110 0.002148 0.002460 -0.006008
# 2 -0.003757 0.015879 0.002599 -0.008467 -0.001132 0.010363
# 3 -0.005110 0.002599 0.022933 -0.010901 -0.005274 0.012544
# 4 0.002148 -0.008467 -0.010901 0.026571 0.002789 -0.009228
# 5 0.002460 -0.001132 -0.005274 0.002789 0.038852 -0.010936
# 6 -0.006008 0.010363 0.012544 -0.009228 -0.010936 0.042110
#
#
# Mechanical properties :
#
#
# Convention : Reuss Voigt Hill
#
# Bulk Modulus (GPa) = 30.00341 65.83088 47.91715
# Shear Modulus (GPa) = 28.24092 41.43881 34.83986
#
# Velocity S-wave (km/s) = 3.53137 4.27767 3.92231
# Velocity P-wave (km/s) = 5.46592 7.31214 6.45537
#
# Compressibility (1/GPa) = 0.03332954
#
# Stress axis : x y z
#
# Youngs Moduli (GPa) = 141.72331 62.97738 43.60590
#
# Poissons Ratio (x) = 0.23663 0.22283
# Poissons Ratio (y) = 0.53251 -0.11331
# Poissons Ratio (z) = 0.72422 -0.16365
#
# Static dielectric constant tensor:
#      x y z
#    x 1.942980 -0.081210 0.201290 
#    y -0.081210 1.853010 -0.195330 
#    z 0.201290 -0.195330 2.253090 
# 
# From -- ./inp_files/205105.got.cif
#   From: 2010.05.17/outbox.cif.g08.bks.cpg/sg2_103_cif.got.tgz:205105.got - 2010.06.03 11:33:40.
