data_PCOD9057309
_publ_section_title
;
Structure prediction by ZEFSAII (Michael W. Deem and Ramdas Pophale) SiO2 
 PCOD9057309
Probable space group: P -1
;
_chemical_formula_sum "Si O2"
_cell_formula_units_Z 16
_cell_length_a 11.859605
_cell_length_b 8.991519
_cell_length_c 9.864017
_cell_angle_alpha 76.071574
_cell_angle_beta 43.512906
_cell_angle_gamma 78.616298
_cell_volume 702.519258
_symmetry_space_group_name_H-M "P -1"
_symmetry_group_IT_number 2
_symmetry_cell_setting 'triclinic'
loop_
_space_group_symop_operation_xyz
x,y,z
-x,-y,-z
loop_
_atom_site_type_symbol
_atom_site_label
_atom_site_fract_x
_atom_site_fract_y
_atom_site_fract_z
Si Si1 0.769183 0.378421 0.933652
Si Si2 0.555578 0.374049 0.368319
Si Si3 0.208832 0.085424 0.098394
Si Si4 0.082192 0.329404 0.358902
Si Si5 0.004096 0.093176 0.842357
Si Si6 0.464559 0.872578 0.333993
Si Si7 0.692182 0.787513 0.566080
Si Si8 0.289643 0.773128 0.242296
O O1 0.899866 0.494736 0.736010
O O2 0.858831 0.217871 0.926556
O O3 0.656822 0.334475 0.909865
O O4 0.694909 0.430404 0.131466
O O5 0.500000 0.500000 0.500000
O O6 0.585531 0.218833 0.466522
O O7 0.424108 0.328711 0.379726
O O8 0.169537 0.235421 0.183299
O O9 0.033077 0.024772 0.218947
O O10 0.284579 0.948129 0.154662
O O11 0.339728 0.116676 0.859941
O O12 0.198987 0.286223 0.392898
O O13 0.896715 0.275907 0.552124
O O14 0.174022 0.170421 0.669453
O O15 0.000000 0.000000 0.000000
O O16 0.396423 0.778968 0.284030
O O17 0.395443 0.048966 0.354713
#
# Coordination Sequence:
#
# PCOD9057309 Si02
#       8
#     2   2   2   2   2   2   2   2
#     4  11  26  45  69  99 139 181 230 280 342 402
#     4  12  29  49  65 100 142 184 227 281 348 411
#     4  11  22  42  67 107 136 175 232 277 341 405
#     4  12  24  42  70 104 138 179 229 285 338 403
#     4  11  23  43  71  99 137 183 229 280 338 409
#     4  12  25  44  73 104 139 178 227 284 340 411
#     4  12  24  43  73  98 137 178 231 283 340 401
#     4  11  23  43  71 104 139 174 230 282 339 404
#
# _framework density 22.775175999999998
#
# number of rings (size 3 to 8) (size 9 to 14) (size 15 to 20)
#    0.000    0.500    3.750    6.000    3.500    0.500 
#    0.000    1.875    0.000    0.000    0.000    0.000 
#    0.000    0.000    0.000    0.000    0.000    0.000 
#
# Total GULP energy -89421.225584 kJ/mol
# GULP energy per Si atom -5588.826599 kJ/mol
# Density = 2.272334 g / cm^3
# Si number density = 22.775176 Si / 1000 Ang^3
#
#
#
# Elastic Constant Matrix: (Units=GPa)
#
#
# Indices 1 2 3 4 5 6 
#
# 1 48.2063 24.4090 15.2742 -6.0251 -3.8753 8.0741
# 2 24.4090 86.8077 15.0198 2.7612 6.5769 9.7411
# 3 15.2742 15.0198 93.1341 -3.7837 3.3617 -1.5079
# 4 -6.0251 2.7612 -3.7837 44.8787 1.1318 6.6241
# 5 -3.8753 6.5769 3.3617 1.1318 12.7805 -1.4137
# 6 8.0741 9.7411 -1.5079 6.6241 -1.4137 21.1663
#
#
#
# Elastic Compliance Matrix: (Units=1/GPa)
#
#
# Indices 1 2 3 4 5 6 
#
# 1 0.028845 -0.007569 -0.003890 0.004959 0.012282 -0.008529
# 2 -0.007569 0.015124 -0.000946 -0.001108 -0.010226 -0.004477
# 3 -0.003890 -0.000946 0.011705 0.000252 -0.003524 0.002439
# 4 0.004959 -0.001108 0.000252 0.024407 -0.001158 -0.009080
# 5 0.012282 -0.010226 -0.003524 -0.001158 0.088932 0.006072
# 6 -0.008529 -0.004477 0.002439 -0.009080 0.006072 0.055979
#
#
# Mechanical properties :
#
#
# Convention : Reuss Voigt Hill
#
# Bulk Modulus (GPa) = 32.40056 37.50602 34.95329
# Shear Modulus (GPa) = 19.22415 27.32811 23.27613
#
# Velocity S-wave (km/s) = 2.90846 3.46773 3.20033
# Velocity P-wave (km/s) = 5.05332 5.70414 5.38856
#
# Compressibility (1/GPa) = 0.03086366
#
# Stress axis : x y z
#
# Youngs Moduli (GPa) = 34.66820 66.11972 85.43614
#
# Poissons Ratio (x) = 0.50046 0.33234
# Poissons Ratio (y) = 0.26240 0.08083
# Poissons Ratio (z) = 0.13486 0.06256
#
# Static dielectric constant tensor:
#      x y z
#    x 1.722620 0.040480 -0.014410 
#    y 0.040480 1.863530 0.004900 
#    z -0.014410 0.004900 1.846370 
# 
# From -- ./inp_files/184331.got.cif
#   From: 2010.05.17/outbox.cif.g08.bks.cpg/sg2_93_cif.got.tgz:184331.got - 2010.06.03 11:33:40.
