data_PCOD9057923
_publ_section_title
;
Structure prediction by ZEFSAII (Michael W. Deem and Ramdas Pophale) SiO2 
 PCOD9057923
Probable space group: P -1
;
_chemical_formula_sum "Si O2"
_cell_formula_units_Z 14
_cell_length_a 9.907913
_cell_length_b 13.067742
_cell_length_c 18.637748
_cell_angle_alpha 28.482340
_cell_angle_beta 32.817358
_cell_angle_gamma 45.650987
_cell_volume 616.294944
_symmetry_space_group_name_H-M "P -1"
_symmetry_group_IT_number 2
_symmetry_cell_setting 'triclinic'
loop_
_space_group_symop_operation_xyz
x,y,z
-x,-y,-z
loop_
_atom_site_type_symbol
_atom_site_label
_atom_site_fract_x
_atom_site_fract_y
_atom_site_fract_z
Si Si1 0.075026 0.686793 0.620707
Si Si2 0.295179 0.990703 0.661977
Si Si3 0.154365 0.225647 0.819230
Si Si4 0.696783 0.833055 0.997546
Si Si5 0.550246 0.987114 0.828209
Si Si6 0.507577 0.631888 0.558949
Si Si7 0.531984 0.756962 0.829490
O O1 0.035632 0.427177 0.780459
O O2 0.252079 0.715195 0.594501
O O3 0.832839 0.800798 0.664205
O O4 0.230362 0.815553 0.408039
O O5 0.387945 0.842737 0.774583
O O6 0.998168 0.912965 0.825247
O O7 0.500000 0.000000 0.500000
O O8 0.338405 0.225556 0.536261
O O9 0.324282 0.335408 0.609090
O O10 0.323868 0.120867 0.866543
O O11 0.000000 0.000000 0.000000
O O12 0.648246 0.822346 0.939892
O O13 0.587305 0.604033 0.222366
O O14 0.500000 0.000000 0.000000
O O15 0.468026 0.860420 0.869395
O O16 0.500000 0.500000 0.000000
#
# Coordination Sequence:
#
# PCOD9057923 Si02
#       7
#     2   2   2   2   2   2   2
#     4  11  22  43  75 101 145 190 253 308 377 440
#     4  12  29  50  73 111 155 199 252 311 382 451
#     4  11  23  44  76 108 143 194 253 313 370 452
#     4  12  28  49  75 110 156 196 250 315 381 446
#     4  11  24  44  71 103 142 194 246 306 375 444
#     4  11  26  46  74 107 150 199 246 312 382 447
#     4  12  25  44  72 107 140 194 255 310 362 452
#
# _framework density 22.716394999999999
#
# number of rings (size 3 to 8) (size 9 to 14) (size 15 to 20)
#    0.000    0.571    2.857    6.429    8.000    1.143 
#    2.571    0.000    0.000    0.000    0.000    0.000 
#    0.000    0.000    0.000    0.000    0.000    0.000 
#
# Total GULP energy -78137.312405 kJ/mol
# GULP energy per Si atom -5581.236600 kJ/mol
# Density = 2.266469 g / cm^3
# Si number density = 22.716395 Si / 1000 Ang^3
#
#
#
# Elastic Constant Matrix: (Units=GPa)
#
#
# Indices 1 2 3 4 5 6 
#
# 1 163.8880 54.5280 74.8204 1.0059 12.8421 -15.1480
# 2 54.5280 118.7977 45.3725 -6.8125 -6.5374 -15.4757
# 3 74.8204 45.3725 166.6438 -17.7428 2.2361 -11.8221
# 4 1.0059 -6.8125 -17.7428 39.5046 -5.5367 -5.9773
# 5 12.8421 -6.5374 2.2361 -5.5367 33.8604 -4.3807
# 6 -15.1480 -15.4757 -11.8221 -5.9773 -4.3807 41.2726
#
#
#
# Elastic Compliance Matrix: (Units=1/GPa)
#
#
# Indices 1 2 3 4 5 6 
#
# 1 0.009137 -0.003244 -0.003451 -0.002904 -0.004303 0.000271
# 2 -0.003244 0.011184 -0.001114 0.002655 0.004354 0.003531
# 3 -0.003451 -0.001114 0.008371 0.004071 0.001394 0.001451
# 4 -0.002904 0.002655 0.004071 0.029577 0.006973 0.006119
# 5 -0.004303 0.004354 0.001394 0.006973 0.033706 0.005040
# 6 0.000271 0.003531 0.001451 0.006119 0.005040 0.027489
#
#
# Mechanical properties :
#
#
# Convention : Reuss Voigt Hill
#
# Bulk Modulus (GPa) = 76.48735 88.75236 82.61985
# Shear Modulus (GPa) = 35.85785 41.23476 38.54630
#
# Velocity S-wave (km/s) = 3.97735 4.26514 4.12375
# Velocity P-wave (km/s) = 7.40513 7.96302 7.68914
#
# Compressibility (1/GPa) = 0.01307406
#
# Stress axis : x y z
#
# Youngs Moduli (GPa) = 109.44935 89.41571 119.45532
#
# Poissons Ratio (x) = 0.29003 0.41228
# Poissons Ratio (y) = 0.35501 0.13307
# Poissons Ratio (z) = 0.37774 0.09960
#
# Static dielectric constant tensor:
#      x y z
#    x 2.992170 -0.530000 -0.747620 
#    y -0.530000 2.200780 0.440400 
#    z -0.747620 0.440400 2.434360 
# 
# From -- ./inp_files/224412.got.cif
#   From: 2010.05.17/outbox.cif.g08.bks.cpg/sg2_113_cif.got.tgz:224412.got - 2010.06.03 11:33:40.
