data_PCOD9057752
_publ_section_title
;
Structure prediction by ZEFSAII (Michael W. Deem and Ramdas Pophale) SiO2 
 PCOD9057752
Probable space group: P -1
;
_chemical_formula_sum "Si O2"
_cell_formula_units_Z 16
_cell_length_a 9.108867
_cell_length_b 14.438162
_cell_length_c 11.603774
_cell_angle_alpha 150.843376
_cell_angle_beta 103.749803
_cell_angle_gamma 84.403608
_cell_volume 702.397134
_symmetry_space_group_name_H-M "P -1"
_symmetry_group_IT_number 2
_symmetry_cell_setting 'triclinic'
loop_
_space_group_symop_operation_xyz
x,y,z
-x,-y,-z
loop_
_atom_site_type_symbol
_atom_site_label
_atom_site_fract_x
_atom_site_fract_y
_atom_site_fract_z
Si Si1 0.981133 0.206024 0.934058
Si Si2 0.719736 0.516823 0.828034
Si Si3 0.027778 0.885402 0.769650
Si Si4 0.637353 0.108661 0.230786
Si Si5 0.659307 0.004752 0.605677
Si Si6 0.490384 0.774367 0.998113
Si Si7 0.800601 0.469565 0.287733
Si Si8 0.318630 0.436194 0.876618
O O1 0.830141 0.134748 0.745376
O O2 0.919543 0.330176 0.157043
O O3 0.013763 0.014670 0.793923
O O4 0.126647 0.353753 0.063809
O O5 0.646318 0.311424 0.524737
O O6 0.592863 0.648775 0.946455
O O7 0.756598 0.499050 0.951140
O O8 0.199816 0.851056 0.760102
O O9 0.899580 0.686929 0.545216
O O10 0.000000 0.000000 0.000000
O O11 0.617437 0.930067 0.122166
O O12 0.500000 0.000000 0.000000
O O13 0.698673 0.794564 0.393465
O O14 0.500000 0.000000 0.500000
O O15 0.607892 0.090153 0.807777
O O16 0.345625 0.608472 0.739768
O O17 0.726397 0.468384 0.143943
O O18 0.500000 0.500000 0.000000
#
# Coordination Sequence:
#
# PCOD9057752 Si02
#       8
#     2   2   2   2   2   2   2   2
#     4  11  25  47  70 104 148 188 239 299 362 428
#     4  12  25  47  72 106 148 185 240 301 361 425
#     4  12  28  48  74 102 144 188 245 304 364 428
#     4  12  30  49  73 107 139 186 249 306 365 429
#     4  11  22  43  70 108 148 191 242 279 358 434
#     4  11  25  44  74 102 145 188 235 293 357 426
#     4  11  25  47  69 108 145 191 237 290 360 436
#     4  12  22  41  72 106 146 190 234 290 348 433
#
# _framework density 22.779136000000001
#
# number of rings (size 3 to 8) (size 9 to 14) (size 15 to 20)
#    0.000    0.500    6.250    1.500    5.250    3.000 
#    2.250    0.000    0.000    0.000    0.000    0.000 
#    0.000    0.000    0.000    0.000    0.000    0.000 
#
# Total GULP energy -89157.197952 kJ/mol
# GULP energy per Si atom -5572.324872 kJ/mol
# Density = 2.272729 g / cm^3
# Si number density = 22.779136 Si / 1000 Ang^3
#
#
#
# Elastic Constant Matrix: (Units=GPa)
#
#
# Indices 1 2 3 4 5 6 
#
# 1 91.5378 14.1772 41.7611 -0.7945 23.1274 13.0445
# 2 14.1772 46.3837 31.6447 13.2337 3.4614 -4.6727
# 3 41.7611 31.6447 126.3615 22.8955 19.7579 -1.5012
# 4 -0.7945 13.2337 22.8955 33.5123 7.9445 3.2724
# 5 23.1274 3.4614 19.7579 7.9445 49.4505 10.4799
# 6 13.0445 -4.6727 -1.5012 3.2724 10.4799 35.7289
#
#
#
# Elastic Compliance Matrix: (Units=1/GPa)
#
#
# Indices 1 2 3 4 5 6 
#
# 1 0.015859 -0.003704 -0.004825 0.006904 -0.005153 -0.005598
# 2 -0.003704 0.028839 -0.004545 -0.009337 0.001923 0.005224
# 3 -0.004825 -0.004545 0.012135 -0.006450 -0.001832 0.002805
# 4 0.006904 -0.009337 -0.006450 0.039909 -0.005102 -0.006171
# 5 -0.005153 0.001923 -0.001832 -0.005102 0.025073 -0.004831
# 6 -0.005598 0.005224 0.002805 -0.006171 -0.004831 0.032816
#
#
# Mechanical properties :
#
#
# Convention : Reuss Voigt Hill
#
# Bulk Modulus (GPa) = 32.58985 48.82767 40.70876
# Shear Modulus (GPa) = 26.17691 35.51834 30.84763
#
# Velocity S-wave (km/s) = 3.39361 3.95302 3.68395
# Velocity P-wave (km/s) = 5.44916 6.50515 6.00043
#
# Compressibility (1/GPa) = 0.03068440
#
# Stress axis : x y z
#
# Youngs Moduli (GPa) = 63.05548 34.67540 82.40580
#
# Poissons Ratio (x) = 0.12845 0.39763
# Poissons Ratio (y) = 0.23359 0.37450
# Poissons Ratio (z) = 0.30426 0.15759
#
# Static dielectric constant tensor:
#      x y z
#    x 1.937440 0.024950 0.004690 
#    y 0.024950 1.956970 -0.020380 
#    z 0.004690 -0.020380 1.978730 
# 
# From -- ./inp_files/400117.got.cif
#   From: 2010.05.17/outbox.cif.g08.bks.cpg/sg2_201_cif.got.tgz:400117.got - 2010.06.03 11:33:40.
