data_PCOD9057136
_publ_section_title
;
Structure prediction by ZEFSAII (Michael W. Deem and Ramdas Pophale) SiO2 
 PCOD9057136
Probable space group: P -1
;
_chemical_formula_sum "Si O2"
_cell_formula_units_Z 16
_cell_length_a 11.672383
_cell_length_b 9.905393
_cell_length_c 11.782690
_cell_angle_alpha 133.301663
_cell_angle_beta 109.287318
_cell_angle_gamma 43.834672
_cell_volume 649.079367
_symmetry_space_group_name_H-M "P -1"
_symmetry_group_IT_number 2
_symmetry_cell_setting 'triclinic'
loop_
_space_group_symop_operation_xyz
x,y,z
-x,-y,-z
loop_
_atom_site_type_symbol
_atom_site_label
_atom_site_fract_x
_atom_site_fract_y
_atom_site_fract_z
Si Si1 0.803441 0.815947 0.810756
Si Si2 0.641919 0.516984 0.050882
Si Si3 0.718009 0.635546 0.485302
Si Si4 0.062198 0.040458 0.235075
Si Si5 0.665339 0.880355 0.382315
Si Si6 0.830925 0.239018 0.656634
Si Si7 0.025819 0.400640 0.825565
Si Si8 0.480685 0.233392 0.085665
O O1 0.735424 0.707235 0.658665
O O2 0.858028 0.877497 0.758788
O O3 0.964193 0.600204 0.819762
O O4 0.671293 0.062337 0.996463
O O5 0.613750 0.724258 0.241038
O O6 0.500000 0.500000 0.000000
O O7 0.625521 0.628356 0.986533
O O8 0.843782 0.228428 0.959429
O O9 0.749281 0.752875 0.460931
O O10 0.857402 0.314424 0.335322
O O11 0.516286 0.808747 0.497749
O O12 0.142944 0.920203 0.316961
O O13 0.780608 0.849077 0.302712
O O14 0.888567 0.387496 0.774530
O O15 0.623277 0.504134 0.717951
O O16 0.000000 0.000000 0.500000
O O17 0.000000 0.500000 0.000000
O O18 0.500000 0.000000 0.000000
#
# Coordination Sequence:
#
# PCOD9057136 Si02
#       8
#     2   2   2   2   2   2   2   2
#     4  12  23  43  79 102 135 199 251 281 358 453
#     4  11  22  43  68 104 142 179 235 303 362 418
#     4  11  24  43  71 104 140 187 239 298 353 435
#     4  11  23  41  69 102 140 184 238 296 357 423
#     4  11  25  44  71 104 146 180 244 302 353 434
#     4  11  26  44  71 106 151 185 237 309 368 417
#     4  12  26  48  72 106 144 195 242 300 361 441
#     4  11  22  41  71 103 135 191 248 280 346 454
#
# _framework density 24.650299
#
# number of rings (size 3 to 8) (size 9 to 14) (size 15 to 20)
#    0.000    0.750    5.000    2.625    1.750    0.500 
#    4.500    0.625    0.000    0.000    0.000    0.000 
#    0.000    0.000    0.000    0.000    0.000    0.000 
#
# Total GULP energy -89075.128064 kJ/mol
# GULP energy per Si atom -5567.195504 kJ/mol
# Density = 2.459419 g / cm^3
# Si number density = 24.650299 Si / 1000 Ang^3
#
#
#
# Elastic Constant Matrix: (Units=GPa)
#
#
# Indices 1 2 3 4 5 6 
#
# 1 75.1360 18.3752 15.6648 -1.2942 -26.5598 24.1383
# 2 18.3752 122.8024 37.8405 26.4858 -13.6582 19.2343
# 3 15.6648 37.8405 96.0853 24.7860 -37.6391 -7.5666
# 4 -1.2942 26.4858 24.7860 59.6856 -8.5408 -19.2945
# 5 -26.5598 -13.6582 -37.6391 -8.5408 53.6073 -2.6300
# 6 24.1383 19.2343 -7.5666 -19.2945 -2.6300 32.7687
#
#
#
# Elastic Compliance Matrix: (Units=1/GPa)
#
#
# Indices 1 2 3 4 5 6 
#
# 1 0.022944 0.002578 -0.001421 -0.005657 0.009078 -0.021345
# 2 0.002578 0.014028 -0.005281 -0.009703 -0.001245 -0.017165
# 3 -0.001421 -0.005281 0.017809 -0.000733 0.010764 0.008691
# 4 -0.005657 -0.009703 -0.000733 0.030183 0.000368 0.027495
# 5 0.009078 -0.001245 0.010764 0.000368 0.030411 -0.000813
# 6 -0.021345 -0.017165 0.008691 0.027495 -0.000813 0.074446
#
#
# Mechanical properties :
#
#
# Convention : Reuss Voigt Hill
#
# Bulk Modulus (GPa) = 21.49083 48.64275 35.06679
# Shear Modulus (GPa) = 23.41043 44.02187 33.71615
#
# Velocity S-wave (km/s) = 3.08507 4.23052 3.70236
# Velocity P-wave (km/s) = 4.62897 6.60599 5.70379
#
# Compressibility (1/GPa) = 0.04653147
#
# Stress axis : x y z
#
# Youngs Moduli (GPa) = 43.58471 71.28821 56.15131
#
# Poissons Ratio (x) = -0.18377 0.07980
# Poissons Ratio (y) = -0.11235 0.29654
# Poissons Ratio (z) = 0.06194 0.37648
#
# Static dielectric constant tensor:
#      x y z
#    x 1.970830 -0.012740 0.028250 
#    y -0.012740 1.920200 -0.014120 
#    z 0.028250 -0.014120 2.026920 
# 
# From -- ./inp_files/419740.got.cif
#   From: 2010.05.17/outbox.cif.g08.bks.cpg/sg2_210_cif.got.tgz:419740.got - 2010.06.03 11:33:40.
