data_PCOD9057464
_publ_section_title
;
Structure prediction by ZEFSAII (Michael W. Deem and Ramdas Pophale) SiO2 
 PCOD9057464
Probable space group: P -1
;
_chemical_formula_sum "Si O2"
_cell_formula_units_Z 14
_cell_length_a 11.075395
_cell_length_b 14.316688
_cell_length_c 10.173354
_cell_angle_alpha 65.337362
_cell_angle_beta 128.294094
_cell_angle_gamma 149.823527
_cell_volume 607.035542
_symmetry_space_group_name_H-M "P -1"
_symmetry_group_IT_number 2
_symmetry_cell_setting 'triclinic'
loop_
_space_group_symop_operation_xyz
x,y,z
-x,-y,-z
loop_
_atom_site_type_symbol
_atom_site_label
_atom_site_fract_x
_atom_site_fract_y
_atom_site_fract_z
Si Si1 0.274644 0.933253 0.226338
Si Si2 0.708736 0.560516 0.209622
Si Si3 0.455033 0.745254 0.642890
Si Si4 0.765088 0.318648 0.749185
Si Si5 0.646697 0.366811 0.900539
Si Si6 0.949948 0.025113 0.156585
Si Si7 0.651144 0.592932 0.685615
O O1 0.310972 0.844369 0.232291
O O2 0.031016 0.777229 0.264871
O O3 0.545725 0.144438 0.352953
O O4 0.147529 0.944129 0.031649
O O5 0.692121 0.427459 0.269463
O O6 0.579579 0.510256 0.295140
O O7 0.500000 0.500000 0.000000
O O8 0.326594 0.677879 0.449374
O O9 0.793457 0.900998 0.768271
O O10 0.612088 0.276215 0.801763
O O11 0.103779 0.528984 0.892882
O O12 0.761115 0.542607 0.827876
O O13 0.333896 0.196146 0.858726
O O14 0.103460 0.180509 0.281334
O O15 0.500000 0.500000 0.500000
#
# Coordination Sequence:
#
# PCOD9057464 Si02
#       7
#     2   2   2   2   2   2   2
#     4  12  24  43  68 103 139 187 231 285 347 426
#     4  11  22  42  71 102 140 177 232 287 355 400
#     4  11  25  43  71 106 135 174 236 300 336 414
#     4  11  26  48  65 103 146 184 229 281 364 415
#     4  11  24  47  72  92 147 189 222 288 351 420
#     4  11  24  43  75 101 129 184 246 276 347 408
#     4  11  23  43  71 108 137 176 239 295 334 415
#
# _framework density 23.062899999999999
#
# number of rings (size 3 to 8) (size 9 to 14) (size 15 to 20)
#    0.000    0.857    4.286    3.429    4.000    4.571 
#    2.571    0.000    0.000    0.000    0.000    0.000 
#    0.000    0.000    0.000    0.000    0.000    0.000 
#
# Total GULP energy -78362.955012 kJ/mol
# GULP energy per Si atom -5597.353929 kJ/mol
# Density = 2.301041 g / cm^3
# Si number density = 23.062900 Si / 1000 Ang^3
#
#
#
# Elastic Constant Matrix: (Units=GPa)
#
#
# Indices 1 2 3 4 5 6 
#
# 1 72.7416 3.4102 12.2753 -6.7118 -12.9755 -26.4032
# 2 3.4102 99.0990 10.3331 -9.3535 -2.0029 -28.3121
# 3 12.2753 10.3331 104.5544 -5.1856 -10.9254 -17.8689
# 4 -6.7118 -9.3535 -5.1856 22.8651 -10.3007 -1.1825
# 5 -12.9755 -2.0029 -10.9254 -10.3007 39.2340 2.4064
# 6 -26.4032 -28.3121 -17.8689 -1.1825 2.4064 39.4708
#
#
#
# Elastic Compliance Matrix: (Units=1/GPa)
#
#
# Indices 1 2 3 4 5 6 
#
# 1 0.025315 0.007439 0.002472 0.017970 0.012738 0.023150
# 2 0.007439 0.015876 0.001751 0.012682 0.006035 0.017169
# 3 0.002472 0.001751 0.011359 0.006853 0.005383 0.007929
# 4 0.017970 0.012682 0.006853 0.068249 0.024899 0.024746
# 5 0.012738 0.006035 0.005383 0.024899 0.037201 0.013764
# 6 0.023150 0.017169 0.007929 0.024746 0.013764 0.056628
#
#
# Mechanical properties :
#
#
# Convention : Reuss Voigt Hill
#
# Bulk Modulus (GPa) = 13.18000 36.49247 24.83623
# Shear Modulus (GPa) = 23.08464 37.00575 30.04519
#
# Velocity S-wave (km/s) = 3.16720 4.01004 3.61328
# Velocity P-wave (km/s) = 4.37059 6.10720 5.31037
#
# Compressibility (1/GPa) = 0.07587255
#
# Stress axis : x y z
#
# Youngs Moduli (GPa) = 39.50293 62.98697 88.03923
#
# Poissons Ratio (x) = -0.46853 -0.21759
# Poissons Ratio (y) = -0.29385 -0.15420
# Poissons Ratio (z) = -0.09763 -0.11032
#
# Static dielectric constant tensor:
#      x y z
#    x 1.910170 -0.037270 0.043200 
#    y -0.037270 1.881060 0.060010 
#    z 0.043200 0.060010 1.923390 
# 
# From -- ./inp_files/272244.got.cif
#   From: 2010.05.17/outbox.cif.g08.bks.cpg/sg2_137_cif.got.tgz:272244.got - 2010.06.03 11:33:40.
