data_PCOD9057966
_publ_section_title
;
Structure prediction by ZEFSAII (Michael W. Deem and Ramdas Pophale) SiO2 
 PCOD9057966
Probable space group: P -1
;
_chemical_formula_sum "Si O2"
_cell_formula_units_Z 16
_cell_length_a 9.530849
_cell_length_b 15.620011
_cell_length_c 15.163383
_cell_angle_alpha 31.038855
_cell_angle_beta 95.086442
_cell_angle_gamma 116.997804
_cell_volume 784.899298
_symmetry_space_group_name_H-M "P -1"
_symmetry_group_IT_number 2
_symmetry_cell_setting 'triclinic'
loop_
_space_group_symop_operation_xyz
x,y,z
-x,-y,-z
loop_
_atom_site_type_symbol
_atom_site_label
_atom_site_fract_x
_atom_site_fract_y
_atom_site_fract_z
Si Si1 0.688174 0.609148 0.977228
Si Si2 0.505015 0.121833 0.479605
Si Si3 0.050558 0.691336 0.900455
Si Si4 0.100114 0.325584 0.753523
Si Si5 0.077210 0.570609 0.688373
Si Si6 0.329714 0.466881 0.470436
Si Si7 0.931328 0.090256 0.681062
Si Si8 0.290366 0.141383 0.956761
O O1 0.883021 0.687875 0.872309
O O2 0.800700 0.851915 0.823976
O O3 0.500000 0.500000 0.000000
O O4 0.588799 0.377217 0.235673
O O5 0.678557 0.191559 0.488876
O O6 0.500000 0.000000 0.500000
O O7 0.284499 0.945257 0.669402
O O8 0.000000 0.500000 0.000000
O O9 0.017744 0.599306 0.080071
O O10 0.066279 0.442338 0.716906
O O11 0.216428 0.469316 0.540652
O O12 0.236167 0.291679 0.832073
O O13 0.874932 0.060135 0.947877
O O14 0.993901 0.681319 0.567281
O O15 0.500000 0.500000 0.500000
O O16 0.142406 0.209350 0.636485
O O17 0.476530 0.686005 0.215054
O O18 0.775736 0.001937 0.830020
#
# Coordination Sequence:
#
# PCOD9057966 Si02
#       8
#     2   2   2   2   2   2   2   2
#     4  11  25  43  69  99 135 171 222 281 331 395
#     4  11  22  44  66  90 126 172 218 276 337 390
#     4  11  24  44  70  92 127 179 225 271 339 402
#     4   9  19  37  61  89 120 170 213 268 328 385
#     4  11  24  40  64  93 137 172 223 276 333 401
#     4   9  20  38  64  90 130 169 218 271 326 393
#     4  11  24  40  60 100 133 174 218 273 333 394
#     4   9  18  37  63  87 128 163 218 270 321 389
#
# _framework density 20.384779999999999
#
# number of rings (size 3 to 8) (size 9 to 14) (size 15 to 20)
#    0.000    1.750    2.500    3.000    0.000    7.500 
#    0.000    1.250    0.000    0.000    0.000    0.000 
#    0.000    0.000    0.000    0.000    0.000    0.000 
#
# Total GULP energy -89238.952958 kJ/mol
# GULP energy per Si atom -5577.434560 kJ/mol
# Density = 2.033838 g / cm^3
# Si number density = 20.384780 Si / 1000 Ang^3
#
#
#
# Elastic Constant Matrix: (Units=GPa)
#
#
# Indices 1 2 3 4 5 6 
#
# 1 87.5329 57.5325 49.0872 -5.3966 -17.6736 5.5074
# 2 57.5325 129.6914 34.8925 -23.7844 -0.4450 -7.0128
# 3 49.0872 34.8925 94.9080 -3.7646 -30.7626 -4.4608
# 4 -5.3966 -23.7844 -3.7646 29.4092 -3.1531 1.2438
# 5 -17.6736 -0.4450 -30.7626 -3.1531 47.4105 -2.9687
# 6 5.5074 -7.0128 -4.4608 1.2438 -2.9687 34.4899
#
#
#
# Elastic Compliance Matrix: (Units=1/GPa)
#
#
# Indices 1 2 3 4 5 6 
#
# 1 0.022239 -0.008677 -0.007935 -0.003435 0.002456 -0.006006
# 2 -0.008677 0.013613 -0.000950 0.008836 -0.002919 0.003461
# 3 -0.007935 -0.000950 0.018191 0.000909 0.009159 0.004182
# 4 -0.003435 0.008836 0.000909 0.040819 0.002181 0.001178
# 5 0.002456 -0.002919 0.009159 0.002181 0.028228 0.002550
# 6 -0.006006 0.003461 0.004182 0.001178 0.002550 0.031375
#
#
# Mechanical properties :
#
#
# Convention : Reuss Voigt Hill
#
# Bulk Modulus (GPa) = 52.85462 66.12853 59.49158
# Shear Modulus (GPa) = 25.52389 33.63658 29.58024
#
# Velocity S-wave (km/s) = 3.54235 4.06653 3.81346
# Velocity P-wave (km/s) = 6.53573 7.38644 6.97407
#
# Compressibility (1/GPa) = 0.01891982
#
# Stress axis : x y z
#
# Youngs Moduli (GPa) = 44.96594 73.45916 54.97240
#
# Poissons Ratio (x) = 0.63741 0.43619
# Poissons Ratio (y) = 0.39017 0.05221
# Poissons Ratio (z) = 0.35679 0.06977
#
# Static dielectric constant tensor:
#      x y z
#    x 1.781310 0.015890 0.015240 
#    y 0.015890 1.752960 0.035640 
#    z 0.015240 0.035640 1.420810 
# 
# From -- ./inp_files/357797.got.cif
#   From: 2010.05.17/outbox.cif.g08.bks.cpg/sg2_179_cif.got.tgz:357797.got - 2010.06.03 11:33:40.
