data_PCOD9057387
_publ_section_title
;
Structure prediction by ZEFSAII (Michael W. Deem and Ramdas Pophale) SiO2 
 PCOD9057387
Probable space group: P -1
;
_chemical_formula_sum "Si O2"
_cell_formula_units_Z 16
_cell_length_a 22.101458
_cell_length_b 9.328015
_cell_length_c 24.600727
_cell_angle_alpha 150.347578
_cell_angle_beta 161.274659
_cell_angle_gamma 29.252928
_cell_volume 765.527015
_symmetry_space_group_name_H-M "P -1"
_symmetry_group_IT_number 2
_symmetry_cell_setting 'triclinic'
loop_
_space_group_symop_operation_xyz
x,y,z
-x,-y,-z
loop_
_atom_site_type_symbol
_atom_site_label
_atom_site_fract_x
_atom_site_fract_y
_atom_site_fract_z
Si Si1 0.516516 0.494007 0.717131
Si Si2 0.563688 0.904185 0.385562
Si Si3 0.915799 0.111271 0.632116
Si Si4 0.512563 0.525035 0.601288
Si Si5 0.969465 0.325068 0.052848
Si Si6 0.031222 0.763334 0.723028
Si Si7 0.787285 0.888602 0.919736
Si Si8 0.867070 0.932058 0.413004
O O1 0.483197 0.261042 0.655683
O O2 0.506495 0.396643 0.614236
O O3 0.737674 0.504612 0.914621
O O4 0.347126 0.813834 0.687008
O O5 0.799511 0.786815 0.539824
O O6 0.508999 0.263597 0.470308
O O7 0.410859 0.878424 0.200082
O O8 0.683001 0.181265 0.471537
O O9 0.042748 0.903557 0.719412
O O10 0.957763 0.970103 0.561732
O O11 0.934609 0.449833 0.760622
O O12 0.703962 0.634395 0.791933
O O13 0.066545 0.254918 0.052904
O O14 0.000000 0.000000 0.000000
O O15 0.146454 0.407805 0.711877
O O16 0.105751 0.956402 0.894915
O O17 0.000000 0.000000 0.500000
#
# Coordination Sequence:
#
# PCOD9057387 Si02
#       8
#     2   2   2   2   2   2   2   2
#     4  11  24  43  67 102 137 184 236 286 346 412
#     4  12  22  43  70 102 146 181 222 288 354 421
#     4  11  24  45  73 100 143 185 231 291 350 411
#     4  11  22  42  69 104 143 179 225 283 358 423
#     4  12  24  42  70 109 143 178 225 288 362 420
#     4  12  26  46  71 103 141 189 237 286 344 410
#     4  12  25  43  71 109 144 178 229 282 354 432
#     4  11  26  48  71  96 134 190 248 287 339 407
#
# _framework density 20.900634
#
# number of rings (size 3 to 8) (size 9 to 14) (size 15 to 20)
#    0.000    0.500    5.000    3.375    1.750    2.500 
#    2.250    4.375    0.000    0.000    0.000    0.000 
#    0.000    0.000    0.000    0.000    0.000    0.000 
#
# Total GULP energy -89476.818208 kJ/mol
# GULP energy per Si atom -5592.301138 kJ/mol
# Density = 2.085306 g / cm^3
# Si number density = 20.900634 Si / 1000 Ang^3
#
#
#
# Elastic Constant Matrix: (Units=GPa)
#
#
# Indices 1 2 3 4 5 6 
#
# 1 116.5959 38.0502 54.3228 3.9258 -2.7056 8.4917
# 2 38.0502 79.5018 32.8483 3.0449 6.7124 8.5240
# 3 54.3228 32.8483 114.9535 -5.0202 1.5911 -2.5748
# 4 3.9258 3.0449 -5.0202 39.9144 -2.4936 2.1002
# 5 -2.7056 6.7124 1.5911 -2.4936 31.6643 1.0795
# 6 8.4917 8.5240 -2.5748 2.1002 1.0795 39.5752
#
#
#
# Elastic Compliance Matrix: (Units=1/GPa)
#
#
# Indices 1 2 3 4 5 6 
#
# 1 0.012332 -0.003782 -0.004880 -0.001296 0.002071 -0.002137
# 2 -0.003782 0.016243 -0.002922 -0.001319 -0.003631 -0.002708
# 3 -0.004880 -0.002922 0.011988 0.002067 -0.000317 0.002355
# 4 -0.001296 -0.001319 0.002067 0.025712 0.002115 -0.000725
# 5 0.002071 -0.003631 -0.000317 0.002115 0.032734 -0.000688
# 6 -0.002137 -0.002708 0.002355 -0.000725 -0.000688 0.026521
#
#
# Mechanical properties :
#
#
# Convention : Reuss Voigt Hill
#
# Bulk Modulus (GPa) = 57.49021 62.38820 59.93921
# Shear Modulus (GPa) = 32.36325 34.61943 33.49134
#
# Velocity S-wave (km/s) = 3.93928 4.07428 4.00735
# Velocity P-wave (km/s) = 6.94671 7.21441 7.08183
#
# Compressibility (1/GPa) = 0.01739426
#
# Stress axis : x y z
#
# Youngs Moduli (GPa) = 81.09130 61.56380 83.41836
#
# Poissons Ratio (x) = 0.23283 0.40708
# Poissons Ratio (y) = 0.30668 0.24378
# Poissons Ratio (z) = 0.39572 0.17991
#
# Static dielectric constant tensor:
#      x y z
#    x 1.760510 0.036990 -0.001730 
#    y 0.036990 1.757510 -0.045250 
#    z -0.001730 -0.045250 1.751730 
# 
# From -- ./inp_files/188167.got.cif
#   From: 2010.05.17/outbox.cif.g08.bks.cpg/sg2_95_cif.got.tgz:188167.got - 2010.06.03 11:33:40.
