data_PCOD9057755
_publ_section_title
;
Structure prediction by ZEFSAII (Michael W. Deem and Ramdas Pophale) SiO2 
 PCOD9057755
Probable space group: P -1
;
_chemical_formula_sum "Si O2"
_cell_formula_units_Z 12
_cell_length_a 6.159191
_cell_length_b 8.238497
_cell_length_c 13.380492
_cell_angle_alpha 76.208605
_cell_angle_beta 120.683831
_cell_angle_gamma 116.421132
_cell_volume 522.856040
_symmetry_space_group_name_H-M "P -1"
_symmetry_group_IT_number 2
_symmetry_cell_setting 'triclinic'
loop_
_space_group_symop_operation_xyz
x,y,z
-x,-y,-z
loop_
_atom_site_type_symbol
_atom_site_label
_atom_site_fract_x
_atom_site_fract_y
_atom_site_fract_z
Si Si1 0.917860 0.607441 0.053585
Si Si2 0.438377 0.737605 0.251019
Si Si3 0.705653 0.689709 0.715136
Si Si4 0.710434 0.021996 0.138066
Si Si5 0.313839 0.089436 0.510179
Si Si6 0.564794 0.306845 0.165255
O O1 0.788544 0.469601 0.133982
O O2 0.181773 0.764028 0.136058
O O3 0.703916 0.683668 0.949903
O O4 0.000000 0.500000 0.000000
O O5 0.339618 0.520650 0.264024
O O6 0.510414 0.819726 0.364612
O O7 0.675117 0.832111 0.209486
O O8 0.712249 0.766130 0.595820
O O9 0.447008 0.679168 0.721682
O O10 0.973123 0.837241 0.813534
O O11 0.605119 0.125635 0.179776
O O12 0.500000 0.000000 0.000000
O O13 0.500000 0.000000 0.500000
O O14 0.000000 0.000000 0.500000
#
# Coordination Sequence:
#
# PCOD9057755 Si02
#       6
#     2   2   2   2   2   2
#     4  11  22  43  70 109 151 192 249 309 380 463
#     4  12  25  48  77 108 149 205 252 321 390 454
#     4  12  26  49  74 110 150 195 262 318 381 468
#     4  12  26  43  72 110 155 194 251 313 387 459
#     4  12  29  55  81 113 154 205 265 329 390 462
#     4  11  23  42  73 104 153 198 246 314 382 456
#
# _framework density 22.950868
#
# number of rings (size 3 to 8) (size 9 to 14) (size 15 to 20)
#    0.000    0.333    5.000    3.500    2.333    5.333 
#    0.000    2.500    0.000    0.000    0.000    0.000 
#    0.000    0.000    0.000    0.000    0.000    0.000 
#
# Total GULP energy -66877.358996 kJ/mol
# GULP energy per Si atom -5573.113250 kJ/mol
# Density = 2.289863 g / cm^3
# Si number density = 22.950868 Si / 1000 Ang^3
#
#
#
# Elastic Constant Matrix: (Units=GPa)
#
#
# Indices 1 2 3 4 5 6 
#
# 1 107.0376 40.3052 24.6366 2.2836 -20.5880 14.8667
# 2 40.3052 120.1629 44.5448 -26.4266 -10.1346 38.4241
# 3 24.6366 44.5448 113.6152 1.2783 -38.0708 27.4017
# 4 2.2836 -26.4266 1.2783 53.8199 13.4339 -5.5073
# 5 -20.5880 -10.1346 -38.0708 13.4339 35.3350 -12.3071
# 6 14.8667 38.4241 27.4017 -5.5073 -12.3071 29.1344
#
#
#
# Elastic Compliance Matrix: (Units=1/GPa)
#
#
# Indices 1 2 3 4 5 6 
#
# 1 0.013811 -0.008067 0.004107 -0.007857 0.014696 0.004452
# 2 -0.008067 0.024148 -0.009268 0.015426 -0.022549 -0.025624
# 3 0.004107 -0.009268 0.020557 -0.011801 0.026248 -0.000351
# 4 -0.007857 0.015426 -0.011801 0.032930 -0.029364 -0.011415
# 5 0.014696 -0.022549 0.026248 -0.029364 0.078622 0.025213
# 6 0.004452 -0.025624 -0.000351 -0.011415 0.025213 0.074669
#
#
# Mechanical properties :
#
#
# Convention : Reuss Voigt Hill
#
# Bulk Modulus (GPa) = 31.19049 62.19878 46.69463
# Shear Modulus (GPa) = 17.73811 39.07981 28.40896
#
# Velocity S-wave (km/s) = 2.78308 4.13093 3.52208
# Velocity P-wave (km/s) = 4.89356 7.06487 6.07698
#
# Compressibility (1/GPa) = 0.03206105
#
# Stress axis : x y z
#
# Youngs Moduli (GPa) = 72.40660 41.41155 48.64438
#
# Poissons Ratio (x) = 0.33407 -0.19980
# Poissons Ratio (y) = 0.58411 0.45082
# Poissons Ratio (z) = -0.29740 0.38379
#
# Static dielectric constant tensor:
#      x y z
#    x 2.160310 0.287950 -0.101220 
#    y 0.287950 2.229780 -0.146680 
#    z -0.101220 -0.146680 1.897420 
# 
# From -- ./inp_files/86954.got.cif
#   From: 2010.05.17/outbox.cif.g08.bks.cpg/sg2_44_cif.got.tgz:86954.got - 2010.06.03 11:33:40.
