data_PCOD9057286
_publ_section_title
;
Structure prediction by ZEFSAII (Michael W. Deem and Ramdas Pophale) SiO2 
 PCOD9057286
Probable space group: P -1
;
_chemical_formula_sum "Si O2"
_cell_formula_units_Z 12
_cell_length_a 23.436218
_cell_length_b 16.029324
_cell_length_c 6.200276
_cell_angle_alpha 62.368374
_cell_angle_beta 126.841105
_cell_angle_gamma 161.920805
_cell_volume 522.920104
_symmetry_space_group_name_H-M "P -1"
_symmetry_group_IT_number 2
_symmetry_cell_setting 'triclinic'
loop_
_space_group_symop_operation_xyz
x,y,z
-x,-y,-z
loop_
_atom_site_type_symbol
_atom_site_label
_atom_site_fract_x
_atom_site_fract_y
_atom_site_fract_z
Si Si1 0.132660 0.426410 0.175837
Si Si2 0.548831 0.284738 0.145692
Si Si3 0.106104 0.614490 0.851006
Si Si4 0.204738 0.349349 0.149527
Si Si5 0.733131 0.771663 0.590305
Si Si6 0.346789 0.211952 0.980130
O O1 0.271031 0.563150 0.532961
O O2 0.248691 0.504691 0.168303
O O3 0.154870 0.564367 0.025069
O O4 0.864413 0.067165 0.005536
O O5 0.674210 0.498393 0.987008
O O6 0.464525 0.259553 0.149643
O O7 0.331173 0.958341 0.957165
O O8 0.000000 0.500000 0.500000
O O9 0.000000 0.500000 0.000000
O O10 0.276167 0.339449 0.424756
O O11 0.936676 0.010030 0.926747
O O12 0.500000 0.500000 0.500000
O O13 0.782126 0.922247 0.373917
O O14 0.500000 0.500000 0.000000
#
# Coordination Sequence:
#
# PCOD9057286 Si02
#       6
#     2   2   2   2   2   2
#     4  12  28  49  77 111 159 198 271 327 402 469
#     4  12  27  50  78 114 155 206 270 326 402 476
#     4  12  31  55  87 116 157 213 271 335 413 476
#     4  11  26  41  73 109 147 207 257 318 391 471
#     4  11  22  42  66 106 157 201 254 315 389 472
#     4  12  25  43  75 110 162 203 260 321 404 470
#
# _framework density 22.948055
#
# number of rings (size 3 to 8) (size 9 to 14) (size 15 to 20)
#    0.000    0.333    5.000    2.500    9.333    3.333 
#    0.000    0.000    0.000    0.000    0.000    0.000 
#    0.000    0.000    0.000    0.000    0.000    0.000 
#
# Total GULP energy -66846.769526 kJ/mol
# GULP energy per Si atom -5570.564127 kJ/mol
# Density = 2.289582 g / cm^3
# Si number density = 22.948055 Si / 1000 Ang^3
#
#
#
# Elastic Constant Matrix: (Units=GPa)
#
#
# Indices 1 2 3 4 5 6 
#
# 1 148.9961 40.0381 56.4126 8.6829 24.6577 -16.9088
# 2 40.0381 112.0071 48.9884 26.1518 6.5059 -12.0635
# 3 56.4126 48.9884 103.9785 -3.2118 23.4315 -16.9459
# 4 8.6829 26.1518 -3.2118 38.9499 -12.7418 0.5835
# 5 24.6577 6.5059 23.4315 -12.7418 46.5116 -4.3522
# 6 -16.9088 -12.0635 -16.9459 0.5835 -4.3522 50.8714
#
#
#
# Elastic Compliance Matrix: (Units=1/GPa)
#
#
# Indices 1 2 3 4 5 6 
#
# 1 0.009253 -0.000510 -0.003825 -0.003257 -0.003668 0.001404
# 2 -0.000510 0.014637 -0.006458 -0.010705 -0.001348 0.001158
# 3 -0.003825 -0.006458 0.016040 0.005339 -0.003483 0.002181
# 4 -0.003257 -0.010705 0.005339 0.037546 0.010693 -0.001358
# 5 -0.003668 -0.001348 -0.003483 0.010693 0.028279 -0.000402
# 6 0.001404 0.001158 0.002181 -0.001358 -0.000402 0.021106
#
#
# Mechanical properties :
#
#
# Convention : Reuss Voigt Hill
#
# Bulk Modulus (GPa) = 54.51058 72.87335 63.69197
# Shear Modulus (GPa) = 32.34944 41.90277 37.12610
#
# Velocity S-wave (km/s) = 3.75865 4.27779 4.02659
# Velocity P-wave (km/s) = 6.53009 7.49827 7.03086
#
# Compressibility (1/GPa) = 0.01834506
#
# Stress axis : x y z
#
# Youngs Moduli (GPa) = 108.07326 68.31988 62.34281
#
# Poissons Ratio (x) = 0.03484 0.23847
# Poissons Ratio (y) = 0.05511 0.40258
# Poissons Ratio (z) = 0.41339 0.44118
#
# Static dielectric constant tensor:
#      x y z
#    x 1.901510 0.014270 -0.114680 
#    y 0.014270 1.833430 0.013470 
#    z -0.114680 0.013470 1.971260 
# 
# From -- ./inp_files/42980.got.cif
#   From: 2010.05.17/outbox.cif.g08.bks.cpg/sg2_22_cif.got.tgz:42980.got - 2010.06.03 11:33:40.
