data_PCOD9057304
_publ_section_title
;
Structure prediction by ZEFSAII (Michael W. Deem and Ramdas Pophale) SiO2 
 PCOD9057304
Probable space group: P -1
;
_chemical_formula_sum "Si O2"
_cell_formula_units_Z 14
_cell_length_a 15.057417
_cell_length_b 10.197548
_cell_length_c 9.557426
_cell_angle_alpha 40.503816
_cell_angle_beta 63.842545
_cell_angle_gamma 47.205204
_cell_volume 690.533747
_symmetry_space_group_name_H-M "P -1"
_symmetry_group_IT_number 2
_symmetry_cell_setting 'triclinic'
loop_
_space_group_symop_operation_xyz
x,y,z
-x,-y,-z
loop_
_atom_site_type_symbol
_atom_site_label
_atom_site_fract_x
_atom_site_fract_y
_atom_site_fract_z
Si Si1 0.843822 0.526118 0.991233
Si Si2 0.204855 0.144867 0.735628
Si Si3 0.445785 0.157596 0.048340
Si Si4 0.403710 0.202117 0.512629
Si Si5 0.944704 0.008601 0.185795
Si Si6 0.036507 0.601554 0.683028
Si Si7 0.436193 0.616820 0.099580
O O1 0.697072 0.716650 0.935652
O O2 0.910453 0.645469 0.785592
O O3 0.889985 0.443581 0.187316
O O4 0.885194 0.281216 0.071018
O O5 0.273090 0.256343 0.532528
O O6 0.147198 0.063411 0.730286
O O7 0.107536 0.346509 0.749848
O O8 0.312659 0.891903 0.941194
O O9 0.533276 0.947631 0.269892
O O10 0.471681 0.364874 0.883962
O O11 0.500000 0.000000 0.000000
O O12 0.398696 0.446009 0.319916
O O13 0.500000 0.000000 0.500000
O O14 0.023752 0.808848 0.418809
O O15 0.000000 0.000000 0.000000
O O16 0.500000 0.500000 0.000000
#
# Coordination Sequence:
#
# PCOD9057304 Si02
#       7
#     2   2   2   2   2   2   2
#     4  11  25  45  70  94 142 179 223 276 337 412
#     4  11  24  41  69  98 137 167 227 282 332 399
#     4  11  25  45  67 104 136 174 226 277 336 402
#     4  11  24  40  69  97 134 178 219 279 339 397
#     4  12  26  42  69 105 132 174 233 280 335 402
#     4  11  26  46  65  99 136 184 220 276 346 400
#     4  11  22  42  67 101 131 173 225 269 338 395
#
# _framework density 20.274173000000001
#
# number of rings (size 3 to 8) (size 9 to 14) (size 15 to 20)
#    0.000    0.857    4.286    3.429    4.000    0.571 
#    0.000    1.429    0.000    0.000    0.000    0.000 
#    0.000    0.000    0.000    0.000    0.000    0.000 
#
# Total GULP energy -78156.397536 kJ/mol
# GULP energy per Si atom -5582.599824 kJ/mol
# Density = 2.022803 g / cm^3
# Si number density = 20.274173 Si / 1000 Ang^3
#
#
#
# Elastic Constant Matrix: (Units=GPa)
#
#
# Indices 1 2 3 4 5 6 
#
# 1 95.9154 1.5002 8.4596 6.0740 -25.6313 14.8510
# 2 1.5002 80.1254 0.7791 1.2178 -4.1039 18.8041
# 3 8.4596 0.7791 92.6837 1.9575 -15.4114 10.3873
# 4 6.0740 1.2178 1.9575 32.9045 8.0093 6.2383
# 5 -25.6313 -4.1039 -15.4114 8.0093 33.5352 2.9387
# 6 14.8510 18.8041 10.3873 6.2383 2.9387 37.6969
#
#
#
# Elastic Compliance Matrix: (Units=1/GPa)
#
#
# Indices 1 2 3 4 5 6 
#
# 1 0.016014 0.002555 0.002174 -0.005358 0.015576 -0.008510
# 2 0.002555 0.014860 0.001595 -0.000712 0.005478 -0.009168
# 3 0.002174 0.001595 0.012685 -0.002304 0.008714 -0.005446
# 4 -0.005358 -0.000712 -0.002304 0.035142 -0.013488 -0.001663
# 5 0.015576 0.005478 0.008714 -0.013488 0.050760 -0.012995
# 6 -0.008510 -0.009168 -0.005446 -0.001663 -0.012995 0.037242
#
#
# Mechanical properties :
#
#
# Convention : Reuss Voigt Hill
#
# Bulk Modulus (GPa) = 17.79101 32.24470 25.01786
# Shear Modulus (GPa) = 28.93687 38.02633 33.48160
#
# Velocity S-wave (km/s) = 3.78203 4.33552 4.06820
# Velocity P-wave (km/s) = 5.27882 6.40322 5.86801
#
# Compressibility (1/GPa) = 0.05620817
#
# Stress axis : x y z
#
# Youngs Moduli (GPa) = 62.44705 67.29436 78.83048
#
# Poissons Ratio (x) = -0.17197 -0.17136
# Poissons Ratio (y) = -0.15958 -0.12576
# Poissons Ratio (z) = -0.13575 -0.10735
#
# Static dielectric constant tensor:
#      x y z
#    x 1.741150 -0.007750 -0.027400 
#    y -0.007750 1.682220 0.016410 
#    z -0.027400 0.016410 1.756300 
# 
# From -- ./inp_files/62998.got.cif
#   From: 2010.05.17/outbox.cif.g08.bks.cpg/sg2_32_cif.got.tgz:62998.got - 2010.06.03 11:33:40.
