data_PCOD9057296
_publ_section_title
;
Structure prediction by ZEFSAII (Michael W. Deem and Ramdas Pophale) SiO2 
 PCOD9057296
Probable space group: P -1
;
_chemical_formula_sum "Si O2"
_cell_formula_units_Z 14
_cell_length_a 7.293260
_cell_length_b 15.382639
_cell_length_c 14.947161
_cell_angle_alpha 153.246537
_cell_angle_beta 110.177245
_cell_angle_gamma 84.767914
_cell_volume 608.148475
_symmetry_space_group_name_H-M "P -1"
_symmetry_group_IT_number 2
_symmetry_cell_setting 'triclinic'
loop_
_space_group_symop_operation_xyz
x,y,z
-x,-y,-z
loop_
_atom_site_type_symbol
_atom_site_label
_atom_site_fract_x
_atom_site_fract_y
_atom_site_fract_z
Si Si1 0.498331 0.728158 0.197448
Si Si2 0.839879 0.060361 0.084953
Si Si3 0.997749 0.427824 0.099787
Si Si4 0.865192 0.589405 0.393789
Si Si5 0.486068 0.165614 0.027405
Si Si6 0.209831 0.047212 0.374305
Si Si7 0.624575 0.075698 0.387825
O O1 0.630029 0.877502 0.442482
O O2 0.625144 0.892430 0.285629
O O3 0.500000 0.500000 0.000000
O O4 0.233534 0.642872 0.058424
O O5 0.678583 0.115240 0.049288
O O6 0.986382 0.273519 0.370318
O O7 0.673039 0.859635 0.939766
O O8 0.000000 0.000000 0.000000
O O9 0.958792 0.467699 0.233674
O O10 0.200168 0.666704 0.320504
O O11 0.009090 0.202519 0.884998
O O12 0.619521 0.403289 0.219058
O O13 0.840393 0.760738 0.482580
O O14 0.342665 0.978766 0.757181
O O15 0.372227 0.037938 0.317446
#
# Coordination Sequence:
#
# PCOD9057296 Si02
#       7
#     2   2   2   2   2   2   2
#     4  11  22  42  66  97 140 175 222 285 331 399
#     4  11  26  44  71 106 136 176 234 283 350 416
#     4  11  23  41  67  95 133 177 223 278 330 402
#     4  12  23  46  70  96 139 177 222 286 339 406
#     4  11  23  46  71 100 140 181 225 288 347 409
#     4  11  24  42  67  99 134 179 227 276 340 402
#     4  11  22  42  67  97 134 177 228 275 339 407
#
# _framework density 23.020693999999999
#
# number of rings (size 3 to 8) (size 9 to 14) (size 15 to 20)
#    0.000    0.857    5.714    3.000    0.000    4.571 
#    2.571    0.000    0.000    0.000    0.000    0.000 
#    0.000    0.000    0.000    0.000    0.000    0.000 
#
# Total GULP energy -78315.598357 kJ/mol
# GULP energy per Si atom -5593.971311 kJ/mol
# Density = 2.296830 g / cm^3
# Si number density = 23.020694 Si / 1000 Ang^3
#
#
#
# Elastic Constant Matrix: (Units=GPa)
#
#
# Indices 1 2 3 4 5 6 
#
# 1 74.9657 11.2348 15.5912 -7.4697 0.8540 11.1345
# 2 11.2348 73.1614 55.2168 -6.8715 9.8042 1.6175
# 3 15.5912 55.2168 160.5754 17.4415 15.9740 0.9321
# 4 -7.4697 -6.8715 17.4415 49.8378 10.3207 -0.1773
# 5 0.8540 9.8042 15.9740 10.3207 33.7892 2.4950
# 6 11.1345 1.6175 0.9321 -0.1773 2.4950 23.2200
#
#
#
# Elastic Compliance Matrix: (Units=1/GPa)
#
#
# Indices 1 2 3 4 5 6 
#
# 1 0.015077 -0.000882 -0.001426 0.002551 0.000296 -0.007123
# 2 -0.000882 0.020347 -0.007137 0.006071 -0.004347 -0.000195
# 3 -0.001426 -0.007137 0.009386 -0.004252 -0.001097 0.000890
# 4 0.002551 0.006071 -0.004252 0.024259 -0.007187 -0.000518
# 5 0.000296 -0.004347 -0.001097 -0.007187 0.033821 -0.003484
# 6 -0.007123 -0.000195 0.000890 -0.000518 -0.003484 0.046830
#
#
# Mechanical properties :
#
#
# Convention : Reuss Voigt Hill
#
# Bulk Modulus (GPa) = 38.57835 52.53202 45.55518
# Shear Modulus (GPa) = 28.20880 36.48005 32.34443
#
# Velocity S-wave (km/s) = 3.50432 3.98510 3.75242
# Velocity P-wave (km/s) = 5.75918 6.63654 6.21337
#
# Compressibility (1/GPa) = 0.02592128
#
# Stress axis : x y z
#
# Youngs Moduli (GPa) = 66.32667 49.14650 106.54079
#
# Poissons Ratio (x) = 0.04333 0.15191
# Poissons Ratio (y) = 0.05848 0.76038
# Poissons Ratio (z) = 0.09457 0.35076
#
# Static dielectric constant tensor:
#      x y z
#    x 1.890670 0.020560 0.005160 
#    y 0.020560 1.877570 0.022040 
#    z 0.005160 0.022040 1.870720 
# 
# From -- ./inp_files/504761.got.cif
#   From: 2010.05.17/outbox.cif.g08.bks.cpg/sg2_253_cif.got.tgz:504761.got - 2010.06.03 11:33:40.
