data_PCOD9057367
_publ_section_title
;
Structure prediction by ZEFSAII (Michael W. Deem and Ramdas Pophale) SiO2 
 PCOD9057367
Probable space group: P -1
;
_chemical_formula_sum "Si O2"
_cell_formula_units_Z 12
_cell_length_a 9.261251
_cell_length_b 13.664186
_cell_length_c 11.076220
_cell_angle_alpha 59.289740
_cell_angle_beta 96.805008
_cell_angle_gamma 145.051417
_cell_volume 547.361974
_symmetry_space_group_name_H-M "P -1"
_symmetry_group_IT_number 2
_symmetry_cell_setting 'triclinic'
loop_
_space_group_symop_operation_xyz
x,y,z
-x,-y,-z
loop_
_atom_site_type_symbol
_atom_site_label
_atom_site_fract_x
_atom_site_fract_y
_atom_site_fract_z
Si Si1 0.798947 0.468578 0.545941
Si Si2 0.185188 0.850054 0.565071
Si Si3 0.652057 0.793193 0.146106
Si Si4 0.774426 0.447228 0.963924
Si Si5 0.727804 0.843906 0.702338
Si Si6 0.572530 0.622444 0.589380
O O1 0.464122 0.213288 0.745245
O O2 0.704887 0.489378 0.416096
O O3 0.000000 0.500000 0.500000
O O4 0.006530 0.678551 0.536020
O O5 0.500000 0.000000 0.500000
O O6 0.282269 0.047042 0.442812
O O7 0.005742 0.698683 0.766128
O O8 0.516976 0.572138 0.306486
O O9 0.475740 0.740531 0.053730
O O10 0.000000 0.000000 0.000000
O O11 0.547434 0.338554 0.112665
O O12 0.000000 0.500000 0.000000
O O13 0.648956 0.692585 0.694033
O O14 0.096641 0.108725 0.612949
#
# Coordination Sequence:
#
# PCOD9057367 Si02
#       6
#     2   2   2   2   2   2
#     4  11  24  43  69  99 134 180 232 278 348 408
#     4  11  22  42  68  99 136 180 228 285 347 399
#     4  11  25  45  68 102 139 181 233 283 348 412
#     4  11  23  39  69  99 135 179 229 281 340 406
#     4  11  23  43  69  99 137 178 233 275 343 412
#     4  11  24  44  70  99 138 183 225 287 346 406
#
# _framework density 21.923337
#
# number of rings (size 3 to 8) (size 9 to 14) (size 15 to 20)
#    0.000    1.000    5.000    2.500    4.667    0.667 
#    6.000    0.833    0.000    0.000    0.000    0.000 
#    0.000    0.000    0.000    0.000    0.000    0.000 
#
# Total GULP energy -66810.316565 kJ/mol
# GULP energy per Si atom -5567.526380 kJ/mol
# Density = 2.187344 g / cm^3
# Si number density = 21.923337 Si / 1000 Ang^3
#
#
#
# Elastic Constant Matrix: (Units=GPa)
#
#
# Indices 1 2 3 4 5 6 
#
# 1 161.9677 46.7587 50.5567 8.7377 -20.4601 32.0888
# 2 46.7587 72.4103 32.0662 3.6541 -2.5523 29.9178
# 3 50.5567 32.0662 130.5162 6.0669 -40.4691 -2.1069
# 4 8.7377 3.6541 6.0669 26.3885 7.0640 -0.4308
# 5 -20.4601 -2.5523 -40.4691 7.0640 48.0434 4.9649
# 6 32.0888 29.9178 -2.1069 -0.4308 4.9649 49.2995
#
#
#
# Elastic Compliance Matrix: (Units=1/GPa)
#
#
# Indices 1 2 3 4 5 6 
#
# 1 0.009017 -0.002928 -0.001724 -0.003102 0.003155 -0.004511
# 2 -0.002928 0.023155 -0.005904 -0.000076 -0.003736 -0.012023
# 3 -0.001724 -0.005904 0.013250 -0.004352 0.010320 0.004194
# 4 -0.003102 -0.000076 -0.004352 0.043118 -0.011685 0.003433
# 5 0.003155 -0.003736 0.010320 -0.011685 0.032653 -0.002735
# 6 -0.004511 -0.012023 0.004194 0.003433 -0.002735 0.031001
#
#
# Mechanical properties :
#
#
# Convention : Reuss Voigt Hill
#
# Bulk Modulus (GPa) = 41.13412 69.29527 55.21469
# Shear Modulus (GPa) = 27.56223 40.44713 34.00468
#
# Velocity S-wave (km/s) = 3.54956 4.29993 3.94264
# Velocity P-wave (km/s) = 5.96679 7.50527 6.77981
#
# Compressibility (1/GPa) = 0.02431072
#
# Stress axis : x y z
#
# Youngs Moduli (GPa) = 110.90275 43.18771 75.47183
#
# Poissons Ratio (x) = 0.12644 0.13011
# Poissons Ratio (y) = 0.32469 0.44557
# Poissons Ratio (z) = 0.19119 0.25497
#
# Static dielectric constant tensor:
#      x y z
#    x 1.864480 -0.069270 -0.072430 
#    y -0.069270 1.979240 0.034380 
#    z -0.072430 0.034380 1.852640 
# 
# From -- ./inp_files/393845.got.cif
#   From: 2010.05.17/outbox.cif.g08.bks.cpg/sg2_197_cif.got.tgz:393845.got - 2010.06.03 11:33:40.
