data_PCOD9057816
_publ_section_title
;
Structure prediction by ZEFSAII (Michael W. Deem and Ramdas Pophale) SiO2 
 PCOD9057816
Probable space group: P -1
;
_chemical_formula_sum "Si O2"
_cell_formula_units_Z 16
_cell_length_a 8.548335
_cell_length_b 10.397396
_cell_length_c 17.058157
_cell_angle_alpha 54.527817
_cell_angle_beta 94.316780
_cell_angle_gamma 135.751246
_cell_volume 689.875132
_symmetry_space_group_name_H-M "P -1"
_symmetry_group_IT_number 2
_symmetry_cell_setting 'triclinic'
loop_
_space_group_symop_operation_xyz
x,y,z
-x,-y,-z
loop_
_atom_site_type_symbol
_atom_site_label
_atom_site_fract_x
_atom_site_fract_y
_atom_site_fract_z
Si Si1 0.367326 0.666212 0.789886
Si Si2 0.163808 0.837639 0.126650
Si Si3 0.680520 0.184042 0.118015
Si Si4 0.101973 0.934754 0.757959
Si Si5 0.518437 0.576640 0.064362
Si Si6 0.800516 0.786953 0.497246
Si Si7 0.921379 0.256225 0.559606
Si Si8 0.828648 0.699349 0.298236
O O1 0.429397 0.774758 0.841818
O O2 0.422775 0.525539 0.842679
O O3 0.033496 0.411274 0.855887
O O4 0.589146 0.945372 0.644863
O O5 0.924554 0.667286 0.243974
O O6 0.442257 0.977754 0.115122
O O7 0.268973 0.104269 0.023130
O O8 0.695148 0.036811 0.221475
O O9 0.000000 0.500000 0.000000
O O10 0.785492 0.611719 0.856784
O O11 0.169300 0.082654 0.627292
O O12 0.102872 0.058038 0.787593
O O13 0.500000 0.500000 0.000000
O O14 0.492571 0.565131 0.595797
O O15 0.883921 0.674198 0.520207
O O16 0.000000 0.000000 0.500000
O O17 0.000000 0.500000 0.500000
O O18 0.992039 0.214080 0.653624
#
# Coordination Sequence:
#
# PCOD9057816 Si02
#       8
#     2   2   2   2   2   2   2   2
#     4  12  25  44  69 105 143 182 246 299 359 441
#     4  12  25  44  72 107 141 190 242 300 367 429
#     4  12  25  46  68  98 152 187 235 296 372 440
#     4  11  22  43  71  97 136 195 232 286 363 438
#     4  12  19  45  73 100 140 190 235 293 361 436
#     4  11  25  46  69 107 145 185 255 306 358 439
#     4  11  23  45  73 100 142 192 239 302 373 435
#     4  11  23  42  71  95 139 188 240 290 365 432
#
# _framework density 23.192601
#
# number of rings (size 3 to 8) (size 9 to 14) (size 15 to 20)
#    0.000    0.500    7.500    2.625    3.500    0.500 
#    4.500    1.250    0.000    0.000    0.000    0.000 
#    0.000    0.000    0.000    0.000    0.000    0.000 
#
# Total GULP energy -89291.429635 kJ/mol
# GULP energy per Si atom -5580.714352 kJ/mol
# Density = 2.313981 g / cm^3
# Si number density = 23.192601 Si / 1000 Ang^3
#
#
#
# Elastic Constant Matrix: (Units=GPa)
#
#
# Indices 1 2 3 4 5 6 
#
# 1 116.4521 21.8641 35.0315 -12.9738 9.8997 16.4754
# 2 21.8641 98.5830 23.0714 -30.9417 2.1120 25.6566
# 3 35.0315 23.0714 96.1009 -37.7183 -15.8527 12.2413
# 4 -12.9738 -30.9417 -37.7183 39.0434 7.1986 -11.2028
# 5 9.8997 2.1120 -15.8527 7.1986 43.2108 -3.8681
# 6 16.4754 25.6566 12.2413 -11.2028 -3.8681 36.1671
#
#
#
# Elastic Compliance Matrix: (Units=1/GPa)
#
#
# Indices 1 2 3 4 5 6 
#
# 1 0.010841 -0.000826 -0.004717 -0.001927 -0.004193 -0.003801
# 2 -0.000826 0.015903 0.001923 0.012380 -0.002662 -0.008006
# 3 -0.004717 0.001923 0.019526 0.017947 0.005186 0.000290
# 4 -0.001927 0.012380 0.017947 0.053180 -0.002237 0.002255
# 5 -0.004193 -0.002662 0.005186 -0.002237 0.026887 0.004225
# 6 -0.003801 -0.008006 0.000290 0.002255 0.004225 0.036113
#
#
# Mechanical properties :
#
#
# Convention : Reuss Voigt Hill
#
# Bulk Modulus (GPa) = 25.62199 52.34111 38.98155
# Shear Modulus (GPa) = 27.36710 39.09553 33.23131
#
# Velocity S-wave (km/s) = 3.43883 4.11017 3.78940
# Velocity P-wave (km/s) = 5.18062 6.71876 5.99919
#
# Compressibility (1/GPa) = 0.03902898
#
# Stress axis : x y z
#
# Youngs Moduli (GPa) = 92.24262 62.88059 51.21312
#
# Poissons Ratio (x) = 0.05195 0.24159
# Poissons Ratio (y) = 0.07620 -0.09848
# Poissons Ratio (z) = 0.43515 -0.12091
#
# Static dielectric constant tensor:
#      x y z
#    x 1.895060 -0.003470 -0.025980 
#    y -0.003470 1.934320 -0.045380 
#    z -0.025980 -0.045380 1.960940 
# 
# From -- ./inp_files/273816.got.cif
#   From: 2010.05.17/outbox.cif.g08.bks.cpg/sg2_137_cif.got.tgz:273816.got - 2010.06.03 11:33:40.
