data_PCOD9057209
_publ_section_title
;
Structure prediction by ZEFSAII (Michael W. Deem and Ramdas Pophale) SiO2 
 PCOD9057209
Probable space group: P -1
;
_chemical_formula_sum "Si O2"
_cell_formula_units_Z 12
_cell_length_a 12.592921
_cell_length_b 5.122295
_cell_length_c 9.216621
_cell_angle_alpha 106.325596
_cell_angle_beta 62.173919
_cell_angle_gamma 94.644162
_cell_volume 503.686204
_symmetry_space_group_name_H-M "P -1"
_symmetry_group_IT_number 2
_symmetry_cell_setting 'triclinic'
loop_
_space_group_symop_operation_xyz
x,y,z
-x,-y,-z
loop_
_atom_site_type_symbol
_atom_site_label
_atom_site_fract_x
_atom_site_fract_y
_atom_site_fract_z
Si Si1 0.061899 0.239765 0.581632
Si Si2 0.614812 0.162483 0.774584
Si Si3 0.733692 0.968441 0.377402
Si Si4 0.175080 0.429993 0.245904
Si Si5 0.624607 0.425616 0.322244
Si Si6 0.369337 0.077708 0.967970
O O1 0.137474 0.119417 0.649693
O O2 0.145645 0.356625 0.420484
O O3 0.950653 0.450320 0.719760
O O4 0.000000 0.000000 0.500000
O O5 0.719119 0.360883 0.777357
O O6 0.474826 0.262596 0.873633
O O7 0.649100 0.024530 0.580049
O O8 0.616652 0.949981 0.871729
O O9 0.682068 0.708124 0.290878
O O10 0.716184 0.244982 0.340586
O O11 0.232250 0.194498 0.069199
O O12 0.500000 0.500000 0.500000
O O13 0.609706 0.212429 0.168778
#
# Coordination Sequence:
#
# PCOD9057209 Si02
#       6
#     2   2   2   2   2   2
#     4  11  23  43  73 106 137 188 247 306 343 424
#     4  11  23  41  74 104 142 178 253 291 359 412
#     4  12  25  47  72 109 138 196 241 293 357 440
#     4  11  22  41  73 105 142 181 244 307 354 404
#     4  12  28  47  70 103 156 191 232 289 378 438
#     4  11  25  43  68 109 144 190 229 308 354 432
#
# _framework density 23.824355000000001
#
# number of rings (size 3 to 8) (size 9 to 14) (size 15 to 20)
#    0.000    0.667    5.000    2.000    4.667    0.000 
#    0.000    1.667    0.000    0.000    0.000    0.000 
#    0.000    0.000    0.000    0.000    0.000    0.000 
#
# Total GULP energy -67120.717861 kJ/mol
# GULP energy per Si atom -5593.393155 kJ/mol
# Density = 2.377013 g / cm^3
# Si number density = 23.824355 Si / 1000 Ang^3
#
#
#
# Elastic Constant Matrix: (Units=GPa)
#
#
# Indices 1 2 3 4 5 6 
#
# 1 123.9521 20.7168 31.6569 1.9572 -20.2233 -21.9523
# 2 20.7168 66.5128 17.9378 7.1567 -17.5988 -1.0171
# 3 31.6569 17.9378 109.0570 22.6410 -22.0220 -6.9771
# 4 1.9572 7.1567 22.6410 38.6353 -3.1715 -1.1502
# 5 -20.2233 -17.5988 -22.0220 -3.1715 49.6156 5.9543
# 6 -21.9523 -1.0171 -6.9771 -1.1502 5.9543 49.0476
#
#
#
# Elastic Compliance Matrix: (Units=1/GPa)
#
#
# Indices 1 2 3 4 5 6 
#
# 1 0.009968 -0.002086 -0.002205 0.001451 0.001970 0.003900
# 2 -0.002086 0.017458 -0.000884 -0.002243 0.004969 -0.001353
# 3 -0.002205 -0.000884 0.012057 -0.006482 0.003712 0.000107
# 4 0.001451 -0.002243 -0.006482 0.029939 -0.001231 0.000532
# 5 0.001970 0.004969 0.003712 -0.001231 0.024468 -0.001487
# 6 0.003900 -0.001353 0.000107 0.000532 -0.001487 0.022314
#
#
# Mechanical properties :
#
#
# Convention : Reuss Voigt Hill
#
# Bulk Modulus (GPa) = 34.32209 48.90498 41.61353
# Shear Modulus (GPa) = 36.69367 42.74039 39.71703
#
# Velocity S-wave (km/s) = 3.92876 4.24013 4.08741
# Velocity P-wave (km/s) = 5.91759 6.67409 6.30719
#
# Compressibility (1/GPa) = 0.02913576
#
# Stress axis : x y z
#
# Youngs Moduli (GPa) = 100.31777 57.28012 82.93874
#
# Poissons Ratio (x) = 0.11947 0.18285
# Poissons Ratio (y) = 0.20923 0.07329
# Poissons Ratio (z) = 0.22116 0.05061
#
# Static dielectric constant tensor:
#      x y z
#    x 1.992070 -0.059040 -0.031300 
#    y -0.059040 1.973700 0.021980 
#    z -0.031300 0.021980 1.911080 
# 
# From -- ./inp_files/61153.got.cif
#   From: 2010.05.17/outbox.cif.g08.bks.cpg/sg2_31_cif.got.tgz:61153.got - 2010.06.03 11:33:40.
