data_PCOD9057862
_publ_section_title
;
Structure prediction by ZEFSAII (Michael W. Deem and Ramdas Pophale) SiO2 
 PCOD9057862
Probable space group: P -1
;
_chemical_formula_sum "Si O2"
_cell_formula_units_Z 16
_cell_length_a 11.000035
_cell_length_b 8.771664
_cell_length_c 17.078831
_cell_angle_alpha 77.705643
_cell_angle_beta 40.076482
_cell_angle_gamma 50.992637
_cell_volume 695.427220
_symmetry_space_group_name_H-M "P -1"
_symmetry_group_IT_number 2
_symmetry_cell_setting 'triclinic'
loop_
_space_group_symop_operation_xyz
x,y,z
-x,-y,-z
loop_
_atom_site_type_symbol
_atom_site_label
_atom_site_fract_x
_atom_site_fract_y
_atom_site_fract_z
Si Si1 0.230436 0.014177 0.037531
Si Si2 0.093894 0.757032 0.110671
Si Si3 0.804594 0.732403 0.697443
Si Si4 0.919343 0.784949 0.369895
Si Si5 0.098731 0.516807 0.868639
Si Si6 0.918932 0.006352 0.627055
Si Si7 0.530514 0.962279 0.319516
Si Si8 0.464871 0.261107 0.933033
O O1 0.191862 0.869395 0.036360
O O2 0.300428 0.949663 0.101840
O O3 0.516467 0.909343 0.871310
O O4 0.937463 0.277919 0.132260
O O5 0.988104 0.792591 0.247113
O O6 0.826436 0.871529 0.177658
O O7 0.365557 0.486718 0.989665
O O8 0.933513 0.478197 0.664880
O O9 0.987391 0.775669 0.627323
O O10 0.696722 0.834435 0.651649
O O11 0.991016 0.898520 0.374188
O O12 0.604363 0.947605 0.538674
O O13 0.372922 0.271782 0.724906
O O14 0.000000 0.500000 0.000000
O O15 0.829227 0.650028 0.929867
O O16 0.588638 0.203315 0.791857
O O17 0.000000 0.000000 0.500000
#
# Coordination Sequence:
#
# PCOD9057862 Si02
#       8
#     2   2   2   2   2   2   2   2
#     4  12  22  42  70 106 131 182 246 283 351 417
#     4  11  25  45  71 104 140 189 230 300 354 415
#     4  12  25  46  75 105 139 189 236 296 352 419
#     4  12  25  49  73 101 148 184 240 290 350 428
#     4  11  23  42  64  97 144 182 226 293 351 412
#     4  12  25  42  72 109 137 181 240 289 354 413
#     4  11  25  46  65 100 145 189 227 288 362 415
#     4  11  22  43  72  98 141 179 236 299 339 419
#
# _framework density 23.007442000000001
#
# number of rings (size 3 to 8) (size 9 to 14) (size 15 to 20)
#    0.000    0.500    6.250    2.250    0.000    0.500 
#    6.750    0.625    0.000    0.000    0.000    0.000 
#    0.000    0.000    0.000    0.000    0.000    0.000 
#
# Total GULP energy -89224.348426 kJ/mol
# GULP energy per Si atom -5576.521777 kJ/mol
# Density = 2.295508 g / cm^3
# Si number density = 23.007442 Si / 1000 Ang^3
#
#
#
# Elastic Constant Matrix: (Units=GPa)
#
#
# Indices 1 2 3 4 5 6 
#
# 1 69.9243 27.4739 -1.6049 2.7764 5.8125 19.4372
# 2 27.4739 119.5639 19.4053 10.8691 3.4482 32.7660
# 3 -1.6049 19.4053 107.8993 7.1277 19.9670 6.0384
# 4 2.7764 10.8691 7.1277 31.6652 8.0447 -3.0087
# 5 5.8125 3.4482 19.9670 8.0447 41.9836 -2.2981
# 6 19.4372 32.7660 6.0384 -3.0087 -2.2981 30.0960
#
#
#
# Elastic Compliance Matrix: (Units=1/GPa)
#
#
# Indices 1 2 3 4 5 6 
#
# 1 0.018348 -0.001107 0.001908 -0.001826 -0.003636 -0.011488
# 2 -0.001107 0.013111 -0.001230 -0.005429 -0.000057 -0.013860
# 3 0.001908 -0.001230 0.010689 -0.001077 -0.005180 -0.002542
# 4 -0.001826 -0.005429 -0.001077 0.036153 -0.005140 0.010528
# 5 -0.003636 -0.000057 -0.005180 -0.005140 0.028053 0.005078
# 6 -0.011488 -0.013860 -0.002542 0.010528 0.005078 0.057686
#
#
# Mechanical properties :
#
#
# Convention : Reuss Voigt Hill
#
# Bulk Modulus (GPa) = 24.21749 43.10401 33.66075
# Shear Modulus (GPa) = 27.98611 37.55652 32.77131
#
# Velocity S-wave (km/s) = 3.49147 4.04464 3.77819
# Velocity P-wave (km/s) = 5.17712 6.37084 5.80475
#
# Compressibility (1/GPa) = 0.04129247
#
# Stress axis : x y z
#
# Youngs Moduli (GPa) = 54.50203 76.27200 93.55135
#
# Poissons Ratio (x) = 0.08440 -0.17852
# Poissons Ratio (y) = 0.06031 0.11503
# Poissons Ratio (z) = -0.10401 0.09378
#
# Static dielectric constant tensor:
#      x y z
#    x 2.010910 0.072460 0.012400 
#    y 0.072460 1.995790 0.019220 
#    z 0.012400 0.019220 1.852760 
# 
# From -- ./inp_files/558959.got.cif
#   From: 2010.05.17/outbox.cif.g08.bks.cpg/sg2_280_cif.got.tgz:558959.got - 2010.06.03 11:33:40.
