data_PCOD9057810
_publ_section_title
;
Structure prediction by ZEFSAII (Michael W. Deem and Ramdas Pophale) SiO2 
 PCOD9057810
Probable space group: P -1
;
_chemical_formula_sum "Si O2"
_cell_formula_units_Z 14
_cell_length_a 11.431880
_cell_length_b 15.917167
_cell_length_c 9.143927
_cell_angle_alpha 47.399573
_cell_angle_beta 60.908904
_cell_angle_gamma 27.500166
_cell_volume 532.653700
_symmetry_space_group_name_H-M "P -1"
_symmetry_group_IT_number 2
_symmetry_cell_setting 'triclinic'
loop_
_space_group_symop_operation_xyz
x,y,z
-x,-y,-z
loop_
_atom_site_type_symbol
_atom_site_label
_atom_site_fract_x
_atom_site_fract_y
_atom_site_fract_z
Si Si1 0.517819 0.524217 0.128565
Si Si2 0.907769 0.471602 0.240848
Si Si3 0.703595 0.131421 0.946047
Si Si4 0.175321 0.498482 0.126289
Si Si5 0.602571 0.043751 0.567225
Si Si6 0.256193 0.857756 0.425395
Si Si7 0.090419 0.265072 0.676658
O O1 0.299958 0.765341 0.055236
O O2 0.537461 0.396988 0.363936
O O3 0.500000 0.500000 0.000000
O O4 0.772922 0.421265 0.080918
O O5 0.611538 0.670446 0.124430
O O6 0.005479 0.530733 0.103887
O O7 0.903544 0.451386 0.442472
O O8 0.141474 0.212286 0.350334
O O9 0.797029 0.095147 0.769201
O O10 0.855862 0.907544 0.170055
O O11 0.460358 0.228671 0.312501
O O12 0.032204 0.624935 0.218880
O O13 0.663656 0.082404 0.619372
O O14 0.372668 0.123366 0.656910
O O15 0.000000 0.000000 0.500000
#
# Coordination Sequence:
#
# PCOD9057810 Si02
#       7
#     2   2   2   2   2   2   2
#     4  12  26  46  72  99 146 198 238 292 354 436
#     4  11  24  43  77 109 144 187 236 314 367 425
#     4  12  27  49  74 110 145 186 252 301 364 433
#     4  11  22  45  72 107 144 190 245 296 369 432
#     4  11  22  43  71 107 148 186 242 301 368 433
#     4  12  26  46  69 105 148 193 243 297 356 437
#     4  11  24  43  75 108 145 190 235 308 374 428
#
# _framework density 26.283494999999998
#
# number of rings (size 3 to 8) (size 9 to 14) (size 15 to 20)
#    0.000    0.571    1.429    9.000    0.000    5.714 
#    0.000    1.429    0.000    0.000    0.000    0.000 
#    0.000    0.000    0.000    0.000    0.000    0.000 
#
# Total GULP energy -78616.808555 kJ/mol
# GULP energy per Si atom -5615.486325 kJ/mol
# Density = 2.622367 g / cm^3
# Si number density = 26.283495 Si / 1000 Ang^3
#
#
#
# Elastic Constant Matrix: (Units=GPa)
#
#
# Indices 1 2 3 4 5 6 
#
# 1 155.7504 42.5784 40.2689 5.1775 -9.0490 27.4739
# 2 42.5784 121.7578 3.5314 1.4568 -13.4673 15.2781
# 3 40.2689 3.5314 89.3945 5.3319 -20.6909 5.0614
# 4 5.1775 1.4568 5.3319 53.3749 2.4498 -0.8439
# 5 -9.0490 -13.4673 -20.6909 2.4498 50.8732 -0.3750
# 6 27.4739 15.2781 5.0614 -0.8439 -0.3750 57.5776
#
#
#
# Elastic Compliance Matrix: (Units=1/GPa)
#
#
# Indices 1 2 3 4 5 6 
#
# 1 0.008615 -0.002584 -0.003734 -0.000410 -0.000674 -0.003107
# 2 -0.002584 0.009552 0.001507 -0.000306 0.002686 -0.001421
# 3 -0.003734 0.001507 0.014168 -0.001347 0.005563 0.000153
# 4 -0.000410 -0.000306 -0.001347 0.019003 -0.001612 0.000664
# 5 -0.000674 0.002686 0.005563 -0.001612 0.022583 -0.000757
# 6 -0.003107 -0.001421 0.000153 0.000664 -0.000757 0.019219
#
#
# Mechanical properties :
#
#
# Convention : Reuss Voigt Hill
#
# Bulk Modulus (GPa) = 44.02718 59.96224 51.99471
# Shear Modulus (GPa) = 45.31743 51.06674 48.19209
#
# Velocity S-wave (km/s) = 4.15683 4.41264 4.28664
# Velocity P-wave (km/s) = 6.31080 6.98749 6.65775
#
# Compressibility (1/GPa) = 0.02271324
#
# Stress axis : x y z
#
# Youngs Moduli (GPa) = 116.07631 104.68960 70.58029
#
# Poissons Ratio (x) = 0.27052 0.26356
# Poissons Ratio (y) = 0.29995 -0.10638
# Poissons Ratio (z) = 0.43345 -0.15778
#
# Static dielectric constant tensor:
#      x y z
#    x 2.079710 -0.051500 0.050820 
#    y -0.051500 2.119270 -0.004490 
#    z 0.050820 -0.004490 2.054270 
# 
# From -- ./inp_files/271787.got.cif
#   From: 2010.05.17/outbox.cif.g08.bks.cpg/sg2_136_cif.got.tgz:271787.got - 2010.06.03 11:33:40.
