data_PCOD9057581
_publ_section_title
;
Structure prediction by ZEFSAII (Michael W. Deem and Ramdas Pophale) SiO2 
 PCOD9057581
Probable space group: P -1
;
_chemical_formula_sum "Si O2"
_cell_formula_units_Z 14
_cell_length_a 9.991104
_cell_length_b 12.184501
_cell_length_c 9.901908
_cell_angle_alpha 128.429104
_cell_angle_beta 48.434045
_cell_angle_gamma 122.663183
_cell_volume 689.650940
_symmetry_space_group_name_H-M "P -1"
_symmetry_group_IT_number 2
_symmetry_cell_setting 'triclinic'
loop_
_space_group_symop_operation_xyz
x,y,z
-x,-y,-z
loop_
_atom_site_type_symbol
_atom_site_label
_atom_site_fract_x
_atom_site_fract_y
_atom_site_fract_z
Si Si1 0.555842 0.657502 0.257100
Si Si2 0.062090 0.177868 0.956509
Si Si3 0.500448 0.837315 0.917124
Si Si4 0.706647 0.318557 0.312887
Si Si5 0.900561 0.852267 0.774871
Si Si6 0.625791 0.363586 0.925731
Si Si7 0.006957 0.430682 0.591297
O O1 0.426622 0.713167 0.492909
O O2 0.482054 0.678860 0.173342
O O3 0.540309 0.485906 0.149282
O O4 0.769310 0.734679 0.176305
O O5 0.874650 0.236248 0.129027
O O6 0.123350 0.180607 0.074358
O O7 0.012932 0.014445 0.814636
O O8 0.418832 0.730330 0.769331
O O9 0.706205 0.836019 0.821020
O O10 0.381886 0.772036 0.077147
O O11 0.500000 0.000000 0.000000
O O12 0.813462 0.483303 0.386482
O O13 0.997122 0.734849 0.556520
O O14 0.829118 0.440676 0.803012
O O15 0.000000 0.500000 0.500000
#
# Coordination Sequence:
#
# PCOD9057581 Si02
#       7
#     2   2   2   2   2   2   2
#     4  11  22  42  76 107 132 183 249 291 347 415
#     4  11  22  44  71 102 135 185 242 287 344 425
#     4  12  27  47  65 102 155 188 224 293 366 422
#     4  12  25  44  72 103 145 182 232 298 352 419
#     4  11  23  43  70  98 142 187 231 296 350 408
#     4  11  23  42  71 105 143 185 234 297 353 413
#     4  12  22  43  74 106 136 177 245 300 340 413
#
# _framework density 20.300125000000001
#
# number of rings (size 3 to 8) (size 9 to 14) (size 15 to 20)
#    0.000    0.571    7.143    0.857    0.000    4.000 
#    2.571    4.286    0.000    0.000    0.000    0.000 
#    0.000    0.000    0.000    0.000    0.000    0.000 
#
# Total GULP energy -78231.200457 kJ/mol
# GULP energy per Si atom -5587.942890 kJ/mol
# Density = 2.025392 g / cm^3
# Si number density = 20.300125 Si / 1000 Ang^3
#
#
#
# Elastic Constant Matrix: (Units=GPa)
#
#
# Indices 1 2 3 4 5 6 
#
# 1 116.0644 25.3621 31.6795 1.8414 9.3383 17.7012
# 2 25.3621 85.7282 49.3269 -0.8635 9.1337 -1.4199
# 3 31.6795 49.3269 86.6414 5.6671 -8.5251 9.3502
# 4 1.8414 -0.8635 5.6671 38.1059 7.1812 1.8856
# 5 9.3383 9.1337 -8.5251 7.1812 27.2312 3.1022
# 6 17.7012 -1.4199 9.3502 1.8856 3.1022 32.9703
#
#
#
# Elastic Compliance Matrix: (Units=1/GPa)
#
#
# Indices 1 2 3 4 5 6 
#
# 1 0.010749 -0.000781 -0.003490 0.001008 -0.004273 -0.004470
# 2 -0.000781 0.021871 -0.014534 0.004949 -0.013662 0.006485
# 3 -0.003490 -0.014534 0.023797 -0.006379 0.015960 -0.006638
# 4 0.001008 0.004949 -0.006379 0.029447 -0.011872 0.000914
# 5 -0.004273 -0.013662 0.015960 -0.011872 0.051696 -0.007005
# 6 -0.004470 0.006485 -0.006638 0.000914 -0.007005 0.035499
#
#
# Mechanical properties :
#
#
# Convention : Reuss Voigt Hill
#
# Bulk Modulus (GPa) = 53.17107 55.68569 54.42838
# Shear Modulus (GPa) = 23.04819 31.79917 27.42368
#
# Velocity S-wave (km/s) = 3.37318 3.96214 3.67946
# Velocity P-wave (km/s) = 6.43588 6.95860 6.70234
#
# Compressibility (1/GPa) = 0.01880722
#
# Stress axis : x y z
#
# Youngs Moduli (GPa) = 93.03554 45.72166 42.02288
#
# Poissons Ratio (x) = 0.03569 0.14665
# Poissons Ratio (y) = 0.07262 0.61078
# Poissons Ratio (z) = 0.32467 0.66454
#
# Static dielectric constant tensor:
#      x y z
#    x 1.715120 -0.002190 -0.014090 
#    y -0.002190 1.737290 -0.000830 
#    z -0.014090 -0.000830 1.710470 
# 
# From -- ./inp_files/167458.got.cif
#   From: 2010.05.17/outbox.cif.g08.bks.cpg/sg2_84_cif.got.tgz:167458.got - 2010.06.03 11:33:40.
