data_PCOD9057101
_publ_section_title
;
Structure prediction by ZEFSAII (Michael W. Deem and Ramdas Pophale) SiO2 
 PCOD9057101
Probable space group: P -1
;
_chemical_formula_sum "Si O2"
_cell_formula_units_Z 12
_cell_length_a 25.422510
_cell_length_b 9.659342
_cell_length_c 5.439157
_cell_angle_alpha 101.760956
_cell_angle_beta 110.913361
_cell_angle_gamma 28.797197
_cell_volume 583.123806
_symmetry_space_group_name_H-M "P -1"
_symmetry_group_IT_number 2
_symmetry_cell_setting 'triclinic'
loop_
_space_group_symop_operation_xyz
x,y,z
-x,-y,-z
loop_
_atom_site_type_symbol
_atom_site_label
_atom_site_fract_x
_atom_site_fract_y
_atom_site_fract_z
Si Si1 0.380548 0.405241 0.695187
Si Si2 0.368075 0.176269 0.221110
Si Si3 0.819057 0.307666 0.237090
Si Si4 0.363024 0.771692 0.806759
Si Si5 0.050514 0.775761 0.197010
Si Si6 0.279466 0.100276 0.278160
O O1 0.372519 0.315778 0.419154
O O2 0.286274 0.555198 0.785608
O O3 0.351205 0.631892 0.678811
O O4 0.520658 0.087880 0.869553
O O5 0.361358 0.058776 0.351356
O O6 0.245133 0.448829 0.974448
O O7 0.874819 0.287825 0.522418
O O8 0.930916 0.979686 0.193764
O O9 0.316554 0.955806 0.552909
O O10 0.500000 0.500000 0.000000
O O11 0.300296 0.954460 0.023507
O O12 0.143468 0.450281 0.168371
O O13 0.000000 0.000000 0.000000
#
# Coordination Sequence:
#
# PCOD9057101 Si02
#       6
#     2   2   2   2   2   2
#     4  11  25  41  68 105 142 184 229 300 351 421
#     4  11  23  41  73 103 138 177 251 289 351 408
#     4  11  22  41  70 102 137 178 239 301 348 401
#     4  12  28  45  70 102 154 186 228 281 373 427
#     4  11  23  41  72 102 134 183 243 299 339 411
#     4  12  25  47  69 107 135 190 236 286 349 429
#
# _framework density 20.578818999999999
#
# number of rings (size 3 to 8) (size 9 to 14) (size 15 to 20)
#    0.000    0.667    5.000    2.000    4.667    1.333 
#    0.000    1.667    0.000    0.000    0.000    0.000 
#    0.000    0.000    0.000    0.000    0.000    0.000 
#
# Total GULP energy -66983.248545 kJ/mol
# GULP energy per Si atom -5581.937379 kJ/mol
# Density = 2.053198 g / cm^3
# Si number density = 20.578819 Si / 1000 Ang^3
#
#
#
# Elastic Constant Matrix: (Units=GPa)
#
#
# Indices 1 2 3 4 5 6 
#
# 1 94.1837 50.8584 20.7255 5.5804 -14.7107 5.9245
# 2 50.8584 174.6643 51.8096 14.6287 -15.3943 -12.2086
# 3 20.7255 51.8096 106.5941 -12.7614 -4.6587 17.4489
# 4 5.5804 14.6287 -12.7614 38.7884 -0.7428 -3.8732
# 5 -14.7107 -15.3943 -4.6587 -0.7428 27.4185 8.5962
# 6 5.9245 -12.2086 17.4489 -3.8732 8.5962 44.6353
#
#
#
# Elastic Compliance Matrix: (Units=1/GPa)
#
#
# Indices 1 2 3 4 5 6 
#
# 1 0.013989 -0.003679 -0.000060 -0.000937 0.006726 -0.004216
# 2 -0.003679 0.008905 -0.004755 -0.003951 0.000765 0.004293
# 3 -0.000060 -0.004755 0.013508 0.005638 0.001760 -0.006423
# 4 -0.000937 -0.003951 0.005638 0.029198 -0.000825 -0.000468
# 5 0.006726 0.000765 0.001760 -0.000825 0.043889 -0.009895
# 6 -0.004216 0.004293 -0.006423 -0.000468 -0.009895 0.028514
#
#
# Mechanical properties :
#
#
# Convention : Reuss Voigt Hill
#
# Bulk Modulus (GPa) = 51.51040 69.13659 60.32349
# Shear Modulus (GPa) = 30.96712 38.97167 34.96939
#
# Velocity S-wave (km/s) = 3.88339 4.35647 4.12672
# Velocity P-wave (km/s) = 6.72256 7.67946 7.21688
#
# Compressibility (1/GPa) = 0.01941356
#
# Stress axis : x y z
#
# Youngs Moduli (GPa) = 71.48719 112.29145 74.03220
#
# Poissons Ratio (x) = 0.41310 0.00443
# Poissons Ratio (y) = 0.26299 0.35205
# Poissons Ratio (z) = 0.00427 0.53399
#
# Static dielectric constant tensor:
#      x y z
#    x 1.760060 -0.011920 -0.051900 
#    y -0.011920 1.821980 0.010690 
#    z -0.051900 0.010690 1.783170 
# 
# From -- ./inp_files/92852.got.cif
#   From: 2010.05.17/outbox.cif.g08.bks.cpg/sg2_47_cif.got.tgz:92852.got - 2010.06.03 11:33:40.
