data_PCOD9057620
_publ_section_title
;
Structure prediction by ZEFSAII (Michael W. Deem and Ramdas Pophale) SiO2 
 PCOD9057620
Probable space group: P -1
;
_chemical_formula_sum "Si O2"
_cell_formula_units_Z 13
_cell_length_a 8.921809
_cell_length_b 13.245864
_cell_length_c 8.758048
_cell_angle_alpha 136.527632
_cell_angle_beta 91.703322
_cell_angle_gamma 60.859010
_cell_volume 524.026133
_symmetry_space_group_name_H-M "P -1"
_symmetry_group_IT_number 2
_symmetry_cell_setting 'triclinic'
loop_
_space_group_symop_operation_xyz
x,y,z
-x,-y,-z
loop_
_atom_site_type_symbol
_atom_site_label
_atom_site_fract_x
_atom_site_fract_y
_atom_site_fract_z
Si Si1 0.090482 0.095715 0.667200
Si Si2 0.395095 0.571387 0.737548
Si Si3 0.277622 0.430716 0.797572
Si Si4 0.500000 0.000000 0.500000
Si Si5 0.394668 0.291651 0.985610
Si Si6 0.959838 0.624380 0.487256
Si Si7 0.054062 0.107274 0.023284
O O1 0.278511 0.049026 0.538420
O O2 0.000000 0.000000 0.500000
O O3 0.902576 0.336559 0.908530
O O4 0.151242 0.026674 0.771518
O O5 0.500000 0.500000 0.500000
O O6 0.442952 0.417785 0.697385
O O7 0.440098 0.698726 0.952206
O O8 0.165195 0.688727 0.814867
O O9 0.182015 0.369857 0.624200
O O10 0.366376 0.294416 0.801430
O O11 0.555853 0.910656 0.219328
O O12 0.181847 0.489863 0.265451
O O13 0.000000 0.500000 0.500000
O O14 0.863878 0.834577 0.785040
O O15 0.000000 0.000000 0.000000
#
# Coordination Sequence:
#
# PCOD9057620 Si02
#       7
#     2   2   2   1   2   2   2
#     4  11  25  44  69 102 145 182 235 298 360 421
#     4  11  22  43  66 100 135 177 229 291 346 418
#     4  11  24  42  68  99 132 188 230 283 357 423
#     4  12  24  42  66 102 140 178 238 296 352 414
#     4  12  25  41  69  98 136 178 233 288 349 421
#     4  12  21  45  69  94 134 182 232 281 348 425
#     4  11  25  43  72 103 140 185 232 292 363 422
#
# _framework density 24.807924
#
# number of rings (size 3 to 8) (size 9 to 14) (size 15 to 20)
#    0.000    0.615    6.154    2.769    2.154    2.462 
#    0.000    0.000    0.000    6.462    0.000    0.000 
#    0.000    0.000    0.000    0.000    0.000    0.000 
#
# Total GULP energy -72459.951701 kJ/mol
# GULP energy per Si atom -5573.842439 kJ/mol
# Density = 2.475146 g / cm^3
# Si number density = 24.807924 Si / 1000 Ang^3
#
#
#
# Elastic Constant Matrix: (Units=GPa)
#
#
# Indices 1 2 3 4 5 6 
#
# 1 140.9766 23.3350 66.9705 -13.6193 32.4823 5.8164
# 2 23.3350 74.2053 30.3304 -8.3700 -4.6461 7.4615
# 3 66.9705 30.3304 131.7503 -21.9260 39.4531 -13.3608
# 4 -13.6193 -8.3700 -21.9260 41.3153 -6.0543 -0.8542
# 5 32.4823 -4.6461 39.4531 -6.0543 72.0297 -11.9250
# 6 5.8164 7.4615 -13.3608 -0.8542 -11.9250 40.6771
#
#
#
# Elastic Compliance Matrix: (Units=1/GPa)
#
#
# Indices 1 2 3 4 5 6 
#
# 1 0.010191 -0.001218 -0.004350 0.000315 -0.002843 -0.003489
# 2 -0.001218 0.016292 -0.004339 0.001049 0.003539 -0.003180
# 3 -0.004350 -0.004339 0.013306 0.004183 -0.004500 0.004557
# 4 0.000315 0.001049 0.004183 0.026803 0.000177 0.001751
# 5 -0.002843 0.003539 -0.004500 0.000177 0.018486 0.003702
# 6 -0.003489 -0.003180 0.004557 0.001751 0.003702 0.028285
#
#
# Mechanical properties :
#
#
# Convention : Reuss Voigt Hill
#
# Bulk Modulus (GPa) = 50.06201 65.35600 57.70900
# Shear Modulus (GPa) = 35.75627 45.89086 40.82357
#
# Velocity S-wave (km/s) = 3.80060 4.30565 4.06098
# Velocity P-wave (km/s) = 6.28355 7.14984 6.73065
#
# Compressibility (1/GPa) = 0.01997523
#
# Stress axis : x y z
#
# Youngs Moduli (GPa) = 98.12775 61.37836 75.15422
#
# Poissons Ratio (x) = 0.07478 0.32690
# Poissons Ratio (y) = 0.11955 0.32609
# Poissons Ratio (z) = 0.42683 0.26632
#
# Static dielectric constant tensor:
#      x y z
#    x 1.842840 -0.201000 -0.281190 
#    y -0.201000 1.392230 -0.501580 
#    z -0.281190 -0.501580 1.817980 
# 
# From -- ./inp_files/151337.got.cif
#   From: 2010.05.17/outbox.cif.g08.bks.cpg/sg2_76_cif.got.tgz:151337.got - 2010.06.03 11:33:40.
