data_PCOD9057388
_publ_section_title
;
Structure prediction by ZEFSAII (Michael W. Deem and Ramdas Pophale) SiO2 
 PCOD9057388
Probable space group: P -1
;
_chemical_formula_sum "Si O2"
_cell_formula_units_Z 14
_cell_length_a 9.182535
_cell_length_b 11.984651
_cell_length_c 23.649645
_cell_angle_alpha 25.966811
_cell_angle_beta 32.407254
_cell_angle_gamma 39.059174
_cell_volume 609.036316
_symmetry_space_group_name_H-M "P -1"
_symmetry_group_IT_number 2
_symmetry_cell_setting 'triclinic'
loop_
_space_group_symop_operation_xyz
x,y,z
-x,-y,-z
loop_
_atom_site_type_symbol
_atom_site_label
_atom_site_fract_x
_atom_site_fract_y
_atom_site_fract_z
Si Si1 0.801600 0.305214 0.575017
Si Si2 0.684426 0.763347 0.484100
Si Si3 0.958871 0.010289 0.866197
Si Si4 0.393692 0.717959 0.777772
Si Si5 0.205981 0.184389 0.818195
Si Si6 0.460655 0.357931 0.821957
Si Si7 0.014021 0.290104 0.382842
O O1 0.741609 0.596556 0.484556
O O2 0.529155 0.152719 0.738852
O O3 0.902826 0.303776 0.477765
O O4 0.038110 0.200626 0.588380
O O5 0.513311 0.583161 0.660126
O O6 0.541289 0.037130 0.393034
O O7 0.748213 0.206281 0.812327
O O8 0.144727 0.132627 0.795699
O O9 0.150800 0.832135 0.843988
O O10 0.748182 0.831892 0.046958
O O11 0.340534 0.484802 0.860989
O O12 0.672389 0.643098 0.752523
O O13 0.136759 0.490580 0.706209
O O14 0.000000 0.000000 0.000000
O O15 0.000000 0.000000 0.500000
#
# Coordination Sequence:
#
# PCOD9057388 Si02
#       7
#     2   2   2   2   2   2   2
#     4  11  23  43  71  98 138 187 225 281 345 414
#     4  11  22  42  69 106 131 171 234 283 337 401
#     4  11  24  44  68  95 141 186 220 278 349 413
#     4  12  23  42  69 103 137 170 230 283 340 410
#     4  12  25  47  68  98 140 187 232 284 348 411
#     4  11  23  43  69 101 138 179 226 278 340 411
#     4  12  25  44  69 102 140 181 235 284 344 413
#
# _framework density 22.987134999999999
#
# number of rings (size 3 to 8) (size 9 to 14) (size 15 to 20)
#    0.000    0.571    2.857    6.429    0.000    1.143 
#    2.571    1.429    0.000    0.000    0.000    0.000 
#    0.000    0.000    0.000    0.000    0.000    0.000 
#
# Total GULP energy -78331.202131 kJ/mol
# GULP energy per Si atom -5595.085866 kJ/mol
# Density = 2.293482 g / cm^3
# Si number density = 22.987135 Si / 1000 Ang^3
#
#
#
# Elastic Constant Matrix: (Units=GPa)
#
#
# Indices 1 2 3 4 5 6 
#
# 1 83.3131 22.3902 32.1032 5.3519 -15.2601 9.5795
# 2 22.3902 95.9645 12.3396 18.0652 1.0091 19.3493
# 3 32.1032 12.3396 116.7367 11.7778 -12.3167 2.6845
# 4 5.3519 18.0652 11.7778 21.3108 11.0693 2.1085
# 5 -15.2601 1.0091 -12.3167 11.0693 35.9480 -4.3925
# 6 9.5795 19.3493 2.6845 2.1085 -4.3925 40.8978
#
#
#
# Elastic Compliance Matrix: (Units=1/GPa)
#
#
# Indices 1 2 3 4 5 6 
#
# 1 0.015319 -0.002324 -0.002898 -0.003501 0.006480 -0.001422
# 2 -0.002324 0.014279 0.000724 -0.012442 0.002032 -0.005399
# 3 -0.002898 0.000724 0.010666 -0.008488 0.005094 0.000621
# 4 -0.003501 -0.012442 -0.008488 0.077492 -0.027873 0.000275
# 5 0.006480 0.002032 0.005094 -0.027873 0.041212 0.003050
# 6 -0.001422 -0.005399 0.000621 0.000275 0.003050 0.027611
#
#
# Mechanical properties :
#
#
# Convention : Reuss Voigt Hill
#
# Bulk Modulus (GPa) = 31.98124 47.74226 39.86175
# Shear Modulus (GPa) = 24.27192 34.91008 29.59100
#
# Velocity S-wave (km/s) = 3.25297 3.90125 3.59177
# Velocity P-wave (km/s) = 5.29641 6.41149 5.88044
#
# Compressibility (1/GPa) = 0.03126833
#
# Stress axis : x y z
#
# Youngs Moduli (GPa) = 65.27696 70.03222 93.75463
#
# Poissons Ratio (x) = 0.16276 0.27167
# Poissons Ratio (y) = 0.15171 -0.06784
# Poissons Ratio (z) = 0.18915 -0.05067
#
# Static dielectric constant tensor:
#      x y z
#    x 1.856930 0.033580 0.019710 
#    y 0.033580 1.840010 0.021710 
#    z 0.019710 0.021710 1.894700 
# 
# From -- ./inp_files/607737.got.cif
#   From: 2010.05.17/outbox.cif.g08.bks.cpg/sg2_304_cif.got.tgz:607737.got - 2010.06.03 11:33:40.
