data_PCOD9057903
_publ_section_title
;
Structure prediction by ZEFSAII (Michael W. Deem and Ramdas Pophale) SiO2 
 PCOD9057903
Probable space group: P -1
;
_chemical_formula_sum "Si O2"
_cell_formula_units_Z 14
_cell_length_a 10.901446
_cell_length_b 8.143744
_cell_length_c 6.851781
_cell_angle_alpha 91.322578
_cell_angle_beta 92.076624
_cell_angle_gamma 56.388446
_cell_volume 506.254920
_symmetry_space_group_name_H-M "P -1"
_symmetry_group_IT_number 2
_symmetry_cell_setting 'triclinic'
loop_
_space_group_symop_operation_xyz
x,y,z
-x,-y,-z
loop_
_atom_site_type_symbol
_atom_site_label
_atom_site_fract_x
_atom_site_fract_y
_atom_site_fract_z
Si Si1 0.902475 0.855643 0.794325
Si Si2 0.231352 0.713783 0.313746
Si Si3 0.586699 0.617035 0.980625
Si Si4 0.292865 0.181999 0.477528
Si Si5 0.888208 0.441133 0.936371
Si Si6 0.492907 0.715900 0.419472
Si Si7 0.352162 0.019628 0.905069
O O1 0.859311 0.742080 0.638575
O O2 0.061747 0.725958 0.898306
O O3 0.870553 0.051784 0.696735
O O4 0.781994 0.931346 0.962928
O O5 0.367377 0.670375 0.460665
O O6 0.117333 0.646725 0.274939
O O7 0.329457 0.597148 0.122100
O O8 0.442091 0.780933 0.862485
O O9 0.556309 0.628456 0.207110
O O10 0.500000 0.000000 0.000000
O O11 0.726712 0.635553 0.967056
O O12 0.367322 0.307007 0.458243
O O13 0.398007 0.956888 0.395586
O O14 0.293186 0.139243 0.704451
O O15 0.000000 0.500000 0.000000
#
# Coordination Sequence:
#
# PCOD9057903 Si02
#       7
#     2   2   2   2   2   2   2
#     4  11  22  42  63  90 129 167 202 247 315 377
#     4   9  20  36  65  88 124 164 207 249 314 363
#     4  10  20  34  64  92 118 161 208 253 307 355
#     4  10  21  34  64  97 124 156 210 251 314 366
#     4  10  23  37  63  94 123 166 210 247 309 378
#     4  10  17  37  57  93 120 152 204 260 297 357
#     4  12  19  34  65  91 122 161 206 260 299 358
#
# _framework density 27.654053000000001
#
# number of rings (size 3 to 8) (size 9 to 14) (size 15 to 20)
#    0.857    0.857    4.286    2.571    0.000    0.000 
#    0.000    3.571    3.143    7.714    0.000    0.000 
#    0.000    0.000    0.000    0.000    0.000    0.000 
#
# Total GULP energy -78030.938808 kJ/mol
# GULP energy per Si atom -5573.638486 kJ/mol
# Density = 2.759111 g / cm^3
# Si number density = 27.654053 Si / 1000 Ang^3
#
#
#
# Elastic Constant Matrix: (Units=GPa)
#
#
# Indices 1 2 3 4 5 6 
#
# 1 108.9831 14.6593 43.0728 1.7856 39.6900 18.6409
# 2 14.6593 47.0123 22.6603 -1.1421 30.3849 -2.3417
# 3 43.0728 22.6603 138.1674 -9.7458 32.1552 -1.8933
# 4 1.7856 -1.1421 -9.7458 48.8443 -6.7339 19.5185
# 5 39.6900 30.3849 32.1552 -6.7339 65.5253 -0.2231
# 6 18.6409 -2.3417 -1.8933 19.5185 -0.2231 46.2334
#
#
#
# Elastic Compliance Matrix: (Units=1/GPa)
#
#
# Indices 1 2 3 4 5 6 
#
# 1 0.013911 0.001859 -0.002874 0.000170 -0.007879 -0.005742
# 2 0.001859 0.031437 -0.002458 -0.002557 -0.014754 0.001751
# 3 -0.002874 -0.002458 0.008962 0.001309 -0.001380 0.000842
# 4 0.000170 -0.002557 0.001309 0.025425 0.003017 -0.010864
# 5 -0.007879 -0.014754 -0.001380 0.003017 0.027867 0.001234
# 6 -0.005742 0.001751 0.000842 -0.010864 0.001234 0.028660
#
#
# Mechanical properties :
#
#
# Convention : Reuss Voigt Hill
#
# Bulk Modulus (GPa) = 21.11390 50.54973 35.83181
# Shear Modulus (GPa) = 31.44719 46.37198 38.90958
#
# Velocity S-wave (km/s) = 3.37584 4.09939 3.75509
# Velocity P-wave (km/s) = 4.77982 6.38167 5.63792
#
# Compressibility (1/GPa) = 0.04736217
#
# Stress axis : x y z
#
# Youngs Moduli (GPa) = 71.88754 31.80935 111.58596
#
# Poissons Ratio (x) = -0.05912 0.32074
# Poissons Ratio (y) = -0.13361 0.27428
# Poissons Ratio (z) = 0.20663 0.07819
#
# Static dielectric constant tensor:
#      x y z
#    x 2.421730 0.218810 0.120420 
#    y 0.218810 2.562020 0.029950 
#    z 0.120420 0.029950 2.204090 
# 
# From -- ./inp_files/239867.got.cif
#   From: 2010.05.17/outbox.cif.g08.bks.cpg/sg2_120_cif.got.tgz:239867.got - 2010.06.03 11:33:40.
