data_PCOD9057295
_publ_section_title
;
Structure prediction by ZEFSAII (Michael W. Deem and Ramdas Pophale) SiO2 
 PCOD9057295
Probable space group: P -1
;
_chemical_formula_sum "Si O2"
_cell_formula_units_Z 16
_cell_length_a 9.411056
_cell_length_b 9.595693
_cell_length_c 15.373999
_cell_angle_alpha 128.008608
_cell_angle_beta 81.099325
_cell_angle_gamma 63.770377
_cell_volume 782.080816
_symmetry_space_group_name_H-M "P -1"
_symmetry_group_IT_number 2
_symmetry_cell_setting 'triclinic'
loop_
_space_group_symop_operation_xyz
x,y,z
-x,-y,-z
loop_
_atom_site_type_symbol
_atom_site_label
_atom_site_fract_x
_atom_site_fract_y
_atom_site_fract_z
Si Si1 0.239642 0.584331 0.340950
Si Si2 0.875879 0.857489 0.188593
Si Si3 0.198068 0.474132 0.875649
Si Si4 0.924901 0.063335 0.663885
Si Si5 0.046150 0.794624 0.853040
Si Si6 0.439744 0.747503 0.132296
Si Si7 0.658645 0.907854 0.874332
Si Si8 0.403825 0.644048 0.655564
O O1 0.208707 0.690460 0.288005
O O2 0.253410 0.360560 0.259300
O O3 0.435785 0.493351 0.335302
O O4 0.050363 0.823141 0.501308
O O5 0.855314 0.682405 0.162581
O O6 0.928315 0.945601 0.294829
O O7 0.675351 0.090120 0.250497
O O8 0.052713 0.706041 0.043358
O O9 0.156451 0.562531 0.815803
O O10 0.418487 0.325247 0.829195
O O11 0.783754 0.075565 0.745649
O O12 0.202393 0.714582 0.732040
O O13 0.839615 0.882720 0.876402
O O14 0.000000 0.000000 0.000000
O O15 0.453014 0.887064 0.111562
O O16 0.500000 0.500000 0.000000
O O17 0.500000 0.000000 0.000000
O O18 0.500000 0.500000 0.500000
#
# Coordination Sequence:
#
# PCOD9057295 Si02
#       8
#     2   2   2   2   2   2   2   2
#     4  11  25  44  69  95 134 180 221 276 338 401
#     4  11  22  42  66  97 130 176 218 281 332 397
#     4  11  24  39  69  97 133 169 227 279 334 385
#     4  11  23  45  67  93 134 180 224 268 339 405
#     4  12  24  44  68  99 133 174 226 275 331 399
#     4  12  23  41  66  96 132 173 218 273 334 392
#     4  12  27  43  68 102 136 170 226 285 335 396
#     4  12  24  45  70  97 135 181 223 271 339 405
#
# _framework density 20.458244000000001
#
# number of rings (size 3 to 8) (size 9 to 14) (size 15 to 20)
#    0.000    0.500    3.750    5.250    3.500    0.500 
#    2.250    0.625    0.000    0.000    0.000    0.000 
#    0.000    0.000    0.000    0.000    0.000    0.000 
#
# Total GULP energy -89456.669503 kJ/mol
# GULP energy per Si atom -5591.041844 kJ/mol
# Density = 2.041168 g / cm^3
# Si number density = 20.458244 Si / 1000 Ang^3
#
#
#
# Elastic Constant Matrix: (Units=GPa)
#
#
# Indices 1 2 3 4 5 6 
#
# 1 82.1460 -2.3245 23.1515 -2.1546 -11.6810 -4.0565
# 2 -2.3245 120.1076 16.1645 7.4878 -9.4316 2.4385
# 3 23.1515 16.1645 83.5824 6.3969 -5.6607 20.9719
# 4 -2.1546 7.4878 6.3969 31.8872 4.3693 -4.2753
# 5 -11.6810 -9.4316 -5.6607 4.3693 25.5318 -1.7787
# 6 -4.0565 2.4385 20.9719 -4.2753 -1.7787 39.7535
#
#
#
# Elastic Compliance Matrix: (Units=1/GPa)
#
#
# Indices 1 2 3 4 5 6 
#
# 1 0.014824 0.001284 -0.005213 0.001522 0.006162 0.004624
# 2 0.001284 0.009024 -0.001787 -0.002149 0.003925 0.000465
# 3 -0.005213 -0.001787 0.016579 -0.004654 0.000756 -0.009635
# 4 0.001522 -0.002149 -0.004654 0.034637 -0.006627 0.006171
# 5 0.006162 0.003925 0.000756 -0.006627 0.044827 0.001282
# 6 0.004624 0.000465 -0.009635 0.006171 0.001282 0.031402
#
#
# Mechanical properties :
#
#
# Convention : Reuss Voigt Hill
#
# Bulk Modulus (GPa) = 34.49145 39.97987 37.23566
# Shear Modulus (GPa) = 29.00390 36.02415 32.51403
#
# Velocity S-wave (km/s) = 3.76934 4.20082 3.99091
# Velocity P-wave (km/s) = 5.98664 6.56611 6.28306
#
# Compressibility (1/GPa) = 0.02899269
#
# Stress axis : x y z
#
# Youngs Moduli (GPa) = 67.46031 110.81588 60.31777
#
# Poissons Ratio (x) = -0.14225 0.31446
# Poissons Ratio (y) = -0.08660 0.10779
# Poissons Ratio (z) = 0.35170 0.19803
#
# Static dielectric constant tensor:
#      x y z
#    x 2.658070 -0.220680 0.391360 
#    y -0.220680 1.769450 -0.085160 
#    z 0.391360 -0.085160 1.888430 
# 
# From -- ./inp_files/227704.got.cif
#   From: 2010.05.17/outbox.cif.g08.bks.cpg/sg2_114_cif.got.tgz:227704.got - 2010.06.03 11:33:40.
