data_PCOD9057248
_publ_section_title
;
Structure prediction by ZEFSAII (Michael W. Deem and Ramdas Pophale) SiO2 
 PCOD9057248
Probable space group: P -1
;
_chemical_formula_sum "Si O2"
_cell_formula_units_Z 15
_cell_length_a 11.871515
_cell_length_b 9.368958
_cell_length_c 9.668028
_cell_angle_alpha 50.298734
_cell_angle_beta 78.696319
_cell_angle_gamma 56.165064
_cell_volume 665.425253
_symmetry_space_group_name_H-M "P -1"
_symmetry_group_IT_number 2
_symmetry_cell_setting 'triclinic'
loop_
_space_group_symop_operation_xyz
x,y,z
-x,-y,-z
loop_
_atom_site_type_symbol
_atom_site_label
_atom_site_fract_x
_atom_site_fract_y
_atom_site_fract_z
Si Si1 0.998961 0.685455 0.298937
Si Si2 0.269947 0.929166 0.018259
Si Si3 0.267751 0.302871 0.325257
Si Si4 0.500000 0.000000 0.000000
Si Si5 0.562419 0.711624 0.447933
Si Si6 0.275580 0.857755 0.560869
Si Si7 0.172313 0.795230 0.363913
Si Si8 0.658564 0.420018 0.008741
O O1 0.120172 0.537815 0.249499
O O2 0.043747 0.812119 0.310012
O O3 0.000000 0.500000 0.500000
O O4 0.846931 0.848527 0.171601
O O5 0.284436 0.726014 0.055264
O O6 0.412529 0.906243 0.014584
O O7 0.207850 0.942200 0.174497
O O8 0.373709 0.230447 0.474338
O O9 0.246814 0.103525 0.433562
O O10 0.326799 0.371919 0.140942
O O11 0.516740 0.871167 0.227112
O O12 0.430937 0.717531 0.538269
O O13 0.693186 0.463629 0.524495
O O14 0.166780 0.862292 0.480738
O O15 0.276417 0.737965 0.775007
O O16 0.500000 0.500000 0.000000
#
# Coordination Sequence:
#
# PCOD9057248 Si02
#       8
#     2   2   2   1   2   2   2   2
#     4  11  24  50  75  96 138 193 251 285 350 437
#     4  12  24  46  73 103 136 192 239 290 354 436
#     4  11  25  46  70 106 145 194 236 293 361 434
#     4  12  26  36  76 108 136 178 246 298 356 402
#     4  11  22  42  64 104 147 186 234 289 352 430
#     4  12  24  42  67 108 148 177 235 306 355 413
#     4  11  24  44  72 100 142 185 240 296 344 421
#     4  12  25  41  72 104 149 193 228 288 377 426
#
# _framework density 22.541975999999998
#
# number of rings (size 3 to 8) (size 9 to 14) (size 15 to 20)
#    0.000    0.533    5.333    4.400    3.733    0.000 
#    2.400    3.333    0.000    0.000    0.000    0.000 
#    0.000    0.000    0.000    0.000    0.000    0.000 
#
# Total GULP energy -83660.838751 kJ/mol
# GULP energy per Si atom -5577.389250 kJ/mol
# Density = 2.249067 g / cm^3
# Si number density = 22.541976 Si / 1000 Ang^3
#
#
#
# Elastic Constant Matrix: (Units=GPa)
#
#
# Indices 1 2 3 4 5 6 
#
# 1 5.9559 20.9768 11.7106 3.0742 -22.4833 31.2860
# 2 20.9768 54.1001 32.5410 -1.3382 12.4883 19.4509
# 3 11.7106 32.5410 139.7616 3.5166 -13.8621 26.3664
# 4 3.0742 -1.3382 3.5166 23.6448 2.0557 2.1079
# 5 -22.4833 12.4883 -13.8621 2.0557 28.6924 5.3804
# 6 31.2860 19.4509 26.3664 2.1079 5.3804 34.2396
#
#
#
# Elastic Compliance Matrix: (Units=1/GPa)
#
#
# Indices 1 2 3 4 5 6 
#
# 1 -0.014295 0.008264 -0.005905 0.003598 -0.020905 0.015977
# 2 0.008264 0.024590 -0.003164 0.002680 -0.002409 -0.018871
# 3 -0.005905 -0.003164 0.008343 -0.000776 0.000704 0.000705
# 4 0.003598 0.002680 -0.000776 0.042740 -0.000516 -0.006762
# 5 -0.020905 -0.002409 0.000704 -0.000516 0.016645 0.017344
# 6 0.015977 -0.018871 0.000705 -0.006762 0.017344 0.022475
#
#
# Mechanical properties :
#
#
# Convention : Reuss Voigt Hill
#
# Bulk Modulus (GPa) = 58.72105 36.69715 47.70910
# Shear Modulus (GPa) = 46.38952 26.28798 36.33875
#
# Velocity S-wave (km/s) = 4.54135 3.41864 4.01939
# Velocity P-wave (km/s) = 7.32152 5.64780 6.53844
#
# Compressibility (1/GPa) = 0.01702967
#
# Stress axis : x y z
#
# Youngs Moduli (GPa) = -69.95611 40.66696 119.86327
#
# Poissons Ratio (x) = -0.33609 0.70773
# Poissons Ratio (y) = 0.57815 0.37927
# Poissons Ratio (z) = -0.41306 0.12868
#
# Static dielectric constant tensor:
#      x y z
#    x 1.772690 0.009970 -0.017620 
#    y 0.009970 1.900750 0.036530 
#    z -0.017620 0.036530 1.843160 
# 
# From -- ./inp_files/241978.got.cif
#   From: 2010.05.17/outbox.cif.g08.bks.cpg/sg2_121_cif.got.tgz:241978.got - 2010.06.03 11:33:40.
