data_PCOD9057781
_publ_section_title
;
Structure prediction by ZEFSAII (Michael W. Deem and Ramdas Pophale) SiO2 
 PCOD9057781
Probable space group: P -1
;
_chemical_formula_sum "Si O2"
_cell_formula_units_Z 16
_cell_length_a 9.211007
_cell_length_b 11.331264
_cell_length_c 19.455941
_cell_angle_alpha 157.829342
_cell_angle_beta 115.934257
_cell_angle_gamma 67.604801
_cell_volume 687.407440
_symmetry_space_group_name_H-M "P -1"
_symmetry_group_IT_number 2
_symmetry_cell_setting 'triclinic'
loop_
_space_group_symop_operation_xyz
x,y,z
-x,-y,-z
loop_
_atom_site_type_symbol
_atom_site_label
_atom_site_fract_x
_atom_site_fract_y
_atom_site_fract_z
Si Si1 0.422412 0.803797 0.617509
Si Si2 0.914622 0.821639 0.656900
Si Si3 0.268129 0.769182 0.072989
Si Si4 0.141216 0.176303 0.805508
Si Si5 0.825894 0.141329 0.044856
Si Si6 0.641507 0.524787 0.713502
Si Si7 0.885376 0.120208 0.600763
Si Si8 0.701862 0.625714 0.377761
O O1 0.500000 0.500000 0.500000
O O2 0.386813 0.726741 0.489210
O O3 0.547558 0.101748 0.814866
O O4 0.259104 0.897269 0.669662
O O5 0.775468 0.766637 0.540196
O O6 0.000000 0.500000 0.500000
O O7 0.831178 0.929537 0.766514
O O8 0.047394 0.105153 0.818201
O O9 0.212156 0.671935 0.932362
O O10 0.232151 0.505584 0.981381
O O11 0.000728 0.141021 0.701044
O O12 0.684348 0.862693 0.871186
O O13 0.807787 0.354117 0.223093
O O14 0.000000 0.000000 0.000000
O O15 0.805383 0.438514 0.738124
O O16 0.482191 0.501103 0.714839
O O17 0.731584 0.888752 0.467065
O O18 0.000000 0.000000 0.500000
#
# Coordination Sequence:
#
# PCOD9057781 Si02
#       8
#     2   2   2   2   2   2   2   2
#     4  12  24  44  70 102 137 186 231 284 358 423
#     4  11  24  42  72  99 142 183 230 285 353 420
#     4  12  24  46  66 103 140 179 236 286 350 417
#     4  11  25  42  69 103 138 181 234 291 348 415
#     4  12  26  43  71 102 140 183 236 288 347 416
#     4  12  24  44  70  99 143 181 236 288 349 419
#     4  11  22  43  70  98 135 186 230 284 348 419
#     4  11  25  44  66 104 137 180 233 290 351 410
#
# _framework density 23.275860000000002
#
# number of rings (size 3 to 8) (size 9 to 14) (size 15 to 20)
#    0.000    0.500    3.750    5.250    1.750    0.000 
#    0.000    1.250    0.000    0.000    0.000    0.000 
#    0.000    0.000    0.000    0.000    0.000    0.000 
#
# Total GULP energy -89496.801368 kJ/mol
# GULP energy per Si atom -5593.550085 kJ/mol
# Density = 2.322288 g / cm^3
# Si number density = 23.275860 Si / 1000 Ang^3
#
#
#
# Elastic Constant Matrix: (Units=GPa)
#
#
# Indices 1 2 3 4 5 6 
#
# 1 126.7135 16.1749 20.5007 7.6508 -0.1475 5.3044
# 2 16.1749 37.8461 -0.4551 7.3187 4.7356 -6.3140
# 3 20.5007 -0.4551 55.0392 2.5035 3.7626 -0.6312
# 4 7.6508 7.3187 2.5035 40.1299 6.4285 -2.6951
# 5 -0.1475 4.7356 3.7626 6.4285 49.3700 7.8583
# 6 5.3044 -6.3140 -0.6312 -2.6951 7.8583 31.0318
#
#
#
# Elastic Compliance Matrix: (Units=1/GPa)
#
#
# Indices 1 2 3 4 5 6 
#
# 1 0.009228 -0.004433 -0.003548 -0.001147 0.001349 -0.002993
# 2 -0.004433 0.030859 0.002434 -0.003790 -0.003898 0.007744
# 3 -0.003548 0.002434 0.019694 -0.000546 -0.001985 0.001958
# 4 -0.001147 -0.003790 -0.000546 0.026595 -0.003476 0.002604
# 5 0.001349 -0.003898 -0.001985 -0.003476 0.022356 -0.007027
# 6 -0.002993 0.007744 0.001958 0.002604 -0.007027 0.036358
#
#
# Mechanical properties :
#
#
# Convention : Reuss Voigt Hill
#
# Bulk Modulus (GPa) = 20.53952 32.44888 26.49420
# Shear Modulus (GPa) = 29.00041 36.33155 32.66598
#
# Velocity S-wave (km/s) = 3.53362 3.95512 3.75030
# Velocity P-wave (km/s) = 5.04898 5.90158 5.49185
#
# Compressibility (1/GPa) = 0.04868662
#
# Stress axis : x y z
#
# Youngs Moduli (GPa) = 108.36829 32.40519 50.77790
#
# Poissons Ratio (x) = 0.14365 0.18017
# Poissons Ratio (y) = 0.48038 -0.12359
# Poissons Ratio (z) = 0.38451 -0.07887
#
# Static dielectric constant tensor:
#      x y z
#    x 1.899180 0.028440 0.053510 
#    y 0.028440 1.877490 0.047030 
#    z 0.053510 0.047030 1.896400 
# 
# From -- ./inp_files/223432.got.cif
#   From: 2010.05.17/outbox.cif.g08.bks.cpg/sg2_112_cif.got.tgz:223432.got - 2010.06.03 11:33:40.
