data_PCOD9057640
_publ_section_title
;
Structure prediction by ZEFSAII (Michael W. Deem and Ramdas Pophale) SiO2 
 PCOD9057640
Probable space group: P -1
;
_chemical_formula_sum "Si O2"
_cell_formula_units_Z 16
_cell_length_a 9.483287
_cell_length_b 19.649617
_cell_length_c 5.843570
_cell_angle_alpha 112.986190
_cell_angle_beta 99.611577
_cell_angle_gamma 41.909077
_cell_volume 655.908076
_symmetry_space_group_name_H-M "P -1"
_symmetry_group_IT_number 2
_symmetry_cell_setting 'triclinic'
loop_
_space_group_symop_operation_xyz
x,y,z
-x,-y,-z
loop_
_atom_site_type_symbol
_atom_site_label
_atom_site_fract_x
_atom_site_fract_y
_atom_site_fract_z
Si Si1 0.415538 0.977631 0.758928
Si Si2 0.211661 0.906168 0.778657
Si Si3 0.689962 0.261398 0.742883
Si Si4 0.985730 0.609675 0.668967
Si Si5 0.397582 0.298810 0.063524
Si Si6 0.807978 0.735871 0.365614
Si Si7 0.946761 0.777728 0.111806
Si Si8 0.470858 0.468022 0.699289
O O1 0.278438 0.961447 0.787790
O O2 0.632365 0.858785 0.573071
O O3 0.255464 0.091394 0.722402
O O4 0.500000 0.000000 0.000000
O O5 0.203253 0.853653 0.488825
O O6 0.410082 0.796989 0.839090
O O7 0.000000 0.000000 0.000000
O O8 0.489227 0.321546 0.934967
O O9 0.623338 0.338470 0.612005
O O10 0.857459 0.244127 0.915907
O O11 0.924142 0.631658 0.417085
O O12 0.232849 0.522888 0.689536
O O13 0.831560 0.608224 0.743531
O O14 0.908605 0.725633 0.856419
O O15 0.339795 0.250408 0.834072
O O16 0.991227 0.713382 0.266898
O O17 0.500000 0.500000 0.500000
O O18 0.500000 0.500000 0.000000
#
# Coordination Sequence:
#
# PCOD9057640 Si02
#       8
#     2   2   2   2   2   2   2   2
#     4  12  22  40  64 100 138 193 246 300 373 450
#     4  12  28  45  67 107 155 201 253 315 387 465
#     4  12  27  48  72 108 152 196 253 323 389 463
#     4  11  23  48  74 107 147 192 256 319 381 466
#     4  11  24  46  71 101 153 192 253 309 393 458
#     4  11  22  43  67 100 142 189 249 311 371 458
#     4  11  24  38  70 101 141 192 245 308 379 449
#     4  12  29  52  84 120 152 203 264 327 395 468
#
# _framework density 24.393664000000001
#
# number of rings (size 3 to 8) (size 9 to 14) (size 15 to 20)
#    0.000    0.500    5.000    2.625    7.000    3.500 
#    0.000    2.500    0.000    0.000    0.000    0.000 
#    0.000    0.000    0.000    0.000    0.000    0.000 
#
# Total GULP energy -89248.976478 kJ/mol
# GULP energy per Si atom -5578.061030 kJ/mol
# Density = 2.433814 g / cm^3
# Si number density = 24.393664 Si / 1000 Ang^3
#
#
#
# Elastic Constant Matrix: (Units=GPa)
#
#
# Indices 1 2 3 4 5 6 
#
# 1 165.2512 19.1841 38.3902 -4.5740 -17.6503 0.7269
# 2 19.1841 82.0099 8.1351 -3.2854 -4.5483 6.0386
# 3 38.3902 8.1351 56.4376 -10.5706 -4.1930 7.2708
# 4 -4.5740 -3.2854 -10.5706 25.7988 3.1878 -3.0090
# 5 -17.6503 -4.5483 -4.1930 3.1878 44.5357 1.4584
# 6 0.7269 6.0386 7.2708 -3.0090 1.4584 44.7605
#
#
#
# Elastic Compliance Matrix: (Units=1/GPa)
#
#
# Indices 1 2 3 4 5 6 
#
# 1 0.007614 -0.001234 -0.005121 -0.001127 0.002466 0.000719
# 2 -0.001234 0.012732 -0.000571 0.000894 0.000745 -0.001569
# 3 -0.005121 -0.000571 0.023186 0.008213 -0.000393 -0.003041
# 4 -0.001127 0.000894 0.008213 0.042548 -0.002677 0.001511
# 5 0.002466 0.000745 -0.000393 -0.002677 0.023696 -0.001029
# 6 0.000719 -0.001569 -0.003041 0.001511 -0.001029 0.023170
#
#
# Mechanical properties :
#
#
# Convention : Reuss Voigt Hill
#
# Bulk Modulus (GPa) = 33.69512 48.34637 41.02075
# Shear Modulus (GPa) = 31.91023 38.88497 35.39760
#
# Velocity S-wave (km/s) = 3.62074 3.99690 3.81346
# Velocity P-wave (km/s) = 5.59667 6.41580 6.02019
#
# Compressibility (1/GPa) = 0.02967789
#
# Stress axis : x y z
#
# Youngs Moduli (GPa) = 131.34540 78.54455 43.13039
#
# Poissons Ratio (x) = 0.09694 0.22089
# Poissons Ratio (y) = 0.16211 0.02462
# Poissons Ratio (z) = 0.67267 0.04483
#
# Static dielectric constant tensor:
#      x y z
#    x 2.019470 -0.058690 -0.078370 
#    y -0.058690 2.203460 0.117630 
#    z -0.078370 0.117630 2.137590 
# 
# From -- ./inp_files/38780.got.cif
#   From: 2010.05.17/outbox.cif.g08.bks.cpg/sg2_20_cif.got.tgz:38780.got - 2010.06.03 11:33:40.
