data_PCOD9057898
_publ_section_title
;
Structure prediction by ZEFSAII (Michael W. Deem and Ramdas Pophale) SiO2 
 PCOD9057898
Probable space group: P -1
;
_chemical_formula_sum "Si O2"
_cell_formula_units_Z 14
_cell_length_a 13.963533
_cell_length_b 13.797712
_cell_length_c 9.315420
_cell_angle_alpha 42.855452
_cell_angle_beta 31.588636
_cell_angle_gamma 47.128233
_cell_volume 631.503666
_symmetry_space_group_name_H-M "P -1"
_symmetry_group_IT_number 2
_symmetry_cell_setting 'triclinic'
loop_
_space_group_symop_operation_xyz
x,y,z
-x,-y,-z
loop_
_atom_site_type_symbol
_atom_site_label
_atom_site_fract_x
_atom_site_fract_y
_atom_site_fract_z
Si Si1 0.238089 0.803541 0.906771
Si Si2 0.353688 0.312790 0.536213
Si Si3 0.130490 0.619976 0.479965
Si Si4 0.615764 0.223285 0.802977
Si Si5 0.731769 0.983992 0.109183
Si Si6 0.850092 0.052860 0.442229
Si Si7 0.737871 0.737236 0.961116
O O1 0.429083 0.694001 0.761470
O O2 0.172419 0.871731 0.765910
O O3 0.268421 0.935426 0.828049
O O4 0.106536 0.717569 0.261180
O O5 0.223014 0.458585 0.504136
O O6 0.300648 0.177850 0.664119
O O7 0.322830 0.282138 0.777013
O O8 0.276321 0.683731 0.329399
O O9 0.932903 0.637990 0.789369
O O10 0.747365 0.164956 0.565739
O O11 0.422381 0.296462 0.904520
O O12 0.587194 0.081877 0.084449
O O13 0.929638 0.984380 0.778470
O O14 0.767155 0.903786 0.720079
#
# Coordination Sequence:
#
# PCOD9057898 Si02
#       7
#     2   2   2   2   2   2   2
#     4  11  24  45  68  98 138 177 220 284 333 392
#     4  12  24  45  68 100 137 178 225 274 334 403
#     4  11  27  47  67  98 143 178 220 273 337 408
#     4  11  22  43  73  99 130 177 226 276 332 392
#     4  11  23  41  73  99 132 180 224 277 337 391
#     4  12  21  43  71 104 137 165 232 290 326 385
#     4  12  23  42  73 102 134 172 230 279 329 395
#
# _framework density 22.169308999999998
#
# number of rings (size 3 to 8) (size 9 to 14) (size 15 to 20)
#    0.000    0.571    5.714    4.286    0.000    1.714 
#    2.571    0.714    0.000    0.000    0.000    0.000 
#    0.000    0.000    0.000    0.000    0.000    0.000 
#
# Total GULP energy -78391.547723 kJ/mol
# GULP energy per Si atom -5599.396266 kJ/mol
# Density = 2.211885 g / cm^3
# Si number density = 22.169309 Si / 1000 Ang^3
#
#
#
# Elastic Constant Matrix: (Units=GPa)
#
#
# Indices 1 2 3 4 5 6 
#
# 1 50.4752 16.3169 3.7619 -18.3967 5.3923 -13.3238
# 2 16.3169 103.3607 -1.2371 -0.3018 -4.0346 1.2899
# 3 3.7619 -1.2371 53.8854 12.3477 -0.9949 -0.1934
# 4 -18.3967 -0.3018 12.3477 28.4004 -17.8882 0.1486
# 5 5.3923 -4.0346 -0.9949 -17.8882 27.5571 6.4455
# 6 -13.3238 1.2899 -0.1934 0.1486 6.4455 17.5793
#
#
#
# Elastic Compliance Matrix: (Units=1/GPa)
#
#
# Indices 1 2 3 4 5 6 
#
# 1 0.044313 -0.007117 -0.011789 0.038323 0.007510 0.030901
# 2 -0.007117 0.010983 0.001621 -0.003732 0.002270 -0.006983
# 3 -0.011789 0.001621 0.025317 -0.026858 -0.013100 -0.003745
# 4 0.038323 -0.003732 -0.026858 0.110178 0.061181 0.005661
# 5 0.007510 0.002270 -0.013100 0.061181 0.080126 -0.024514
# 6 0.030901 -0.006983 -0.003745 0.005661 -0.024514 0.089717
#
#
# Mechanical properties :
#
#
# Convention : Reuss Voigt Hill
#
# Bulk Modulus (GPa) = 21.71892 27.26722 24.49307
# Shear Modulus (GPa) = 12.17873 27.29933 19.73903
#
# Velocity S-wave (km/s) = 2.34637 3.51294 2.98715
# Velocity P-wave (km/s) = 4.14230 5.36475 4.79266
#
# Compressibility (1/GPa) = 0.04604280
#
# Stress axis : x y z
#
# Youngs Moduli (GPa) = 22.56668 91.05274 39.49880
#
# Poissons Ratio (x) = 0.64804 0.46565
# Poissons Ratio (y) = 0.16061 -0.06403
# Poissons Ratio (z) = 0.26604 -0.14760
#
# Static dielectric constant tensor:
#      x y z
#    x 1.804360 -0.007770 -0.016590 
#    y -0.007770 1.792680 -0.004230 
#    z -0.016590 -0.004230 1.815110 
# 
# From -- ./inp_files/158290.got.cif
#   From: 2010.05.17/outbox.cif.g08.bks.cpg/sg2_80_cif.got.tgz:158290.got - 2010.06.03 11:33:40.
