data_PCOD9057580
_publ_section_title
;
Structure prediction by ZEFSAII (Michael W. Deem and Ramdas Pophale) SiO2 
 PCOD9057580
Probable space group: P -1
;
_chemical_formula_sum "Si O2"
_cell_formula_units_Z 15
_cell_length_a 9.170245
_cell_length_b 9.226167
_cell_length_c 8.945548
_cell_angle_alpha 72.836857
_cell_angle_beta 93.071700
_cell_angle_gamma 113.549329
_cell_volume 661.129546
_symmetry_space_group_name_H-M "P -1"
_symmetry_group_IT_number 2
_symmetry_cell_setting 'triclinic'
loop_
_space_group_symop_operation_xyz
x,y,z
-x,-y,-z
loop_
_atom_site_type_symbol
_atom_site_label
_atom_site_fract_x
_atom_site_fract_y
_atom_site_fract_z
Si Si1 0.500000 0.000000 0.500000
Si Si2 0.024748 0.654845 0.274454
Si Si3 0.367570 0.247776 0.502103
Si Si4 0.366369 0.563548 0.012862
Si Si5 0.961876 0.934763 0.347281
Si Si6 0.023278 0.258073 0.090265
Si Si7 0.773944 0.309278 0.286248
Si Si8 0.330122 0.572408 0.330417
O O1 0.403834 0.123156 0.435207
O O2 0.672058 0.155239 0.427623
O O3 0.016053 0.789075 0.349190
O O4 0.862491 0.487367 0.316110
O O5 0.169957 0.601632 0.329814
O O6 0.039091 0.730045 0.083835
O O7 0.230971 0.145320 0.643714
O O8 0.309440 0.381285 0.387479
O O9 0.535036 0.341585 0.566416
O O10 0.194564 0.409710 0.061165
O O11 0.399495 0.647298 0.150346
O O12 0.500000 0.500000 0.000000
O O13 0.347492 0.675841 0.847597
O O14 0.000000 0.000000 0.500000
O O15 0.030006 0.085052 0.188256
O O16 0.910369 0.284698 0.202333
#
# Coordination Sequence:
#
# PCOD9057580 Si02
#       8
#     1   2   2   2   2   2   2   2
#     4  12  26  48  70 106 152 194 232 316 382 428
#     4  11  25  47  81 106 145 205 253 309 375 452
#     4  11  28  44  69 103 156 188 243 314 370 447
#     4  11  22  42  76 106 142 190 248 302 370 447
#     4  12  28  47  72 111 152 196 252 314 380 451
#     4  11  22  50  74 109 151 192 252 311 368 451
#     4  11  23  46  77 106 147 196 247 306 375 451
#     4  11  24  47  69 108 142 198 254 297 374 449
#
# _framework density 22.688444
#
# number of rings (size 3 to 8) (size 9 to 14) (size 15 to 20)
#    0.000    0.800    4.000    2.800    9.333    0.533 
#    0.000    1.333    0.000    0.000    0.000    0.000 
#    0.000    0.000    0.000    0.000    0.000    0.000 
#
# Total GULP energy -83693.912558 kJ/mol
# GULP energy per Si atom -5579.594171 kJ/mol
# Density = 2.263680 g / cm^3
# Si number density = 22.688444 Si / 1000 Ang^3
#
#
#
# Elastic Constant Matrix: (Units=GPa)
#
#
# Indices 1 2 3 4 5 6 
#
# 1 117.2568 43.2188 26.9893 -3.7164 -0.1029 -26.9237
# 2 43.2188 133.3677 70.6327 -20.3138 -3.9248 -20.2502
# 3 26.9893 70.6327 111.0735 -5.8786 10.7421 -3.7791
# 4 -3.7164 -20.3138 -5.8786 34.2262 1.0706 -7.2545
# 5 -0.1029 -3.9248 10.7421 1.0706 39.1437 -7.6166
# 6 -26.9237 -20.2502 -3.7791 -7.2545 -7.6166 40.7215
#
#
#
# Elastic Compliance Matrix: (Units=1/GPa)
#
#
# Indices 1 2 3 4 5 6 
#
# 1 0.011092 -0.001329 -0.001689 0.001581 0.001701 0.007116
# 2 -0.001329 0.015944 -0.009567 0.009383 0.005696 0.008899
# 3 -0.001689 -0.009567 0.015669 -0.004324 -0.006388 -0.006385
# 4 0.001581 0.009383 -0.004324 0.036759 0.003563 0.012525
# 5 0.001701 0.005696 -0.006388 0.003563 0.029635 0.009542
# 6 0.007116 0.008899 -0.006385 0.012525 0.009542 0.037111
#
#
# Mechanical properties :
#
#
# Convention : Reuss Voigt Hill
#
# Bulk Modulus (GPa) = 57.02882 71.48661 64.25772
# Shear Modulus (GPa) = 28.21278 37.54210 32.87744
#
# Velocity S-wave (km/s) = 3.53014 4.07219 3.81081
# Velocity P-wave (km/s) = 6.46576 7.32712 6.90987
#
# Compressibility (1/GPa) = 0.01753499
#
# Stress axis : x y z
#
# Youngs Moduli (GPa) = 90.15211 62.72116 63.82005
#
# Poissons Ratio (x) = 0.08333 0.10780
# Poissons Ratio (y) = 0.11978 0.61058
# Poissons Ratio (z) = 0.15228 0.60007
#
# Static dielectric constant tensor:
#      x y z
#    x 1.838400 -0.007800 -0.004890 
#    y -0.007800 1.884620 0.015230 
#    z -0.004890 0.015230 1.862460 
# 
# From -- ./inp_files/157547.got.cif
#   From: 2010.05.17/outbox.cif.g08.bks.cpg/sg2_79_cif.got.tgz:157547.got - 2010.06.03 11:33:40.
