data_PCOD9057962
_publ_section_title
;
Structure prediction by ZEFSAII (Michael W. Deem and Ramdas Pophale) SiO2 
 PCOD9057962
Probable space group: P -1
;
_chemical_formula_sum "Si O2"
_cell_formula_units_Z 15
_cell_length_a 16.446079
_cell_length_b 12.517895
_cell_length_c 8.460590
_cell_angle_alpha 79.410731
_cell_angle_beta 89.043614
_cell_angle_gamma 24.498772
_cell_volume 659.783685
_symmetry_space_group_name_H-M "P -1"
_symmetry_group_IT_number 2
_symmetry_cell_setting 'triclinic'
loop_
_space_group_symop_operation_xyz
x,y,z
-x,-y,-z
loop_
_atom_site_type_symbol
_atom_site_label
_atom_site_fract_x
_atom_site_fract_y
_atom_site_fract_z
Si Si1 0.402513 0.709310 0.170524
Si Si2 0.009320 0.455322 0.198787
Si Si3 0.530417 0.035091 0.641728
Si Si4 0.523888 0.620545 0.694528
Si Si5 0.254358 0.586398 0.555970
Si Si6 0.619783 0.067889 0.113028
Si Si7 0.895741 0.896388 0.631922
Si Si8 0.500000 0.000000 0.000000
O O1 0.446785 0.530239 0.177673
O O2 0.606998 0.512340 0.301080
O O3 0.219574 0.935146 0.246653
O O4 0.336301 0.871779 0.990433
O O5 0.243775 0.186478 0.317402
O O6 0.962554 0.385888 0.252555
O O7 0.843102 0.732684 0.223797
O O8 0.000000 0.500000 0.000000
O O9 0.500000 0.000000 0.500000
O O10 0.360905 0.338488 0.583280
O O11 0.531326 0.961981 0.818734
O O12 0.709665 0.401365 0.618416
O O13 0.511051 0.737323 0.782219
O O14 0.297968 0.892559 0.537317
O O15 0.031702 0.826364 0.572701
O O16 0.516524 0.114167 0.976301
#
# Coordination Sequence:
#
# PCOD9057962 Si02
#       8
#     2   2   2   2   2   2   2   1
#     4  11  23  47  70  97 139 184 241 286 352 431
#     4  12  22  44  70 101 145 182 237 297 365 434
#     4  12  25  41  68 108 146 185 235 302 363 435
#     4  11  26  45  68 101 142 182 238 296 346 433
#     4  11  22  44  66 100 135 175 236 286 360 416
#     4  12  25  44  69 103 137 190 230 291 375 417
#     4  11  23  42  73 104 132 186 233 295 355 426
#     4  12  22  42  70  96 144 186 228 296 364 432
#
# _framework density 22.734722999999999
#
# number of rings (size 3 to 8) (size 9 to 14) (size 15 to 20)
#    0.000    0.533    6.667    3.600    1.867    2.667 
#    0.000    0.000    0.000    3.200    0.000    0.000 
#    0.000    0.000    0.000    0.000    0.000    0.000 
#
# Total GULP energy -83644.275375 kJ/mol
# GULP energy per Si atom -5576.285025 kJ/mol
# Density = 2.268298 g / cm^3
# Si number density = 22.734723 Si / 1000 Ang^3
#
#
#
# Elastic Constant Matrix: (Units=GPa)
#
#
# Indices 1 2 3 4 5 6 
#
# 1 100.2543 39.8992 19.9999 9.4640 -24.4171 -4.7806
# 2 39.8992 91.2846 18.0262 12.1406 -3.7054 -0.3423
# 3 19.9999 18.0262 49.4432 14.9205 -26.4649 -5.2340
# 4 9.4640 12.1406 14.9205 27.0409 10.7838 -9.1626
# 5 -24.4171 -3.7054 -26.4649 10.7838 44.4007 -1.6552
# 6 -4.7806 -0.3423 -5.2340 -9.1626 -1.6552 54.0375
#
#
#
# Elastic Compliance Matrix: (Units=1/GPa)
#
#
# Indices 1 2 3 4 5 6 
#
# 1 0.016542 -0.006413 0.010690 -0.016247 0.018890 0.000282
# 2 -0.006413 0.014617 -0.007629 0.002543 -0.007509 -0.001013
# 3 0.010690 -0.007629 0.074724 -0.068503 0.066365 -0.001448
# 4 -0.016247 0.002543 -0.068503 0.112844 -0.076635 0.008730
# 5 0.018890 -0.007509 0.066365 -0.076635 0.090372 -0.002174
# 6 0.000282 -0.001013 -0.001448 0.008730 -0.002174 0.019798
#
#
# Mechanical properties :
#
#
# Convention : Reuss Voigt Hill
#
# Bulk Modulus (GPa) = 10.08268 44.09252 27.08760
# Shear Modulus (GPa) = 13.56265 35.96628 24.76447
#
# Velocity S-wave (km/s) = 2.44511 3.98175 3.30400
# Velocity P-wave (km/s) = 3.52363 6.36989 5.14740
#
# Compressibility (1/GPa) = 0.09917995
#
# Stress axis : x y z
#
# Youngs Moduli (GPa) = 60.45242 68.41154 13.38261
#
# Poissons Ratio (x) = 0.43870 -0.14307
# Poissons Ratio (y) = 0.38766 0.10210
# Poissons Ratio (z) = -0.64626 0.52194
#
# Static dielectric constant tensor:
#      x y z
#    x 1.963260 -0.048660 -0.006640 
#    y -0.048660 1.872790 -0.047840 
#    z -0.006640 -0.047840 1.889200 
# 
# From -- ./inp_files/307009.got.cif
#   From: 2010.05.17/outbox.cif.g08.bks.cpg/sg2_154_cif.got.tgz:307009.got - 2010.06.03 11:33:40.
