data_PCOD9057500
_publ_section_title
;
Structure prediction by ZEFSAII (Michael W. Deem and Ramdas Pophale) SiO2 
 PCOD9057500
Probable space group: P -1
;
_chemical_formula_sum "Si O2"
_cell_formula_units_Z 16
_cell_length_a 17.497695
_cell_length_b 8.904925
_cell_length_c 14.756217
_cell_angle_alpha 58.648856
_cell_angle_beta 149.630807
_cell_angle_gamma 140.346261
_cell_volume 663.824332
_symmetry_space_group_name_H-M "P -1"
_symmetry_group_IT_number 2
_symmetry_cell_setting 'triclinic'
loop_
_space_group_symop_operation_xyz
x,y,z
-x,-y,-z
loop_
_atom_site_type_symbol
_atom_site_label
_atom_site_fract_x
_atom_site_fract_y
_atom_site_fract_z
Si Si1 0.073952 0.743630 0.541253
Si Si2 0.972914 0.802414 0.597661
Si Si3 0.262068 0.244946 0.878856
Si Si4 0.980257 0.023472 0.119158
Si Si5 0.276219 0.957277 0.384927
Si Si6 0.002925 0.594779 0.072502
Si Si7 0.496093 0.814955 0.263584
Si Si8 0.378187 0.471675 0.524619
O O1 0.014766 0.689264 0.603459
O O2 0.000000 0.500000 0.500000
O O3 0.924516 0.766347 0.332204
O O4 0.336745 0.000476 0.706343
O O5 0.738349 0.606125 0.472754
O O6 0.170088 0.992720 0.813211
O O7 0.000000 0.000000 0.500000
O O8 0.500000 0.500000 0.000000
O O9 0.245325 0.201819 0.982234
O O10 0.073061 0.919219 0.210812
O O11 0.957076 0.163714 0.983325
O O12 0.171201 0.260284 0.309820
O O13 0.382058 0.006680 0.576366
O O14 0.469050 0.238200 0.444201
O O15 0.187750 0.727724 0.299512
O O16 0.760195 0.346595 0.945433
O O17 0.000000 0.500000 0.000000
O O18 0.485974 0.593143 0.325239
#
# Coordination Sequence:
#
# PCOD9057500 Si02
#       8
#     2   2   2   2   2   2   2   2
#     4  11  23  42  64  94 130 171 214 261 331 388
#     4   9  18  36  59  92 119 166 212 253 310 375
#     4  10  21  38  65  93 125 166 222 269 307 382
#     4  10  19  40  60  90 125 163 216 259 312 382
#     4  11  21  40  69  92 116 173 217 252 324 375
#     4  12  27  39  59 100 135 163 210 266 328 388
#     4  11  21  43  65  90 132 164 211 273 313 384
#     4  10  17  36  70  90 116 165 219 258 306 375
#
# _framework density 24.102762999999999
#
# number of rings (size 3 to 8) (size 9 to 14) (size 15 to 20)
#    0.000    1.500    7.500    1.125    0.000    5.500 
#    4.500    0.625    0.000    0.000    0.000    0.000 
#    0.000    0.000    0.000    0.000    0.000    0.000 
#
# Total GULP energy -89480.379309 kJ/mol
# GULP energy per Si atom -5592.523707 kJ/mol
# Density = 2.404790 g / cm^3
# Si number density = 24.102763 Si / 1000 Ang^3
#
#
#
# Elastic Constant Matrix: (Units=GPa)
#
#
# Indices 1 2 3 4 5 6 
#
# 1 176.8099 30.1350 51.6400 29.9844 -1.1006 9.0503
# 2 30.1350 45.1776 24.0447 1.6898 7.2089 3.9383
# 3 51.6400 24.0447 63.0285 27.9468 6.0346 0.2441
# 4 29.9844 1.6898 27.9468 27.8299 6.7606 1.8026
# 5 -1.1006 7.2089 6.0346 6.7606 36.7636 16.9823
# 6 9.0503 3.9383 0.2441 1.8026 16.9823 46.1147
#
#
#
# Elastic Compliance Matrix: (Units=1/GPa)
#
#
# Indices 1 2 3 4 5 6 
#
# 1 0.008524 -0.004597 -0.002334 -0.007382 0.004036 -0.002466
# 2 -0.004597 0.036691 -0.020805 0.025721 -0.008679 0.000070
# 3 -0.002334 -0.020805 0.043514 -0.040869 0.003276 0.002396
# 4 -0.007382 0.025721 -0.040869 0.086982 -0.015346 0.001720
# 5 0.004036 -0.008679 0.003276 -0.015346 0.037429 -0.013252
# 6 -0.002466 0.000070 0.002396 0.001720 -0.013252 0.026963
#
#
# Mechanical properties :
#
#
# Convention : Reuss Voigt Hill
#
# Bulk Modulus (GPa) = 30.06898 55.18394 42.62646
# Shear Modulus (GPa) = 16.30467 34.08804 25.19635
#
# Velocity S-wave (km/s) = 2.60372 3.76477 3.23673
# Velocity P-wave (km/s) = 4.64128 6.46861 5.62959
#
# Compressibility (1/GPa) = 0.03325687
#
# Stress axis : x y z
#
# Youngs Moduli (GPa) = 117.31406 27.25480 22.98119
#
# Poissons Ratio (x) = 0.12528 0.05364
# Poissons Ratio (y) = 0.53923 0.47813
# Poissons Ratio (z) = 0.27385 0.56704
#
# Static dielectric constant tensor:
#      x y z
#    x 2.091700 -0.037850 0.013820 
#    y -0.037850 1.990550 -0.087840 
#    z 0.013820 -0.087840 2.000920 
# 
# From -- ./inp_files/529690.got.cif
#   From: 2010.05.17/outbox.cif.g08.bks.cpg/sg2_265_cif.got.tgz:529690.got - 2010.06.03 11:33:40.
