data_PCOD9057970
_publ_section_title
;
Structure prediction by ZEFSAII (Michael W. Deem and Ramdas Pophale) SiO2 
 PCOD9057970
Probable space group: P -1
;
_chemical_formula_sum "Si O2"
_cell_formula_units_Z 14
_cell_length_a 13.086223
_cell_length_b 8.993077
_cell_length_c 12.291909
_cell_angle_alpha 105.139827
_cell_angle_beta 127.899165
_cell_angle_gamma 42.933189
_cell_volume 728.098587
_symmetry_space_group_name_H-M "P -1"
_symmetry_group_IT_number 2
_symmetry_cell_setting 'triclinic'
loop_
_space_group_symop_operation_xyz
x,y,z
-x,-y,-z
loop_
_atom_site_type_symbol
_atom_site_label
_atom_site_fract_x
_atom_site_fract_y
_atom_site_fract_z
Si Si1 0.832989 0.189652 0.009724
Si Si2 0.753130 0.491857 0.339785
Si Si3 0.940820 0.774531 0.690226
Si Si4 0.425618 0.746387 0.007209
Si Si5 0.545370 0.285485 0.454669
Si Si6 0.420183 0.680456 0.761444
Si Si7 0.694387 0.721058 0.571975
O O1 0.775900 0.095591 0.030153
O O2 0.637086 0.412081 0.860058
O O3 0.906565 0.262687 0.147320
O O4 0.000000 0.000000 0.000000
O O5 0.583074 0.684404 0.176723
O O6 0.727411 0.332210 0.320006
O O7 0.716990 0.614367 0.450910
O O8 0.956041 0.342180 0.381667
O O9 0.877842 0.672703 0.688016
O O10 0.740574 0.050093 0.597522
O O11 0.500000 0.500000 0.000000
O O12 0.402556 0.809701 0.878548
O O13 0.500000 0.500000 0.500000
O O14 0.593267 0.233591 0.348480
O O15 0.356735 0.354954 0.382078
O O16 0.500000 0.000000 0.500000
#
# Coordination Sequence:
#
# PCOD9057970 Si02
#       7
#     2   2   2   2   2   2   2
#     4  10  18  31  56  86 108 143 193 228 267 331
#     4  10  17  37  58  83 107 151 192 230 266 341
#     4  11  21  36  58  87 109 150 193 225 274 345
#     4   8  16  31  54  79 107 141 184 229 272 316
#     4  11  22  37  55  83 120 149 179 235 288 323
#     4  10  18  36  56  80 116 142 182 236 280 321
#     4  10  23  36  55  83 116 151 184 227 290 333
#
# _framework density 19.228166999999999
#
# number of rings (size 3 to 8) (size 9 to 14) (size 15 to 20)
#    0.000    2.286    5.714    1.286    6.000    0.571 
#    0.000    0.714    0.000    3.429    0.000    0.000 
#    0.000    0.000    0.000    0.000    0.000    0.000 
#
# Total GULP energy -77983.924421 kJ/mol
# GULP energy per Si atom -5570.280316 kJ/mol
# Density = 1.918440 g / cm^3
# Si number density = 19.228167 Si / 1000 Ang^3
#
#
#
# Elastic Constant Matrix: (Units=GPa)
#
#
# Indices 1 2 3 4 5 6 
#
# 1 140.5781 23.1336 15.9408 -0.3854 6.2162 -12.0610
# 2 23.1336 31.9228 -5.7908 7.4405 2.3214 -13.8836
# 3 15.9408 -5.7908 39.4687 4.2763 0.1753 9.1673
# 4 -0.3854 7.4405 4.2763 14.0778 -11.4711 -3.9582
# 5 6.2162 2.3214 0.1753 -11.4711 32.0476 1.1117
# 6 -12.0610 -13.8836 9.1673 -3.9582 1.1117 32.8266
#
#
#
# Elastic Compliance Matrix: (Units=1/GPa)
#
#
# Indices 1 2 3 4 5 6 
#
# 1 0.009652 -0.009736 -0.007043 0.010270 0.002459 0.002551
# 2 -0.009736 0.059564 0.015400 -0.050032 -0.020835 0.011987
# 3 -0.007043 0.015400 0.035986 -0.030506 -0.010538 -0.009445
# 4 0.010270 -0.050032 -0.030506 0.156019 0.057367 0.008002
# 5 0.002459 -0.020835 -0.010538 0.057367 0.052822 0.000163
# 6 0.002551 0.011987 -0.009445 0.008002 0.000163 0.040067
#
#
# Mechanical properties :
#
#
# Convention : Reuss Voigt Hill
#
# Bulk Modulus (GPa) = 9.76117 30.94852 20.35484
# Shear Modulus (GPa) = 12.78718 27.70282 20.24500
#
# Velocity S-wave (km/s) = 2.58160 3.79983 3.24834
# Velocity P-wave (km/s) = 3.73815 5.94827 4.96768
#
# Compressibility (1/GPa) = 0.10244676
#
# Stress axis : x y z
#
# Youngs Moduli (GPa) = 103.60027 16.78862 27.78822
#
# Poissons Ratio (x) = 0.16345 0.19571
# Poissons Ratio (y) = 1.00861 -0.42795
# Poissons Ratio (z) = 0.72966 -0.25855
#
# Static dielectric constant tensor:
#      x y z
#    x 1.753510 -0.008280 -0.017040 
#    y -0.008280 1.676250 0.013110 
#    z -0.017040 0.013110 1.698010 
# 
# From -- ./inp_files/178906.got.cif
#   From: 2010.05.17/outbox.cif.g08.bks.cpg/sg2_90_cif.got.tgz:178906.got - 2010.06.03 11:33:40.
