data_PCOD9057986
_publ_section_title
;
Structure prediction by ZEFSAII (Michael W. Deem and Ramdas Pophale) SiO2 
 PCOD9057986
Probable space group: P -1
;
_chemical_formula_sum "Si O2"
_cell_formula_units_Z 16
_cell_length_a 11.274453
_cell_length_b 10.795108
_cell_length_c 16.348447
_cell_angle_alpha 54.244645
_cell_angle_beta 34.487906
_cell_angle_gamma 77.967642
_cell_volume 735.211636
_symmetry_space_group_name_H-M "P -1"
_symmetry_group_IT_number 2
_symmetry_cell_setting 'triclinic'
loop_
_space_group_symop_operation_xyz
x,y,z
-x,-y,-z
loop_
_atom_site_type_symbol
_atom_site_label
_atom_site_fract_x
_atom_site_fract_y
_atom_site_fract_z
Si Si1 0.808117 0.551679 0.563424
Si Si2 0.591708 0.205384 0.336864
Si Si3 0.398787 0.250745 0.784768
Si Si4 0.283311 0.383480 0.236859
Si Si5 0.126495 0.441976 0.839838
Si Si6 0.166246 0.697395 0.580645
Si Si7 0.242558 0.986003 0.128232
Si Si8 0.869364 0.979477 0.454818
O O1 0.621910 0.427014 0.644310
O O2 0.649228 0.528868 0.744479
O O3 0.000000 0.500000 0.500000
O O4 0.004237 0.767620 0.342445
O O5 0.666386 0.363030 0.302379
O O6 0.354323 0.148727 0.435743
O O7 0.500000 0.000000 0.500000
O O8 0.858815 0.310618 0.092929
O O9 0.232967 0.317090 0.816178
O O10 0.543678 0.211790 0.650173
O O11 0.263784 0.086523 0.992869
O O12 0.200375 0.170586 0.376197
O O13 0.028721 0.365636 0.359878
O O14 0.500000 0.500000 0.000000
O O15 0.079671 0.519234 0.755019
O O16 0.146987 0.850738 0.578379
O O17 0.148806 0.057718 0.226815
O O18 0.500000 0.000000 0.000000
#
# Coordination Sequence:
#
# PCOD9057986 Si02
#       8
#     2   2   2   2   2   2   2   2
#     4  11  22  44  67  97 132 174 223 275 330 404
#     4  11  22  46  72 100 132 174 231 279 329 401
#     4  12  25  45  68  97 139 178 224 274 335 398
#     4  11  24  40  67  98 130 175 223 279 339 390
#     4  11  25  42  74  98 131 182 226 276 334 396
#     4  12  25  44  63 100 141 174 223 277 336 401
#     4  11  23  41  70  99 129 173 223 272 335 397
#     4  11  24  44  69  99 136 174 224 280 337 400
#
# _framework density 21.762442
#
# number of rings (size 3 to 8) (size 9 to 14) (size 15 to 20)
#    0.000    0.750    3.750    4.500    3.500    1.000 
#    2.250    0.625    0.000    0.000    0.000    0.000 
#    0.000    0.000    0.000    0.000    0.000    0.000 
#
# Total GULP energy -89466.363106 kJ/mol
# GULP energy per Si atom -5591.647694 kJ/mol
# Density = 2.171291 g / cm^3
# Si number density = 21.762442 Si / 1000 Ang^3
#
#
#
# Elastic Constant Matrix: (Units=GPa)
#
#
# Indices 1 2 3 4 5 6 
#
# 1 83.0190 32.2483 19.6127 -9.6266 6.9868 -34.3537
# 2 32.2483 127.8347 60.9156 13.9800 17.9605 -37.0323
# 3 19.6127 60.9156 127.7335 -5.3293 30.2503 -21.0209
# 4 -9.6266 13.9800 -5.3293 41.3290 -8.7518 1.0823
# 5 6.9868 17.9605 30.2503 -8.7518 44.2771 -12.8332
# 6 -34.3537 -37.0323 -21.0209 1.0823 -12.8332 47.9013
#
#
#
# Elastic Compliance Matrix: (Units=1/GPa)
#
#
# Indices 1 2 3 4 5 6 
#
# 1 0.018202 -0.001863 -0.000328 0.005063 0.002601 0.012052
# 2 -0.001863 0.013429 -0.005038 -0.006004 -0.000952 0.006715
# 3 -0.000328 -0.005038 0.011595 0.001950 -0.005612 -0.000589
# 4 0.005063 -0.006004 0.001950 0.028965 0.006283 0.000874
# 5 0.002601 -0.000952 -0.005612 0.006283 0.029500 0.006429
# 6 0.012052 0.006715 -0.000589 0.000874 0.006429 0.036156
#
#
# Mechanical properties :
#
#
# Convention : Reuss Voigt Hill
#
# Bulk Modulus (GPa) = 34.76073 62.68226 48.72149
# Shear Modulus (GPa) = 30.88431 41.75551 36.31991
#
# Velocity S-wave (km/s) = 3.77126 4.38504 4.08968
# Velocity P-wave (km/s) = 5.91360 7.38266 6.68858
#
# Compressibility (1/GPa) = 0.02876810
#
# Stress axis : x y z
#
# Youngs Moduli (GPa) = 54.93851 74.46546 86.24248
#
# Poissons Ratio (x) = 0.13876 0.02825
# Poissons Ratio (y) = 0.10238 0.43450
# Poissons Ratio (z) = 0.01800 0.37517
#
# Static dielectric constant tensor:
#      x y z
#    x 1.792950 0.006390 0.004550 
#    y 0.006390 1.849060 0.015980 
#    z 0.004550 0.015980 1.761280 
# 
# From -- ./inp_files/568655.got.cif
#   From: 2010.05.17/outbox.cif.g08.bks.cpg/sg2_285_cif.got.tgz:568655.got - 2010.06.03 11:33:40.
