data_PCOD9057332
_publ_section_title
;
Structure prediction by ZEFSAII (Michael W. Deem and Ramdas Pophale) SiO2 
 PCOD9057332
Probable space group: P -1
;
_chemical_formula_sum "Si O2"
_cell_formula_units_Z 16
_cell_length_a 9.508191
_cell_length_b 7.951862
_cell_length_c 13.160456
_cell_angle_alpha 45.222933
_cell_angle_beta 102.978816
_cell_angle_gamma 98.878921
_cell_volume 688.272130
_symmetry_space_group_name_H-M "P -1"
_symmetry_group_IT_number 2
_symmetry_cell_setting 'triclinic'
loop_
_space_group_symop_operation_xyz
x,y,z
-x,-y,-z
loop_
_atom_site_type_symbol
_atom_site_label
_atom_site_fract_x
_atom_site_fract_y
_atom_site_fract_z
Si Si1 0.599983 0.412398 0.644014
Si Si2 0.850136 0.020713 0.413719
Si Si3 0.835555 0.762054 0.865705
Si Si4 0.643477 0.860817 0.606549
Si Si5 0.149389 0.759640 0.878327
Si Si6 0.895107 0.770862 0.105135
Si Si7 0.096377 0.502551 0.410967
Si Si8 0.619164 0.910738 0.134039
O O1 0.500000 0.500000 0.500000
O O2 0.634927 0.605206 0.657024
O O3 0.756659 0.343254 0.649621
O O4 0.486744 0.230359 0.750034
O O5 0.748465 0.027478 0.489344
O O6 0.837035 0.765333 0.465338
O O7 0.839145 0.234664 0.243556
O O8 0.000000 0.000000 0.500000
O O9 0.705196 0.844509 0.737697
O O10 0.991542 0.882189 0.817816
O O11 0.856931 0.484522 0.957687
O O12 0.824604 0.744379 0.992568
O O13 0.500000 0.000000 0.500000
O O14 0.294255 0.884787 0.882194
O O15 0.755443 0.795680 0.145272
O O16 0.997175 0.582854 0.263815
O O17 0.000000 0.000000 0.000000
O O18 0.000000 0.500000 0.500000
O O19 0.500000 0.000000 0.000000
#
# Coordination Sequence:
#
# PCOD9057332 Si02
#       8
#     2   2   2   2   2   2   2   2
#     4  11  25  46  70 103 144 189 234 297 367 430
#     4  11  22  42  68 101 133 180 233 292 358 419
#     4  11  25  44  72 103 139 186 243 301 361 431
#     4  11  26  46  71 103 148 189 239 298 367 436
#     4  11  23  44  72  99 137 185 239 296 366 424
#     4  12  25  43  70 107 140 189 248 300 356 430
#     4  11  25  44  72 104 143 183 245 298 355 434
#     4  12  25  45  68 100 142 186 234 293 362 429
#
# _framework density 23.246618000000002
#
# number of rings (size 3 to 8) (size 9 to 14) (size 15 to 20)
#    0.000    0.750    2.500    5.250    5.250    6.000 
#    0.000    1.875    0.000    0.000    0.000    0.000 
#    0.000    0.000    0.000    0.000    0.000    0.000 
#
# Total GULP energy -89112.414540 kJ/mol
# GULP energy per Si atom -5569.525909 kJ/mol
# Density = 2.319371 g / cm^3
# Si number density = 23.246618 Si / 1000 Ang^3
#
#
#
# Elastic Constant Matrix: (Units=GPa)
#
#
# Indices 1 2 3 4 5 6 
#
# 1 196.1538 22.3922 66.2294 7.9644 1.1614 32.6999
# 2 22.3922 44.2411 28.2188 20.9929 1.7389 20.5795
# 3 66.2294 28.2188 182.5356 21.4111 10.7779 17.8546
# 4 7.9644 20.9929 21.4111 34.2565 14.3215 6.3539
# 5 1.1614 1.7389 10.7779 14.3215 54.8926 -0.3685
# 6 32.6999 20.5795 17.8546 6.3539 -0.3685 30.8550
#
#
#
# Elastic Compliance Matrix: (Units=1/GPa)
#
#
# Indices 1 2 3 4 5 6 
#
# 1 0.006763 0.000683 -0.001971 0.000433 0.000065 -0.006570
# 2 0.000683 0.047578 -0.002436 -0.025257 0.005373 -0.025782
# 3 -0.001971 -0.002436 0.006836 -0.002069 -0.000682 0.000176
# 4 0.000433 -0.025257 -0.002069 0.049377 -0.011636 0.007277
# 5 0.000065 0.005373 -0.000682 -0.011636 0.021212 -0.000608
# 6 -0.006570 -0.025782 0.000176 0.007277 -0.000608 0.054961
#
#
# Mechanical properties :
#
#
# Convention : Reuss Voigt Hill
#
# Bulk Modulus (GPa) = 18.61214 72.95681 45.78447
# Shear Modulus (GPa) = 23.57546 44.40683 33.99114
#
# Velocity S-wave (km/s) = 3.18802 4.37538 3.82802
# Velocity P-wave (km/s) = 4.64490 7.54833 6.26707
#
# Compressibility (1/GPa) = 0.05372837
#
# Stress axis : x y z
#
# Youngs Moduli (GPa) = 147.86182 21.01816 146.28524
#
# Poissons Ratio (x) = -0.01435 0.28838
# Poissons Ratio (y) = -0.10096 0.35631
# Poissons Ratio (z) = 0.29148 0.05120
#
# Static dielectric constant tensor:
#      x y z
#    x 1.823460 -0.073150 -0.002810 
#    y -0.073150 2.187860 -0.092900 
#    z -0.002810 -0.092900 1.794000 
# 
# From -- ./inp_files/381083.got.cif
#   From: 2010.05.17/outbox.cif.g08.bks.cpg/sg2_191_cif.got.tgz:381083.got - 2010.06.03 11:33:40.
