data_PCOD9057263
_publ_section_title
;
Structure prediction by ZEFSAII (Michael W. Deem and Ramdas Pophale) SiO2 
 PCOD9057263
Probable space group: P -1
;
_chemical_formula_sum "Si O2"
_cell_formula_units_Z 14
_cell_length_a 14.862073
_cell_length_b 6.828675
_cell_length_c 15.626299
_cell_angle_alpha 69.406811
_cell_angle_beta 26.088194
_cell_angle_gamma 70.349101
_cell_volume 652.035436
_symmetry_space_group_name_H-M "P -1"
_symmetry_group_IT_number 2
_symmetry_cell_setting 'triclinic'
loop_
_space_group_symop_operation_xyz
x,y,z
-x,-y,-z
loop_
_atom_site_type_symbol
_atom_site_label
_atom_site_fract_x
_atom_site_fract_y
_atom_site_fract_z
Si Si1 0.865751 0.992147 0.366772
Si Si2 0.922575 0.670262 0.107051
Si Si3 0.560451 0.631858 0.692580
Si Si4 0.494611 0.663900 0.056069
Si Si5 0.855918 0.969681 0.710279
Si Si6 0.378231 0.573313 0.506871
Si Si7 0.192079 0.943786 0.943943
O O1 0.696517 0.183652 0.470540
O O2 0.998546 0.035832 0.330567
O O3 0.760163 0.770125 0.498391
O O4 0.016921 0.986453 0.157320
O O5 0.828281 0.553612 0.284893
O O6 0.104233 0.805630 0.964040
O O7 0.000000 0.500000 0.000000
O O8 0.764519 0.833989 0.169567
O O9 0.558342 0.456297 0.793514
O O10 0.525887 0.517797 0.648672
O O11 0.381195 0.806699 0.839551
O O12 0.313490 0.838870 0.168096
O O13 0.500000 0.500000 0.000000
O O14 0.714179 0.769785 0.857204
O O15 0.000000 0.000000 0.500000
O O16 0.500000 0.500000 0.500000
#
# Coordination Sequence:
#
# PCOD9057263 Si02
#       7
#     2   2   2   2   2   2   2
#     4  12  26  45  70 104 139 185 239 288 352 425
#     4  11  22  42  65  93 136 188 232 286 340 398
#     4  12  27  44  69 106 142 182 235 296 351 419
#     4  11  26  48  75 106 141 180 229 296 361 419
#     4  11  26  47  75 105 139 181 235 288 354 433
#     4  12  26  42  68 100 146 190 239 291 347 408
#     4  11  25  41  68  97 136 184 241 280 344 413
#
# _framework density 21.471226000000001
#
# number of rings (size 3 to 8) (size 9 to 14) (size 15 to 20)
#    0.000    0.571    2.857    4.286    4.000   10.286 
#    0.000    0.000    0.000    0.000    0.000    0.000 
#    0.000    0.000    0.000    0.000    0.000    0.000 
#
# Total GULP energy -78310.933150 kJ/mol
# GULP energy per Si atom -5593.638082 kJ/mol
# Density = 2.142236 g / cm^3
# Si number density = 21.471226 Si / 1000 Ang^3
#
#
#
# Elastic Constant Matrix: (Units=GPa)
#
#
# Indices 1 2 3 4 5 6 
#
# 1 152.2350 60.0165 44.6451 1.2124 9.8697 10.2247
# 2 60.0165 120.6366 47.5972 -5.8189 12.7216 9.7320
# 3 44.6451 47.5972 102.8796 -5.6949 12.6665 8.8765
# 4 1.2124 -5.8189 -5.6949 42.8161 -3.4799 5.7605
# 5 9.8697 12.7216 12.6665 -3.4799 36.5910 4.5373
# 6 10.2247 9.7320 8.8765 5.7605 4.5373 37.9708
#
#
#
# Elastic Compliance Matrix: (Units=1/GPa)
#
#
# Indices 1 2 3 4 5 6 
#
# 1 0.008607 -0.003393 -0.002100 -0.000914 -0.000407 -0.000770
# 2 -0.003393 0.011721 -0.003570 0.001248 -0.001651 -0.001248
# 3 -0.002100 -0.003570 0.012761 0.001275 -0.002312 -0.001420
# 4 -0.000914 0.001248 0.001275 0.024489 0.002240 -0.004355
# 5 -0.000407 -0.001651 -0.002312 0.002240 0.029370 -0.002776
# 6 -0.000770 -0.001248 -0.001420 -0.004355 -0.002776 0.028188
#
#
# Mechanical properties :
#
#
# Convention : Reuss Voigt Hill
#
# Bulk Modulus (GPa) = 66.82908 75.58541 71.20725
# Shear Modulus (GPa) = 36.16654 38.37508 37.27081
#
# Velocity S-wave (km/s) = 4.10862 4.23221 4.17087
# Velocity P-wave (km/s) = 7.32804 7.69166 7.51205
#
# Compressibility (1/GPa) = 0.01496355
#
# Stress axis : x y z
#
# Youngs Moduli (GPa) = 116.17791 85.31765 78.36493
#
# Poissons Ratio (x) = 0.28947 0.16454
# Poissons Ratio (y) = 0.39417 0.27979
# Poissons Ratio (z) = 0.24393 0.30462
#
# Static dielectric constant tensor:
#      x y z
#    x 1.776440 -0.004280 -0.025210 
#    y -0.004280 1.762450 -0.013090 
#    z -0.025210 -0.013090 1.780460 
# 
# From -- ./inp_files/525577.got.cif
#   From: 2010.05.17/outbox.cif.g08.bks.cpg/sg2_263_cif.got.tgz:525577.got - 2010.06.03 11:33:40.
