data_PCOD9057019
_publ_section_title
;
Structure prediction by ZEFSAII (Michael W. Deem and Ramdas Pophale) SiO2 
 PCOD9057019
Probable space group: P -1
;
_chemical_formula_sum "Si O2"
_cell_formula_units_Z 16
_cell_length_a 8.572131
_cell_length_b 14.687286
_cell_length_c 12.316046
_cell_angle_alpha 129.403016
_cell_angle_beta 128.040884
_cell_angle_gamma 35.429106
_cell_volume 677.390833
_symmetry_space_group_name_H-M "P -1"
_symmetry_group_IT_number 2
_symmetry_cell_setting 'triclinic'
loop_
_space_group_symop_operation_xyz
x,y,z
-x,-y,-z
loop_
_atom_site_type_symbol
_atom_site_label
_atom_site_fract_x
_atom_site_fract_y
_atom_site_fract_z
Si Si1 0.839397 0.765598 0.996593
Si Si2 0.404669 0.808604 0.080836
Si Si3 0.983898 0.439271 0.788746
Si Si4 0.328756 0.725061 0.215761
Si Si5 0.631160 0.952421 0.841415
Si Si6 0.826159 0.504518 0.522232
Si Si7 0.669773 0.130486 0.469937
Si Si8 0.553047 0.428619 0.226542
O O1 0.954958 0.587186 0.926900
O O2 0.820098 0.794732 0.880739
O O3 0.549191 0.902674 0.035582
O O4 0.029494 0.789118 0.144621
O O5 0.354269 0.757337 0.129501
O O6 0.233045 0.998120 0.129896
O O7 0.719120 0.724766 0.168261
O O8 0.388641 0.721674 0.912104
O O9 0.961157 0.450019 0.656837
O O10 0.735462 0.466651 0.753213
O O11 0.374970 0.816000 0.383425
O O12 0.520711 0.539000 0.199935
O O13 0.455645 0.939294 0.679662
O O14 0.521145 0.692053 0.538276
O O15 0.776208 0.392436 0.374870
O O16 0.000000 0.500000 0.500000
O O17 0.000000 0.000000 0.500000
#
# Coordination Sequence:
#
# PCOD9057019 Si02
#       8
#     2   2   2   2   2   2   2   2
#     4  11  22  41  68  93 131 175 228 275 336 404
#     4  12  25  40  68 102 135 172 229 286 343 392
#     4  12  22  42  69 102 131 182 231 275 327 415
#     4  11  24  41  65  97 132 179 223 283 338 393
#     4  11  24  43  65  96 134 174 222 284 336 409
#     4  11  26  45  69 105 138 177 225 288 342 392
#     4  11  23  43  71  94 137 185 222 268 345 416
#     4  11  23  41  68  99 132 176 231 278 333 404
#
# _framework density 23.620044
#
# number of rings (size 3 to 8) (size 9 to 14) (size 15 to 20)
#    0.000    0.750    5.000    3.375    3.500    1.000 
#    0.000    0.000    0.000    0.000    0.000    0.000 
#    0.000    0.000    0.000    0.000    0.000    0.000 
#
# Total GULP energy -89517.110380 kJ/mol
# GULP energy per Si atom -5594.819399 kJ/mol
# Density = 2.356628 g / cm^3
# Si number density = 23.620044 Si / 1000 Ang^3
#
#
#
# Elastic Constant Matrix: (Units=GPa)
#
#
# Indices 1 2 3 4 5 6 
#
# 1 99.1366 24.8561 41.8809 -3.6000 3.6058 15.2069
# 2 24.8561 72.7980 14.2039 -2.0874 1.5228 6.3080
# 3 41.8809 14.2039 152.4357 7.1925 14.2023 10.7833
# 4 -3.6000 -2.0874 7.1925 28.4318 7.8858 7.3906
# 5 3.6058 1.5228 14.2023 7.8858 30.4963 -2.0442
# 6 15.2069 6.3080 10.7833 7.3906 -2.0442 38.3747
#
#
#
# Elastic Compliance Matrix: (Units=1/GPa)
#
#
# Indices 1 2 3 4 5 6 
#
# 1 0.013082 -0.003350 -0.003019 0.003704 -0.001237 -0.004564
# 2 -0.003350 0.015123 -0.000400 0.001298 -0.000597 -0.001328
# 3 -0.003019 -0.000400 0.007827 -0.001349 -0.002975 -0.000836
# 4 0.003704 0.001298 -0.001349 0.041816 -0.011355 -0.009960
# 5 -0.001237 -0.000597 -0.002975 -0.011355 0.037665 0.005618
# 6 -0.004564 -0.001328 -0.000836 -0.009960 0.005618 0.030538
#
#
# Mechanical properties :
#
#
# Convention : Reuss Voigt Hill
#
# Bulk Modulus (GPa) = 44.45683 54.02802 49.24242
# Shear Modulus (GPa) = 29.92438 35.68919 32.80678
#
# Velocity S-wave (km/s) = 3.56322 3.89134 3.73089
# Velocity P-wave (km/s) = 5.98258 6.56608 6.28111
#
# Compressibility (1/GPa) = 0.02249373
#
# Stress axis : x y z
#
# Youngs Moduli (GPa) = 76.44138 66.12268 127.76611
#
# Poissons Ratio (x) = 0.22152 0.38568
# Poissons Ratio (y) = 0.25609 0.05116
# Poissons Ratio (z) = 0.23075 0.02648
#
# Static dielectric constant tensor:
#      x y z
#    x 1.956000 -0.023420 -0.015140 
#    y -0.023420 1.910460 -0.018000 
#    z -0.015140 -0.018000 1.867850 
# 
# From -- ./inp_files/259396.got.cif
#   From: 2010.05.17/outbox.cif.g08.bks.cpg/sg2_130_cif.got.tgz:259396.got - 2010.06.03 11:33:40.
