data_PCOD9057305
_publ_section_title
;
Structure prediction by ZEFSAII (Michael W. Deem and Ramdas Pophale) SiO2 
 PCOD9057305
Probable space group: P -1
;
_chemical_formula_sum "Si O2"
_cell_formula_units_Z 16
_cell_length_a 9.086196
_cell_length_b 5.269747
_cell_length_c 18.403441
_cell_angle_alpha 88.459581
_cell_angle_beta 48.133015
_cell_angle_gamma 101.990087
_cell_volume 625.112053
_symmetry_space_group_name_H-M "P -1"
_symmetry_group_IT_number 2
_symmetry_cell_setting 'triclinic'
loop_
_space_group_symop_operation_xyz
x,y,z
-x,-y,-z
loop_
_atom_site_type_symbol
_atom_site_label
_atom_site_fract_x
_atom_site_fract_y
_atom_site_fract_z
Si Si1 0.781420 0.544627 0.859229
Si Si2 0.434324 0.221193 0.366933
Si Si3 0.809706 0.015251 0.254695
Si Si4 0.194289 0.618952 0.489976
Si Si5 0.953333 0.705635 0.321673
Si Si6 0.864994 0.757766 0.094746
Si Si7 0.709313 0.329596 0.030247
Si Si8 0.648090 0.851971 0.773374
O O1 0.682757 0.636763 0.820450
O O2 0.919178 0.372406 0.783994
O O3 0.644779 0.384148 0.970760
O O4 0.948690 0.811927 0.833079
O O5 0.360919 0.461382 0.419929
O O6 0.411729 0.231255 0.287794
O O7 0.663757 0.204340 0.307832
O O8 0.285466 0.934358 0.445649
O O9 0.797359 0.838280 0.332505
O O10 0.757809 0.847028 0.198362
O O11 0.132080 0.539630 0.594160
O O12 0.000000 0.500000 0.500000
O O13 0.130699 0.925018 0.305407
O O14 0.726349 0.547311 0.086131
O O15 0.051628 0.651313 0.061106
O O16 0.000000 0.000000 0.000000
O O17 0.541857 0.074405 0.123777
#
# Coordination Sequence:
#
# PCOD9057305 Si02
#       8
#     2   2   2   2   2   2   2   2
#     4  11  24  46  68 103 150 195 239 304 372 430
#     4  12  29  48  81 112 144 195 251 313 366 455
#     4  11  26  45  70 106 148 189 249 300 375 435
#     4  12  27  51  79 111 149 191 250 308 384 436
#     4  11  26  47  73  98 151 193 235 317 369 440
#     4  11  22  42  67 101 145 195 237 309 359 430
#     4  11  24  40  71 103 145 195 249 295 365 438
#     4  11  26  43  69 108 140 194 247 303 362 447
#
# _framework density 25.595407999999999
#
# number of rings (size 3 to 8) (size 9 to 14) (size 15 to 20)
#    0.000    0.750    3.750    2.250    8.750    2.500 
#    0.000    0.000    0.000    0.000    0.000    0.000 
#    0.000    0.000    0.000    0.000    0.000    0.000 
#
# Total GULP energy -89588.393262 kJ/mol
# GULP energy per Si atom -5599.274579 kJ/mol
# Density = 2.553715 g / cm^3
# Si number density = 25.595408 Si / 1000 Ang^3
#
#
#
# Elastic Constant Matrix: (Units=GPa)
#
#
# Indices 1 2 3 4 5 6 
#
# 1 109.9609 13.7806 26.7354 5.0921 8.3527 -9.7782
# 2 13.7806 55.2798 11.8733 -2.7856 0.7399 -14.6722
# 3 26.7354 11.8733 99.5383 -14.6603 15.2900 -10.5347
# 4 5.0921 -2.7856 -14.6603 46.9508 -10.8325 -2.0716
# 5 8.3527 0.7399 15.2900 -10.8325 46.8674 -6.7170
# 6 -9.7782 -14.6722 -10.5347 -2.0716 -6.7170 21.9704
#
#
#
# Elastic Compliance Matrix: (Units=1/GPa)
#
#
# Indices 1 2 3 4 5 6 
#
# 1 0.010260 -0.001675 -0.002515 -0.002215 -0.001257 0.001649
# 2 -0.001675 0.022821 -0.000716 0.002677 0.002986 0.015317
# 3 -0.002515 -0.000716 0.012084 0.003699 -0.002067 0.003914
# 4 -0.002215 0.002677 0.003699 0.024474 0.005754 0.006643
# 5 -0.001257 0.002986 -0.002067 0.005754 0.024743 0.008551
# 6 0.001649 0.015317 0.003914 0.006643 0.008551 0.061596
#
#
# Mechanical properties :
#
#
# Convention : Reuss Voigt Hill
#
# Bulk Modulus (GPa) = 28.28427 41.06193 34.67310
# Shear Modulus (GPa) = 28.15738 37.31703 32.73720
#
# Velocity S-wave (km/s) = 3.32037 3.82246 3.58023
# Velocity P-wave (km/s) = 5.07684 5.96315 5.53775
#
# Compressibility (1/GPa) = 0.03535535
#
# Stress axis : x y z
#
# Youngs Moduli (GPa) = 97.46496 43.81856 82.75627
#
# Poissons Ratio (x) = 0.07338 0.20809
# Poissons Ratio (y) = 0.16322 0.05923
# Poissons Ratio (z) = 0.24508 0.03136
#
# Static dielectric constant tensor:
#      x y z
#    x 2.300240 -0.096910 -0.177560 
#    y -0.096910 2.125260 0.010410 
#    z -0.177560 0.010410 2.005790 
# 
# From -- ./inp_files/323847.got.cif
#   From: 2010.05.17/outbox.cif.g08.bks.cpg/sg2_162_cif.got.tgz:323847.got - 2010.06.03 11:33:40.
