data_PCOD9057310
_publ_section_title
;
Structure prediction by ZEFSAII (Michael W. Deem and Ramdas Pophale) SiO2 
 PCOD9057310
Probable space group: P -1
;
_chemical_formula_sum "Si O2"
_cell_formula_units_Z 16
_cell_length_a 5.368722
_cell_length_b 18.035064
_cell_length_c 12.401487
_cell_angle_alpha 53.023667
_cell_angle_beta 124.645495
_cell_angle_gamma 93.369739
_cell_volume 712.183126
_symmetry_space_group_name_H-M "P -1"
_symmetry_group_IT_number 2
_symmetry_cell_setting 'triclinic'
loop_
_space_group_symop_operation_xyz
x,y,z
-x,-y,-z
loop_
_atom_site_type_symbol
_atom_site_label
_atom_site_fract_x
_atom_site_fract_y
_atom_site_fract_z
Si Si1 0.598329 0.192255 0.505087
Si Si2 0.240791 0.811580 0.128680
Si Si3 0.462512 0.196382 0.230289
Si Si4 0.473417 0.013913 0.281434
Si Si5 0.804891 0.486333 0.360719
Si Si6 0.434517 0.358357 0.479532
Si Si7 0.665241 0.278207 0.993208
Si Si8 0.327378 0.082726 0.794853
O O1 0.595422 0.217796 0.356410
O O2 0.362293 0.287046 0.436548
O O3 0.965570 0.164970 0.666035
O O4 0.543722 0.088920 0.590752
O O5 0.304091 0.710522 0.301986
O O6 0.417686 0.771425 0.091222
O O7 0.425107 0.863882 0.201046
O O8 0.875498 0.900612 0.931090
O O9 0.569015 0.075552 0.340555
O O10 0.590097 0.232669 0.124000
O O11 0.058566 0.249101 0.098070
O O12 0.712610 0.973542 0.272366
O O13 0.600031 0.422653 0.402278
O O14 0.549289 0.600290 0.162997
O O15 0.000000 0.500000 0.500000
O O16 0.088467 0.428244 0.392734
O O17 0.500000 0.000000 0.000000
#
# Coordination Sequence:
#
# PCOD9057310 Si02
#       8
#     2   2   2   2   2   2   2   2
#     4  12  27  45  67 101 146 194 234 284 337 419
#     4  11  22  42  67 110 142 181 225 292 362 419
#     4  11  28  47  71 101 142 194 242 278 338 418
#     4  11  24  41  67  99 144 189 237 279 340 414
#     4  12  26  46  75 109 138 173 229 297 368 420
#     4  12  26  43  72 108 143 177 231 288 362 419
#     4  11  26  48  73 101 141 180 235 298 354 417
#     4  12  22  39  66  99 146 184 232 286 349 404
#
# _framework density 22.466132999999999
#
# number of rings (size 3 to 8) (size 9 to 14) (size 15 to 20)
#    0.000    0.500    3.750    4.125    7.000    0.500 
#    0.000    3.750    0.000    0.000    0.000    0.000 
#    0.000    0.000    0.000    0.000    0.000    0.000 
#
# Total GULP energy -89515.042321 kJ/mol
# GULP energy per Si atom -5594.690145 kJ/mol
# Density = 2.241500 g / cm^3
# Si number density = 22.466133 Si / 1000 Ang^3
#
#
#
# Elastic Constant Matrix: (Units=GPa)
#
#
# Indices 1 2 3 4 5 6 
#
# 1 110.1171 39.2483 32.9064 -14.4544 -5.5721 -26.7302
# 2 39.2483 111.8704 47.2824 -9.7637 -4.8631 -34.0266
# 3 32.9064 47.2824 65.8288 -10.5086 -13.7777 -11.4813
# 4 -14.4544 -9.7637 -10.5086 39.5381 -4.3512 -4.4006
# 5 -5.5721 -4.8631 -13.7777 -4.3512 40.0543 -5.4989
# 6 -26.7302 -34.0266 -11.4813 -4.4006 -5.4989 45.5847
#
#
#
# Elastic Compliance Matrix: (Units=1/GPa)
#
#
# Indices 1 2 3 4 5 6 
#
# 1 0.012695 -0.000230 -0.003851 0.004541 0.001863 0.006966
# 2 -0.000230 0.016213 -0.009307 0.002591 0.000378 0.009919
# 3 -0.003851 -0.009307 0.025688 0.003768 0.007376 -0.001482
# 4 0.004541 0.002591 0.003768 0.030379 0.006820 0.009301
# 5 0.001863 0.000378 0.007376 0.006820 0.029573 0.007458
# 6 0.006966 0.009919 -0.001482 0.009301 0.007458 0.034850
#
#
# Mechanical properties :
#
#
# Convention : Reuss Voigt Hill
#
# Bulk Modulus (GPa) = 35.94684 58.52117 47.23401
# Shear Modulus (GPa) = 26.96167 36.26069 31.61118
#
# Velocity S-wave (km/s) = 3.46801 4.02184 3.75515
# Velocity P-wave (km/s) = 5.66315 6.90450 6.31440
#
# Compressibility (1/GPa) = 0.02781885
#
# Stress axis : x y z
#
# Youngs Moduli (GPa) = 78.76904 61.67908 38.92898
#
# Poissons Ratio (x) = 0.01421 0.14991
# Poissons Ratio (y) = 0.01815 0.36232
# Poissons Ratio (z) = 0.30333 0.57406
#
# Static dielectric constant tensor:
#      x y z
#    x 1.846980 -0.013040 -0.012320 
#    y -0.013040 1.784130 0.012230 
#    z -0.012320 0.012230 1.838530 
# 
# From -- ./inp_files/369385.got.cif
#   From: 2010.05.17/outbox.cif.g08.bks.cpg/sg2_185_cif.got.tgz:369385.got - 2010.06.03 11:33:40.
