data_PCOD9057371
_publ_section_title
;
Structure prediction by ZEFSAII (Michael W. Deem and Ramdas Pophale) SiO2 
 PCOD9057371
Probable space group: P -1
;
_chemical_formula_sum "Si O2"
_cell_formula_units_Z 16
_cell_length_a 6.926500
_cell_length_b 11.669939
_cell_length_c 8.681011
_cell_angle_alpha 89.049824
_cell_angle_beta 121.817700
_cell_angle_gamma 81.583209
_cell_volume 586.154927
_symmetry_space_group_name_H-M "P -1"
_symmetry_group_IT_number 2
_symmetry_cell_setting 'triclinic'
loop_
_space_group_symop_operation_xyz
x,y,z
-x,-y,-z
loop_
_atom_site_type_symbol
_atom_site_label
_atom_site_fract_x
_atom_site_fract_y
_atom_site_fract_z
Si Si1 0.336048 0.690154 0.987340
Si Si2 0.860849 0.789278 0.795562
Si Si3 0.187858 0.545930 0.184421
Si Si4 0.006036 0.369470 0.576782
Si Si5 0.212275 0.998172 0.472320
Si Si6 0.010149 0.097189 0.870445
Si Si7 0.380366 0.137536 0.785256
Si Si8 0.520760 0.331162 0.281315
O O1 0.350166 0.612091 0.146224
O O2 0.398535 0.816139 0.054704
O O3 0.070847 0.694615 0.819847
O O4 0.498543 0.646626 0.911591
O O5 0.850656 0.894682 0.673720
O O6 0.602044 0.774532 0.721362
O O7 0.968285 0.797238 0.010522
O O8 0.051162 0.607873 0.268344
O O9 0.369930 0.432818 0.314378
O O10 0.000000 0.500000 0.000000
O O11 0.785177 0.319350 0.427880
O O12 0.000000 0.500000 0.500000
O O13 0.223117 0.261305 0.657625
O O14 0.405248 0.039775 0.662771
O O15 0.000000 0.000000 0.500000
O O16 0.193096 0.895614 0.342414
O O17 0.240938 0.086405 0.864064
O O18 0.000000 0.000000 0.000000
#
# Coordination Sequence:
#
# PCOD9057371 Si02
#       8
#     2   2   2   2   2   2   2   2
#     4  12  24  42  69 101 135 181 227 280 334 402
#     4  11  22  42  71  96 136 176 223 278 341 403
#     4  12  24  43  66  97 137 180 227 274 331 396
#     4  12  27  44  69 102 142 182 226 278 334 406
#     4   9  21  40  70  94 135 177 219 284 337 403
#     4   9  19  43  70  96 132 174 226 285 333 405
#     4  11  22  42  69 100 137 177 225 278 342 394
#     4  12  25  43  68  98 140 182 228 274 336 399
#
# _framework density 27.29654
#
# number of rings (size 3 to 8) (size 9 to 14) (size 15 to 20)
#    0.000    1.000    2.500    4.500    3.500    0.000 
#    0.000    6.250   11.000    0.000    0.000    0.000 
#    0.000    0.000    0.000    0.000    0.000    0.000 
#
# Total GULP energy -89389.876315 kJ/mol
# GULP energy per Si atom -5586.867270 kJ/mol
# Density = 2.723441 g / cm^3
# Si number density = 27.296540 Si / 1000 Ang^3
#
#
#
# Elastic Constant Matrix: (Units=GPa)
#
#
# Indices 1 2 3 4 5 6 
#
# 1 126.5847 42.2918 57.6727 6.7885 9.8472 37.5987
# 2 42.2918 120.9581 36.9105 -14.3417 -14.0930 34.3552
# 3 57.6727 36.9105 119.0828 25.7891 -30.4643 18.1936
# 4 6.7885 -14.3417 25.7891 55.4767 4.2979 -7.5893
# 5 9.8472 -14.0930 -30.4643 4.2979 39.8176 -3.8178
# 6 37.5987 34.3552 18.1936 -7.5893 -3.8178 62.1785
#
#
#
# Elastic Compliance Matrix: (Units=1/GPa)
#
#
# Indices 1 2 3 4 5 6 
#
# 1 0.015792 -0.002010 -0.009958 0.002363 -0.013070 -0.006039
# 2 -0.002010 0.011405 -0.002191 0.003518 0.002105 -0.003886
# 3 -0.009958 -0.002191 0.020787 -0.010325 0.018806 0.001044
# 4 0.002363 0.003518 -0.010325 0.024475 -0.009685 0.002041
# 5 -0.013070 0.002105 0.018806 -0.009685 0.044794 0.002806
# 6 -0.006039 -0.003886 0.001044 0.002041 0.002806 0.021997
#
#
# Mechanical properties :
#
#
# Convention : Reuss Voigt Hill
#
# Bulk Modulus (GPa) = 50.85124 71.15286 61.00205
# Shear Modulus (GPa) = 28.71505 46.81124 37.76314
#
# Velocity S-wave (km/s) = 3.24692 4.14565 3.72350
# Velocity P-wave (km/s) = 5.72069 7.00274 6.39393
#
# Compressibility (1/GPa) = 0.01966520
#
# Stress axis : x y z
#
# Youngs Moduli (GPa) = 63.32310 87.68082 48.10734
#
# Poissons Ratio (x) = 0.17626 0.47905
# Poissons Ratio (y) = 0.12729 0.10541
# Poissons Ratio (z) = 0.63057 0.19213
#
# Static dielectric constant tensor:
#      x y z
#    x 2.213650 0.005240 0.054230 
#    y 0.005240 2.371350 0.132820 
#    z 0.054230 0.132820 2.218150 
# 
# From -- ./inp_files/135413.got.cif
#   From: 2010.05.17/outbox.cif.g08.bks.cpg/sg2_68_cif.got.tgz:135413.got - 2010.06.03 11:33:40.
