data_PCOD9057397
_publ_section_title
;
Structure prediction by ZEFSAII (Michael W. Deem and Ramdas Pophale) SiO2 
 PCOD9057397
Probable space group: P -1
;
_chemical_formula_sum "Si O2"
_cell_formula_units_Z 16
_cell_length_a 11.996516
_cell_length_b 8.637597
_cell_length_c 9.697657
_cell_angle_alpha 84.785199
_cell_angle_beta 128.965388
_cell_angle_gamma 102.698464
_cell_volume 760.724561
_symmetry_space_group_name_H-M "P -1"
_symmetry_group_IT_number 2
_symmetry_cell_setting 'triclinic'
loop_
_space_group_symop_operation_xyz
x,y,z
-x,-y,-z
loop_
_atom_site_type_symbol
_atom_site_label
_atom_site_fract_x
_atom_site_fract_y
_atom_site_fract_z
Si Si1 0.657123 0.619182 0.446327
Si Si2 0.338045 0.578605 0.269606
Si Si3 0.126054 0.997041 0.848773
Si Si4 0.129546 0.813421 0.143107
Si Si5 0.349420 0.903069 0.823387
Si Si6 0.198733 0.028984 0.436825
Si Si7 0.820822 0.662897 0.045073
Si Si8 0.657667 0.465999 0.169751
O O1 0.493766 0.653641 0.318048
O O2 0.648405 0.476369 0.559080
O O3 0.762451 0.781025 0.562014
O O4 0.697707 0.559270 0.335667
O O5 0.230028 0.698538 0.174295
O O6 0.275653 0.418764 0.149527
O O7 0.221895 0.909820 0.834385
O O8 0.974496 0.016190 0.659116
O O9 0.215364 0.173140 0.942178
O O10 0.086138 0.906604 0.969922
O O11 0.987356 0.710114 0.117084
O O12 0.211960 0.937233 0.311475
O O13 0.358046 0.722088 0.814872
O O14 0.299487 0.980115 0.638988
O O15 0.500000 0.000000 0.000000
O O16 0.780404 0.536860 0.146614
O O17 0.500000 0.500000 0.000000
#
# Coordination Sequence:
#
# PCOD9057397 Si02
#       8
#     2   2   2   2   2   2   2   2
#     4  11  24  41  65  95 138 181 218 282 342 397
#     4  11  23  40  64  99 136 176 229 277 338 401
#     4  11  24  45  71 101 140 183 227 282 340 404
#     4  11  24  43  69 102 135 183 232 274 341 405
#     4  12  27  44  71 102 136 183 232 279 342 413
#     4  11  24  46  67  99 142 178 230 278 342 402
#     4  11  22  42  69  94 135 175 223 280 336 400
#     4  12  24  44  65  97 134 175 226 280 338 399
#
# _framework density 21.032579999999999
#
# number of rings (size 3 to 8) (size 9 to 14) (size 15 to 20)
#    0.000    0.750    1.250    7.500    1.750    2.500 
#    0.000    3.750    0.000    0.000    0.000    0.000 
#    0.000    0.000    0.000    0.000    0.000    0.000 
#
# Total GULP energy -89489.308487 kJ/mol
# GULP energy per Si atom -5593.081780 kJ/mol
# Density = 2.098471 g / cm^3
# Si number density = 21.032580 Si / 1000 Ang^3
#
#
#
# Elastic Constant Matrix: (Units=GPa)
#
#
# Indices 1 2 3 4 5 6 
#
# 1 37.8792 3.6531 13.7119 -2.5979 -7.3339 6.0608
# 2 3.6531 72.4147 12.0227 3.1494 1.3261 6.0879
# 3 13.7119 12.0227 96.2312 2.1658 -7.2179 9.1665
# 4 -2.5979 3.1494 2.1658 42.3876 1.6419 1.4679
# 5 -7.3339 1.3261 -7.2179 1.6419 26.0048 -4.1365
# 6 6.0608 6.0879 9.1665 1.4679 -4.1365 28.5779
#
#
#
# Elastic Compliance Matrix: (Units=1/GPa)
#
#
# Indices 1 2 3 4 5 6 
#
# 1 0.029776 -0.000811 -0.003278 0.001938 0.006736 -0.004215
# 2 -0.000811 0.014397 -0.001546 -0.000882 -0.001751 -0.002607
# 3 -0.003278 -0.001546 0.011438 -0.000668 0.002002 -0.002320
# 4 0.001938 -0.000882 -0.000668 0.023911 -0.001331 -0.001430
# 5 0.006736 -0.001751 0.002002 -0.001331 0.041786 0.004419
# 6 -0.004215 -0.002607 -0.002320 -0.001430 0.004419 0.037899
#
#
# Mechanical properties :
#
#
# Convention : Reuss Voigt Hill
#
# Bulk Modulus (GPa) = 22.55318 29.47782 26.01550
# Shear Modulus (GPa) = 26.98941 31.20324 29.09632
#
# Velocity S-wave (km/s) = 3.58609 3.85589 3.72343
# Velocity P-wave (km/s) = 5.28138 5.81976 5.55709
#
# Compressibility (1/GPa) = 0.04433965
#
# Stress axis : x y z
#
# Youngs Moduli (GPa) = 33.58395 69.46090 87.42685
#
# Poissons Ratio (x) = 0.05634 0.28661
# Poissons Ratio (y) = 0.02724 0.13518
# Poissons Ratio (z) = 0.11010 0.10740
#
# Static dielectric constant tensor:
#      x y z
#    x 1.750910 0.017160 0.004740 
#    y 0.017160 1.734260 -0.015000 
#    z 0.004740 -0.015000 1.756680 
# 
# From -- ./inp_files/205292.got.cif
#   From: 2010.05.17/outbox.cif.g08.bks.cpg/sg2_103_cif.got.tgz:205292.got - 2010.06.03 11:33:40.
