data_PCOD9057480
_publ_section_title
;
Structure prediction by ZEFSAII (Michael W. Deem and Ramdas Pophale) SiO2 
 PCOD9057480
Probable space group: P -1
;
_chemical_formula_sum "Si O2"
_cell_formula_units_Z 14
_cell_length_a 20.643106
_cell_length_b 11.241559
_cell_length_c 7.739443
_cell_angle_alpha 109.677920
_cell_angle_beta 116.447514
_cell_angle_gamma 20.146105
_cell_volume 534.196271
_symmetry_space_group_name_H-M "P -1"
_symmetry_group_IT_number 2
_symmetry_cell_setting 'triclinic'
loop_
_space_group_symop_operation_xyz
x,y,z
-x,-y,-z
loop_
_atom_site_type_symbol
_atom_site_label
_atom_site_fract_x
_atom_site_fract_y
_atom_site_fract_z
Si Si1 0.836669 0.429170 0.897701
Si Si2 0.114912 0.364408 0.842654
Si Si3 0.665018 0.303395 0.487980
Si Si4 0.720646 0.393028 0.906879
Si Si5 0.893069 0.526382 0.468437
Si Si6 0.487304 0.337619 0.870361
Si Si7 0.788227 0.434132 0.463815
O O1 0.699631 0.578727 0.949653
O O2 0.747677 0.550835 0.663998
O O3 0.901965 0.466203 0.024678
O O4 0.051218 0.004808 0.948589
O O5 0.928731 0.573440 0.681848
O O6 0.212078 0.236651 0.704729
O O7 0.271395 0.042905 0.002179
O O8 0.500000 0.500000 0.500000
O O9 0.699708 0.371711 0.678398
O O10 0.596583 0.441720 0.277951
O O11 0.878406 0.881510 0.525903
O O12 0.595344 0.519623 0.962319
O O13 0.811879 0.524381 0.428969
O O14 0.399072 0.344214 0.716798
O O15 0.000000 0.000000 0.500000
#
# Coordination Sequence:
#
# PCOD9057480 Si02
#       7
#     2   2   2   2   2   2   2
#     4  11  22  42  71 106 140 191 241 290 357 438
#     4  11  27  46  69 109 152 188 233 303 381 421
#     4  12  25  46  75 105 141 190 254 293 350 442
#     4  11  22  42  76 101 139 191 247 287 349 434
#     4  11  24  49  72 103 150 198 235 294 376 435
#     4  12  26  47  74 113 143 188 242 309 358 419
#     4  12  22  44  78 106 141 190 253 297 349 432
#
# _framework density 26.207595999999999
#
# number of rings (size 3 to 8) (size 9 to 14) (size 15 to 20)
#    0.000    0.571    5.714    1.714    0.000    6.857 
#    7.714    0.000    0.000    0.000    0.000    0.000 
#    0.000    0.000    0.000    0.000    0.000    0.000 
#
# Total GULP energy -78328.712016 kJ/mol
# GULP energy per Si atom -5594.908001 kJ/mol
# Density = 2.614795 g / cm^3
# Si number density = 26.207596 Si / 1000 Ang^3
#
#
#
# Elastic Constant Matrix: (Units=GPa)
#
#
# Indices 1 2 3 4 5 6 
#
# 1 138.8570 18.8303 36.4871 11.9748 1.8504 12.8964
# 2 18.8303 39.7947 32.3234 9.5283 -13.1679 5.3021
# 3 36.4871 32.3234 152.2307 6.6398 -10.1423 18.7632
# 4 11.9748 9.5283 6.6398 44.5202 9.5724 4.2489
# 5 1.8504 -13.1679 -10.1423 9.5724 55.0820 13.6786
# 6 12.8964 5.3021 18.7632 4.2489 13.6786 27.4220
#
#
#
# Elastic Compliance Matrix: (Units=1/GPa)
#
#
# Indices 1 2 3 4 5 6 
#
# 1 0.008147 -0.002448 -0.001121 -0.001222 -0.000293 -0.002256
# 2 -0.002448 0.037176 -0.005402 -0.008239 0.011038 -0.006569
# 3 -0.001121 -0.005402 0.008724 0.000313 0.001601 -0.005245
# 4 -0.001222 -0.008239 0.000313 0.025820 -0.006677 0.001283
# 5 -0.000293 0.011038 0.001601 -0.006677 0.025988 -0.015021
# 6 -0.002256 -0.006569 -0.005245 0.001283 -0.015021 0.049680
#
#
# Mechanical properties :
#
#
# Convention : Reuss Voigt Hill
#
# Bulk Modulus (GPa) = 27.69803 56.24043 41.96923
# Shear Modulus (GPa) = 26.95218 41.62095 34.28656
#
# Velocity S-wave (km/s) = 3.21036 3.98945 3.62092
# Velocity P-wave (km/s) = 4.93291 6.53660 5.79054
#
# Compressibility (1/GPa) = 0.03610365
#
# Stress axis : x y z
#
# Youngs Moduli (GPa) = 122.74444 26.89918 114.62420
#
# Poissons Ratio (x) = 0.06586 0.12850
# Poissons Ratio (y) = 0.30052 0.61924
# Poissons Ratio (z) = 0.13760 0.14532
#
# Static dielectric constant tensor:
#      x y z
#    x 2.108930 -0.031090 0.013680 
#    y -0.031090 2.073840 0.044840 
#    z 0.013680 0.044840 2.048280 
# 
# From -- ./inp_files/353846.got.cif
#   From: 2010.05.17/outbox.cif.g08.bks.cpg/sg2_177_cif.got.tgz:353846.got - 2010.06.03 11:33:40.
