data_PCOD9057705
_publ_section_title
;
Structure prediction by ZEFSAII (Michael W. Deem and Ramdas Pophale) SiO2 
 PCOD9057705
Probable space group: P -1
;
_chemical_formula_sum "Si O2"
_cell_formula_units_Z 14
_cell_length_a 7.552163
_cell_length_b 17.092882
_cell_length_c 9.352863
_cell_angle_alpha 35.404811
_cell_angle_beta 61.477601
_cell_angle_gamma 63.638179
_cell_volume 611.003266
_symmetry_space_group_name_H-M "P -1"
_symmetry_group_IT_number 2
_symmetry_cell_setting 'triclinic'
loop_
_space_group_symop_operation_xyz
x,y,z
-x,-y,-z
loop_
_atom_site_type_symbol
_atom_site_label
_atom_site_fract_x
_atom_site_fract_y
_atom_site_fract_z
Si Si1 0.227558 0.355628 0.803440
Si Si2 0.496688 0.626719 0.576458
Si Si3 0.281272 0.359161 0.106046
Si Si4 0.063339 0.373813 0.442710
Si Si5 0.598123 0.108640 0.395950
Si Si6 0.993986 0.153781 0.004987
Si Si7 0.677595 0.071647 0.746423
O O1 0.436443 0.374687 0.613607
O O2 0.081856 0.496313 0.642782
O O3 0.243865 0.319507 0.016725
O O4 0.130214 0.239554 0.926774
O O5 0.711025 0.618119 0.591761
O O6 0.365148 0.768528 0.446912
O O7 0.382708 0.499027 0.852201
O O8 0.089085 0.374578 0.261508
O O9 0.437551 0.239347 0.287460
O O10 0.983916 0.238038 0.736772
O O11 0.666296 0.052208 0.608848
O O12 0.783498 0.151927 0.168070
O O13 0.500000 0.000000 0.500000
O O14 0.111042 0.004365 0.167289
O O15 0.500000 0.000000 0.000000
#
# Coordination Sequence:
#
# PCOD9057705 Si02
#       7
#     2   2   2   2   2   2   2
#     4  11  23  41  70 100 139 178 227 279 341 405
#     4  11  23  42  72  96 145 183 221 280 337 410
#     4  12  24  43  67 107 139 176 231 285 339 396
#     4  11  22  43  69 102 135 178 226 284 335 407
#     4  12  27  47  72  99 138 177 232 288 345 409
#     4  11  24  47  72  96 137 183 229 279 347 411
#     4  12  23  47  70 102 138 184 230 274 344 411
#
# _framework density 22.913133999999999
#
# number of rings (size 3 to 8) (size 9 to 14) (size 15 to 20)
#    0.000    0.571    4.286    6.000    2.000    0.000 
#    2.571    1.429    0.000    0.000    0.000    0.000 
#    0.000    0.000    0.000    0.000    0.000    0.000 
#
# Total GULP energy -78464.955822 kJ/mol
# GULP energy per Si atom -5604.639702 kJ/mol
# Density = 2.286098 g / cm^3
# Si number density = 22.913134 Si / 1000 Ang^3
#
#
#
# Elastic Constant Matrix: (Units=GPa)
#
#
# Indices 1 2 3 4 5 6 
#
# 1 26.6201 10.5875 21.0941 1.2734 0.3677 -1.3382
# 2 10.5875 127.9881 46.5897 2.0754 0.1897 -10.3447
# 3 21.0941 46.5897 129.4980 18.1523 -7.4195 11.5977
# 4 1.2734 2.0754 18.1523 65.4278 -2.2049 14.7551
# 5 0.3677 0.1897 -7.4195 -2.2049 35.1288 -4.1479
# 6 -1.3382 -10.3447 11.5977 14.7551 -4.1479 27.8723
#
#
#
# Elastic Compliance Matrix: (Units=1/GPa)
#
#
# Indices 1 2 3 4 5 6 
#
# 1 0.043971 -0.000522 -0.007502 0.000120 -0.001473 0.004756
# 2 -0.000522 0.009694 -0.003835 -0.000453 -0.000251 0.005371
# 3 -0.007502 -0.003835 0.011118 -0.001557 0.001720 -0.005329
# 4 0.000120 -0.000453 -0.001557 0.017736 -0.000271 -0.008944
# 5 -0.001473 -0.000251 0.001720 -0.000271 0.029257 0.003617
# 6 0.004756 0.005371 -0.005329 -0.008944 0.003617 0.045590
#
#
# Mechanical properties :
#
#
# Convention : Reuss Voigt Hill
#
# Bulk Modulus (GPa) = 24.35071 48.96098 36.65585
# Shear Modulus (GPa) = 25.67104 39.40811 32.53958
#
# Velocity S-wave (km/s) = 3.35081 4.15166 3.77255
# Velocity P-wave (km/s) = 5.06173 6.66304 5.91681
#
# Compressibility (1/GPa) = 0.04106656
#
# Stress axis : x y z
#
# Youngs Moduli (GPa) = 22.74203 103.15606 89.94608
#
# Poissons Ratio (x) = 0.05384 0.67477
# Poissons Ratio (y) = 0.01187 0.34490
# Poissons Ratio (z) = 0.17061 0.39555
#
# Static dielectric constant tensor:
#      x y z
#    x 1.895980 0.028410 0.003960 
#    y 0.028410 1.844590 0.016080 
#    z 0.003960 0.016080 1.858770 
# 
# From -- ./inp_files/216292.got.cif
#   From: 2010.05.17/outbox.cif.g08.bks.cpg/sg2_109_cif.got.tgz:216292.got - 2010.06.03 11:33:40.
