data_PCOD9057750
_publ_section_title
;
Structure prediction by ZEFSAII (Michael W. Deem and Ramdas Pophale) SiO2 
 PCOD9057750
Probable space group: P -1
;
_chemical_formula_sum "Si O2"
_cell_formula_units_Z 16
_cell_length_a 9.128453
_cell_length_b 13.722542
_cell_length_c 8.022942
_cell_angle_alpha 116.830920
_cell_angle_beta 48.103537
_cell_angle_gamma 94.930216
_cell_volume 631.438162
_symmetry_space_group_name_H-M "P -1"
_symmetry_group_IT_number 2
_symmetry_cell_setting 'triclinic'
loop_
_space_group_symop_operation_xyz
x,y,z
-x,-y,-z
loop_
_atom_site_type_symbol
_atom_site_label
_atom_site_fract_x
_atom_site_fract_y
_atom_site_fract_z
Si Si1 0.877261 0.590710 0.803912
Si Si2 0.233336 0.608940 0.146056
Si Si3 0.328979 0.994555 0.495657
Si Si4 0.358006 0.826589 0.834149
Si Si5 0.924729 0.938559 0.827963
Si Si6 0.958147 0.817743 0.351485
Si Si7 0.470916 0.249030 0.033951
Si Si8 0.839156 0.286568 0.349272
O O1 0.764054 0.522020 0.951558
O O2 0.000000 0.500000 0.500000
O O3 0.049737 0.640171 0.788501
O O4 0.719909 0.692300 0.895772
O O5 0.416646 0.651966 0.969692
O O6 0.229584 0.650102 0.373716
O O7 0.029413 0.686595 0.261426
O O8 0.409997 0.876347 0.234244
O O9 0.122460 0.982427 0.729878
O O10 0.500000 0.000000 0.500000
O O11 0.242017 0.114057 0.551204
O O12 0.342432 0.745416 0.630988
O O13 0.548936 0.781336 0.780954
O O14 0.156349 0.828468 0.103765
O O15 0.292289 0.958359 0.925338
O O16 0.940091 0.889156 0.590866
O O17 0.981677 0.831158 0.825461
#
# Coordination Sequence:
#
# PCOD9057750 Si02
#       8
#     2   2   2   2   2   2   2   2
#     4  10  23  40  59  84 114 153 197 246 283 327
#     4   9  19  40  65  77 111 159 199 229 279 346
#     4  11  20  32  60  95 118 141 191 242 278 341
#     4  10  18  32  57  88 115 152 186 232 291 350
#     4  10  17  37  56  82 123 159 182 221 292 361
#     4   9  17  35  60  82 118 153 187 228 290 346
#     4  11  20  39  63  85 113 154 194 234 291 342
#     4  10  20  35  59  84 118 153 188 231 289 339
#
# _framework density 25.338982000000001
#
# number of rings (size 3 to 8) (size 9 to 14) (size 15 to 20)
#    0.000    2.000    5.000    1.500    3.500    0.000 
#    0.000    9.375    2.750    0.000    0.000    0.000 
#    0.000    0.000    0.000    0.000    0.000    0.000 
#
# Total GULP energy -89439.997683 kJ/mol
# GULP energy per Si atom -5589.999855 kJ/mol
# Density = 2.528131 g / cm^3
# Si number density = 25.338982 Si / 1000 Ang^3
#
#
#
# Elastic Constant Matrix: (Units=GPa)
#
#
# Indices 1 2 3 4 5 6 
#
# 1 97.4431 27.3468 -3.5789 -0.5558 -11.4007 -15.2471
# 2 27.3468 119.3950 7.0277 -4.6588 1.8696 -2.5438
# 3 -3.5789 7.0277 35.3696 -2.3099 -0.3439 -9.1934
# 4 -0.5558 -4.6588 -2.3099 20.6404 -5.2861 -4.1015
# 5 -11.4007 1.8696 -0.3439 -5.2861 31.5422 3.0914
# 6 -15.2471 -2.5438 -9.1934 -4.1015 3.0914 36.3509
#
#
#
# Elastic Compliance Matrix: (Units=1/GPa)
#
#
# Indices 1 2 3 4 5 6 
#
# 1 0.012714 -0.002977 0.003621 0.002441 0.004640 0.005921
# 2 -0.002977 0.009242 -0.002314 0.001214 -0.001354 -0.000935
# 3 0.003621 -0.002314 0.032067 0.005591 0.001758 0.009948
# 4 0.002441 0.001214 0.005591 0.053272 0.009038 0.007765
# 5 0.004640 -0.001354 0.001758 0.009038 0.034961 0.000343
# 6 0.005921 -0.000935 0.009948 0.007765 0.000343 0.033291
#
#
# Mechanical properties :
#
#
# Convention : Reuss Voigt Hill
#
# Bulk Modulus (GPa) = 19.72988 34.86654 27.29821
# Shear Modulus (GPa) = 25.53876 32.46751 29.00314
#
# Velocity S-wave (km/s) = 3.17816 3.58345 3.38687
# Velocity P-wave (km/s) = 4.61204 5.55980 5.10795
#
# Compressibility (1/GPa) = 0.05068454
#
# Stress axis : x y z
#
# Youngs Moduli (GPa) = 78.65319 108.19923 31.18453
#
# Poissons Ratio (x) = 0.32206 -0.11293
# Poissons Ratio (y) = 0.23411 0.07217
# Poissons Ratio (z) = -0.28484 0.25042
#
# Static dielectric constant tensor:
#      x y z
#    x 2.023030 0.040160 -0.037780 
#    y 0.040160 2.128500 -0.063430 
#    z -0.037780 -0.063430 2.033630 
# 
# From -- ./inp_files/202188.got.cif
#   From: 2010.05.17/outbox.cif.g08.bks.cpg/sg2_102_cif.got.tgz:202188.got - 2010.06.03 11:33:40.
