data_PCOD9057448
_publ_section_title
;
Structure prediction by ZEFSAII (Michael W. Deem and Ramdas Pophale) SiO2 
 PCOD9057448
Probable space group: P -1
;
_chemical_formula_sum "Si O2"
_cell_formula_units_Z 16
_cell_length_a 8.171174
_cell_length_b 12.923311
_cell_length_c 15.467154
_cell_angle_alpha 151.704029
_cell_angle_beta 67.274183
_cell_angle_gamma 103.450411
_cell_volume 692.178890
_symmetry_space_group_name_H-M "P -1"
_symmetry_group_IT_number 2
_symmetry_cell_setting 'triclinic'
loop_
_space_group_symop_operation_xyz
x,y,z
-x,-y,-z
loop_
_atom_site_type_symbol
_atom_site_label
_atom_site_fract_x
_atom_site_fract_y
_atom_site_fract_z
Si Si1 0.659271 0.587190 0.577093
Si Si2 0.466328 0.414148 0.205216
Si Si3 0.398170 0.222392 0.634015
Si Si4 0.090796 0.878156 0.805228
Si Si5 0.828653 0.504680 0.976652
Si Si6 0.666609 0.821834 0.094479
Si Si7 0.201340 0.999825 0.197557
Si Si8 0.753722 0.045116 0.654445
O O1 0.500000 0.500000 0.500000
O O2 0.611371 0.623846 0.714309
O O3 0.679490 0.816856 0.700208
O O4 0.841219 0.386618 0.385303
O O5 0.482887 0.667737 0.374296
O O6 0.345263 0.346214 0.104856
O O7 0.667981 0.244927 0.029924
O O8 0.500000 0.000000 0.500000
O O9 0.236541 0.154370 0.562557
O O10 0.336399 0.407051 0.856943
O O11 0.260896 0.976385 0.812644
O O12 0.951939 0.931998 0.793274
O O13 0.000000 0.000000 0.000000
O O14 0.807393 0.265796 0.770078
O O15 0.803187 0.688133 0.041200
O O16 0.000000 0.500000 0.000000
O O17 0.462397 0.892187 0.228323
O O18 0.139011 0.008674 0.316442
#
# Coordination Sequence:
#
# PCOD9057448 Si02
#       8
#     2   2   2   2   2   2   2   2
#     4  12  24  43  68 100 132 180 237 275 341 422
#     4  11  23  43  69 100 129 185 231 278 339 411
#     4  12  23  41  73  99 138 184 230 276 337 413
#     4  12  26  44  67 101 138 180 224 289 353 397
#     4  12  25  45  68 103 142 176 223 289 344 396
#     4  11  22  42  70  94 134 180 227 275 335 411
#     4  11  23  43  66  96 142 173 225 293 340 399
#     4  11  23  45  70 102 134 182 231 272 336 413
#
# _framework density 23.115411999999999
#
# number of rings (size 3 to 8) (size 9 to 14) (size 15 to 20)
#    0.000    0.500    3.750    7.125    0.000    0.500 
#    2.250    0.000    0.000    0.000    0.000    0.000 
#    0.000    0.000    0.000    0.000    0.000    0.000 
#
# Total GULP energy -89590.603568 kJ/mol
# GULP energy per Si atom -5599.412723 kJ/mol
# Density = 2.306280 g / cm^3
# Si number density = 23.115412 Si / 1000 Ang^3
#
#
#
# Elastic Constant Matrix: (Units=GPa)
#
#
# Indices 1 2 3 4 5 6 
#
# 1 82.2877 -0.2401 4.2878 4.3618 6.6405 -20.8237
# 2 -0.2401 84.5694 18.3778 11.0299 -6.5898 -10.7207
# 3 4.2878 18.3778 67.0038 2.1424 16.7683 -4.8109
# 4 4.3618 11.0299 2.1424 45.9164 -1.8432 12.8131
# 5 6.6405 -6.5898 16.7683 -1.8432 31.9444 6.0781
# 6 -20.8237 -10.7207 -4.8109 12.8131 6.0781 53.0203
#
#
#
# Elastic Compliance Matrix: (Units=1/GPa)
#
#
# Indices 1 2 3 4 5 6 
#
# 1 0.014622 0.000985 0.000673 -0.003948 -0.004847 0.007513
# 2 0.000985 0.014111 -0.004640 -0.004015 0.004283 0.003299
# 3 0.000673 -0.004640 0.019342 -0.001079 -0.011825 0.002697
# 4 -0.003948 -0.004015 -0.001079 0.025874 0.003792 -0.009148
# 5 -0.004847 0.004283 -0.011825 0.003792 0.041094 -0.007738
# 6 0.007513 0.003299 0.002697 -0.009148 -0.007738 0.025821
#
#
# Mechanical properties :
#
#
# Convention : Reuss Voigt Hill
#
# Bulk Modulus (GPa) = 23.74726 30.96798 27.35762
# Shear Modulus (GPa) = 31.08203 40.27190 35.67697
#
# Velocity S-wave (km/s) = 3.67092 4.17851 3.93291
# Velocity P-wave (km/s) = 5.31631 6.05856 5.69953
#
# Compressibility (1/GPa) = 0.04211012
#
# Stress axis : x y z
#
# Youngs Moduli (GPa) = 68.39094 70.86521 51.70166
#
# Poissons Ratio (x) = -0.06980 -0.03478
# Poissons Ratio (y) = -0.06736 0.23990
# Poissons Ratio (z) = -0.04601 0.32882
#
# Static dielectric constant tensor:
#      x y z
#    x 1.891120 -0.014590 -0.036140 
#    y -0.014590 1.911390 0.050920 
#    z -0.036140 0.050920 1.924140 
# 
# From -- ./inp_files/188940.got.cif
#   From: 2010.05.17/outbox.cif.g08.bks.cpg/sg2_95_cif.got.tgz:188940.got - 2010.06.03 11:33:40.
