data_PCOD9057328
_publ_section_title
;
Structure prediction by ZEFSAII (Michael W. Deem and Ramdas Pophale) SiO2 
 PCOD9057328
Probable space group: P -1
;
_chemical_formula_sum "Si O2"
_cell_formula_units_Z 16
_cell_length_a 9.191682
_cell_length_b 6.733549
_cell_length_c 17.306139
_cell_angle_alpha 93.436561
_cell_angle_beta 117.469725
_cell_angle_gamma 53.493295
_cell_volume 728.521939
_symmetry_space_group_name_H-M "P -1"
_symmetry_group_IT_number 2
_symmetry_cell_setting 'triclinic'
loop_
_space_group_symop_operation_xyz
x,y,z
-x,-y,-z
loop_
_atom_site_type_symbol
_atom_site_label
_atom_site_fract_x
_atom_site_fract_y
_atom_site_fract_z
Si Si1 0.835742 0.213899 0.401430
Si Si2 0.174980 0.701195 0.881358
Si Si3 0.404207 0.868287 0.001967
Si Si4 0.837218 0.750831 0.910715
Si Si5 0.475105 0.338273 0.548701
Si Si6 0.302579 0.200060 0.372921
Si Si7 0.138881 0.508353 0.712941
Si Si8 0.448310 0.918454 0.723869
O O1 0.651026 0.473709 0.407229
O O2 0.934995 0.307480 0.374750
O O3 0.720715 0.130720 0.321585
O O4 0.000000 0.000000 0.500000
O O5 0.383518 0.428663 0.958846
O O6 0.188410 0.627336 0.794174
O O7 0.972628 0.768853 0.880001
O O8 0.219286 0.900079 0.909392
O O9 0.297506 0.993917 0.061952
O O10 0.500000 0.000000 0.000000
O O11 0.660140 0.748104 0.825378
O O12 0.000000 0.500000 0.000000
O O13 0.500000 0.500000 0.500000
O O14 0.350083 0.269863 0.467108
O O15 0.675951 0.055978 0.620974
O O16 0.466903 0.131666 0.344730
O O17 0.063590 0.450350 0.301149
O O18 0.322092 0.214355 0.726339
#
# Coordination Sequence:
#
# PCOD9057328 Si02
#       8
#     2   2   2   2   2   2   2   2
#     4  12  27  45  71 108 142 188 240 289 355 419
#     4  11  25  44  71 102 140 187 232 290 351 421
#     4  11  24  45  72 102 143 181 235 291 351 420
#     4  12  25  48  74 106 142 189 236 289 362 419
#     4  11  22  42  67  99 137 180 230 292 347 416
#     4  11  24  43  70  97 139 184 234 290 352 412
#     4  12  26  45  69 103 141 184 237 290 353 414
#     4  12  26  47  71 101 147 185 236 296 347 422
#
# _framework density 21.962278000000001
#
# number of rings (size 3 to 8) (size 9 to 14) (size 15 to 20)
#    0.000    0.500    6.250    1.875    3.500    1.000 
#    4.500    0.000    0.000    0.000    0.000    0.000 
#    0.000    0.000    0.000    0.000    0.000    0.000 
#
# Total GULP energy -89271.241406 kJ/mol
# GULP energy per Si atom -5579.452588 kJ/mol
# Density = 2.191229 g / cm^3
# Si number density = 21.962278 Si / 1000 Ang^3
#
#
#
# Elastic Constant Matrix: (Units=GPa)
#
#
# Indices 1 2 3 4 5 6 
#
# 1 95.4477 43.6447 11.4793 3.4548 -2.7887 -13.8884
# 2 43.6447 83.2656 31.1057 14.1562 6.9975 -1.5945
# 3 11.4793 31.1057 81.2616 20.5308 21.4953 2.2368
# 4 3.4548 14.1562 20.5308 41.9017 -5.8762 -4.0181
# 5 -2.7887 6.9975 21.4953 -5.8762 32.1968 2.8959
# 6 -13.8884 -1.5945 2.2368 -4.0181 2.8959 34.8525
#
#
#
# Elastic Compliance Matrix: (Units=1/GPa)
#
#
# Indices 1 2 3 4 5 6 
#
# 1 0.015270 -0.008409 -0.000882 0.003101 0.003783 0.005800
# 2 -0.008409 0.018881 -0.004234 -0.004207 -0.002549 -0.002488
# 3 -0.000882 -0.004234 0.020809 -0.010962 -0.014878 -0.001908
# 4 0.003101 -0.004207 -0.010962 0.032797 0.014095 0.004357
# 5 0.003783 -0.002549 -0.014878 0.014095 0.044421 0.000280
# 6 0.005800 -0.002488 -0.001908 0.004357 0.000280 0.031491
#
#
# Mechanical properties :
#
#
# Convention : Reuss Voigt Hill
#
# Bulk Modulus (GPa) = 35.82865 48.04826 41.93846
# Shear Modulus (GPa) = 24.99741 33.37322 29.18531
#
# Velocity S-wave (km/s) = 3.37738 3.90240 3.64934
# Velocity P-wave (km/s) = 5.61766 6.49846 6.07405
#
# Compressibility (1/GPa) = 0.02791062
#
# Stress axis : x y z
#
# Youngs Moduli (GPa) = 65.48688 52.96431 48.05678
#
# Poissons Ratio (x) = 0.44535 0.04240
# Poissons Ratio (y) = 0.55065 0.20346
# Poissons Ratio (z) = 0.05778 0.22423
#
# Static dielectric constant tensor:
#      x y z
#    x 1.940060 0.010580 -0.011920 
#    y 0.010580 1.840840 -0.006750 
#    z -0.011920 -0.006750 1.953640 
# 
# From -- ./inp_files/46515.got.cif
#   From: 2010.05.17/outbox.cif.g08.bks.cpg/sg2_24_cif.got.tgz:46515.got - 2010.06.03 11:33:40.
