data_PCOD9057971
_publ_section_title
;
Structure prediction by ZEFSAII (Michael W. Deem and Ramdas Pophale) SiO2 
 PCOD9057971
Probable space group: P -1
;
_chemical_formula_sum "Si O2"
_cell_formula_units_Z 16
_cell_length_a 11.216599
_cell_length_b 14.831045
_cell_length_c 9.374284
_cell_angle_alpha 117.751609
_cell_angle_beta 65.087603
_cell_angle_gamma 60.133129
_cell_volume 628.441774
_symmetry_space_group_name_H-M "P -1"
_symmetry_group_IT_number 2
_symmetry_cell_setting 'triclinic'
loop_
_space_group_symop_operation_xyz
x,y,z
-x,-y,-z
loop_
_atom_site_type_symbol
_atom_site_label
_atom_site_fract_x
_atom_site_fract_y
_atom_site_fract_z
Si Si1 0.333671 0.869272 0.812519
Si Si2 0.601229 0.962095 0.203322
Si Si3 0.476410 0.362979 0.176415
Si Si4 0.881460 0.821420 0.232564
Si Si5 0.931201 0.650691 0.567583
Si Si6 0.670954 0.170559 0.646058
Si Si7 0.893688 0.488305 0.932792
Si Si8 0.277535 0.709452 0.529417
O O1 0.476539 0.742409 0.792201
O O2 0.328896 0.770314 0.650930
O O3 0.459828 0.878122 0.671174
O O4 0.032783 0.104724 0.161323
O O5 0.840748 0.804804 0.081878
O O6 0.372544 0.050532 0.457073
O O7 0.691248 0.856677 0.929534
O O8 0.188306 0.545125 0.388441
O O9 0.468086 0.488272 0.307028
O O10 0.669482 0.195432 0.831927
O O11 0.109991 0.614104 0.051193
O O12 0.879285 0.944990 0.328703
O O13 0.921847 0.644689 0.398151
O O14 0.000000 0.500000 0.500000
O O15 0.693373 0.262298 0.621518
O O16 0.393883 0.305429 0.836849
O O17 0.000000 0.500000 0.000000
#
# Coordination Sequence:
#
# PCOD9057971 Si02
#       8
#     2   2   2   2   2   2   2   2
#     4  11  25  43  71 100 134 180 224 281 343 394
#     4  11  22  44  66  96 140 175 226 282 330 409
#     4  11  25  43  69  98 139 177 226 277 343 398
#     4  11  24  42  67  96 137 180 222 279 342 398
#     4  11  24  42  67 102 138 174 227 278 331 412
#     4  11  25  45  68 103 135 178 229 277 332 415
#     4  11  25  43  68 101 138 179 223 272 347 404
#     4  11  24  47  67  99 137 175 232 281 328 406
#
# _framework density 25.459797999999999
#
# number of rings (size 3 to 8) (size 9 to 14) (size 15 to 20)
#    0.000    1.000    2.500    4.500    3.500    3.000 
#    0.000    0.000    0.000    0.000    0.000    0.000 
#    0.000    0.000    0.000    0.000    0.000    0.000 
#
# Total GULP energy -89646.894052 kJ/mol
# GULP energy per Si atom -5602.930878 kJ/mol
# Density = 2.540185 g / cm^3
# Si number density = 25.459798 Si / 1000 Ang^3
#
#
#
# Elastic Constant Matrix: (Units=GPa)
#
#
# Indices 1 2 3 4 5 6 
#
# 1 55.6772 15.1319 31.3263 5.6344 7.4071 -0.3391
# 2 15.1319 140.1226 19.7856 -6.1780 18.9379 -8.3115
# 3 31.3263 19.7856 97.8732 -6.9688 16.5101 -9.1418
# 4 5.6344 -6.1780 -6.9688 48.5742 3.0819 8.5945
# 5 7.4071 18.9379 16.5101 3.0819 39.7062 -2.2866
# 6 -0.3391 -8.3115 -9.1418 8.5945 -2.2866 40.7620
#
#
#
# Elastic Compliance Matrix: (Units=1/GPa)
#
#
# Indices 1 2 3 4 5 6 
#
# 1 0.022930 -0.001636 -0.007332 -0.003727 -0.000218 -0.001014
# 2 -0.001636 0.007931 -0.000326 0.001172 -0.003370 0.001094
# 3 -0.007332 -0.000326 0.013742 0.002671 -0.004274 0.002152
# 4 -0.003727 0.001172 0.002671 0.022464 -0.002954 -0.004095
# 5 -0.000218 -0.003370 -0.004274 -0.002954 0.028874 0.000595
# 6 -0.001014 0.001094 0.002152 -0.004095 0.000595 0.026127
#
#
# Mechanical properties :
#
#
# Convention : Reuss Voigt Hill
#
# Bulk Modulus (GPa) = 38.43647 47.35119 42.89383
# Shear Modulus (GPa) = 33.48352 40.97045 37.22698
#
# Velocity S-wave (km/s) = 3.63044 4.01586 3.82800
# Velocity P-wave (km/s) = 5.71867 6.33574 6.03510
#
# Compressibility (1/GPa) = 0.02601696
#
# Stress axis : x y z
#
# Youngs Moduli (GPa) = 43.61013 126.08219 72.76942
#
# Poissons Ratio (x) = 0.20627 0.53354
# Poissons Ratio (y) = 0.07135 0.02369
# Poissons Ratio (z) = 0.31975 0.04104
#
# Static dielectric constant tensor:
#      x y z
#    x 2.071810 0.009640 -0.053310 
#    y 0.009640 1.982650 0.016710 
#    z -0.053310 0.016710 2.070190 
# 
# From -- ./inp_files/274064.got.cif
#   From: 2010.05.17/outbox.cif.g08.bks.cpg/sg2_138_cif.got.tgz:274064.got - 2010.06.03 11:33:40.
