data_PCOD9057509
_publ_section_title
;
Structure prediction by ZEFSAII (Michael W. Deem and Ramdas Pophale) SiO2 
 PCOD9057509
Probable space group: P -1
;
_chemical_formula_sum "Si O2"
_cell_formula_units_Z 16
_cell_length_a 11.081584
_cell_length_b 17.461987
_cell_length_c 11.088298
_cell_angle_alpha 41.140147
_cell_angle_beta 53.680051
_cell_angle_gamma 30.611038
_cell_volume 708.751828
_symmetry_space_group_name_H-M "P -1"
_symmetry_group_IT_number 2
_symmetry_cell_setting 'triclinic'
loop_
_space_group_symop_operation_xyz
x,y,z
-x,-y,-z
loop_
_atom_site_type_symbol
_atom_site_label
_atom_site_fract_x
_atom_site_fract_y
_atom_site_fract_z
Si Si1 0.185128 0.636984 0.835124
Si Si2 0.007341 0.068747 0.594699
Si Si3 0.335835 0.551092 0.191284
Si Si4 0.117536 0.110250 0.088666
Si Si5 0.245959 0.347701 0.110825
Si Si6 0.931377 0.171899 0.788710
Si Si7 0.623731 0.964694 0.203394
Si Si8 0.582125 0.746992 0.606208
O O1 0.396296 0.576526 0.849941
O O2 0.083259 0.780295 0.623217
O O3 0.963015 0.752250 0.921841
O O4 0.314426 0.441289 0.950494
O O5 0.918729 0.161434 0.667427
O O6 0.299676 0.892181 0.628809
O O7 0.881249 0.020014 0.701441
O O8 0.296875 0.619507 0.269864
O O9 0.307961 0.434234 0.307776
O O10 0.116998 0.752713 0.020856
O O11 0.326373 0.026496 0.975104
O O12 0.282872 0.304279 0.285444
O O13 0.405362 0.161621 0.163341
O O14 0.000000 0.500000 0.000000
O O15 0.149871 0.123697 0.751342
O O16 0.000000 0.000000 0.000000
O O17 0.599942 0.842854 0.388590
#
# Coordination Sequence:
#
# PCOD9057509 Si02
#       8
#     2   2   2   2   2   2   2   2
#     4  12  25  43  72 107 140 180 238 285 341 412
#     4  12  24  43  73 103 141 185 229 284 348 416
#     4  11  23  43  73 104 137 181 232 287 341 401
#     4  11  23  45  70 100 142 182 232 281 349 406
#     4  12  26  46  68 104 141 183 231 289 346 417
#     4  11  22  42  72 103 139 183 231 284 347 408
#     4  11  25  45  71  98 137 187 229 283 348 410
#     4  12  25  46  73  99 141 186 236 276 353 420
#
# _framework density 22.574898000000001
#
# number of rings (size 3 to 8) (size 9 to 14) (size 15 to 20)
#    0.000    0.500    6.250    3.375    1.750    2.500 
#    0.000    2.500    0.000    0.000    0.000    0.000 
#    0.000    0.000    0.000    0.000    0.000    0.000 
#
# Total GULP energy -89310.430430 kJ/mol
# GULP energy per Si atom -5581.901902 kJ/mol
# Density = 2.252352 g / cm^3
# Si number density = 22.574898 Si / 1000 Ang^3
#
#
#
# Elastic Constant Matrix: (Units=GPa)
#
#
# Indices 1 2 3 4 5 6 
#
# 1 53.7702 6.5092 6.7776 9.6028 -6.0643 10.1894
# 2 6.5092 80.9048 15.3768 7.0362 -3.3598 24.5715
# 3 6.7776 15.3768 109.6281 7.7151 -7.6900 12.8668
# 4 9.6028 7.0362 7.7151 25.8955 1.7475 -3.0986
# 5 -6.0643 -3.3598 -7.6900 1.7475 41.6868 -3.4062
# 6 10.1894 24.5715 12.8668 -3.0986 -3.4062 32.7737
#
#
#
# Elastic Compliance Matrix: (Units=1/GPa)
#
#
# Indices 1 2 3 4 5 6 
#
# 1 0.022221 0.001934 0.000364 -0.010179 0.003136 -0.009137
# 2 0.001934 0.017127 -0.000348 -0.006980 0.000755 -0.013886
# 3 0.000364 -0.000348 0.009982 -0.003600 0.001696 -0.003935
# 4 -0.010179 -0.006980 -0.003600 0.047265 -0.003552 0.013910
# 5 0.003136 0.000755 0.001696 -0.003552 0.024971 0.000053
# 6 -0.009137 -0.013886 -0.003935 0.013910 0.000053 0.046630
#
#
# Mechanical properties :
#
#
# Convention : Reuss Voigt Hill
#
# Bulk Modulus (GPa) = 18.78685 33.51449 26.15067
# Shear Modulus (GPa) = 27.46668 34.44717 30.95693
#
# Velocity S-wave (km/s) = 3.49189 3.91052 3.70712
# Velocity P-wave (km/s) = 4.95962 5.93866 5.47109
#
# Compressibility (1/GPa) = 0.05322872
#
# Stress axis : x y z
#
# Youngs Moduli (GPa) = 45.00303 58.38899 100.17824
#
# Poissons Ratio (x) = -0.11291 -0.03644
# Poissons Ratio (y) = -0.08702 0.03484
# Poissons Ratio (z) = -0.01637 0.02031
#
# Static dielectric constant tensor:
#      x y z
#    x 2.179080 0.025060 -0.137220 
#    y 0.025060 1.944910 0.022720 
#    z -0.137220 0.022720 1.939150 
# 
# From -- ./inp_files/436489.got.cif
#   From: 2010.05.17/outbox.cif.g08.bks.cpg/sg2_219_cif.got.tgz:436489.got - 2010.06.03 11:33:40.
