data_PCOD9057020
_publ_section_title
;
Structure prediction by ZEFSAII (Michael W. Deem and Ramdas Pophale) SiO2 
 PCOD9057020
Probable space group: P -1
;
_chemical_formula_sum "Si O2"
_cell_formula_units_Z 14
_cell_length_a 12.817236
_cell_length_b 15.825375
_cell_length_c 8.342661
_cell_angle_alpha 123.675385
_cell_angle_beta 116.526129
_cell_angle_gamma 27.255810
_cell_volume 640.143086
_symmetry_space_group_name_H-M "P -1"
_symmetry_group_IT_number 2
_symmetry_cell_setting 'triclinic'
loop_
_space_group_symop_operation_xyz
x,y,z
-x,-y,-z
loop_
_atom_site_type_symbol
_atom_site_label
_atom_site_fract_x
_atom_site_fract_y
_atom_site_fract_z
Si Si1 0.084006 0.643757 0.777306
Si Si2 0.518854 0.364661 0.384723
Si Si3 0.017380 0.048688 0.902123
Si Si4 0.402206 0.991655 0.552239
Si Si5 0.283184 0.218406 0.161656
Si Si6 0.080241 0.579390 0.330163
Si Si7 0.603446 0.235914 0.674030
O O1 0.055274 0.627220 0.554707
O O2 0.352570 0.440652 0.793002
O O3 0.925296 0.696212 0.838634
O O4 0.003378 0.818664 0.929567
O O5 0.500000 0.500000 0.500000
O O6 0.272362 0.507607 0.311823
O O7 0.556880 0.290050 0.510355
O O8 0.737986 0.160310 0.225765
O O9 0.802739 0.166256 0.777820
O O10 0.000000 0.000000 0.000000
O O11 0.171052 0.215448 0.697668
O O12 0.500000 0.000000 0.500000
O O13 0.605001 0.824489 0.641895
O O14 0.331139 0.928072 0.399543
O O15 0.178402 0.393242 0.184490
O O16 0.500000 0.000000 0.000000
#
# Coordination Sequence:
#
# PCOD9057020 Si02
#       7
#     2   2   2   2   2   2   2
#     4  11  22  41  68  94 135 178 223 282 332 400
#     4  11  23  44  69  96 138 181 229 284 341 407
#     4  12  25  42  65 103 138 175 233 284 338 410
#     4  12  23  42  76  99 136 186 226 273 346 414
#     4  12  25  45  68 102 140 173 230 288 337 401
#     4  11  23  45  69 100 134 181 228 273 345 407
#     4  11  24  45  69 100 134 188 228 276 351 405
#
# _framework density 21.87011
#
# number of rings (size 3 to 8) (size 9 to 14) (size 15 to 20)
#    0.000    0.571    4.286    6.429    0.000    0.571 
#    2.571    0.000    0.000    0.000    0.000    0.000 
#    0.000    0.000    0.000    0.000    0.000    0.000 
#
# Total GULP energy -78248.466032 kJ/mol
# GULP energy per Si atom -5589.176145 kJ/mol
# Density = 2.182033 g / cm^3
# Si number density = 21.870110 Si / 1000 Ang^3
#
#
#
# Elastic Constant Matrix: (Units=GPa)
#
#
# Indices 1 2 3 4 5 6 
#
# 1 166.2639 42.5270 41.5726 35.8519 13.1524 -17.9661
# 2 42.5270 113.4607 18.6545 39.8678 -1.6199 -15.7184
# 3 41.5726 18.6545 71.0879 42.3173 9.8912 -1.4355
# 4 35.8519 39.8678 42.3173 50.7001 5.0832 -0.4277
# 5 13.1524 -1.6199 9.8912 5.0832 38.1136 17.1246
# 6 -17.9661 -15.7184 -1.4355 -0.4277 17.1246 50.1864
#
#
#
# Elastic Compliance Matrix: (Units=1/GPa)
#
#
# Indices 1 2 3 4 5 6 
#
# 1 0.008146 -0.001454 -0.002582 -0.002078 -0.003531 0.003574
# 2 -0.001454 0.014346 0.006520 -0.015624 -0.000361 0.004149
# 3 -0.002582 0.006520 0.032324 -0.029772 -0.004788 0.003422
# 4 -0.002078 -0.015624 -0.029772 0.057944 0.003242 -0.007101
# 5 -0.003531 -0.000361 -0.004788 0.003242 0.034155 -0.013141
# 6 0.003574 0.004149 0.003422 -0.007101 -0.013141 0.027026
#
#
# Mechanical properties :
#
#
# Convention : Reuss Voigt Hill
#
# Bulk Modulus (GPa) = 16.72655 61.81342 39.26999
# Shear Modulus (GPa) = 26.46916 44.33725 35.40320
#
# Velocity S-wave (km/s) = 3.48270 4.50744 4.02779
# Velocity P-wave (km/s) = 4.88231 7.44410 6.29490
#
# Compressibility (1/GPa) = 0.05978520
#
# Stress axis : x y z
#
# Youngs Moduli (GPa) = 122.76704 69.70523 30.93681
#
# Poissons Ratio (x) = 0.10134 0.07987
# Poissons Ratio (y) = 0.17848 -0.20172
# Poissons Ratio (z) = 0.31694 -0.45450
#
# Static dielectric constant tensor:
#      x y z
#    x 1.832330 -0.100980 0.044750 
#    y -0.100980 1.934220 -0.108730 
#    z 0.044750 -0.108730 1.873050 
# 
# From -- ./inp_files/175745.got.cif
#   From: 2010.05.17/outbox.cif.g08.bks.cpg/sg2_88_cif.got.tgz:175745.got - 2010.06.03 11:33:40.
