data_PCOD9057300
_publ_section_title
;
Structure prediction by ZEFSAII (Michael W. Deem and Ramdas Pophale) SiO2 
 PCOD9057300
Probable space group: P -1
;
_chemical_formula_sum "Si O2"
_cell_formula_units_Z 15
_cell_length_a 8.506446
_cell_length_b 14.429938
_cell_length_c 9.455244
_cell_angle_alpha 54.220875
_cell_angle_beta 85.917636
_cell_angle_gamma 126.412477
_cell_volume 581.850538
_symmetry_space_group_name_H-M "P -1"
_symmetry_group_IT_number 2
_symmetry_cell_setting 'triclinic'
loop_
_space_group_symop_operation_xyz
x,y,z
-x,-y,-z
loop_
_atom_site_type_symbol
_atom_site_label
_atom_site_fract_x
_atom_site_fract_y
_atom_site_fract_z
Si Si1 0.616410 0.782349 0.481485
Si Si2 0.418107 0.788410 0.072282
Si Si3 0.264377 0.431093 0.645009
Si Si4 0.910205 0.509689 0.852148
Si Si5 0.624186 0.690915 0.855701
Si Si6 0.000000 0.500000 0.500000
Si Si7 0.408106 0.917282 0.420168
Si Si8 0.885528 0.879357 0.953221
O O1 0.382414 0.567310 0.648516
O O2 0.720265 0.798858 0.609629
O O3 0.527883 0.861426 0.432548
O O4 0.849029 0.904234 0.249540
O O5 0.127452 0.585496 0.206067
O O6 0.291816 0.735640 0.278627
O O7 0.645584 0.826623 0.040879
O O8 0.508312 0.938695 0.826246
O O9 0.500000 0.500000 0.500000
O O10 0.148261 0.459806 0.528606
O O11 0.083049 0.224143 0.880549
O O12 0.103737 0.722164 0.621938
O O13 0.617949 0.374196 0.017165
O O14 0.000000 0.500000 0.000000
O O15 0.829837 0.806303 0.861306
O O16 0.500000 0.500000 0.000000
O O17 0.500000 0.000000 0.500000
#
# Coordination Sequence:
#
# PCOD9057300 Si02
#       8
#     2   2   2   2   2   1   2   2
#     4  12  26  45  74 111 148 201 249 303 395 451
#     4  11  25  45  70 110 144 199 250 310 381 445
#     4  12  27  53  77 105 147 202 259 318 374 436
#     4  11  22  42  66  99 147 188 239 298 376 445
#     4  11  23  39  70 107 144 192 233 299 385 454
#     4  12  26  50  80 102 146 198 262 314 372 446
#     4  12  24  41  71 111 149 188 246 315 373 458
#     4  11  25  47  72 108 154 189 249 318 377 457
#
# _framework density 25.779817000000001
#
# number of rings (size 3 to 8) (size 9 to 14) (size 15 to 20)
#    0.000    0.533    5.333    2.800    3.733    0.533 
#    2.400    3.333    0.000    0.000    0.000    0.000 
#    0.000    0.000    0.000    0.000    0.000    0.000 
#
# Total GULP energy -83779.172950 kJ/mol
# GULP energy per Si atom -5585.278197 kJ/mol
# Density = 2.572114 g / cm^3
# Si number density = 25.779817 Si / 1000 Ang^3
#
#
#
# Elastic Constant Matrix: (Units=GPa)
#
#
# Indices 1 2 3 4 5 6 
#
# 1 129.0091 13.2833 36.4279 12.5967 24.0755 -0.7483
# 2 13.2833 127.7111 12.5131 -5.7599 23.9553 4.9766
# 3 36.4279 12.5131 192.2625 -3.8213 24.9835 13.6046
# 4 12.5967 -5.7599 -3.8213 36.6009 11.9580 10.1741
# 5 24.0755 23.9553 24.9835 11.9580 49.5176 8.4211
# 6 -0.7483 4.9766 13.6046 10.1741 8.4211 27.6544
#
#
#
# Elastic Compliance Matrix: (Units=1/GPa)
#
#
# Indices 1 2 3 4 5 6 
#
# 1 0.009186 -0.000474 -0.001592 -0.003272 -0.003204 0.003296
# 2 -0.000474 0.008995 0.000330 0.003672 -0.004893 -0.001655
# 3 -0.001592 0.000330 0.006127 0.003055 -0.002630 -0.003440
# 4 -0.003272 0.003672 0.003055 0.035577 -0.008131 -0.012865
# 5 -0.003204 -0.004893 -0.002630 -0.008131 0.027996 -0.003446
# 6 0.003296 -0.001655 -0.003440 -0.012865 -0.003446 0.044022
#
#
# Mechanical properties :
#
#
# Convention : Reuss Voigt Hill
#
# Bulk Modulus (GPa) = 47.99140 63.71460 55.85300
# Shear Modulus (GPa) = 35.13175 48.53846 41.83510
#
# Velocity S-wave (km/s) = 3.69557 4.34384 4.03275
# Velocity P-wave (km/s) = 6.07173 7.06592 6.58760
#
# Compressibility (1/GPa) = 0.02083707
#
# Stress axis : x y z
#
# Youngs Moduli (GPa) = 108.85883 111.17256 163.20769
#
# Poissons Ratio (x) = 0.05275 0.25975
# Poissons Ratio (y) = 0.05165 -0.05392
# Poissons Ratio (z) = 0.17325 -0.03673
#
# Static dielectric constant tensor:
#      x y z
#    x 1.913870 0.083060 0.105340 
#    y 0.083060 1.671490 -0.436150 
#    z 0.105340 -0.436150 1.701930 
# 
# From -- ./inp_files/402865.got.cif
#   From: 2010.05.17/outbox.cif.g08.bks.cpg/sg2_202_cif.got.tgz:402865.got - 2010.06.03 11:33:40.
