data_PCOD9057427
_publ_section_title
;
Structure prediction by ZEFSAII (Michael W. Deem and Ramdas Pophale) SiO2 
 PCOD9057427
Probable space group: P -1
;
_chemical_formula_sum "Si O2"
_cell_formula_units_Z 14
_cell_length_a 20.950081
_cell_length_b 20.636133
_cell_length_c 8.652039
_cell_angle_alpha 32.791353
_cell_angle_beta 33.121342
_cell_angle_gamma 20.245019
_cell_volume 676.813903
_symmetry_space_group_name_H-M "P -1"
_symmetry_group_IT_number 2
_symmetry_cell_setting 'triclinic'
loop_
_space_group_symop_operation_xyz
x,y,z
-x,-y,-z
loop_
_atom_site_type_symbol
_atom_site_label
_atom_site_fract_x
_atom_site_fract_y
_atom_site_fract_z
Si Si1 0.180234 0.402719 0.724437
Si Si2 0.999447 0.240009 0.165462
Si Si3 0.939882 0.050007 0.842055
Si Si4 0.607297 0.956685 0.215205
Si Si5 0.346438 0.364416 0.766333
Si Si6 0.148840 0.658138 0.075588
Si Si7 0.521174 0.479473 0.814443
O O1 0.303789 0.208268 0.761484
O O2 0.321027 0.355038 0.656149
O O3 0.114491 0.558304 0.425523
O O4 0.000000 0.500000 0.000000
O O5 0.033350 0.088881 0.491109
O O6 0.869144 0.434713 0.140988
O O7 0.878310 0.322681 0.090237
O O8 0.204147 0.127886 0.940007
O O9 0.719556 0.251084 0.848994
O O10 0.000000 0.000000 0.000000
O O11 0.000175 0.874953 0.005018
O O12 0.500000 0.000000 0.500000
O O13 0.458112 0.165361 0.015620
O O14 0.455568 0.399349 0.515498
O O15 0.352223 0.548408 0.933522
O O16 0.500000 0.500000 0.000000
#
# Coordination Sequence:
#
# PCOD9057427 Si02
#       7
#     2   2   2   2   2   2   2
#     4  12  26  46  74 101 138 195 242 287 351 421
#     4  11  26  46  68 106 147 183 231 298 363 418
#     4  11  23  41  73 101 136 184 232 289 358 423
#     4  12  28  46  71 103 143 192 240 289 354 419
#     4  11  24  47  73  99 140 181 238 297 344 421
#     4  12  25  43  69 101 144 182 230 294 357 420
#     4  11  22  42  70 102 132 175 235 291 352 414
#
# _framework density 20.685155999999999
#
# number of rings (size 3 to 8) (size 9 to 14) (size 15 to 20)
#    0.000    0.571    4.286    3.429    2.000    5.714 
#    0.000    0.000    0.000    0.000    0.000    0.000 
#    0.000    0.000    0.000    0.000    0.000    0.000 
#
# Total GULP energy -78206.127521 kJ/mol
# GULP energy per Si atom -5586.151966 kJ/mol
# Density = 2.063808 g / cm^3
# Si number density = 20.685156 Si / 1000 Ang^3
#
#
#
# Elastic Constant Matrix: (Units=GPa)
#
#
# Indices 1 2 3 4 5 6 
#
# 1 603.8142 655.8196 177.3601 115.0620 -100.8729 15.1119
# 2 655.8196 948.2946 251.5337 139.7356 -160.0448 42.6007
# 3 177.3601 251.5337 186.3852 22.2785 -14.7289 7.5647
# 4 115.0620 139.7356 22.2785 80.8843 -35.3676 -2.5948
# 5 -100.8729 -160.0448 -14.7289 -35.3676 59.2420 -1.8507
# 6 15.1119 42.6007 7.5647 -2.5948 -1.8507 35.7939
#
#
#
# Elastic Compliance Matrix: (Units=1/GPa)
#
#
# Indices 1 2 3 4 5 6 
#
# 1 0.007539 -0.005852 0.000558 -0.002514 -0.004234 0.003263
# 2 -0.005852 0.008918 -0.005173 -0.000455 0.012368 -0.006443
# 3 0.000558 -0.005173 0.010797 0.001076 -0.009597 0.003221
# 4 -0.002514 -0.000455 0.001076 0.019324 0.006390 0.003107
# 5 -0.004234 0.012368 -0.009597 0.006390 0.044256 -0.008152
# 6 0.003263 -0.006443 0.003221 0.003107 -0.008152 0.033351
#
#
# Mechanical properties :
#
#
# Convention : Reuss Voigt Hill
#
# Bulk Modulus (GPa) = 158.24192 434.21343 296.22768
# Shear Modulus (GPa) = 33.96143 78.76942 56.36543
#
# Velocity S-wave (km/s) = 4.05634 6.17761 5.22574
# Velocity P-wave (km/s) = 9.93000 16.16338 13.41380
#
# Compressibility (1/GPa) = 0.00631944
#
# Stress axis : x y z
#
# Youngs Moduli (GPa) = 132.64953 112.13847 92.61416
#
# Poissons Ratio (x) = 0.65625 -0.05164
# Poissons Ratio (y) = 0.77629 0.47905
# Poissons Ratio (z) = -0.07396 0.58004
#
# Static dielectric constant tensor:
#      x y z
#    x 1.817820 0.083330 0.012560 
#    y 0.083330 1.770870 0.054330 
#    z 0.012560 0.054330 1.773470 
# 
# From -- ./inp_files/349653.got.cif
#   From: 2010.05.17/outbox.cif.g08.bks.cpg/sg2_175_cif.got.tgz:349653.got - 2010.06.03 11:33:40.
