data_PCOD9057210
_publ_section_title
;
Structure prediction by ZEFSAII (Michael W. Deem and Ramdas Pophale) SiO2 
 PCOD9057210
Probable space group: P -1
;
_chemical_formula_sum "Si O2"
_cell_formula_units_Z 16
_cell_length_a 11.308054
_cell_length_b 9.545418
_cell_length_c 17.482485
_cell_angle_alpha 139.745572
_cell_angle_beta 125.263513
_cell_angle_gamma 86.333778
_cell_volume 697.176362
_symmetry_space_group_name_H-M "P -1"
_symmetry_group_IT_number 2
_symmetry_cell_setting 'triclinic'
loop_
_space_group_symop_operation_xyz
x,y,z
-x,-y,-z
loop_
_atom_site_type_symbol
_atom_site_label
_atom_site_fract_x
_atom_site_fract_y
_atom_site_fract_z
Si Si1 0.449383 0.642729 0.984317
Si Si2 0.190829 0.154387 0.432138
Si Si3 0.470384 0.219069 0.096417
Si Si4 0.527570 0.724041 0.540795
Si Si5 0.308088 0.800635 0.587338
Si Si6 0.035699 0.923443 0.808241
Si Si7 0.014904 0.676180 0.301673
Si Si8 0.896184 0.695375 0.880614
O O1 0.602255 0.996475 0.218660
O O2 0.500000 0.500000 0.000000
O O3 0.495390 0.628783 0.908767
O O4 0.211764 0.470999 0.827588
O O5 0.368873 0.511182 0.671843
O O6 0.281777 0.119200 0.378755
O O7 0.992766 0.068287 0.288825
O O8 0.128052 0.944430 0.392861
O O9 0.500000 0.000000 0.000000
O O10 0.235064 0.003996 0.942140
O O11 0.500000 0.500000 0.500000
O O12 0.504630 0.921081 0.662578
O O13 0.338603 0.547129 0.336578
O O14 0.162795 0.434014 0.392586
O O15 0.162828 0.805613 0.485249
O O16 0.070303 0.191210 0.973705
O O17 0.005134 0.426039 0.156475
O O18 0.000000 0.000000 0.000000
#
# Coordination Sequence:
#
# PCOD9057210 Si02
#       8
#     2   2   2   2   2   2   2   2
#     4  12  28  49  70 100 145 194 238 283 352 429
#     4  12  26  45  69 107 143 184 234 297 354 414
#     4  12  28  45  72 102 144 187 240 297 338 424
#     4  11  22  41  73 105 143 178 229 292 359 422
#     4  11  25  43  75 103 135 191 235 290 357 418
#     4  12  24  44  70 108 136 181 238 293 352 420
#     4  11  27  46  71 105 144 188 235 295 355 419
#     4  11  22  42  72 104 142 180 231 293 354 424
#
# _framework density 22.949715000000001
#
# number of rings (size 3 to 8) (size 9 to 14) (size 15 to 20)
#    0.000    0.500    5.000    3.000    3.500    8.500 
#    2.250    0.000    0.000    0.000    0.000    0.000 
#    0.000    0.000    0.000    0.000    0.000    0.000 
#
# Total GULP energy -89481.239102 kJ/mol
# GULP energy per Si atom -5592.577444 kJ/mol
# Density = 2.289748 g / cm^3
# Si number density = 22.949715 Si / 1000 Ang^3
#
#
#
# Elastic Constant Matrix: (Units=GPa)
#
#
# Indices 1 2 3 4 5 6 
#
# 1 69.2734 -6.8478 32.1664 -10.3599 9.6919 -11.3691
# 2 -6.8478 87.2483 7.9454 -16.9865 8.6375 -1.2883
# 3 32.1664 7.9454 90.4838 -23.7391 -5.4842 -8.5363
# 4 -10.3599 -16.9865 -23.7391 41.7881 1.6882 0.3098
# 5 9.6919 8.6375 -5.4842 1.6882 33.1226 -6.4959
# 6 -11.3691 -1.2883 -8.5363 0.3098 -6.4959 34.1812
#
#
#
# Elastic Compliance Matrix: (Units=1/GPa)
#
#
# Indices 1 2 3 4 5 6 
#
# 1 0.019967 0.003505 -0.006768 0.002798 -0.007300 0.003670
# 2 0.003505 0.013485 -0.001146 0.005897 -0.004956 0.000393
# 3 -0.006768 -0.001146 0.015849 0.006636 0.005069 0.002567
# 4 0.002798 0.005897 0.006636 0.030873 -0.002425 0.002069
# 5 -0.007300 -0.004956 0.005069 -0.002425 0.035650 0.005448
# 6 0.003670 0.000393 0.002567 0.002069 0.005448 0.032149
#
#
# Mechanical properties :
#
#
# Convention : Reuss Voigt Hill
#
# Bulk Modulus (GPa) = 24.70235 34.83705 29.76970
# Shear Modulus (GPa) = 29.36232 36.06782 32.71507
#
# Velocity S-wave (km/s) = 3.58078 3.96864 3.77969
# Velocity P-wave (km/s) = 5.28044 6.01771 5.66109
#
# Compressibility (1/GPa) = 0.04048199
#
# Stress axis : x y z
#
# Youngs Moduli (GPa) = 50.08317 74.15386 63.09698
#
# Poissons Ratio (x) = -0.25991 0.42704
# Poissons Ratio (y) = -0.17554 0.07234
# Poissons Ratio (z) = 0.33896 0.08502
#
# Static dielectric constant tensor:
#      x y z
#    x 1.820030 0.006420 0.006350 
#    y 0.006420 1.894780 -0.025590 
#    z 0.006350 -0.025590 1.866380 
# 
# From -- ./inp_files/515592.got.cif
#   From: 2010.05.17/outbox.cif.g08.bks.cpg/sg2_258_cif.got.tgz:515592.got - 2010.06.03 11:33:40.
