data_PCOD9057738
_publ_section_title
;
Structure prediction by ZEFSAII (Michael W. Deem and Ramdas Pophale) SiO2 
 PCOD9057738
Probable space group: P -1
;
_chemical_formula_sum "Si O2"
_cell_formula_units_Z 16
_cell_length_a 19.639492
_cell_length_b 9.408184
_cell_length_c 9.647688
_cell_angle_alpha 106.246671
_cell_angle_beta 35.791886
_cell_angle_gamma 127.627409
_cell_volume 730.939282
_symmetry_space_group_name_H-M "P -1"
_symmetry_group_IT_number 2
_symmetry_cell_setting 'triclinic'
loop_
_space_group_symop_operation_xyz
x,y,z
-x,-y,-z
loop_
_atom_site_type_symbol
_atom_site_label
_atom_site_fract_x
_atom_site_fract_y
_atom_site_fract_z
Si Si1 0.373416 0.396026 0.557928
Si Si2 0.250112 0.982258 0.691947
Si Si3 0.978955 0.517103 0.378636
Si Si4 0.366190 0.817514 0.272648
Si Si5 0.035668 0.264339 0.095243
Si Si6 0.603521 0.478320 0.735282
Si Si7 0.155929 0.974178 0.143460
Si Si8 0.126136 0.073178 0.505579
O O1 0.500000 0.500000 0.500000
O O2 0.440382 0.543625 0.358178
O O3 0.338825 0.194637 0.527587
O O4 0.200128 0.318302 0.849732
O O5 0.322377 0.894511 0.488578
O O6 0.064623 0.830076 0.907615
O O7 0.260784 0.019256 0.849266
O O8 0.794784 0.347361 0.594144
O O9 0.000000 0.500000 0.500000
O O10 0.064661 0.460749 0.136088
O O11 0.049750 0.737852 0.287382
O O12 0.408568 0.696525 0.235199
O O13 0.500000 0.000000 0.000000
O O14 0.914841 0.089432 0.360539
O O15 0.777790 0.706020 0.528146
O O16 0.500000 0.500000 0.000000
O O17 0.043306 0.009227 0.286154
O O18 0.214222 0.081120 0.227193
#
# Coordination Sequence:
#
# PCOD9057738 Si02
#       8
#     2   2   2   2   2   2   2   2
#     4  12  27  45  68 106 141 179 232 296 350 414
#     4  11  24  45  72 101 140 180 227 295 345 416
#     4  11  24  41  70 104 138 180 232 287 341 411
#     4  11  27  48  70  99 143 190 230 285 358 424
#     4  11  23  43  72  98 140 182 227 281 351 412
#     4  12  27  45  74  98 137 192 238 280 358 429
#     4  11  23  39  70 105 135 170 233 291 342 393
#     4  11  22  43  70 101 137 181 232 286 334 418
#
# _framework density 21.889641999999998
#
# number of rings (size 3 to 8) (size 9 to 14) (size 15 to 20)
#    0.000    0.750    5.000    1.875    5.250    3.000 
#    0.000    0.625    0.000    0.000    0.000    0.000 
#    0.000    0.000    0.000    0.000    0.000    0.000 
#
# Total GULP energy -89467.242600 kJ/mol
# GULP energy per Si atom -5591.702663 kJ/mol
# Density = 2.183982 g / cm^3
# Si number density = 21.889642 Si / 1000 Ang^3
#
#
#
# Elastic Constant Matrix: (Units=GPa)
#
#
# Indices 1 2 3 4 5 6 
#
# 1 123.2104 54.5487 59.4443 19.7210 17.9497 -4.5039
# 2 54.5487 135.6891 38.5264 13.5182 1.7365 -15.8957
# 3 59.4443 38.5264 111.2571 9.8449 15.9405 -10.0191
# 4 19.7210 13.5182 9.8449 26.3983 -4.5399 3.2483
# 5 17.9497 1.7365 15.9405 -4.5399 37.9917 2.0172
# 6 -4.5039 -15.8957 -10.0191 3.2483 2.0172 39.7980
#
#
#
# Elastic Compliance Matrix: (Units=1/GPa)
#
#
# Indices 1 2 3 4 5 6 
#
# 1 0.013990 -0.003413 -0.004844 -0.007805 -0.005349 -0.000091
# 2 -0.003413 0.009669 -0.001220 -0.002134 0.001253 0.003279
# 3 -0.004844 -0.001220 0.012826 -0.001419 -0.003338 0.002478
# 4 -0.007805 -0.002134 -0.001419 0.047937 0.010456 -0.006536
# 5 -0.005349 0.001253 -0.003338 0.010456 0.031622 -0.003401
# 6 -0.000091 0.003279 0.002478 -0.006536 -0.003401 0.027756
#
#
# Mechanical properties :
#
#
# Convention : Reuss Voigt Hill
#
# Bulk Modulus (GPa) = 57.04379 75.02169 66.03274
# Shear Modulus (GPa) = 29.65652 35.34675 32.50163
#
# Velocity S-wave (km/s) = 3.68478 4.02278 3.85748
# Velocity P-wave (km/s) = 6.64979 7.47824 7.07615
#
# Compressibility (1/GPa) = 0.01753039
#
# Stress axis : x y z
#
# Youngs Moduli (GPa) = 71.48202 103.42200 77.96857
#
# Poissons Ratio (x) = 0.35301 0.37766
# Poissons Ratio (y) = 0.24399 0.09512
# Poissons Ratio (z) = 0.34624 0.12617
#
# Static dielectric constant tensor:
#      x y z
#    x 1.812940 0.044000 -0.008590 
#    y 0.044000 1.790470 -0.012250 
#    z -0.008590 -0.012250 1.857150 
# 
# From -- ./inp_files/317927.got.cif
#   From: 2010.05.17/outbox.cif.g08.bks.cpg/sg2_159_cif.got.tgz:317927.got - 2010.06.03 11:33:40.
