data_PCOD9057323
_publ_section_title
;
Structure prediction by ZEFSAII (Michael W. Deem and Ramdas Pophale) SiO2 
 PCOD9057323
Probable space group: P -1
;
_chemical_formula_sum "Si O2"
_cell_formula_units_Z 16
_cell_length_a 16.407041
_cell_length_b 13.231063
_cell_length_c 8.881517
_cell_angle_alpha 73.344658
_cell_angle_beta 109.833376
_cell_angle_gamma 45.339084
_cell_volume 799.485602
_symmetry_space_group_name_H-M "P -1"
_symmetry_group_IT_number 2
_symmetry_cell_setting 'triclinic'
loop_
_space_group_symop_operation_xyz
x,y,z
-x,-y,-z
loop_
_atom_site_type_symbol
_atom_site_label
_atom_site_fract_x
_atom_site_fract_y
_atom_site_fract_z
Si Si1 0.029774 0.699216 0.341453
Si Si2 0.007482 0.017405 0.818069
Si Si3 0.646367 0.132264 0.088051
Si Si4 0.041951 0.294965 0.043414
Si Si5 0.613385 0.788203 0.069746
Si Si6 0.555360 0.432529 0.737868
Si Si7 0.757508 0.108752 0.481845
Si Si8 0.706122 0.767931 0.802865
O O1 0.198183 0.450246 0.623283
O O2 0.006327 0.699222 0.151739
O O3 0.065407 0.785799 0.340228
O O4 0.830992 0.893021 0.216935
O O5 0.226131 0.779173 0.017060
O O6 0.897151 0.053651 0.631830
O O7 0.000000 0.000000 0.000000
O O8 0.718026 0.122107 0.279864
O O9 0.519713 0.171027 0.042124
O O10 0.533106 0.336904 0.824392
O O11 0.848426 0.536413 0.902263
O O12 0.179907 0.245377 0.127445
O O13 0.153672 0.088846 0.298691
O O14 0.672257 0.766784 0.952263
O O15 0.500000 0.000000 0.000000
O O16 0.500000 0.500000 0.500000
O O17 0.433936 0.646139 0.664433
O O18 0.500000 0.000000 0.500000
#
# Coordination Sequence:
#
# PCOD9057323 Si02
#       8
#     2   2   2   2   2   2   2   2
#     4  11  24  44  67  95 135 172 220 272 328 397
#     4  11  22  42  67  98 129 173 218 260 329 397
#     4  11  26  43  64 100 134 173 222 270 335 390
#     4  11  24  43  69  97 130 172 222 278 332 390
#     4  12  26  44  69  96 132 177 222 274 332 396
#     4  11  23  40  67  95 135 176 218 270 325 395
#     4  12  23  41  66  97 135 169 215 277 326 393
#     4  11  25  45  67  97 130 172 226 277 335 391
#
# _framework density 20.012867
#
# number of rings (size 3 to 8) (size 9 to 14) (size 15 to 20)
#    0.000    0.750    2.500    4.875    0.000    9.000 
#    0.000    0.000    0.000    0.000    0.000    0.000 
#    0.000    0.000    0.000    0.000    0.000    0.000 
#
# Total GULP energy -89524.029436 kJ/mol
# GULP energy per Si atom -5595.251840 kJ/mol
# Density = 1.996732 g / cm^3
# Si number density = 20.012867 Si / 1000 Ang^3
#
#
#
# Elastic Constant Matrix: (Units=GPa)
#
#
# Indices 1 2 3 4 5 6 
#
# 1 111.5170 62.6108 52.5085 -8.7923 -3.8009 -7.2269
# 2 62.6108 150.5615 65.8839 -10.0055 -4.9634 -10.5780
# 3 52.5085 65.8839 137.4927 -10.7713 -22.6909 -4.7938
# 4 -8.7923 -10.0055 -10.7713 48.3684 1.6777 1.6922
# 5 -3.8009 -4.9634 -22.6909 1.6777 33.8434 0.1880
# 6 -7.2269 -10.5780 -4.7938 1.6922 0.1880 33.9173
#
#
#
# Elastic Compliance Matrix: (Units=1/GPa)
#
#
# Indices 1 2 3 4 5 6 
#
# 1 0.012668 -0.003818 -0.003118 0.000827 -0.001274 0.001034
# 2 -0.003818 0.009814 -0.003349 0.000573 -0.001273 0.001752
# 3 -0.003118 -0.003349 0.011238 0.001020 0.006644 -0.000208
# 4 0.000827 0.000573 0.001020 0.021197 -0.000187 -0.000557
# 5 -0.001274 -0.001273 0.006644 -0.000187 0.033681 0.000093
# 6 0.001034 0.001752 -0.000208 -0.000557 0.000093 0.030248
#
#
# Mechanical properties :
#
#
# Convention : Reuss Voigt Hill
#
# Bulk Modulus (GPa) = 76.04377 84.61973 80.33175
# Shear Modulus (GPa) = 34.77113 37.79700 36.28407
#
# Velocity S-wave (km/s) = 4.17278 4.35056 4.26260
# Velocity P-wave (km/s) = 7.82918 8.22259 8.02829
#
# Compressibility (1/GPa) = 0.01315032
#
# Stress axis : x y z
#
# Youngs Moduli (GPa) = 78.94187 101.89416 88.98767
#
# Poissons Ratio (x) = 0.38903 0.27744
# Poissons Ratio (y) = 0.30140 0.29799
# Poissons Ratio (z) = 0.24612 0.34121
#
# Static dielectric constant tensor:
#      x y z
#    x 1.705550 -0.002440 -0.012870 
#    y -0.002440 1.683580 -0.012560 
#    z -0.012870 -0.012560 1.674700 
# 
# From -- ./inp_files/307088.got.cif
#   From: 2010.05.17/outbox.cif.g08.bks.cpg/sg2_154_cif.got.tgz:307088.got - 2010.06.03 11:33:40.
