data_PCOD9057984
_publ_section_title
;
Structure prediction by ZEFSAII (Michael W. Deem and Ramdas Pophale) SiO2 
 PCOD9057984
Probable space group: P -1
;
_chemical_formula_sum "Si O2"
_cell_formula_units_Z 14
_cell_length_a 8.905447
_cell_length_b 7.520884
_cell_length_c 18.147626
_cell_angle_alpha 85.551666
_cell_angle_beta 105.452525
_cell_angle_gamma 35.974737
_cell_volume 588.743273
_symmetry_space_group_name_H-M "P -1"
_symmetry_group_IT_number 2
_symmetry_cell_setting 'triclinic'
loop_
_space_group_symop_operation_xyz
x,y,z
-x,-y,-z
loop_
_atom_site_type_symbol
_atom_site_label
_atom_site_fract_x
_atom_site_fract_y
_atom_site_fract_z
Si Si1 0.136611 0.410794 0.441815
Si Si2 0.412374 0.717701 0.116045
Si Si3 0.865319 0.173032 0.558941
Si Si4 0.870331 0.608570 0.796589
Si Si5 0.930439 0.345600 0.295763
Si Si6 0.428503 0.852551 0.833350
Si Si7 0.227082 0.484429 0.963209
O O1 0.088276 0.668542 0.417276
O O2 0.000000 0.500000 0.500000
O O3 0.963722 0.458200 0.359575
O O4 0.500000 0.000000 0.500000
O O5 0.607253 0.647066 0.200882
O O6 0.523107 0.406911 0.152801
O O7 0.517449 0.676812 0.050209
O O8 0.051356 0.103160 0.069580
O O9 0.500000 0.500000 0.500000
O O10 0.000000 0.000000 0.500000
O O11 0.000644 0.907363 0.646744
O O12 0.833009 0.817118 0.731429
O O13 0.070084 0.483058 0.895746
O O14 0.579145 0.792903 0.783707
O O15 0.083330 0.259082 0.790704
O O16 0.624879 0.721909 0.934683
#
# Coordination Sequence:
#
# PCOD9057984 Si02
#       7
#     2   2   2   2   2   2   2
#     4  12  25  48  76 104 135 179 228 280 343 415
#     4  11  25  42  68 101 139 182 225 291 349 390
#     4  12  25  48  75 105 133 182 226 279 346 413
#     4  11  25  41  66 100 138 180 227 290 345 391
#     4  11  27  48  69 103 150 170 234 284 344 412
#     4  12  23  43  68 102 132 188 239 274 340 412
#     4  11  22  44  67  95 140 185 231 284 338 411
#
# _framework density 23.779464999999998
#
# number of rings (size 3 to 8) (size 9 to 14) (size 15 to 20)
#    0.000    0.571    2.857    5.143    2.000    6.857 
#    2.571    0.000    0.000    0.000    0.000    0.000 
#    0.000    0.000    0.000    0.000    0.000    0.000 
#
# Total GULP energy -78495.262292 kJ/mol
# GULP energy per Si atom -5606.804449 kJ/mol
# Density = 2.372534 g / cm^3
# Si number density = 23.779465 Si / 1000 Ang^3
#
#
#
# Elastic Constant Matrix: (Units=GPa)
#
#
# Indices 1 2 3 4 5 6 
#
# 1 141.9488 56.1163 32.6695 13.6991 -29.6991 13.4295
# 2 56.1163 168.6728 40.7074 10.1485 -19.2013 -4.9356
# 3 32.6695 40.7074 115.4109 11.9961 -20.9294 -11.4010
# 4 13.6991 10.1485 11.9961 36.5305 4.9200 -10.3616
# 5 -29.6991 -19.2013 -20.9294 4.9200 49.0683 5.0454
# 6 13.4295 -4.9356 -11.4010 -10.3616 5.0454 46.1479
#
#
#
# Elastic Compliance Matrix: (Units=1/GPa)
#
#
# Indices 1 2 3 4 5 6 
#
# 1 0.010528 -0.002405 -0.001012 -0.005308 0.006090 -0.005429
# 2 -0.002405 0.007244 -0.001628 -0.000402 0.000631 0.000913
# 3 -0.001012 -0.001628 0.010576 -0.002583 0.003336 0.001789
# 4 -0.005308 -0.000402 -0.002583 0.034221 -0.008882 0.009518
# 5 0.006090 0.000631 0.003336 -0.008882 0.027228 -0.005852
# 6 -0.005429 0.000913 0.001789 0.009518 -0.005852 0.026566
#
#
# Mechanical properties :
#
#
# Convention : Reuss Voigt Hill
#
# Bulk Modulus (GPa) = 54.76887 76.11324 65.44105
# Shear Modulus (GPa) = 37.72469 46.11863 41.92166
#
# Velocity S-wave (km/s) = 3.98733 4.40867 4.20329
# Velocity P-wave (km/s) = 6.65436 7.61529 7.15098
#
# Compressibility (1/GPa) = 0.01825855
#
# Stress axis : x y z
#
# Youngs Moduli (GPa) = 94.98072 138.03853 94.55683
#
# Poissons Ratio (x) = 0.33194 0.09572
# Poissons Ratio (y) = 0.22840 0.15394
# Poissons Ratio (z) = 0.09615 0.22473
#
# Static dielectric constant tensor:
#      x y z
#    x 1.905800 0.049580 -0.013140 
#    y 0.049580 1.955300 -0.024990 
#    z -0.013140 -0.024990 1.897520 
# 
# From -- ./inp_files/555265.got.cif
#   From: 2010.05.17/outbox.cif.g08.bks.cpg/sg2_278_cif.got.tgz:555265.got - 2010.06.03 11:33:40.
