data_PCOD9057791
_publ_section_title
;
Structure prediction by ZEFSAII (Michael W. Deem and Ramdas Pophale) SiO2 
 PCOD9057791
Probable space group: P -1
;
_chemical_formula_sum "Si O2"
_cell_formula_units_Z 16
_cell_length_a 16.216727
_cell_length_b 10.107190
_cell_length_c 9.061379
_cell_angle_alpha 123.665100
_cell_angle_beta 88.609833
_cell_angle_gamma 47.199265
_cell_volume 684.152918
_symmetry_space_group_name_H-M "P -1"
_symmetry_group_IT_number 2
_symmetry_cell_setting 'triclinic'
loop_
_space_group_symop_operation_xyz
x,y,z
-x,-y,-z
loop_
_atom_site_type_symbol
_atom_site_label
_atom_site_fract_x
_atom_site_fract_y
_atom_site_fract_z
Si Si1 0.434612 0.932005 0.264543
Si Si2 0.220815 0.211066 0.208551
Si Si3 0.756034 0.309072 0.509455
Si Si4 0.026997 0.786406 0.704426
Si Si5 0.237997 0.640493 0.110146
Si Si6 0.756256 0.727785 0.228925
Si Si7 0.064138 0.217727 0.006133
Si Si8 0.549593 0.075929 0.206403
O O1 0.330944 0.991284 0.201552
O O2 0.338667 0.137316 0.535352
O O3 0.482197 0.018452 0.232393
O O4 0.591105 0.600425 0.090253
O O5 0.085713 0.524482 0.478240
O O6 0.160684 0.171541 0.081409
O O7 0.325625 0.152520 0.064264
O O8 0.844501 0.300147 0.406471
O O9 0.777938 0.300799 0.678132
O O10 0.582800 0.605339 0.656093
O O11 0.834230 0.023735 0.272303
O O12 0.002642 0.808002 0.893511
O O13 0.877911 0.075722 0.805860
O O14 0.211590 0.496381 0.984506
O O15 0.917395 0.537226 0.144184
O O16 0.645154 0.994255 0.286608
#
# Coordination Sequence:
#
# PCOD9057791 Si02
#       8
#     2   2   2   2   2   2   2   2
#     4  11  22  43  71 101 131 168 226 277 321 390
#     4  12  25  46  67  94 137 181 218 266 331 399
#     4  12  24  44  70 100 135 167 227 276 322 391
#     4  12  24  42  72  95 132 176 222 269 330 382
#     4  11  24  41  69 105 128 168 225 282 320 382
#     4  11  24  41  70 104 132 165 225 277 327 387
#     4  12  28  43  64 101 141 172 216 272 334 395
#     4  11  23  42  72  96 127 178 222 268 330 379
#
# _framework density 23.386586000000001
#
# number of rings (size 3 to 8) (size 9 to 14) (size 15 to 20)
#    0.000    0.500    5.000    4.500    5.250    1.000 
#    0.000    0.625    0.000    0.000    0.000    0.000 
#    0.000    0.000    0.000    0.000    0.000    0.000 
#
# Total GULP energy -89547.279315 kJ/mol
# GULP energy per Si atom -5596.704957 kJ/mol
# Density = 2.333336 g / cm^3
# Si number density = 23.386586 Si / 1000 Ang^3
#
#
#
# Elastic Constant Matrix: (Units=GPa)
#
#
# Indices 1 2 3 4 5 6 
#
# 1 35.8894 20.7733 21.6871 3.7181 -11.4252 7.6998
# 2 20.7733 143.1178 37.8736 11.1308 -22.2789 -32.4874
# 3 21.6871 37.8736 149.8341 -6.2179 -17.8939 -4.6404
# 4 3.7181 11.1308 -6.2179 47.9281 -5.9579 -13.2535
# 5 -11.4252 -22.2789 -17.8939 -5.9579 21.3729 -1.4701
# 6 7.6998 -32.4874 -4.6404 -13.2535 -1.4701 4.1026
#
#
#
# Elastic Compliance Matrix: (Units=1/GPa)
#
#
# Indices 1 2 3 4 5 6 
#
# 1 0.025757 0.005950 -0.001368 0.006983 0.022693 0.027917
# 2 0.005950 0.002015 -0.002479 -0.007754 -0.000557 -0.023266
# 3 -0.001368 -0.002479 0.007758 0.000802 0.003087 -0.004595
# 4 0.006983 -0.007754 0.000802 0.015829 -0.000832 -0.022766
# 5 0.022693 -0.000557 0.003087 -0.000832 0.058967 -0.025067
# 6 0.027917 -0.023266 -0.004595 -0.022766 -0.025067 -0.080612
#
#
# Mechanical properties :
#
#
# Convention : Reuss Voigt Hill
#
# Bulk Modulus (GPa) = 25.16602 54.38992 39.77797
# Shear Modulus (GPa) = 129.01785 31.24788 80.13287
#
# Velocity S-wave (km/s) = 7.43554 3.65930 5.85994
# Velocity P-wave (km/s) = 9.19242 6.41571 7.92660
#
# Compressibility (1/GPa) = 0.03973613
#
# Stress axis : x y z
#
# Youngs Moduli (GPa) = 38.82383 496.34800 128.89289
#
# Poissons Ratio (x) = -2.95312 0.17627
# Poissons Ratio (y) = -0.23099 0.31956
# Poissons Ratio (z) = 0.05309 1.23059
#
# Static dielectric constant tensor:
#      x y z
#    x 1.943940 0.002170 0.004550 
#    y 0.002170 1.894690 -0.005330 
#    z 0.004550 -0.005330 1.844040 
# 
# From -- ./inp_files/261697.got.cif
#   From: 2010.05.17/outbox.cif.g08.bks.cpg/sg2_131_cif.got.tgz:261697.got - 2010.06.03 11:33:40.
