data_PCOD9057380
_publ_section_title
;
Structure prediction by ZEFSAII (Michael W. Deem and Ramdas Pophale) SiO2 
 PCOD9057380
Probable space group: P -1
;
_chemical_formula_sum "Si O2"
_cell_formula_units_Z 16
_cell_length_a 9.409293
_cell_length_b 14.999511
_cell_length_c 12.196029
_cell_angle_alpha 130.716582
_cell_angle_beta 69.503309
_cell_angle_gamma 142.820695
_cell_volume 732.383372
_symmetry_space_group_name_H-M "P -1"
_symmetry_group_IT_number 2
_symmetry_cell_setting 'triclinic'
loop_
_space_group_symop_operation_xyz
x,y,z
-x,-y,-z
loop_
_atom_site_type_symbol
_atom_site_label
_atom_site_fract_x
_atom_site_fract_y
_atom_site_fract_z
Si Si1 0.534710 0.109232 0.981862
Si Si2 0.532597 0.436116 0.151493
Si Si3 0.157422 0.045085 0.804788
Si Si4 0.133200 0.779827 0.672970
Si Si5 0.620615 0.323435 0.487167
Si Si6 0.047399 0.406423 0.970955
Si Si7 0.520420 0.349717 0.767912
Si Si8 0.580407 0.734971 0.743256
O O1 0.266609 0.936627 0.857162
O O2 0.575643 0.260468 0.146967
O O3 0.766932 0.204047 0.924821
O O4 0.500000 0.000000 0.000000
O O5 0.442486 0.493334 0.154373
O O6 0.500982 0.424360 0.282465
O O7 0.362572 0.222108 0.979645
O O8 0.815114 0.589091 0.152506
O O9 0.271552 0.170669 0.763563
O O10 0.128895 0.884402 0.670169
O O11 0.884251 0.923490 0.816464
O O12 0.299267 0.764497 0.601955
O O13 0.868377 0.560718 0.603645
O O14 0.497728 0.268882 0.594260
O O15 0.478874 0.276654 0.377411
O O16 0.240240 0.534886 0.125774
O O17 0.000000 0.500000 0.000000
#
# Coordination Sequence:
#
# PCOD9057380 Si02
#       8
#     2   2   2   2   2   2   2   2
#     4  12  23  38  71 102 129 174 230 290 318 391
#     4  11  24  43  71 103 138 177 223 289 336 390
#     4  11  24  43  69 102 132 176 233 281 336 393
#     4  11  24  44  67  98 135 176 228 276 339 400
#     4  11  27  45  66  99 141 186 219 271 348 411
#     4  11  22  42  69 102 133 170 230 279 336 392
#     4  11  26  44  67 100 145 179 213 284 350 399
#     4  12  25  43  70 102 134 180 234 273 332 406
#
# _framework density 21.846482000000002
#
# number of rings (size 3 to 8) (size 9 to 14) (size 15 to 20)
#    0.000    0.750    3.750    4.125    7.000    3.000 
#    0.000    1.250    0.000    0.000    0.000    0.000 
#    0.000    0.000    0.000    0.000    0.000    0.000 
#
# Total GULP energy -89157.481704 kJ/mol
# GULP energy per Si atom -5572.342606 kJ/mol
# Density = 2.179676 g / cm^3
# Si number density = 21.846482 Si / 1000 Ang^3
#
#
#
# Elastic Constant Matrix: (Units=GPa)
#
#
# Indices 1 2 3 4 5 6 
#
# 1 110.8247 35.4542 19.3361 -4.5658 -5.4558 -22.7160
# 2 35.4542 129.2666 15.0220 -19.7263 -0.7879 10.0937
# 3 19.3361 15.0220 40.9337 -12.5679 -5.7023 -9.3687
# 4 -4.5658 -19.7263 -12.5679 43.9242 -9.9648 -12.7180
# 5 -5.4558 -0.7879 -5.7023 -9.9648 31.8874 4.6670
# 6 -22.7160 10.0937 -9.3687 -12.7180 4.6670 71.2148
#
#
#
# Elastic Compliance Matrix: (Units=1/GPa)
#
#
# Indices 1 2 3 4 5 6 
#
# 1 0.011327 -0.002981 -0.003297 0.000107 0.000786 0.003569
# 2 -0.002981 0.009346 -0.001428 0.003073 0.000713 -0.001961
# 3 -0.003297 -0.001428 0.032294 0.011509 0.008051 0.004927
# 4 0.000107 0.003073 0.011509 0.031739 0.011186 0.006048
# 5 0.000786 0.000713 0.008051 0.011186 0.036327 0.000826
# 6 0.003569 -0.001961 0.004927 0.006048 0.000826 0.017133
#
#
# Mechanical properties :
#
#
# Convention : Reuss Voigt Hill
#
# Bulk Modulus (GPa) = 26.62794 46.73884 36.68339
# Shear Modulus (GPa) = 30.10295 43.48615 36.79455
#
# Velocity S-wave (km/s) = 3.71608 4.46638 4.10839
# Velocity P-wave (km/s) = 5.53420 6.93100 6.27161
#
# Compressibility (1/GPa) = 0.03755454
#
# Stress axis : x y z
#
# Youngs Moduli (GPa) = 88.28499 106.99895 30.96528
#
# Poissons Ratio (x) = 0.31897 0.10210
# Poissons Ratio (y) = 0.26319 0.04421
# Poissons Ratio (z) = 0.29111 0.15277
#
# Static dielectric constant tensor:
#      x y z
#    x 1.854240 -0.024110 -0.043150 
#    y -0.024110 1.797560 -0.002990 
#    z -0.043150 -0.002990 1.838720 
# 
# From -- ./inp_files/244130.got.cif
#   From: 2010.05.17/outbox.cif.g08.bks.cpg/sg2_123_cif.got.tgz:244130.got - 2010.06.03 11:33:40.
