data_PCOD9057524
_publ_section_title
;
Structure prediction by ZEFSAII (Michael W. Deem and Ramdas Pophale) SiO2 
 PCOD9057524
Probable space group: P -1
;
_chemical_formula_sum "Si O2"
_cell_formula_units_Z 14
_cell_length_a 9.365611
_cell_length_b 9.652801
_cell_length_c 12.082286
_cell_angle_alpha 97.857198
_cell_angle_beta 62.359960
_cell_angle_gamma 136.670043
_cell_volume 626.738878
_symmetry_space_group_name_H-M "P -1"
_symmetry_group_IT_number 2
_symmetry_cell_setting 'triclinic'
loop_
_space_group_symop_operation_xyz
x,y,z
-x,-y,-z
loop_
_atom_site_type_symbol
_atom_site_label
_atom_site_fract_x
_atom_site_fract_y
_atom_site_fract_z
Si Si1 0.502125 0.557593 0.630364
Si Si2 0.729559 0.475946 0.673073
Si Si3 0.330797 0.037176 0.311644
Si Si4 0.745454 0.278707 0.018280
Si Si5 0.263404 0.785548 0.500326
Si Si6 0.944303 0.127627 0.825723
Si Si7 0.449604 0.303319 0.975478
O O1 0.500000 0.500000 0.500000
O O2 0.693456 0.603025 0.645518
O O3 0.566908 0.762852 0.636739
O O4 0.232720 0.346174 0.754137
O O5 0.696539 0.344535 0.570889
O O6 0.530958 0.324451 0.823859
O O7 0.003785 0.630448 0.639530
O O8 0.559794 0.127091 0.169204
O O9 0.228570 0.854478 0.410031
O O10 0.128802 0.948203 0.283705
O O11 0.803937 0.177556 0.917963
O O12 0.618860 0.317827 0.995958
O O13 0.000000 0.500000 0.000000
O O14 0.500000 0.000000 0.500000
O O15 0.826884 0.926694 0.919131
O O16 0.500000 0.500000 0.000000
#
# Coordination Sequence:
#
# PCOD9057524 Si02
#       7
#     2   2   2   2   2   2   2
#     4  12  26  43  67  98 133 179 222 271 330 398
#     4  11  25  45  63  97 139 165 219 280 328 391
#     4  11  23  43  67  97 128 171 225 273 324 397
#     4  11  22  42  72  96 128 176 226 271 331 401
#     4  11  25  42  68  95 127 177 219 269 333 391
#     4  11  24  45  69  98 133 176 224 272 339 397
#     4  11  25  43  68 100 139 174 217 282 338 391
#
# _framework density 22.337852000000002
#
# number of rings (size 3 to 8) (size 9 to 14) (size 15 to 20)
#    0.000    0.857    1.429    6.857    2.000    8.571 
#    0.000    0.000    0.000    0.000    0.000    0.000 
#    0.000    0.000    0.000    0.000    0.000    0.000 
#
# Total GULP energy -78376.824104 kJ/mol
# GULP energy per Si atom -5598.344579 kJ/mol
# Density = 2.228701 g / cm^3
# Si number density = 22.337852 Si / 1000 Ang^3
#
#
#
# Elastic Constant Matrix: (Units=GPa)
#
#
# Indices 1 2 3 4 5 6 
#
# 1 41.8798 11.5936 12.6228 2.7133 -9.0900 -7.8208
# 2 11.5936 109.2293 3.9528 13.0470 -15.2163 -11.0847
# 3 12.6228 3.9528 68.7326 3.3911 -3.8111 -14.8536
# 4 2.7133 13.0470 3.3911 33.5186 -2.5779 5.7095
# 5 -9.0900 -15.2163 -3.8111 -2.5779 31.6098 -2.3444
# 6 -7.8208 -11.0847 -14.8536 5.7095 -2.3444 43.9464
#
#
#
# Elastic Compliance Matrix: (Units=1/GPa)
#
#
# Indices 1 2 3 4 5 6 
#
# 1 0.027710 -0.001238 -0.003697 -0.001513 0.007096 0.003945
# 2 -0.001238 0.010836 0.000883 -0.004454 0.004874 0.003650
# 3 -0.003697 0.000883 0.016599 -0.002555 0.001569 0.005591
# 4 -0.001513 -0.004454 -0.002555 0.033018 -0.000683 -0.006582
# 5 0.007096 0.004874 0.001569 -0.000683 0.036531 0.005060
# 6 0.003945 0.003650 0.005591 -0.006582 0.005060 0.027392
#
#
# Mechanical properties :
#
#
# Convention : Reuss Voigt Hill
#
# Bulk Modulus (GPa) = 21.25832 30.68667 25.97249
# Shear Modulus (GPa) = 28.43015 34.59314 31.51165
#
# Velocity S-wave (km/s) = 3.57141 3.93954 3.75998
# Velocity P-wave (km/s) = 5.15209 5.87032 5.52289
#
# Compressibility (1/GPa) = 0.04704040
#
# Stress axis : x y z
#
# Youngs Moduli (GPa) = 36.08841 92.28608 60.24600
#
# Poissons Ratio (x) = 0.11422 0.22274
# Poissons Ratio (y) = 0.04467 -0.05319
# Poissons Ratio (z) = 0.13342 -0.08148
#
# Static dielectric constant tensor:
#      x y z
#    x 1.837160 0.047800 -0.031850 
#    y 0.047800 1.809270 -0.020810 
#    z -0.031850 -0.020810 1.840720 
# 
# From -- ./inp_files/218165.got.cif
#   From: 2010.05.17/outbox.cif.g08.bks.cpg/sg2_110_cif.got.tgz:218165.got - 2010.06.03 11:33:40.
