data_PCOD9057915
_publ_section_title
;
Structure prediction by ZEFSAII (Michael W. Deem and Ramdas Pophale) SiO2 
 PCOD9057915
Probable space group: P -1
;
_chemical_formula_sum "Si O2"
_cell_formula_units_Z 16
_cell_length_a 13.511359
_cell_length_b 11.451163
_cell_length_c 9.156418
_cell_angle_alpha 51.723353
_cell_angle_beta 121.016714
_cell_angle_gamma 81.487644
_cell_volume 685.800248
_symmetry_space_group_name_H-M "P -1"
_symmetry_group_IT_number 2
_symmetry_cell_setting 'triclinic'
loop_
_space_group_symop_operation_xyz
x,y,z
-x,-y,-z
loop_
_atom_site_type_symbol
_atom_site_label
_atom_site_fract_x
_atom_site_fract_y
_atom_site_fract_z
Si Si1 0.808203 0.811499 0.350147
Si Si2 0.127337 0.758338 0.242362
Si Si3 0.823561 0.055249 0.405147
Si Si4 0.382466 0.964473 0.255546
Si Si5 0.260701 0.301134 0.337281
Si Si6 0.188631 0.708130 0.009589
Si Si7 0.080585 0.352666 0.889501
Si Si8 0.639036 0.294043 0.350475
O O1 0.736450 0.751722 0.450910
O O2 0.970876 0.593236 0.579337
O O3 0.842544 0.909974 0.414289
O O4 0.689609 0.976697 0.008421
O O5 0.251024 0.668325 0.537300
O O6 0.027997 0.695593 0.189074
O O7 0.227850 0.696026 0.218067
O O8 0.000000 0.000000 0.000000
O O9 0.736833 0.262270 0.086247
O O10 0.726593 0.116138 0.431192
O O11 0.003005 0.927017 0.694828
O O12 0.560082 0.873473 0.454618
O O13 0.392410 0.795370 0.474175
O O14 0.248257 0.183751 0.064734
O O15 0.211476 0.517253 0.133938
O O16 0.132217 0.329861 0.115850
O O17 0.500000 0.500000 0.000000
#
# Coordination Sequence:
#
# PCOD9057915 Si02
#       8
#     2   2   2   2   2   2   2   2
#     4  12  25  47  76 109 148 199 251 295 370 444
#     4  12  23  46  78 103 146 194 250 303 359 441
#     4  11  24  43  75 105 147 192 250 304 356 438
#     4  12  27  48  72 113 153 192 242 311 372 438
#     4  12  25  48  76 110 153 191 245 305 376 439
#     4  11  22  43  74 110 139 194 247 303 362 434
#     4  12  25  48  77 110 146 203 245 299 364 448
#     4  12  27  50  75 108 149 196 247 310 378 431
#
# _framework density 23.330409
#
# number of rings (size 3 to 8) (size 9 to 14) (size 15 to 20)
#    0.000    0.250    5.000    4.500    0.000    1.000 
#   11.250    2.500    0.000    0.000    0.000    0.000 
#    0.000    0.000    0.000    0.000    0.000    0.000 
#
# Total GULP energy -89454.147843 kJ/mol
# GULP energy per Si atom -5590.884240 kJ/mol
# Density = 2.327731 g / cm^3
# Si number density = 23.330409 Si / 1000 Ang^3
#
#
#
# Elastic Constant Matrix: (Units=GPa)
#
#
# Indices 1 2 3 4 5 6 
#
# 1 76.2855 31.2639 40.7806 -7.3101 -10.3274 -5.4791
# 2 31.2639 129.5303 48.5064 13.3118 -1.2071 13.9125
# 3 40.7806 48.5064 147.6830 13.9108 -0.4487 5.9530
# 4 -7.3101 13.3118 13.9108 35.9448 3.4720 -4.1512
# 5 -10.3274 -1.2071 -0.4487 3.4720 39.6935 -2.4068
# 6 -5.4791 13.9125 5.9530 -4.1512 -2.4068 30.1162
#
#
#
# Elastic Compliance Matrix: (Units=1/GPa)
#
#
# Indices 1 2 3 4 5 6 
#
# 1 0.019642 -0.004527 -0.005014 0.008098 0.004702 0.008148
# 2 -0.004527 0.010527 -0.001505 -0.004865 -0.000821 -0.006125
# 3 -0.005014 -0.001505 0.009152 -0.004215 -0.001041 -0.002690
# 4 0.008098 -0.004865 -0.004215 0.034011 -0.000506 0.009201
# 5 0.004702 -0.000821 -0.001041 -0.000506 0.026636 0.003499
# 6 0.008148 -0.006125 -0.002690 0.009201 0.003499 0.039596
#
#
# Mechanical properties :
#
#
# Convention : Reuss Voigt Hill
#
# Bulk Modulus (GPa) = 58.03949 66.06674 62.05312
# Shear Modulus (GPa) = 29.86876 36.68076 33.27476
#
# Velocity S-wave (km/s) = 3.58194 3.96944 3.78066
# Velocity P-wave (km/s) = 6.48369 7.02765 6.76115
#
# Compressibility (1/GPa) = 0.01722965
#
# Stress axis : x y z
#
# Youngs Moduli (GPa) = 50.91134 94.99831 109.26213
#
# Poissons Ratio (x) = 0.43004 0.54784
# Poissons Ratio (y) = 0.23047 0.16442
# Poissons Ratio (z) = 0.25527 0.14295
#
# Static dielectric constant tensor:
#      x y z
#    x 1.971870 -0.012200 -0.019440 
#    y -0.012200 1.881510 0.000090 
#    z -0.019440 0.000090 1.901360 
# 
# From -- ./inp_files/306790.got.cif
#   From: 2010.05.17/outbox.cif.g08.bks.cpg/sg2_154_cif.got.tgz:306790.got - 2010.06.03 11:33:40.
