data_PCOD9057531
_publ_section_title
;
Structure prediction by ZEFSAII (Michael W. Deem and Ramdas Pophale) SiO2 
 PCOD9057531
Probable space group: P -1
;
_chemical_formula_sum "Si O2"
_cell_formula_units_Z 16
_cell_length_a 9.374033
_cell_length_b 7.867816
_cell_length_c 10.374501
_cell_angle_alpha 73.089770
_cell_angle_beta 82.989411
_cell_angle_gamma 62.804056
_cell_volume 651.084019
_symmetry_space_group_name_H-M "P -1"
_symmetry_group_IT_number 2
_symmetry_cell_setting 'triclinic'
loop_
_space_group_symop_operation_xyz
x,y,z
-x,-y,-z
loop_
_atom_site_type_symbol
_atom_site_label
_atom_site_fract_x
_atom_site_fract_y
_atom_site_fract_z
Si Si1 0.032246 0.757363 0.846569
Si Si2 0.766016 0.683241 0.013883
Si Si3 0.958622 0.346350 0.611696
Si Si4 0.564890 0.262981 0.052162
Si Si5 0.835486 0.184119 0.442987
Si Si6 0.706255 0.876804 0.262168
Si Si7 0.553525 0.274935 0.595759
Si Si8 0.798772 0.196450 0.822141
O O1 0.151636 0.556230 0.948843
O O2 0.132293 0.733677 0.710424
O O3 0.959431 0.990316 0.835168
O O4 0.863960 0.742718 0.884344
O O5 0.579655 0.769735 0.985219
O O6 0.771175 0.766497 0.139086
O O7 0.136790 0.177134 0.657646
O O8 0.000000 0.500000 0.500000
O O9 0.839884 0.322366 0.527820
O O10 0.858155 0.364809 0.749453
O O11 0.724929 0.189373 0.967213
O O12 0.500000 0.500000 0.000000
O O13 0.616124 0.114953 0.200449
O O14 0.681142 0.150539 0.497959
O O15 0.000000 0.000000 0.500000
O O16 0.588552 0.788234 0.350665
O O17 0.500000 0.500000 0.500000
O O18 0.655730 0.228453 0.728984
#
# Coordination Sequence:
#
# PCOD9057531 Si02
#       8
#     2   2   2   2   2   2   2   2
#     4  11  22  42  74 103 131 190 233 286 346 429
#     4  11  24  43  75 102 136 182 241 288 351 420
#     4  11  25  44  70 105 137 185 236 291 350 417
#     4  12  28  44  68 107 144 187 237 294 357 425
#     4  11  23  42  70  98 137 181 235 280 345 418
#     4  12  24  47  74 103 146 185 237 299 357 415
#     4  11  22  42  73 101 132 190 233 285 351 421
#     4  11  23  46  70  94 149 181 231 291 355 416
#
# _framework density 24.574400000000001
#
# number of rings (size 3 to 8) (size 9 to 14) (size 15 to 20)
#    0.000    0.750    5.000    4.125    1.750    3.500 
#    0.000    0.625    0.000    0.000    0.000    0.000 
#    0.000    0.000    0.000    0.000    0.000    0.000 
#
# Total GULP energy -89189.210408 kJ/mol
# GULP energy per Si atom -5574.325651 kJ/mol
# Density = 2.451847 g / cm^3
# Si number density = 24.574400 Si / 1000 Ang^3
#
#
#
# Elastic Constant Matrix: (Units=GPa)
#
#
# Indices 1 2 3 4 5 6 
#
# 1 122.6836 32.2388 57.4734 -2.3776 -41.9446 -16.2463
# 2 32.2388 73.7617 34.8476 -29.3225 7.7855 -17.2615
# 3 57.4734 34.8476 127.4129 -23.8331 -48.3884 3.3800
# 4 -2.3776 -29.3225 -23.8331 53.0129 -3.3308 -2.3498
# 5 -41.9446 7.7855 -48.3884 -3.3308 55.8451 -1.4493
# 6 -16.2463 -17.2615 3.3800 -2.3498 -1.4493 27.1299
#
#
#
# Elastic Compliance Matrix: (Units=1/GPa)
#
#
# Indices 1 2 3 4 5 6 
#
# 1 0.015035 -0.007151 -0.001278 -0.002936 0.011136 0.004953
# 2 -0.007151 0.033003 -0.010750 0.012773 -0.018053 0.018197
# 3 -0.001278 -0.010750 0.018367 0.002896 0.016399 -0.008766
# 4 -0.002936 0.012773 0.002896 0.027495 0.000381 0.008410
# 5 0.011136 -0.018053 0.016399 0.000381 0.042902 -0.004536
# 6 0.004953 0.018197 -0.008766 0.008410 -0.004536 0.052982
#
#
# Mechanical properties :
#
#
# Convention : Reuss Voigt Hill
#
# Bulk Modulus (GPa) = 35.65384 63.66420 49.65902
# Shear Modulus (GPa) = 21.05332 40.48415 30.76874
#
# Velocity S-wave (km/s) = 2.93015 4.06324 3.54229
# Velocity P-wave (km/s) = 5.09782 6.92648 6.08128
#
# Compressibility (1/GPa) = 0.02804747
#
# Stress axis : x y z
#
# Youngs Moduli (GPa) = 66.51074 30.30003 54.44529
#
# Poissons Ratio (x) = 0.21669 0.06956
# Poissons Ratio (y) = 0.47564 0.58529
# Poissons Ratio (z) = 0.08497 0.32573
#
# Static dielectric constant tensor:
#      x y z
#    x 2.101650 -0.005000 -0.294520 
#    y -0.005000 2.096120 0.130660 
#    z -0.294520 0.130660 2.419860 
# 
# From -- ./inp_files/208630.got.cif
#   From: 2010.05.17/outbox.cif.g08.bks.cpg/sg2_105_cif.got.tgz:208630.got - 2010.06.03 11:33:40.
