data_PCOD9057879
_publ_section_title
;
Structure prediction by ZEFSAII (Michael W. Deem and Ramdas Pophale) SiO2 
 PCOD9057879
Probable space group: P -1
;
_chemical_formula_sum "Si O2"
_cell_formula_units_Z 16
_cell_length_a 18.679827
_cell_length_b 12.647124
_cell_length_c 10.240260
_cell_angle_alpha 141.941530
_cell_angle_beta 33.764692
_cell_angle_gamma 145.719732
_cell_volume 717.255052
_symmetry_space_group_name_H-M "P -1"
_symmetry_group_IT_number 2
_symmetry_cell_setting 'triclinic'
loop_
_space_group_symop_operation_xyz
x,y,z
-x,-y,-z
loop_
_atom_site_type_symbol
_atom_site_label
_atom_site_fract_x
_atom_site_fract_y
_atom_site_fract_z
Si Si1 0.285146 0.647066 0.976577
Si Si2 0.820251 0.710905 0.711839
Si Si3 0.805170 0.011687 0.850934
Si Si4 0.826330 0.033817 0.547294
Si Si5 0.101037 0.402518 0.775674
Si Si6 0.474713 0.997865 0.689177
Si Si7 0.570878 0.759214 0.496841
Si Si8 0.631166 0.449639 0.986697
O O1 0.197106 0.493276 0.846048
O O2 0.457630 0.737343 0.762545
O O3 0.233772 0.810007 0.214843
O O4 0.264502 0.549626 0.054081
O O5 0.812172 0.579931 0.471731
O O6 0.723155 0.581030 0.852104
O O7 0.994837 0.842962 0.614526
O O8 0.766743 0.854355 0.870548
O O9 0.784159 0.936779 0.661045
O O10 0.978184 0.172734 0.757173
O O11 0.701023 0.108234 0.118365
O O12 0.736623 0.874383 0.417120
O O13 0.000000 0.500000 0.000000
O O14 0.537071 0.221174 0.864202
O O15 0.500000 0.000000 0.500000
O O16 0.548723 0.890554 0.549414
O O17 0.541664 0.552055 0.280675
#
# Coordination Sequence:
#
# PCOD9057879 Si02
#       8
#     2   2   2   2   2   2   2   2
#     4  12  24  46  74 106 145 188 244 298 350 434
#     4  11  27  46  68 107 150 186 237 298 357 428
#     4  11  24  45  73 102 141 190 242 292 352 427
#     4  11  22  46  75 101 140 195 240 292 357 422
#     4  11  22  43  73 104 132 189 244 287 348 422
#     4  12  27  47  74 102 146 191 237 299 360 430
#     4  12  26  49  73 105 147 190 242 298 358 426
#     4  12  30  46  70 114 144 190 237 294 373 419
#
# _framework density 22.307267
#
# number of rings (size 3 to 8) (size 9 to 14) (size 15 to 20)
#    0.000    0.500    5.000    3.750    8.750    2.000 
#    2.250    0.000    0.000    0.000    0.000    0.000 
#    0.000    0.000    0.000    0.000    0.000    0.000 
#
# Total GULP energy -89594.608010 kJ/mol
# GULP energy per Si atom -5599.663001 kJ/mol
# Density = 2.225650 g / cm^3
# Si number density = 22.307267 Si / 1000 Ang^3
#
#
#
# Elastic Constant Matrix: (Units=GPa)
#
#
# Indices 1 2 3 4 5 6 
#
# 1 142.4020 51.6776 31.8651 9.3748 5.6032 -16.5295
# 2 51.6776 74.9451 11.7248 12.0756 4.2674 -18.7435
# 3 31.8651 11.7248 62.6073 20.1160 0.0596 1.3538
# 4 9.3748 12.0756 20.1160 42.1852 -3.4691 7.1548
# 5 5.6032 4.2674 0.0596 -3.4691 34.7145 -4.9354
# 6 -16.5295 -18.7435 1.3538 7.1548 -4.9354 41.9477
#
#
#
# Elastic Compliance Matrix: (Units=1/GPa)
#
#
# Indices 1 2 3 4 5 6 
#
# 1 0.010428 -0.006407 -0.004607 0.001483 -0.000587 0.001073
# 2 -0.006407 0.020556 0.001327 -0.006468 -0.001062 0.007596
# 3 -0.004607 0.001327 0.021095 -0.009391 -0.000444 -0.000354
# 4 0.001483 -0.006468 -0.009391 0.031112 0.002687 -0.006993
# 5 -0.000587 -0.001062 -0.000444 0.002687 0.029633 0.002337
# 6 0.001073 0.007596 -0.000354 -0.006993 0.002337 0.029135
#
#
# Mechanical properties :
#
#
# Convention : Reuss Voigt Hill
#
# Bulk Modulus (GPa) = 30.57776 52.27661 41.42719
# Shear Modulus (GPa) = 29.02986 36.08194 32.55590
#
# Velocity S-wave (km/s) = 3.61135 4.02617 3.82439
# Velocity P-wave (km/s) = 5.57911 6.71559 6.17356
#
# Compressibility (1/GPa) = 0.03270350
#
# Stress axis : x y z
#
# Youngs Moduli (GPa) = 95.89112 48.64753 47.40564
#
# Poissons Ratio (x) = 0.31170 0.21840
# Poissons Ratio (y) = 0.61440 -0.06289
# Poissons Ratio (z) = 0.44177 -0.06453
#
# Static dielectric constant tensor:
#      x y z
#    x 1.804220 0.012930 -0.010040 
#    y 0.012930 1.876050 0.037510 
#    z -0.010040 0.037510 1.802460 
# 
# From -- ./inp_files/308450.got.cif
#   From: 2010.05.17/outbox.cif.g08.bks.cpg/sg2_155_cif.got.tgz:308450.got - 2010.06.03 11:33:40.
