data_PCOD9057538
_publ_section_title
;
Structure prediction by ZEFSAII (Michael W. Deem and Ramdas Pophale) SiO2 
 PCOD9057538
Probable space group: P -1
;
_chemical_formula_sum "Si O2"
_cell_formula_units_Z 14
_cell_length_a 8.331770
_cell_length_b 16.507559
_cell_length_c 7.702653
_cell_angle_alpha 146.018092
_cell_angle_beta 107.669918
_cell_angle_gamma 65.793638
_cell_volume 538.685389
_symmetry_space_group_name_H-M "P -1"
_symmetry_group_IT_number 2
_symmetry_cell_setting 'triclinic'
loop_
_space_group_symop_operation_xyz
x,y,z
-x,-y,-z
loop_
_atom_site_type_symbol
_atom_site_label
_atom_site_fract_x
_atom_site_fract_y
_atom_site_fract_z
Si Si1 0.457368 0.622440 0.858276
Si Si2 0.532047 0.648699 0.379643
Si Si3 0.210729 0.909386 0.725314
Si Si4 0.597194 0.905497 0.083436
Si Si5 0.699518 0.843431 0.360981
Si Si6 0.905333 0.645824 0.340712
Si Si7 0.887501 0.176541 0.075115
O O1 0.500000 0.500000 0.500000
O O2 0.475689 0.510367 0.829805
O O3 0.270119 0.744998 0.967838
O O4 0.597639 0.715877 0.083692
O O5 0.346438 0.752766 0.421054
O O6 0.718502 0.632790 0.320978
O O7 0.553902 0.756711 0.740854
O O8 0.178786 0.866349 0.835613
O O9 0.330398 0.021156 0.923742
O O10 0.026728 0.017430 0.781668
O O11 0.738711 0.874073 0.230799
O O12 0.433074 0.018443 0.332796
O O13 0.865016 0.780147 0.425261
O O14 0.014705 0.696193 0.617946
O O15 0.000000 0.500000 0.000000
#
# Coordination Sequence:
#
# PCOD9057538 Si02
#       7
#     2   2   2   2   2   2   2
#     4  12  24  44  71 107 147 191 236 289 365 430
#     4  12  24  45  79  97 146 202 239 276 374 447
#     4  11  22  42  73 103 136 189 242 284 350 433
#     4  11  22  42  73 103 136 189 242 284 350 433
#     4  11  25  44  72 108 144 183 241 300 352 424
#     4  12  27  44  70 107 144 181 241 303 355 419
#     4  11  25  44  72 108 144 183 241 300 352 424
#
# _framework density 25.989196
#
# number of rings (size 3 to 8) (size 9 to 14) (size 15 to 20)
#    0.000    0.571    5.714    2.143    0.000    6.857 
#    0.000    1.429    0.000    0.000    0.000    0.000 
#    0.000    0.000    0.000    0.000    0.000    0.000 
#
# Total GULP energy -78337.313707 kJ/mol
# GULP energy per Si atom -5595.522408 kJ/mol
# Density = 2.593004 g / cm^3
# Si number density = 25.989196 Si / 1000 Ang^3
#
#
#
# Elastic Constant Matrix: (Units=GPa)
#
#
# Indices 1 2 3 4 5 6 
#
# 1 114.2423 44.1893 56.3931 17.3477 -3.1791 2.1775
# 2 44.1893 132.5178 10.8858 18.6132 -0.7981 -11.0713
# 3 56.3931 10.8858 154.7928 18.5276 -1.2564 -3.0659
# 4 17.3477 18.6132 18.5276 47.4005 -5.0800 3.6944
# 5 -3.1791 -0.7981 -1.2564 -5.0800 52.2246 6.6721
# 6 2.1775 -11.0713 -3.0659 3.6944 6.6721 43.5265
#
#
#
# Elastic Compliance Matrix: (Units=1/GPa)
#
#
# Indices 1 2 3 4 5 6 
#
# 1 0.012539 -0.003820 -0.004184 -0.001228 0.000728 -0.001901
# 2 -0.003820 0.009405 0.001151 -0.003062 -0.000747 0.003039
# 3 -0.004184 0.001151 0.008199 -0.002276 -0.000432 0.001339
# 4 -0.001228 -0.003062 -0.002276 0.024176 0.002601 -0.003328
# 5 0.000728 -0.000747 -0.000432 0.002601 0.019874 -0.003524
# 6 -0.001901 0.003039 0.001339 -0.003328 -0.003524 0.024760
#
#
# Mechanical properties :
#
#
# Convention : Reuss Voigt Hill
#
# Bulk Modulus (GPa) = 60.83979 69.38771 65.11375
# Shear Modulus (GPa) = 42.32341 47.96929 45.14635
#
# Velocity S-wave (km/s) = 4.03985 4.30087 4.17240
# Velocity P-wave (km/s) = 6.72465 7.17077 6.95129
#
# Compressibility (1/GPa) = 0.01643661
#
# Stress axis : x y z
#
# Youngs Moduli (GPa) = 79.75011 106.32937 121.96330
#
# Poissons Ratio (x) = 0.40613 0.51034
# Poissons Ratio (y) = 0.30461 -0.14035
# Poissons Ratio (z) = 0.33371 -0.12236
#
# Static dielectric constant tensor:
#      x y z
#    x 2.050840 -0.024960 -0.008190 
#    y -0.024960 2.113720 -0.024770 
#    z -0.008190 -0.024770 2.060050 
# 
# From -- ./inp_files/219061.got.cif
#   From: 2010.05.17/outbox.cif.g08.bks.cpg/sg2_110_cif.got.tgz:219061.got - 2010.06.03 11:33:40.
