data_PCOD9057234
_publ_section_title
;
Structure prediction by ZEFSAII (Michael W. Deem and Ramdas Pophale) SiO2 
 PCOD9057234
Probable space group: P -1
;
_chemical_formula_sum "Si O2"
_cell_formula_units_Z 14
_cell_length_a 8.307022
_cell_length_b 11.747900
_cell_length_c 17.810693
_cell_angle_alpha 49.930501
_cell_angle_beta 140.823991
_cell_angle_gamma 99.477877
_cell_volume 606.877902
_symmetry_space_group_name_H-M "P -1"
_symmetry_group_IT_number 2
_symmetry_cell_setting 'triclinic'
loop_
_space_group_symop_operation_xyz
x,y,z
-x,-y,-z
loop_
_atom_site_type_symbol
_atom_site_label
_atom_site_fract_x
_atom_site_fract_y
_atom_site_fract_z
Si Si1 0.884233 0.300746 0.908083
Si Si2 0.394672 0.645395 0.969720
Si Si3 0.068177 0.965800 0.450234
Si Si4 0.788005 0.434838 0.346816
Si Si5 0.518740 0.324925 0.482483
Si Si6 0.589758 0.619018 0.404281
Si Si7 0.272278 0.092646 0.282062
O O1 0.550996 0.387121 0.802519
O O2 0.808595 0.496812 0.765497
O O3 0.806029 0.231910 0.836050
O O4 0.203303 0.155192 0.141911
O O5 0.059923 0.723708 0.865400
O O6 0.500000 0.500000 0.000000
O O7 0.704715 0.523725 0.194383
O O8 0.266805 0.849505 0.798474
O O9 0.186361 0.752731 0.564553
O O10 0.376788 0.960441 0.547710
O O11 0.000000 0.000000 0.500000
O O12 0.146858 0.362158 0.536175
O O13 0.735263 0.394174 0.531020
O O14 0.427808 0.352413 0.525374
O O15 0.685400 0.102527 0.613651
#
# Coordination Sequence:
#
# PCOD9057234 Si02
#       7
#     2   2   2   2   2   2   2
#     4   9  21  39  64  95 119 175 208 259 321 372
#     4  11  25  45  63  95 131 174 218 263 328 375
#     4  12  25  42  64  98 127 174 213 268 324 382
#     4  11  22  42  62  92 134 164 215 261 322 380
#     4   9  20  40  61  94 128 164 213 254 324 367
#     4   9  20  42  64  92 132 167 208 269 313 381
#     4  11  24  42  68  96 130 170 218 265 319 391
#
# _framework density 23.06889
#
# number of rings (size 3 to 8) (size 9 to 14) (size 15 to 20)
#    0.857    0.857    1.429    2.571    0.000    5.143 
#    2.571    1.429    0.000    0.000    0.000    0.000 
#    0.000    0.000    0.000    0.000    0.000    0.000 
#
# Total GULP energy -78118.626925 kJ/mol
# GULP energy per Si atom -5579.901923 kJ/mol
# Density = 2.301638 g / cm^3
# Si number density = 23.068890 Si / 1000 Ang^3
#
#
#
# Elastic Constant Matrix: (Units=GPa)
#
#
# Indices 1 2 3 4 5 6 
#
# 1 64.3266 30.3029 0.7772 3.9150 -11.0446 -10.2280
# 2 30.3029 108.3966 33.5286 -3.2840 8.6794 6.3125
# 3 0.7772 33.5286 106.5000 5.6637 -35.2177 -10.1142
# 4 3.9150 -3.2840 5.6637 30.3216 -3.6360 -8.7475
# 5 -11.0446 8.6794 -35.2177 -3.6360 41.0045 13.8766
# 6 -10.2280 6.3125 -10.1142 -8.7475 13.8766 19.5179
#
#
#
# Elastic Compliance Matrix: (Units=1/GPa)
#
#
# Indices 1 2 3 4 5 6 
#
# 1 0.024904 -0.011386 0.008722 -0.001161 0.012497 0.011847
# 2 -0.011386 0.017128 -0.010405 0.001743 -0.013195 -0.006736
# 3 0.008722 -0.010405 0.019740 -0.002805 0.020458 0.002363
# 4 -0.001161 0.001743 -0.002805 0.038595 -0.006102 0.019010
# 5 0.012497 -0.013195 0.020458 -0.006102 0.054324 -0.019940
# 6 0.011847 -0.006736 0.002363 0.019010 -0.019940 0.083543
#
#
# Mechanical properties :
#
#
# Convention : Reuss Voigt Hill
#
# Bulk Modulus (GPa) = 28.06196 45.38230 36.72213
# Shear Modulus (GPa) = 18.09954 32.47641 25.28798
#
# Velocity S-wave (km/s) = 2.80409 3.75614 3.31447
# Velocity P-wave (km/s) = 4.76179 6.20698 5.53179
#
# Compressibility (1/GPa) = 0.03563543
#
# Stress axis : x y z
#
# Youngs Moduli (GPa) = 40.15446 58.38309 50.65770
#
# Poissons Ratio (x) = 0.66473 -0.44184
# Poissons Ratio (y) = 0.45718 0.52709
# Poissons Ratio (z) = -0.35023 0.60747
#
# Static dielectric constant tensor:
#      x y z
#    x 1.926590 -0.047020 -0.016680 
#    y -0.047020 1.836380 0.008300 
#    z -0.016680 0.008300 1.975810 
# 
# From -- ./inp_files/559809.got.cif
#   From: 2010.05.17/outbox.cif.g08.bks.cpg/sg2_280_cif.got.tgz:559809.got - 2010.06.03 11:33:40.
