data_PCOD9057780
_publ_section_title
;
Structure prediction by ZEFSAII (Michael W. Deem and Ramdas Pophale) SiO2 
 PCOD9057780
Probable space group: P -1
;
_chemical_formula_sum "Si O2"
_cell_formula_units_Z 16
_cell_length_a 9.271163
_cell_length_b 11.659180
_cell_length_c 16.791178
_cell_angle_alpha 136.922228
_cell_angle_beta 33.194163
_cell_angle_gamma 139.225020
_cell_volume 624.773120
_symmetry_space_group_name_H-M "P -1"
_symmetry_group_IT_number 2
_symmetry_cell_setting 'triclinic'
loop_
_space_group_symop_operation_xyz
x,y,z
-x,-y,-z
loop_
_atom_site_type_symbol
_atom_site_label
_atom_site_fract_x
_atom_site_fract_y
_atom_site_fract_z
Si Si1 0.646341 0.468288 0.544893
Si Si2 0.102926 0.141656 0.361815
Si Si3 0.553421 0.272172 0.922087
Si Si4 0.364891 0.928920 0.937841
Si Si5 0.900595 0.821188 0.400173
Si Si6 0.280609 0.213317 0.852836
Si Si7 0.692808 0.519998 0.137663
Si Si8 0.268507 0.880773 0.612584
O O1 0.888714 0.666212 0.509299
O O2 0.465644 0.517686 0.723316
O O3 0.759185 0.318974 0.450550
O O4 0.404662 0.342180 0.530992
O O5 0.414173 0.147588 0.238648
O O6 0.029941 0.146005 0.305504
O O7 0.901647 0.935085 0.376967
O O8 0.858063 0.260137 0.757049
O O9 0.413703 0.298795 0.918360
O O10 0.366385 0.081482 0.952883
O O11 0.586499 0.403359 0.047429
O O12 0.039135 0.793997 0.017222
O O13 0.500000 0.000000 0.000000
O O14 0.000000 0.000000 0.500000
O O15 0.393841 0.313109 0.767782
O O16 0.306530 0.018064 0.737929
O O17 0.000000 0.500000 0.000000
O O18 0.500000 0.000000 0.500000
#
# Coordination Sequence:
#
# PCOD9057780 Si02
#       8
#     2   2   2   2   2   2   2   2
#     4  12  24  43  71 102 136 184 240 289 343 429
#     4  11  24  43  69 104 134 182 243 288 342 423
#     4  11  25  41  65 105 139 181 230 296 362 406
#     4  11  22  43  70  98 134 185 235 288 349 423
#     4  11  24  44  70  97 144 188 229 283 360 428
#     4  12  24  43  69 100 143 181 233 297 355 415
#     4  12  23  42  69 102 133 182 239 284 347 425
#     4  12  23  43  69 101 139 185 234 288 354 419
#
# _framework density 25.609297000000002
#
# number of rings (size 3 to 8) (size 9 to 14) (size 15 to 20)
#    0.000    0.500    5.000    4.125    0.000    0.500 
#    0.000    0.000    0.000    0.000    0.000    0.000 
#    0.000    0.000    0.000    0.000    0.000    0.000 
#
# Total GULP energy -89225.893786 kJ/mol
# GULP energy per Si atom -5576.618362 kJ/mol
# Density = 2.555101 g / cm^3
# Si number density = 25.609297 Si / 1000 Ang^3
#
#
#
# Elastic Constant Matrix: (Units=GPa)
#
#
# Indices 1 2 3 4 5 6 
#
# 1 145.9819 23.8555 16.0404 9.2629 3.2919 7.8775
# 2 23.8555 84.8573 5.7863 33.7487 -2.5445 -6.6088
# 3 16.0404 5.7863 75.3297 23.8436 -0.5506 5.4853
# 4 9.2629 33.7487 23.8436 33.2143 2.1641 2.0918
# 5 3.2919 -2.5445 -0.5506 2.1641 39.0802 11.2679
# 6 7.8775 -6.6088 5.4853 2.0918 11.2679 40.0141
#
#
#
# Elastic Compliance Matrix: (Units=1/GPa)
#
#
# Indices 1 2 3 4 5 6 
#
# 1 0.007545 -0.003294 -0.002162 0.002939 -0.000543 -0.001734
# 2 -0.003294 0.024687 0.008128 -0.030441 0.002378 0.004533
# 3 -0.002162 0.008128 0.020222 -0.022296 0.002377 -0.000508
# 4 0.002939 -0.030441 -0.022296 0.076891 -0.005341 -0.005065
# 5 -0.000543 0.002378 0.002377 -0.005341 0.028284 -0.007512
# 6 -0.001734 0.004533 -0.000508 -0.005065 -0.007512 0.028531
#
#
# Mechanical properties :
#
#
# Convention : Reuss Voigt Hill
#
# Bulk Modulus (GPa) = 17.30131 44.17037 30.73584
# Shear Modulus (GPa) = 24.98951 39.82750 32.40851
#
# Velocity S-wave (km/s) = 3.12717 3.94788 3.56124
# Velocity P-wave (km/s) = 4.45078 6.16978 5.37939
#
# Compressibility (1/GPa) = 0.05779909
#
# Stress axis : x y z
#
# Youngs Moduli (GPa) = 132.53298 40.50638 49.45007
#
# Poissons Ratio (x) = 0.13343 0.10690
# Poissons Ratio (y) = 0.43657 -0.40191
# Poissons Ratio (z) = 0.28649 -0.32922
#
# Static dielectric constant tensor:
#      x y z
#    x 2.157700 -0.053810 0.003840 
#    y -0.053810 2.294190 0.009060 
#    z 0.003840 0.009060 2.121560 
# 
# From -- ./inp_files/206931.got.cif
#   From: 2010.05.17/outbox.cif.g08.bks.cpg/sg2_104_cif.got.tgz:206931.got - 2010.06.03 11:33:40.
