data_PCOD9057771
_publ_section_title
;
Structure prediction by ZEFSAII (Michael W. Deem and Ramdas Pophale) SiO2 
 PCOD9057771
Probable space group: P -1
;
_chemical_formula_sum "Si O2"
_cell_formula_units_Z 16
_cell_length_a 9.822025
_cell_length_b 9.274199
_cell_length_c 14.522204
_cell_angle_alpha 140.730216
_cell_angle_beta 62.743315
_cell_angle_gamma 116.932156
_cell_volume 732.887685
_symmetry_space_group_name_H-M "P -1"
_symmetry_group_IT_number 2
_symmetry_cell_setting 'triclinic'
loop_
_space_group_symop_operation_xyz
x,y,z
-x,-y,-z
loop_
_atom_site_type_symbol
_atom_site_label
_atom_site_fract_x
_atom_site_fract_y
_atom_site_fract_z
Si Si1 0.577935 0.681832 0.248511
Si Si2 0.611106 0.105422 0.325255
Si Si3 0.782711 0.414097 0.137535
Si Si4 0.494413 0.471426 0.360325
Si Si5 0.264460 0.075290 0.155240
Si Si6 0.609829 0.743520 0.995996
Si Si7 0.053845 0.277295 0.098686
Si Si8 0.024170 0.697766 0.666734
O O1 0.750169 0.639505 0.204774
O O2 0.478250 0.605812 0.333538
O O3 0.510856 0.488530 0.098765
O O4 0.567634 0.930223 0.336764
O O5 0.530317 0.330259 0.462949
O O6 0.796207 0.192931 0.320238
O O7 0.565649 0.945215 0.171610
O O8 0.664720 0.407161 0.258466
O O9 0.945930 0.375226 0.107242
O O10 0.726562 0.194303 0.979916
O O11 0.363060 0.244992 0.281641
O O12 0.335574 0.153583 0.070953
O O13 0.087988 0.120135 0.234227
O O14 0.767212 0.687487 0.965628
O O15 0.036654 0.397449 0.261506
O O16 0.000000 0.000000 0.000000
O O17 0.000000 0.500000 0.500000
#
# Coordination Sequence:
#
# PCOD9057771 Si02
#       8
#     2   2   2   2   2   2   2   2
#     4   9  23  36  58  82 116 160 184 228 280 346
#     4  12  19  37  56  89 114 148 200 227 277 339
#     4  10  19  36  58  87 112 150 190 227 294 330
#     4   9  21  32  58  80 112 149 185 236 275 330
#     4  10  17  37  56  84 107 148 186 233 284 332
#     4  10  20  35  61  85 108 156 190 234 272 340
#     4  11  19  37  61  81 108 149 189 236 282 332
#     4  11  21  34  60  88 110 143 191 239 282 330
#
# _framework density 21.831448999999999
#
# number of rings (size 3 to 8) (size 9 to 14) (size 15 to 20)
#    0.750    1.000    5.000    1.125    0.000    0.000 
#    0.000    6.250    0.000    3.000    0.000    0.000 
#    0.000    0.000    0.000    0.000    0.000    0.000 
#
# Total GULP energy -89297.145306 kJ/mol
# GULP energy per Si atom -5581.071582 kJ/mol
# Density = 2.178176 g / cm^3
# Si number density = 21.831449 Si / 1000 Ang^3
#
#
#
# Elastic Constant Matrix: (Units=GPa)
#
#
# Indices 1 2 3 4 5 6 
#
# 1 110.2517 7.6171 27.9552 16.5736 -11.5823 -4.6889
# 2 7.6171 31.2506 -1.3143 11.8587 -9.4646 -1.2430
# 3 27.9552 -1.3143 151.3923 5.2002 3.0342 4.2679
# 4 16.5736 11.8587 5.2002 21.6550 -6.5403 -9.5352
# 5 -11.5823 -9.4646 3.0342 -6.5403 33.8154 2.8389
# 6 -4.6889 -1.2430 4.2679 -9.5352 2.8389 15.6934
#
#
#
# Elastic Compliance Matrix: (Units=1/GPa)
#
#
# Indices 1 2 3 4 5 6 
#
# 1 0.010926 0.001324 -0.001707 -0.008708 0.002746 -0.001954
# 2 0.001324 0.045442 0.001527 -0.031148 0.008427 -0.016870
# 3 -0.001707 0.001527 0.007195 -0.003466 -0.001116 -0.004250
# 4 -0.008708 -0.031148 -0.003466 0.094847 0.002501 0.053050
# 5 0.002746 0.008427 -0.001116 0.002501 0.033689 -0.002783
# 6 -0.001954 -0.016870 -0.004250 0.053050 -0.002783 0.095693
#
#
# Mechanical properties :
#
#
# Convention : Reuss Voigt Hill
#
# Bulk Modulus (GPa) = 15.18613 40.15674 27.67143
# Shear Modulus (GPa) = 16.26253 31.47519 23.86886
#
# Velocity S-wave (km/s) = 2.73227 3.80114 3.31013
# Velocity P-wave (km/s) = 4.11399 6.13993 5.22607
#
# Compressibility (1/GPa) = 0.06584956
#
# Stress axis : x y z
#
# Youngs Moduli (GPa) = 91.52565 22.00611 138.98510
#
# Poissons Ratio (x) = -0.02913 0.23722
# Poissons Ratio (y) = -0.12113 -0.21219
# Poissons Ratio (z) = 0.15622 -0.03360
#
# Static dielectric constant tensor:
#      x y z
#    x 1.836530 -0.039640 0.016360 
#    y -0.039640 1.833240 -0.044780 
#    z 0.016360 -0.044780 1.824720 
# 
# From -- ./inp_files/568333.got.cif
#   From: 2010.05.17/outbox.cif.g08.bks.cpg/sg2_285_cif.got.tgz:568333.got - 2010.06.03 11:33:40.
