data_PCOD9057941
_publ_section_title
;
Structure prediction by ZEFSAII (Michael W. Deem and Ramdas Pophale) SiO2 
 PCOD9057941
Probable space group: P -1
;
_chemical_formula_sum "Si O2"
_cell_formula_units_Z 16
_cell_length_a 13.917677
_cell_length_b 15.046499
_cell_length_c 11.752564
_cell_angle_alpha 40.650231
_cell_angle_beta 119.365256
_cell_angle_gamma 149.335569
_cell_volume 713.571901
_symmetry_space_group_name_H-M "P -1"
_symmetry_group_IT_number 2
_symmetry_cell_setting 'triclinic'
loop_
_space_group_symop_operation_xyz
x,y,z
-x,-y,-z
loop_
_atom_site_type_symbol
_atom_site_label
_atom_site_fract_x
_atom_site_fract_y
_atom_site_fract_z
Si Si1 0.541001 0.554564 0.701980
Si Si2 0.056821 0.025600 0.326991
Si Si3 0.030022 0.372269 0.635169
Si Si4 0.634031 0.413845 0.747844
Si Si5 0.654789 0.807796 0.860130
Si Si6 0.188536 0.444216 0.902640
Si Si7 0.450506 0.761843 0.367355
Si Si8 0.784318 0.339566 0.079431
O O1 0.792545 0.808681 0.634953
O O2 0.491044 0.380450 0.753786
O O3 0.503140 0.664033 0.529302
O O4 0.408716 0.381780 0.907231
O O5 0.201745 0.096696 0.251290
O O6 0.042013 0.164620 0.138087
O O7 0.836324 0.711335 0.523122
O O8 0.117051 0.406903 0.771327
O O9 0.205995 0.528729 0.488737
O O10 0.000000 0.500000 0.500000
O O11 0.803282 0.066386 0.766878
O O12 0.524219 0.211014 0.780548
O O13 0.715859 0.397387 0.907821
O O14 0.433809 0.646652 0.851880
O O15 0.181801 0.565811 0.866108
O O16 0.599509 0.029091 0.259002
O O17 0.000000 0.500000 0.000000
#
# Coordination Sequence:
#
# PCOD9057941 Si02
#       8
#     2   2   2   2   2   2   2   2
#     4  11  24  43  73 105 142 189 246 301 364 430
#     4  11  22  43  76 103 144 186 246 301 362 426
#     4  12  28  45  74 108 149 194 243 299 371 438
#     4  12  25  46  72 107 144 190 243 302 362 431
#     4  11  23  47  74 107 146 189 243 307 362 429
#     4  11  26  47  74 107 145 193 245 302 358 438
#     4  12  27  46  70 108 145 189 245 304 362 437
#     4  12  28  47  71 101 149 200 239 294 370 440
#
# _framework density 22.422407
#
# number of rings (size 3 to 8) (size 9 to 14) (size 15 to 20)
#    0.000    0.500    3.750    5.625    5.250    5.000 
#    0.000    0.000    0.000    0.000    0.000    0.000 
#    0.000    0.000    0.000    0.000    0.000    0.000 
#
# Total GULP energy -89647.090740 kJ/mol
# GULP energy per Si atom -5602.943171 kJ/mol
# Density = 2.237137 g / cm^3
# Si number density = 22.422407 Si / 1000 Ang^3
#
#
#
# Elastic Constant Matrix: (Units=GPa)
#
#
# Indices 1 2 3 4 5 6 
#
# 1 112.1377 15.8565 24.4087 5.5839 14.2915 -17.2999
# 2 15.8565 81.6555 19.5429 1.1314 26.3840 -9.0810
# 3 24.4087 19.5429 62.9826 -10.8431 23.9257 14.8150
# 4 5.5839 1.1314 -10.8431 33.4818 -5.3915 1.2255
# 5 14.2915 26.3840 23.9257 -5.3915 29.3742 -8.1302
# 6 -17.2999 -9.0810 14.8150 1.2255 -8.1302 33.4500
#
#
#
# Elastic Compliance Matrix: (Units=1/GPa)
#
#
# Indices 1 2 3 4 5 6 
#
# 1 0.012917 -0.000094 -0.011013 -0.005325 0.005402 0.013041
# 2 -0.000094 0.017620 -0.000191 -0.003245 -0.015925 0.001068
# 3 -0.011013 -0.000191 0.045684 0.011592 -0.039520 -0.036011
# 4 -0.005325 -0.003245 0.011592 0.034937 -0.000328 -0.010129
# 5 0.005402 -0.015925 -0.039520 -0.000328 0.088207 0.037425
# 6 0.013041 0.001068 -0.036011 -0.010129 0.037425 0.062347
#
#
# Mechanical properties :
#
#
# Convention : Reuss Voigt Hill
#
# Bulk Modulus (GPa) = 18.64841 41.82131 30.23486
# Shear Modulus (GPa) = 16.54635 32.39238 24.46936
#
# Velocity S-wave (km/s) = 2.71945 3.80497 3.30705
# Velocity P-wave (km/s) = 4.26561 6.16407 5.30053
#
# Compressibility (1/GPa) = 0.05362388
#
# Stress axis : x y z
#
# Youngs Moduli (GPa) = 77.42017 56.75430 21.88954
#
# Poissons Ratio (x) = 0.00533 0.24107
# Poissons Ratio (y) = 0.00728 0.00418
# Poissons Ratio (z) = 0.85263 0.01085
#
# Static dielectric constant tensor:
#      x y z
#    x 1.802060 -0.035100 -0.010030 
#    y -0.035100 1.841720 -0.018420 
#    z -0.010030 -0.018420 1.802300 
# 
# From -- ./inp_files/187805.got.cif
#   From: 2010.05.17/outbox.cif.g08.bks.cpg/sg2_94_cif.got.tgz:187805.got - 2010.06.03 11:33:40.
