data_PCOD9057955
_publ_section_title
;
Structure prediction by ZEFSAII (Michael W. Deem and Ramdas Pophale) SiO2 
 PCOD9057955
Probable space group: P -1
;
_chemical_formula_sum "Si O2"
_cell_formula_units_Z 14
_cell_length_a 8.762693
_cell_length_b 7.901351
_cell_length_c 20.735824
_cell_angle_alpha 52.146237
_cell_angle_beta 137.827567
_cell_angle_gamma 96.896397
_cell_volume 590.145592
_symmetry_space_group_name_H-M "P -1"
_symmetry_group_IT_number 2
_symmetry_cell_setting 'triclinic'
loop_
_space_group_symop_operation_xyz
x,y,z
-x,-y,-z
loop_
_atom_site_type_symbol
_atom_site_label
_atom_site_fract_x
_atom_site_fract_y
_atom_site_fract_z
Si Si1 0.541791 0.113511 0.581789
Si Si2 0.051383 0.779069 0.617973
Si Si3 0.528752 0.557350 0.923414
Si Si4 0.957896 0.503773 0.909283
Si Si5 0.564045 0.322471 0.802220
Si Si6 0.564907 0.426021 0.631287
Si Si7 0.759452 0.997739 0.056281
O O1 0.485974 0.295646 0.584294
O O2 0.596185 0.253638 0.509273
O O3 0.248382 0.151432 0.470756
O O4 0.800293 0.796018 0.755030
O O5 0.238223 0.745888 0.745565
O O6 0.261803 0.500561 0.706344
O O7 0.000000 0.000000 0.500000
O O8 0.500000 0.500000 0.000000
O O9 0.708870 0.260335 0.012179
O O10 0.700361 0.677803 0.957333
O O11 0.744409 0.434050 0.845939
O O12 0.000000 0.500000 0.000000
O O13 0.521749 0.351221 0.705902
O O14 0.747188 0.038535 0.965671
O O15 0.910430 0.272885 0.764008
O O16 0.500000 0.000000 0.000000
#
# Coordination Sequence:
#
# PCOD9057955 Si02
#       7
#     2   2   2   2   2   2   2
#     4  11  24  43  68  91 140 177 211 280 334 389
#     4  11  22  44  63  97 134 167 216 282 329 380
#     4  11  25  42  67 100 128 174 223 268 331 396
#     4  12  21  44  69  96 131 174 223 275 324 394
#     4  11  24  40  70  97 126 176 227 272 327 396
#     4  11  24  43  64  99 131 175 224 264 339 400
#     4  11  23  45  64  94 141 172 216 278 333 392
#
# _framework density 23.722961000000002
#
# number of rings (size 3 to 8) (size 9 to 14) (size 15 to 20)
#    0.000    0.857    5.714    2.143    4.000    2.286 
#    2.571    0.000    0.000    0.000    0.000    0.000 
#    0.000    0.000    0.000    0.000    0.000    0.000 
#
# Total GULP energy -78243.258752 kJ/mol
# GULP energy per Si atom -5588.804197 kJ/mol
# Density = 2.366897 g / cm^3
# Si number density = 23.722961 Si / 1000 Ang^3
#
#
#
# Elastic Constant Matrix: (Units=GPa)
#
#
# Indices 1 2 3 4 5 6 
#
# 1 91.5404 16.7293 25.8579 23.1309 -30.8003 -1.4612
# 2 16.7293 80.1547 28.4402 18.4476 -9.8314 6.8666
# 3 25.8579 28.4402 140.4036 18.4118 -21.4321 3.3023
# 4 23.1309 18.4476 18.4118 29.6606 4.8409 -2.3909
# 5 -30.8003 -9.8314 -21.4321 4.8409 52.1126 5.0049
# 6 -1.4612 6.8666 3.3023 -2.3909 5.0049 38.6005
#
#
#
# Elastic Compliance Matrix: (Units=1/GPa)
#
#
# Indices 1 2 3 4 5 6 
#
# 1 0.020522 0.002273 0.000842 -0.020642 0.015104 -0.002936
# 2 0.002273 0.016308 -0.001152 -0.012437 0.005505 -0.004201
# 3 0.000842 -0.001152 0.008758 -0.006249 0.004606 -0.001497
# 4 -0.020642 -0.012437 -0.006249 0.066108 -0.024140 0.009190
# 5 0.015104 0.005505 0.004606 -0.024140 0.033935 -0.006697
# 6 -0.002936 -0.004201 -0.001497 0.009190 -0.006697 0.028108
#
#
# Mechanical properties :
#
#
# Convention : Reuss Voigt Hill
#
# Bulk Modulus (GPa) = 20.19642 50.46148 35.32895
# Shear Modulus (GPa) = 26.83587 40.14615 33.49101
#
# Velocity S-wave (km/s) = 3.36701 4.11821 3.76141
# Velocity P-wave (km/s) = 4.86288 6.62799 5.81282
#
# Compressibility (1/GPa) = 0.04951372
#
# Stress axis : x y z
#
# Youngs Moduli (GPa) = 48.72834 61.32074 114.17486
#
# Poissons Ratio (x) = -0.13939 -0.09608
# Poissons Ratio (y) = -0.11076 0.13151
# Poissons Ratio (z) = -0.04101 0.07063
#
# Static dielectric constant tensor:
#      x y z
#    x 1.840890 -0.034390 0.044340 
#    y -0.034390 1.941000 -0.054790 
#    z 0.044340 -0.054790 1.961710 
# 
# From -- ./inp_files/156602.got.cif
#   From: 2010.05.17/outbox.cif.g08.bks.cpg/sg2_79_cif.got.tgz:156602.got - 2010.06.03 11:33:40.
