data_PCOD9057774
_publ_section_title
;
Structure prediction by ZEFSAII (Michael W. Deem and Ramdas Pophale) SiO2 
 PCOD9057774
Probable space group: P -1
;
_chemical_formula_sum "Si O2"
_cell_formula_units_Z 16
_cell_length_a 16.770094
_cell_length_b 9.570073
_cell_length_c 6.618553
_cell_angle_alpha 68.219147
_cell_angle_beta 100.845299
_cell_angle_gamma 132.972555
_cell_volume 718.432501
_symmetry_space_group_name_H-M "P -1"
_symmetry_group_IT_number 2
_symmetry_cell_setting 'triclinic'
loop_
_space_group_symop_operation_xyz
x,y,z
-x,-y,-z
loop_
_atom_site_type_symbol
_atom_site_label
_atom_site_fract_x
_atom_site_fract_y
_atom_site_fract_z
Si Si1 0.996081 0.833856 0.978116
Si Si2 0.107044 0.532314 0.572854
Si Si3 0.609543 0.728216 0.466880
Si Si4 0.666589 0.553557 0.892098
Si Si5 0.222513 0.177241 0.808943
Si Si6 0.349314 0.911754 0.525202
Si Si7 0.840012 0.645261 0.636047
Si Si8 0.494624 0.884595 0.866811
O O1 0.941165 0.786560 0.760137
O O2 0.927901 0.630148 0.184391
O O3 0.123283 0.949891 0.957218
O O4 0.000000 0.000000 0.000000
O O5 0.218623 0.756965 0.564632
O O6 0.141764 0.480125 0.420007
O O7 0.000000 0.500000 0.500000
O O8 0.500000 0.500000 0.500000
O O9 0.665061 0.709205 0.690177
O O10 0.685785 0.804712 0.268445
O O11 0.594883 0.880240 0.443322
O O12 0.734365 0.523478 0.797483
O O13 0.726314 0.661556 0.072489
O O14 0.546827 0.333400 0.980457
O O15 0.174526 0.235465 0.591063
O O16 0.399100 0.826271 0.701402
O O17 0.394282 0.972936 0.285482
O O18 0.500000 0.000000 0.000000
#
# Coordination Sequence:
#
# PCOD9057774 Si02
#       8
#     2   2   2   2   2   2   2   2
#     4  12  24  44  72 100 128 182 235 278 330 404
#     4  12  29  45  65 100 149 184 226 281 346 410
#     4  11  26  45  69 103 139 176 222 288 347 402
#     4  11  23  42  71 102 129 174 230 283 337 411
#     4  11  24  41  71 101 132 172 232 285 336 395
#     4  11  26  46  66 101 142 177 225 284 341 407
#     4  11  22  43  70  97 137 173 232 279 336 397
#     4  11  23  44  74  97 131 178 230 277 347 406
#
# _framework density 22.270707000000002
#
# number of rings (size 3 to 8) (size 9 to 14) (size 15 to 20)
#    0.000    0.750    2.500    4.125    3.500    7.500 
#    2.250    0.000    0.000    0.000    0.000    0.000 
#    0.000    0.000    0.000    0.000    0.000    0.000 
#
# Total GULP energy -89548.412967 kJ/mol
# GULP energy per Si atom -5596.775810 kJ/mol
# Density = 2.222002 g / cm^3
# Si number density = 22.270707 Si / 1000 Ang^3
#
#
#
# Elastic Constant Matrix: (Units=GPa)
#
#
# Indices 1 2 3 4 5 6 
#
# 1 70.1660 3.0062 20.5877 -8.2853 -11.4919 8.3477
# 2 3.0062 89.8701 36.7727 0.1429 -6.6990 18.2159
# 3 20.5877 36.7727 112.9185 4.7875 -17.6453 7.6662
# 4 -8.2853 0.1429 4.7875 36.1453 6.3788 -7.8177
# 5 -11.4919 -6.6990 -17.6453 6.3788 36.3885 -3.4352
# 6 8.3477 18.2159 7.6662 -7.8177 -3.4352 41.8071
#
#
#
# Elastic Compliance Matrix: (Units=1/GPa)
#
#
# Indices 1 2 3 4 5 6 
#
# 1 0.016207 0.001365 -0.002852 0.002980 0.003229 -0.002485
# 2 0.001365 0.014038 -0.004346 -0.000468 0.000457 -0.005642
# 3 -0.002852 -0.004346 0.011601 -0.002925 0.004452 0.000155
# 4 0.002980 -0.000468 -0.002925 0.030886 -0.005461 0.005472
# 5 0.003229 0.000457 0.004452 -0.005461 0.031694 -0.000077
# 6 -0.002485 -0.005642 0.000155 0.005472 -0.000077 0.027862
#
#
# Mechanical properties :
#
#
# Convention : Reuss Voigt Hill
#
# Bulk Modulus (GPa) = 33.13662 43.74310 38.43986
# Shear Modulus (GPa) = 32.46441 37.04071 34.75256
#
# Velocity S-wave (km/s) = 3.82215 4.08266 3.95455
# Velocity P-wave (km/s) = 5.86428 6.47367 6.17649
#
# Compressibility (1/GPa) = 0.03017809
#
# Stress axis : x y z
#
# Youngs Moduli (GPa) = 61.70257 71.23368 86.20312
#
# Poissons Ratio (x) = -0.09721 0.24587
# Poissons Ratio (y) = -0.08420 0.37465
# Poissons Ratio (z) = 0.17599 0.30959
#
# Static dielectric constant tensor:
#      x y z
#    x 1.844630 0.035430 0.004710 
#    y 0.035430 1.800770 -0.014480 
#    z 0.004710 -0.014480 1.835490 
# 
# From -- ./inp_files/106716.got.cif
#   From: 2010.05.17/outbox.cif.g08.bks.cpg/sg2_54_cif.got.tgz:106716.got - 2010.06.03 11:33:40.
