data_PCOD9057534
_publ_section_title
;
Structure prediction by ZEFSAII (Michael W. Deem and Ramdas Pophale) SiO2 
 PCOD9057534
Probable space group: P -1
;
_chemical_formula_sum "Si O2"
_cell_formula_units_Z 16
_cell_length_a 9.509496
_cell_length_b 24.458826
_cell_length_c 8.504462
_cell_angle_alpha 147.661124
_cell_angle_beta 46.254298
_cell_angle_gamma 146.141718
_cell_volume 589.176929
_symmetry_space_group_name_H-M "P -1"
_symmetry_group_IT_number 2
_symmetry_cell_setting 'triclinic'
loop_
_space_group_symop_operation_xyz
x,y,z
-x,-y,-z
loop_
_atom_site_type_symbol
_atom_site_label
_atom_site_fract_x
_atom_site_fract_y
_atom_site_fract_z
Si Si1 0.703985 0.018667 0.699486
Si Si2 0.537257 0.506038 0.799090
Si Si3 0.312666 0.621976 0.163438
Si Si4 0.024168 0.718749 0.731186
Si Si5 0.285969 0.858248 0.397260
Si Si6 0.969695 0.867055 0.855764
Si Si7 0.219412 0.120144 0.421707
Si Si8 0.575820 0.303039 0.108067
O O1 0.955253 0.091157 0.575606
O O2 0.428281 0.899786 0.558531
O O3 0.755950 0.952511 0.631009
O O4 0.733217 0.143983 0.044152
O O5 0.554574 0.395596 0.455890
O O6 0.792017 0.634161 0.827102
O O7 0.500000 0.500000 0.000000
O O8 0.306781 0.497885 0.888675
O O9 0.095349 0.629145 0.398481
O O10 0.540206 0.729225 0.368307
O O11 0.366972 0.655121 0.016926
O O12 0.958139 0.778660 0.790606
O O13 0.022242 0.822562 0.549693
O O14 0.500000 0.000000 0.500000
O O15 0.255655 0.734681 0.054547
O O16 0.706656 0.835294 0.001197
O O17 0.180264 0.026520 0.084798
#
# Coordination Sequence:
#
# PCOD9057534 Si02
#       8
#     2   2   2   2   2   2   2   2
#     4  10  18  38  65 103 138 170 221 274 345 412
#     4  12  30  48  67  99 139 186 239 294 355 405
#     4  12  22  44  76 105 134 182 235 294 337 417
#     4  11  23  41  77 102 132 181 236 288 344 409
#     4  12  26  42  66 108 147 180 221 286 357 420
#     4  11  22  41  71 107 137 181 227 284 350 417
#     4  10  17  36  73 101 134 172 220 283 337 410
#     4  12  25  47  71  99 141 186 242 284 341 421
#
# _framework density 27.156527000000001
#
# number of rings (size 3 to 8) (size 9 to 14) (size 15 to 20)
#    0.000    0.750    6.250    1.875    0.000    7.500 
#    0.000    0.000    0.000    0.000    0.000    0.000 
#    0.000    0.000    0.000    0.000    0.000    0.000 
#
# Total GULP energy -89485.300582 kJ/mol
# GULP energy per Si atom -5592.831286 kJ/mol
# Density = 2.709472 g / cm^3
# Si number density = 27.156527 Si / 1000 Ang^3
#
#
#
# Elastic Constant Matrix: (Units=GPa)
#
#
# Indices 1 2 3 4 5 6 
#
# 1 36.1686 33.4938 15.1480 -23.5249 -3.2973 -13.2250
# 2 33.4938 110.6178 37.9273 -22.5567 0.0224 -10.5704
# 3 15.1480 37.9273 184.7229 -12.4612 -26.2515 -8.8222
# 4 -23.5249 -22.5567 -12.4612 54.8918 12.7733 4.2780
# 5 -3.2973 0.0224 -26.2515 12.7733 37.4392 -2.8211
# 6 -13.2250 -10.5704 -8.8222 4.2780 -2.8211 51.2726
#
#
#
# Elastic Compliance Matrix: (Units=1/GPa)
#
#
# Indices 1 2 3 4 5 6 
#
# 1 0.053368 -0.011490 -0.000493 0.017475 -0.000861 0.009807
# 2 -0.011490 0.013359 -0.002197 0.000804 -0.002896 -0.000814
# 3 -0.000493 -0.002197 0.006592 -0.000835 0.004933 0.000895
# 4 0.017475 0.000804 -0.000835 0.027653 -0.008349 0.001763
# 5 -0.000861 -0.002896 0.004933 -0.008349 0.033135 0.002549
# 6 0.009807 -0.000814 0.000895 0.001763 0.002549 0.022012
#
#
# Mechanical properties :
#
#
# Convention : Reuss Voigt Hill
#
# Bulk Modulus (GPa) = 22.24148 56.07195 39.15671
# Shear Modulus (GPa) = 25.06709 45.05007 35.05858
#
# Velocity S-wave (km/s) = 3.04149 4.07738 3.59692
# Velocity P-wave (km/s) = 4.53234 6.54670 5.63033
#
# Compressibility (1/GPa) = 0.04496104
#
# Stress axis : x y z
#
# Youngs Moduli (GPa) = 18.73794 74.85526 151.68954
#
# Poissons Ratio (x) = 0.86006 0.07471
# Poissons Ratio (y) = 0.21529 0.33324
# Poissons Ratio (z) = 0.00923 0.16445
#
# Static dielectric constant tensor:
#      x y z
#    x 2.239010 -0.015900 0.092590 
#    y -0.015900 2.115700 0.030620 
#    z 0.092590 0.030620 2.243740 
# 
# From -- ./inp_files/285869.got.cif
#   From: 2010.05.17/outbox.cif.g08.bks.cpg/sg2_143_cif.got.tgz:285869.got - 2010.06.03 11:33:40.
