data_PCOD9057445
_publ_section_title
;
Structure prediction by ZEFSAII (Michael W. Deem and Ramdas Pophale) SiO2 
 PCOD9057445
Probable space group: P -1
;
_chemical_formula_sum "Si O2"
_cell_formula_units_Z 16
_cell_length_a 11.480316
_cell_length_b 21.451960
_cell_length_c 11.512357
_cell_angle_alpha 30.316870
_cell_angle_beta 30.138796
_cell_angle_gamma 39.158006
_cell_volume 713.906993
_symmetry_space_group_name_H-M "P -1"
_symmetry_group_IT_number 2
_symmetry_cell_setting 'triclinic'
loop_
_space_group_symop_operation_xyz
x,y,z
-x,-y,-z
loop_
_atom_site_type_symbol
_atom_site_label
_atom_site_fract_x
_atom_site_fract_y
_atom_site_fract_z
Si Si1 0.204407 0.536725 0.347755
Si Si2 0.734481 0.958000 0.782552
Si Si3 0.277125 0.499221 0.004921
Si Si4 0.869521 0.674021 0.068394
Si Si5 0.308779 0.845653 0.961993
Si Si6 0.924195 0.746331 0.338342
Si Si7 0.368435 0.396616 0.841754
Si Si8 0.518472 0.941113 0.387298
O O1 0.476165 0.513341 0.124629
O O2 0.000000 0.500000 0.500000
O O3 0.141762 0.686364 0.170801
O O4 0.214344 0.442925 0.601410
O O5 0.772676 0.807119 0.987756
O O6 0.660829 0.008226 0.637337
O O7 0.000000 0.000000 0.500000
O O8 0.500000 0.000000 0.000000
O O9 0.263685 0.466705 0.932767
O O10 0.146172 0.637629 0.906396
O O11 0.158162 0.383288 0.344229
O O12 0.796035 0.658930 0.022127
O O13 0.403170 0.891813 0.682900
O O14 0.346356 0.946179 0.864890
O O15 0.455941 0.717055 0.078011
O O16 0.041756 0.819359 0.220731
O O17 0.706463 0.836018 0.338466
O O18 0.500000 0.500000 0.500000
#
# Coordination Sequence:
#
# PCOD9057445 Si02
#       8
#     2   2   2   2   2   2   2   2
#     4  11  25  42  69  99 141 186 242 299 369 444
#     4  12  32  54  77 109 153 215 265 315 377 456
#     4  11  23  44  70 108 142 189 234 312 388 459
#     4  11  26  45  71 106 142 191 246 312 377 452
#     4  11  23  44  71 111 144 187 247 313 394 450
#     4  11  22  42  70 107 140 182 241 304 379 451
#     4  12  20  43  71 106 150 183 238 310 394 457
#     4  11  25  46  75 104 149 195 252 313 378 463
#
# _framework density 22.411883
#
# number of rings (size 3 to 8) (size 9 to 14) (size 15 to 20)
#    0.000    0.750    5.000    1.500    5.250    3.000 
#    2.250    0.000    0.000    0.000    0.000    0.000 
#    0.000    0.000    0.000    0.000    0.000    0.000 
#
# Total GULP energy -89172.923130 kJ/mol
# GULP energy per Si atom -5573.307696 kJ/mol
# Density = 2.236087 g / cm^3
# Si number density = 22.411883 Si / 1000 Ang^3
#
#
#
# Elastic Constant Matrix: (Units=GPa)
#
#
# Indices 1 2 3 4 5 6 
#
# 1 132.1344 46.9432 33.2478 -1.0213 -19.3380 -12.8315
# 2 46.9432 171.0641 25.9981 -16.4837 -4.6333 -22.7253
# 3 33.2478 25.9981 48.4679 -11.3373 -12.1652 -9.4826
# 4 -1.0213 -16.4837 -11.3373 30.8926 -5.8477 2.3908
# 5 -19.3380 -4.6333 -12.1652 -5.8477 41.7867 3.2155
# 6 -12.8315 -22.7253 -9.4826 2.3908 3.2155 40.9748
#
#
#
# Elastic Compliance Matrix: (Units=1/GPa)
#
#
# Indices 1 2 3 4 5 6 
#
# 1 0.010106 -0.001982 -0.005692 -0.002411 0.002409 0.000700
# 2 -0.001982 0.007268 -0.001325 0.003041 -0.000299 0.002949
# 3 -0.005692 -0.001325 0.030422 0.011421 0.007422 0.003274
# 4 -0.002411 0.003041 0.011421 0.039577 0.008036 0.000635
# 5 0.002409 -0.000299 0.007422 0.008036 0.028328 -0.000385
# 6 0.000700 0.002949 0.003274 0.000635 -0.000385 0.027011
#
#
# Mechanical properties :
#
#
# Convention : Reuss Voigt Hill
#
# Bulk Modulus (GPa) = 33.55887 62.67162 48.11524
# Shear Modulus (GPa) = 29.30079 39.09598 34.19838
#
# Velocity S-wave (km/s) = 3.61969 4.18117 3.91052
# Velocity P-wave (km/s) = 5.69875 7.16476 6.47339
#
# Compressibility (1/GPa) = 0.02979838
#
# Stress axis : x y z
#
# Youngs Moduli (GPa) = 98.94736 137.58997 32.87044
#
# Poissons Ratio (x) = 0.27276 0.18709
# Poissons Ratio (y) = 0.19616 0.04356
# Poissons Ratio (z) = 0.56318 0.18232
#
# Static dielectric constant tensor:
#      x y z
#    x 1.762450 0.006440 -0.013540 
#    y 0.006440 1.991540 0.167080 
#    z -0.013540 0.167080 1.969640 
# 
# From -- ./inp_files/371588.got.cif
#   From: 2010.05.17/outbox.cif.g08.bks.cpg/sg2_186_cif.got.tgz:371588.got - 2010.06.03 11:33:40.
