data_PCOD9057265
_publ_section_title
;
Structure prediction by ZEFSAII (Michael W. Deem and Ramdas Pophale) SiO2 
 PCOD9057265
Probable space group: P -1
;
_chemical_formula_sum "Si O2"
_cell_formula_units_Z 12
_cell_length_a 7.588039
_cell_length_b 8.795448
_cell_length_c 11.575451
_cell_angle_alpha 115.751708
_cell_angle_beta 102.468607
_cell_angle_gamma 110.078645
_cell_volume 589.545519
_symmetry_space_group_name_H-M "P -1"
_symmetry_group_IT_number 2
_symmetry_cell_setting 'triclinic'
loop_
_space_group_symop_operation_xyz
x,y,z
-x,-y,-z
loop_
_atom_site_type_symbol
_atom_site_label
_atom_site_fract_x
_atom_site_fract_y
_atom_site_fract_z
Si Si1 0.046177 0.454482 0.365755
Si Si2 0.209831 0.546499 0.882758
Si Si3 0.424238 0.459215 0.185624
Si Si4 0.484535 0.794142 0.452164
Si Si5 0.025679 0.748571 0.065557
Si Si6 0.752245 0.805500 0.713167
O O1 0.253811 0.640991 0.411000
O O2 0.093854 0.278140 0.316757
O O3 0.000000 0.500000 0.500000
O O4 0.868504 0.417449 0.237622
O O5 0.430472 0.564083 0.895016
O O6 0.046754 0.336334 0.844052
O O7 0.190024 0.689891 0.019080
O O8 0.513889 0.683400 0.309721
O O9 0.407359 0.340101 0.261110
O O10 0.187670 0.364838 0.075631
O O11 0.637013 0.807941 0.581204
O O12 0.500000 0.000000 0.500000
O O13 0.122479 0.977226 0.149225
#
# Coordination Sequence:
#
# PCOD9057265 Si02
#       6
#     2   2   2   2   2   2
#     4  11  22  42  65  94 128 167 214 262 313 375
#     4  11  23  41  68  91 131 170 209 257 322 372
#     4  11  23  44  65  93 130 167 214 260 316 376
#     4  11  23  41  65  92 129 167 213 264 313 374
#     4  11  24  43  64  95 134 165 210 263 316 379
#     4  11  23  41  65  94 131 165 212 267 313 374
#
# _framework density 20.354662000000001
#
# number of rings (size 3 to 8) (size 9 to 14) (size 15 to 20)
#    0.000    1.000    3.333    6.000    2.333    2.000 
#    3.000    3.333    0.000    0.000    0.000    0.000 
#    0.000    0.000    0.000    0.000    0.000    0.000 
#
# Total GULP energy -67082.001185 kJ/mol
# GULP energy per Si atom -5590.166765 kJ/mol
# Density = 2.030833 g / cm^3
# Si number density = 20.354662 Si / 1000 Ang^3
#
#
#
# Elastic Constant Matrix: (Units=GPa)
#
#
# Indices 1 2 3 4 5 6 
#
# 1 132.3654 42.7441 40.2253 4.7869 -30.1768 -2.2652
# 2 42.7441 92.8003 33.2066 13.8847 -19.4467 -35.1620
# 3 40.2253 33.2066 87.9557 6.0837 -0.9846 -19.4440
# 4 4.7869 13.8847 6.0837 46.1196 -11.9515 -5.8562
# 5 -30.1768 -19.4467 -0.9846 -11.9515 35.8580 -9.9489
# 6 -2.2652 -35.1620 -19.4440 -5.8562 -9.9489 31.4402
#
#
#
# Elastic Compliance Matrix: (Units=1/GPa)
#
#
# Indices 1 2 3 4 5 6 
#
# 1 0.011816 -0.004009 -0.004825 0.001977 0.007195 -0.003971
# 2 -0.004009 0.043358 -0.001024 0.005256 0.038735 0.060805
# 3 -0.004825 -0.001024 0.015586 -0.000994 -0.002533 0.007159
# 4 0.001977 0.005256 -0.000994 0.026678 0.017823 0.016015
# 5 0.007195 0.038735 -0.002533 0.017823 0.080541 0.071078
# 6 -0.003971 0.060805 0.007159 0.016015 0.071078 0.129426
#
#
# Mechanical properties :
#
#
# Convention : Reuss Voigt Hill
#
# Bulk Modulus (GPa) = 19.59053 60.60815 40.09934
# Shear Modulus (GPa) = 14.52913 35.81325 25.17119
#
# Velocity S-wave (km/s) = 2.67460 4.19914 3.52039
# Velocity P-wave (km/s) = 4.37989 7.30418 6.02223
#
# Compressibility (1/GPa) = 0.05104508
#
# Stress axis : x y z
#
# Youngs Moduli (GPa) = 84.62754 23.06357 64.16211
#
# Poissons Ratio (x) = 0.09246 0.30956
# Poissons Ratio (y) = 0.33927 0.06571
# Poissons Ratio (z) = 0.40829 0.02362
#
# Static dielectric constant tensor:
#      x y z
#    x 1.717440 -0.019650 -0.001000 
#    y -0.019650 1.727890 -0.044970 
#    z -0.001000 -0.044970 1.762630 
# 
# From -- ./inp_files/374833.got.cif
#   From: 2010.05.17/outbox.cif.g08.bks.cpg/sg2_188_cif.got.tgz:374833.got - 2010.06.03 11:33:40.
