data_PCOD9057226
_publ_section_title
;
Structure prediction by ZEFSAII (Michael W. Deem and Ramdas Pophale) SiO2 
 PCOD9057226
Probable space group: P -1
;
_chemical_formula_sum "Si O2"
_cell_formula_units_Z 12
_cell_length_a 9.007719
_cell_length_b 8.548411
_cell_length_c 12.406785
_cell_angle_alpha 126.352891
_cell_angle_beta 113.668829
_cell_angle_gamma 47.689994
_cell_volume 568.988630
_symmetry_space_group_name_H-M "P -1"
_symmetry_group_IT_number 2
_symmetry_cell_setting 'triclinic'
loop_
_space_group_symop_operation_xyz
x,y,z
-x,-y,-z
loop_
_atom_site_type_symbol
_atom_site_label
_atom_site_fract_x
_atom_site_fract_y
_atom_site_fract_z
Si Si1 0.634603 0.842338 0.376800
Si Si2 0.962182 0.142971 0.728519
Si Si3 0.045948 0.675253 0.442856
Si Si4 0.538865 0.440814 0.860422
Si Si5 0.465431 0.298300 0.391625
Si Si6 0.384363 0.901356 0.871065
O O1 0.538755 0.720989 0.249281
O O2 0.865246 0.654272 0.392418
O O3 0.500000 0.000000 0.500000
O O4 0.628327 0.042580 0.385474
O O5 0.932957 0.273036 0.656861
O O6 0.762254 0.296001 0.809445
O O7 0.008718 0.889538 0.595919
O O8 0.157119 0.080604 0.828973
O O9 0.248604 0.421165 0.427994
O O10 0.401589 0.700827 0.869442
O O11 0.500000 0.500000 0.000000
O O12 0.500000 0.500000 0.500000
O O13 0.476003 0.244652 0.248898
O O14 0.500000 0.000000 0.000000
#
# Coordination Sequence:
#
# PCOD9057226 Si02
#       6
#     2   2   2   2   2   2
#     4  12  25  42  69 108 142 174 226 295 349 393
#     4  11  23  44  74 103 135 183 235 281 340 416
#     4  11  22  41  76 106 133 179 236 282 339 414
#     4  12  28  47  67 103 148 179 223 296 351 400
#     4  12  22  42  73 103 134 184 234 279 337 413
#     4  12  26  45  73 100 136 188 236 278 339 422
#
# _framework density 21.090053999999999
#
# number of rings (size 3 to 8) (size 9 to 14) (size 15 to 20)
#    0.000    0.333    6.667    3.000    0.000    4.667 
#    0.000    0.000    0.000    0.000    0.000    0.000 
#    0.000    0.000    0.000    0.000    0.000    0.000 
#
# Total GULP energy -66952.831094 kJ/mol
# GULP energy per Si atom -5579.402591 kJ/mol
# Density = 2.104205 g / cm^3
# Si number density = 21.090054 Si / 1000 Ang^3
#
#
#
# Elastic Constant Matrix: (Units=GPa)
#
#
# Indices 1 2 3 4 5 6 
#
# 1 113.3234 20.1004 55.9285 1.0410 -0.1505 -35.0887
# 2 20.1004 62.5710 12.8909 -3.0500 6.9963 -15.2131
# 3 55.9285 12.8909 174.0100 5.5409 8.2648 -5.7165
# 4 1.0410 -3.0500 5.5409 24.1714 3.0694 1.3407
# 5 -0.1505 6.9963 8.2648 3.0694 47.5652 -5.0893
# 6 -35.0887 -15.2131 -5.7165 1.3407 -5.0893 50.7671
#
#
#
# Elastic Compliance Matrix: (Units=1/GPa)
#
#
# Indices 1 2 3 4 5 6 
#
# 1 0.013919 -0.001721 -0.004131 -0.000615 0.002002 0.008856
# 2 -0.001721 0.017976 -0.000625 0.002565 -0.002297 0.003829
# 3 -0.004131 -0.000625 0.007147 -0.001240 -0.001333 -0.002339
# 4 -0.000615 0.002565 -0.001240 0.042459 -0.003034 -0.001222
# 5 0.002002 -0.002297 -0.001333 -0.003034 0.022099 0.002841
# 6 0.008856 0.003829 -0.002339 -0.001222 0.002841 0.027020
#
#
# Mechanical properties :
#
#
# Convention : Reuss Voigt Hill
#
# Bulk Modulus (GPa) = 38.33199 58.63823 48.48511
# Shear Modulus (GPa) = 32.83646 41.89972 37.36809
#
# Velocity S-wave (km/s) = 3.95012 4.46208 4.21388
# Velocity P-wave (km/s) = 6.24655 7.37638 6.83485
#
# Compressibility (1/GPa) = 0.02608787
#
# Stress axis : x y z
#
# Youngs Moduli (GPa) = 71.84600 55.62874 139.92378
#
# Poissons Ratio (x) = 0.09573 0.57798
# Poissons Ratio (y) = 0.12364 0.08751
# Poissons Ratio (z) = 0.29677 0.03479
#
# Static dielectric constant tensor:
#      x y z
#    x 1.661080 -0.167130 0.038010 
#    y -0.167130 1.562720 -0.005470 
#    z 0.038010 -0.005470 1.724020 
# 
# From -- ./inp_files/157934.got.cif
#   From: 2010.05.17/outbox.cif.g08.bks.cpg/sg2_79_cif.got.tgz:157934.got - 2010.06.03 11:33:40.
