data_PCOD9057357
_publ_section_title
;
Structure prediction by ZEFSAII (Michael W. Deem and Ramdas Pophale) SiO2 
 PCOD9057357
Probable space group: P -1
;
_chemical_formula_sum "Si O2"
_cell_formula_units_Z 11
_cell_length_a 12.055897
_cell_length_b 7.365725
_cell_length_c 9.790295
_cell_angle_alpha 70.275417
_cell_angle_beta 149.800243
_cell_angle_gamma 109.072340
_cell_volume 410.523880
_symmetry_space_group_name_H-M "P -1"
_symmetry_group_IT_number 2
_symmetry_cell_setting 'triclinic'
loop_
_space_group_symop_operation_xyz
x,y,z
-x,-y,-z
loop_
_atom_site_type_symbol
_atom_site_label
_atom_site_fract_x
_atom_site_fract_y
_atom_site_fract_z
Si Si1 0.299759 0.669436 0.394909
Si Si2 0.049406 0.205708 0.574095
Si Si3 0.512371 0.294802 0.691929
Si Si4 0.543944 0.286396 0.145158
Si Si5 0.918343 0.561787 0.174674
Si Si6 0.500000 0.000000 0.000000
O O1 0.322380 0.442404 0.442579
O O2 0.408018 0.775631 0.352657
O O3 0.412746 0.726634 0.646152
O O4 0.044688 0.678106 0.157711
O O5 0.742216 0.206668 0.284570
O O6 0.056796 0.395378 0.433210
O O7 0.000000 0.000000 0.500000
O O8 0.348170 0.155704 0.893844
O O9 0.706553 0.442052 0.921778
O O10 0.466532 0.125669 0.792041
O O11 0.500000 0.500000 0.000000
O O12 0.108076 0.287711 0.769965
#
# Coordination Sequence:
#
# PCOD9057357 Si02
#       6
#     2   2   2   2   2   1
#     4  11  24  43  70  99 140 179 224 284 345 401
#     4  11  23  37  65 105 134 175 230 281 332 407
#     4  11  24  45  69 102 135 182 228 283 341 407
#     4  12  22  43  67 101 135 180 225 284 339 406
#     4  11  22  42  68  96 137 181 223 276 346 402
#     4  12  24  40  74  96 132 180 232 270 340 408
#
# _framework density 26.795031000000002
#
# number of rings (size 3 to 8) (size 9 to 14) (size 15 to 20)
#    0.000    0.727    5.455    1.636    5.091    0.727 
#    0.000    0.000    0.000    3.273    0.000    0.000 
#    0.000    0.000    0.000    0.000    0.000    0.000 
#
# Total GULP energy -61372.763637 kJ/mol
# GULP energy per Si atom -5579.342149 kJ/mol
# Density = 2.673404 g / cm^3
# Si number density = 26.795031 Si / 1000 Ang^3
#
#
#
# Elastic Constant Matrix: (Units=GPa)
#
#
# Indices 1 2 3 4 5 6 
#
# 1 283.2998 78.6503 32.8183 -11.3231 -4.4571 -21.4897
# 2 78.6503 160.6339 48.1696 -0.9255 4.5593 -32.5678
# 3 32.8183 48.1696 94.0800 20.5864 4.6858 -21.3014
# 4 -11.3231 -0.9255 20.5864 70.7740 -6.2166 9.7996
# 5 -4.4571 4.5593 4.6858 -6.2166 41.8923 -7.8202
# 6 -21.4897 -32.5678 -21.3014 9.7996 -7.8202 65.0828
#
#
#
# Elastic Compliance Matrix: (Units=1/GPa)
#
#
# Indices 1 2 3 4 5 6 
#
# 1 0.004182 -0.001807 -0.000730 0.000908 0.000897 0.000209
# 2 -0.001807 0.008621 -0.003283 0.000405 -0.000226 0.002555
# 3 -0.000730 -0.003283 0.014506 -0.004982 -0.001440 0.003441
# 4 0.000908 0.000405 -0.004982 0.016400 0.002426 -0.003306
# 5 0.000897 -0.000226 -0.001440 0.002426 0.024949 0.002344
# 6 0.000209 0.002555 0.003441 -0.003306 0.002344 0.018618
#
#
# Mechanical properties :
#
#
# Convention : Reuss Voigt Hill
#
# Bulk Modulus (GPa) = 63.81393 95.25443 79.53418
# Shear Modulus (GPa) = 48.01302 60.77485 54.39394
#
# Velocity S-wave (km/s) = 4.23763 4.76766 4.51044
# Velocity P-wave (km/s) = 6.91453 8.11997 7.54137
#
# Compressibility (1/GPa) = 0.01567056
#
# Stress axis : x y z
#
# Youngs Moduli (GPa) = 239.10876 115.99489 68.93915
#
# Poissons Ratio (x) = 0.20957 0.05031
# Poissons Ratio (y) = 0.43200 0.22630
# Poissons Ratio (z) = 0.17450 0.38077
#
# Static dielectric constant tensor:
#      x y z
#    x 2.133830 -0.126860 0.179830 
#    y -0.126860 1.680300 -0.500470 
#    z 0.179830 -0.500470 2.058000 
# 
# From -- ./inp_files/412264.got.cif
#   From: 2010.05.17/outbox.cif.g08.bks.cpg/sg2_207_cif.got.tgz:412264.got - 2010.06.03 11:33:40.
