data_PCOD9057488
_publ_section_title
;
Structure prediction by ZEFSAII (Michael W. Deem and Ramdas Pophale) SiO2 
 PCOD9057488
Probable space group: P -1
;
_chemical_formula_sum "Si O2"
_cell_formula_units_Z 16
_cell_length_a 14.507055
_cell_length_b 27.047947
_cell_length_c 7.486417
_cell_angle_alpha 137.236150
_cell_angle_beta 126.593446
_cell_angle_gamma 20.682890
_cell_volume 652.124881
_symmetry_space_group_name_H-M "P -1"
_symmetry_group_IT_number 2
_symmetry_cell_setting 'triclinic'
loop_
_space_group_symop_operation_xyz
x,y,z
-x,-y,-z
loop_
_atom_site_type_symbol
_atom_site_label
_atom_site_fract_x
_atom_site_fract_y
_atom_site_fract_z
Si Si1 0.852153 0.290102 0.705962
Si Si2 0.772670 0.951453 0.952337
Si Si3 0.758871 0.046375 0.550953
Si Si4 0.226629 0.332113 0.939392
Si Si5 0.283395 0.426632 0.502085
Si Si6 0.714166 0.434272 0.314540
Si Si7 0.182898 0.235730 0.877543
Si Si8 0.088587 0.975916 0.840453
O O1 0.595817 0.419181 0.620464
O O2 0.749012 0.394100 0.037758
O O3 0.978696 0.145787 0.561736
O O4 0.092104 0.204115 0.676683
O O5 0.693846 0.041452 0.281613
O O6 0.491660 0.072458 0.884174
O O7 0.877779 0.956534 0.959199
O O8 0.032207 0.748943 0.770344
O O9 0.513112 0.178520 0.758461
O O10 0.844391 0.080811 0.716914
O O11 0.221821 0.380842 0.245364
O O12 0.179558 0.276524 0.790775
O O13 0.000000 0.500000 0.000000
O O14 0.275933 0.484186 0.471738
O O15 0.609613 0.232698 0.420630
O O16 0.056846 0.585913 0.805143
O O17 0.000000 0.000000 0.000000
#
# Coordination Sequence:
#
# PCOD9057488 Si02
#       8
#     2   2   2   2   2   2   2   2
#     4   9  20  39  65  93 130 168 218 266 320 382
#     4  11  24  41  69  99 130 169 217 267 325 390
#     4  11  23  41  67  96 130 170 220 267 322 381
#     4  12  26  41  63  96 134 170 219 268 325 389
#     4  11  22  42  71  89 132 172 217 263 322 384
#     4   9  20  40  67  97 123 170 223 266 312 382
#     4  11  24  42  66  95 131 175 213 266 330 384
#     4  12  23  43  67  95 131 170 215 269 325 375
#
# _framework density 24.535177999999998
#
# number of rings (size 3 to 8) (size 9 to 14) (size 15 to 20)
#    0.000    1.250    3.750    1.500    3.500    7.000 
#    0.000    1.875    0.000    0.000    0.000    0.000 
#    0.000    0.000    0.000    0.000    0.000    0.000 
#
# Total GULP energy -89507.777810 kJ/mol
# GULP energy per Si atom -5594.236113 kJ/mol
# Density = 2.447934 g / cm^3
# Si number density = 24.535178 Si / 1000 Ang^3
#
#
#
# Elastic Constant Matrix: (Units=GPa)
#
#
# Indices 1 2 3 4 5 6 
#
# 1 154.2474 73.0841 17.5206 -1.3168 22.0396 -23.4565
# 2 73.0841 142.5651 13.8304 14.6748 7.9630 -10.8565
# 3 17.5206 13.8304 66.5156 9.1987 -6.0422 -12.9921
# 4 -1.3168 14.6748 9.1987 32.1490 -5.5388 2.6849
# 5 22.0396 7.9630 -6.0422 -5.5388 42.8899 -4.2620
# 6 -23.4565 -10.8565 -12.9921 2.6849 -4.2620 41.1653
#
#
#
# Elastic Compliance Matrix: (Units=1/GPa)
#
#
# Indices 1 2 3 4 5 6 
#
# 1 0.009982 -0.004696 -0.001627 0.002065 -0.003882 0.003399
# 2 -0.004696 0.009938 -0.000142 -0.004712 -0.000040 0.000203
# 3 -0.001627 -0.000142 0.017475 -0.004883 0.003211 0.005202
# 4 0.002065 -0.004712 -0.004883 0.035618 0.003369 -0.003581
# 5 -0.003882 -0.000040 0.003211 0.003369 0.026334 0.001297
# 6 0.003399 0.000203 0.005202 -0.003581 0.001297 0.028292
#
#
# Mechanical properties :
#
#
# Convention : Reuss Voigt Hill
#
# Bulk Modulus (GPa) = 40.87411 63.57759 52.22585
# Shear Modulus (GPa) = 33.61888 40.50039 37.05964
#
# Velocity S-wave (km/s) = 3.70568 4.06730 3.89069
# Velocity P-wave (km/s) = 5.91650 6.93010 6.44326
#
# Compressibility (1/GPa) = 0.02446537
#
# Stress axis : x y z
#
# Youngs Moduli (GPa) = 100.17608 100.61982 57.22415
#
# Poissons Ratio (x) = 0.47255 0.09312
# Poissons Ratio (y) = 0.47047 0.00811
# Poissons Ratio (z) = 0.16301 0.01425
#
# Static dielectric constant tensor:
#      x y z
#    x 0.480190 -0.230080 -2.456950 
#    y -0.230080 1.931820 -0.372850 
#    z -2.456950 -0.372850 -2.029630 
# 
# From -- ./inp_files/321086.got.cif
#   From: 2010.05.17/outbox.cif.g08.bks.cpg/sg2_161_cif.got.tgz:321086.got - 2010.06.03 11:33:40.
