data_PCOD9057059
_publ_section_title
;
Structure prediction by ZEFSAII (Michael W. Deem and Ramdas Pophale) SiO2 
 PCOD9057059
Probable space group: P -1
;
_chemical_formula_sum "Si O2"
_cell_formula_units_Z 14
_cell_length_a 14.628454
_cell_length_b 9.373003
_cell_length_c 12.653730
_cell_angle_alpha 44.991929
_cell_angle_beta 27.921886
_cell_angle_gamma 50.455682
_cell_volume 574.033955
_symmetry_space_group_name_H-M "P -1"
_symmetry_group_IT_number 2
_symmetry_cell_setting 'triclinic'
loop_
_space_group_symop_operation_xyz
x,y,z
-x,-y,-z
loop_
_atom_site_type_symbol
_atom_site_label
_atom_site_fract_x
_atom_site_fract_y
_atom_site_fract_z
Si Si1 0.369235 0.478797 0.387907
Si Si2 0.528266 0.120539 0.018976
Si Si3 0.976157 0.487779 0.654522
Si Si4 0.304283 0.858701 0.808020
Si Si5 0.827261 0.350169 0.286055
Si Si6 0.983491 0.060943 0.605068
Si Si7 0.407560 0.926615 0.455889
O O1 0.491046 0.649010 0.116474
O O2 0.511635 0.284995 0.342461
O O3 0.285581 0.561592 0.541816
O O4 0.179157 0.449387 0.527392
O O5 0.752991 0.093102 0.842006
O O6 0.500000 0.000000 0.000000
O O7 0.407394 0.051012 0.280411
O O8 0.000000 0.500000 0.500000
O O9 0.916353 0.722560 0.613757
O O10 0.846851 0.300345 0.914719
O O11 0.256864 0.967451 0.686969
O O12 0.386591 0.002557 0.739612
O O13 0.660951 0.293524 0.400022
O O14 0.935672 0.132857 0.311765
O O15 0.000000 0.500000 0.000000
O O16 0.000000 0.000000 0.500000
#
# Coordination Sequence:
#
# PCOD9057059 Si02
#       7
#     2   2   2   2   2   2   2
#     4  11  25  44  70 106 137 183 240 288 348 423
#     4  11  22  41  69 102 136 178 237 287 346 416
#     4  11  25  46  72 106 141 182 238 288 351 427
#     4  11  27  47  70 103 146 186 231 293 357 422
#     4  12  26  45  68 102 140 185 236 290 352 413
#     4  11  23  42  68  99 138 178 230 294 344 407
#     4  11  26  47  67 102 142 184 235 288 358 422
#
# _framework density 24.388801999999998
#
# number of rings (size 3 to 8) (size 9 to 14) (size 15 to 20)
#    0.000    0.857    4.286    2.571    8.000    1.714 
#    0.000    2.143    0.000    0.000    0.000    0.000 
#    0.000    0.000    0.000    0.000    0.000    0.000 
#
# Total GULP energy -78107.959638 kJ/mol
# GULP energy per Si atom -5579.139974 kJ/mol
# Density = 2.433329 g / cm^3
# Si number density = 24.388802 Si / 1000 Ang^3
#
#
#
# Elastic Constant Matrix: (Units=GPa)
#
#
# Indices 1 2 3 4 5 6 
#
# 1 139.4194 36.7252 71.3509 -11.7155 -0.2069 39.5849
# 2 36.7252 79.3554 38.1966 -24.1310 -8.8909 2.3995
# 3 71.3509 38.1966 230.9126 -49.0458 6.4530 22.7303
# 4 -11.7155 -24.1310 -49.0458 43.8904 8.2734 -5.5538
# 5 -0.2069 -8.8909 6.4530 8.2734 54.2314 1.7766
# 6 39.5849 2.3995 22.7303 -5.5538 1.7766 57.3964
#
#
#
# Elastic Compliance Matrix: (Units=1/GPa)
#
#
# Indices 1 2 3 4 5 6 
#
# 1 0.011628 -0.004877 -0.002911 -0.003797 0.000401 -0.007043
# 2 -0.004877 0.017485 0.000053 0.008530 0.001429 0.003393
# 3 -0.002911 0.000053 0.006802 0.007223 -0.001916 0.000070
# 4 -0.003797 0.008530 0.007223 0.035866 -0.005046 0.003028
# 5 0.000401 0.001429 -0.001916 -0.005046 0.019695 -0.000675
# 6 -0.007043 0.003393 0.000070 0.003028 -0.000675 0.022424
#
#
# Mechanical properties :
#
#
# Convention : Reuss Voigt Hill
#
# Bulk Modulus (GPa) = 48.91262 82.47032 65.69147
# Shear Modulus (GPa) = 36.71437 51.33129 44.02283
#
# Velocity S-wave (km/s) = 3.88413 4.59269 4.25319
# Velocity P-wave (km/s) = 6.34147 7.87477 7.14934
#
# Compressibility (1/GPa) = 0.02044462
#
# Stress axis : x y z
#
# Youngs Moduli (GPa) = 85.99858 57.19283 147.01068
#
# Poissons Ratio (x) = 0.27894 0.42790
# Poissons Ratio (y) = 0.41942 -0.00773
# Poissons Ratio (z) = 0.25031 -0.00301
#
# Static dielectric constant tensor:
#      x y z
#    x 1.976700 -0.038900 0.021580 
#    y -0.038900 2.074240 0.022410 
#    z 0.021580 0.022410 1.997500 
# 
# From -- ./inp_files/255879.got.cif
#   From: 2010.05.17/outbox.cif.g08.bks.cpg/sg2_128_cif.got.tgz:255879.got - 2010.06.03 11:33:40.
