data_PCOD9057211
_publ_section_title
;
Structure prediction by ZEFSAII (Michael W. Deem and Ramdas Pophale) SiO2 
 PCOD9057211
Probable space group: P -1
;
_chemical_formula_sum "Si O2"
_cell_formula_units_Z 16
_cell_length_a 10.157209
_cell_length_b 12.918505
_cell_length_c 8.113643
_cell_angle_alpha 69.148578
_cell_angle_beta 64.374711
_cell_angle_gamma 45.953681
_cell_volume 687.458419
_symmetry_space_group_name_H-M "P -1"
_symmetry_group_IT_number 2
_symmetry_cell_setting 'triclinic'
loop_
_space_group_symop_operation_xyz
x,y,z
-x,-y,-z
loop_
_atom_site_type_symbol
_atom_site_label
_atom_site_fract_x
_atom_site_fract_y
_atom_site_fract_z
Si Si1 0.762978 0.517865 0.466836
Si Si2 0.971732 0.284273 0.741389
Si Si3 0.188521 0.718351 0.630295
Si Si4 0.220028 0.132974 0.369582
Si Si5 0.049671 0.526190 0.132259
Si Si6 0.412711 0.816799 0.346385
Si Si7 0.444261 0.243682 0.071889
Si Si8 0.655534 0.328065 0.060362
O O1 0.816361 0.446150 0.656378
O O2 0.722206 0.430300 0.427665
O O3 0.592974 0.683070 0.427714
O O4 0.957988 0.482420 0.329481
O O5 0.038155 0.314876 0.852958
O O6 0.839668 0.248284 0.886438
O O7 0.128088 0.189043 0.570884
O O8 0.250592 0.801034 0.458729
O O9 0.963810 0.801245 0.686110
O O10 0.270896 0.686393 0.786775
O O11 0.346475 0.962785 0.379641
O O12 0.344606 0.179008 0.223327
O O13 0.274515 0.415987 0.058906
O O14 0.000000 0.500000 0.000000
O O15 0.469949 0.807368 0.129335
O O16 0.583760 0.237377 0.126107
O O17 0.500000 0.500000 0.000000
#
# Coordination Sequence:
#
# PCOD9057211 Si02
#       8
#     2   2   2   2   2   2   2   2
#     4  11  22  41  73 107 134 181 235 297 345 409
#     4  11  24  43  74 104 145 180 235 290 358 416
#     4  11  24  46  74 104 141 183 239 291 357 412
#     4  11  27  49  70 102 144 197 231 283 354 433
#     4  12  22  41  72 105 140 180 233 296 356 407
#     4  12  25  45  73 102 143 188 239 288 349 423
#     4  12  24  44  71 102 144 182 240 289 350 415
#     4  12  24  41  72 111 141 175 236 305 349 406
#
# _framework density 23.274132999999999
#
# number of rings (size 3 to 8) (size 9 to 14) (size 15 to 20)
#    0.000    0.500    5.000    5.250    0.000    0.000 
#    0.000    5.000    0.000    0.000    0.000    0.000 
#    0.000    0.000    0.000    0.000    0.000    0.000 
#
# Total GULP energy -89441.741273 kJ/mol
# GULP energy per Si atom -5590.108830 kJ/mol
# Density = 2.322116 g / cm^3
# Si number density = 23.274133 Si / 1000 Ang^3
#
#
#
# Elastic Constant Matrix: (Units=GPa)
#
#
# Indices 1 2 3 4 5 6 
#
# 1 128.0649 40.0043 58.4427 -2.4168 -18.6319 37.6063
# 2 40.0043 131.4758 48.3807 13.2568 0.1468 27.2169
# 3 58.4427 48.3807 143.5179 19.4432 -18.2403 24.5628
# 4 -2.4168 13.2568 19.4432 23.6884 14.6267 6.2607
# 5 -18.6319 0.1468 -18.2403 14.6267 51.3205 -9.9406
# 6 37.6063 27.2169 24.5628 6.2607 -9.9406 23.2629
#
#
#
# Elastic Compliance Matrix: (Units=1/GPa)
#
#
# Indices 1 2 3 4 5 6 
#
# 1 0.020442 0.001791 -0.006439 0.021423 -0.008269 -0.037642
# 2 0.001791 0.010961 -0.002709 0.002920 -0.004164 -0.015424
# 3 -0.006439 -0.002709 0.012395 -0.016918 0.008585 0.008713
# 4 0.021423 0.002920 -0.016918 0.096459 -0.037802 -0.062298
# 5 -0.008269 -0.004164 0.008585 -0.037802 0.037142 0.035219
# 6 -0.037642 -0.015424 0.008713 -0.062298 0.035219 0.144500
#
#
# Mechanical properties :
#
#
# Convention : Reuss Voigt Hill
#
# Bulk Modulus (GPa) = 34.38338 77.41266 55.89802
# Shear Modulus (GPa) = 14.43792 36.73641 25.58716
#
# Velocity S-wave (km/s) = 2.49337 3.97725 3.31929
# Velocity P-wave (km/s) = 4.80567 7.37731 6.22572
#
# Compressibility (1/GPa) = 0.02908382
#
# Stress axis : x y z
#
# Youngs Moduli (GPa) = 48.91770 91.23120 80.67736
#
# Poissons Ratio (x) = -0.16339 0.51948
# Poissons Ratio (y) = -0.08761 0.21858
# Poissons Ratio (z) = 0.31498 0.24718
#
# Static dielectric constant tensor:
#      x y z
#    x 2.039570 -0.025330 -0.011520 
#    y -0.025330 1.886730 0.018150 
#    z -0.011520 0.018150 2.038960 
# 
# From -- ./inp_files/169310.got.cif
#   From: 2010.05.17/outbox.cif.g08.bks.cpg/sg2_85_cif.got.tgz:169310.got - 2010.06.03 11:33:40.
