data_PCOD9057766
_publ_section_title
;
Structure prediction by ZEFSAII (Michael W. Deem and Ramdas Pophale) SiO2 
 PCOD9057766
Probable space group: P -1
;
_chemical_formula_sum "Si O2"
_cell_formula_units_Z 16
_cell_length_a 15.761183
_cell_length_b 20.422939
_cell_length_c 12.466134
_cell_angle_alpha 156.848367
_cell_angle_beta 37.878739
_cell_angle_gamma 154.481029
_cell_volume 660.002905
_symmetry_space_group_name_H-M "P -1"
_symmetry_group_IT_number 2
_symmetry_cell_setting 'triclinic'
loop_
_space_group_symop_operation_xyz
x,y,z
-x,-y,-z
loop_
_atom_site_type_symbol
_atom_site_label
_atom_site_fract_x
_atom_site_fract_y
_atom_site_fract_z
Si Si1 0.878402 0.028387 0.361962
Si Si2 0.704318 0.144902 0.950712
Si Si3 0.337107 0.103484 0.069441
Si Si4 0.488393 0.514929 0.706531
Si Si5 0.505848 0.888252 0.554959
Si Si6 0.121506 0.349562 0.180229
Si Si7 0.051188 0.215854 0.711787
Si Si8 0.167676 0.390265 0.436718
O O1 0.008526 0.185451 0.578234
O O2 0.022817 0.159513 0.311701
O O3 0.689709 0.978654 0.438253
O O4 0.808080 0.779965 0.083930
O O5 0.896511 0.216603 0.912695
O O6 0.615404 0.950681 0.653597
O O7 0.785121 0.400046 0.227691
O O8 0.500000 0.000000 0.000000
O O9 0.407589 0.291829 0.375762
O O10 0.371038 0.240943 0.136073
O O11 0.464979 0.048540 0.842013
O O12 0.105235 0.849703 0.938813
O O13 0.632521 0.543741 0.686155
O O14 0.291885 0.443239 0.831286
O O15 0.291258 0.608173 0.342361
O O16 0.095827 0.381877 0.378757
O O17 0.000000 0.000000 0.500000
#
# Coordination Sequence:
#
# PCOD9057766 Si02
#       8
#     2   2   2   2   2   2   2   2
#     4  11  25  45  67 104 132 184 228 278 341 405
#     4  11  23  43  68 102 133 177 233 275 342 400
#     4  11  23  43  68 100 131 176 230 278 340 393
#     4  11  22  43  70  96 135 175 226 286 329 401
#     4  11  25  41  71  93 141 178 229 284 335 398
#     4  12  24  45  69  98 137 187 224 275 343 408
#     4  11  25  41  70 103 135 173 227 290 334 397
#     4  12  24  44  74  97 139 183 225 280 339 410
#
# _framework density 24.242317
#
# number of rings (size 3 to 8) (size 9 to 14) (size 15 to 20)
#    0.000    0.750    5.000    2.625    3.500    1.000 
#    2.250    0.625    0.000    0.000    0.000    0.000 
#    0.000    0.000    0.000    0.000    0.000    0.000 
#
# Total GULP energy -89372.891176 kJ/mol
# GULP energy per Si atom -5585.805698 kJ/mol
# Density = 2.418714 g / cm^3
# Si number density = 24.242317 Si / 1000 Ang^3
#
#
#
# Elastic Constant Matrix: (Units=GPa)
#
#
# Indices 1 2 3 4 5 6 
#
# 1 65.2687 39.6678 18.8975 -6.0232 -7.1692 9.0482
# 2 39.6678 131.8478 33.3717 -14.0637 -16.5911 32.9029
# 3 18.8975 33.3717 74.0635 -0.8597 -17.5803 22.3113
# 4 -6.0232 -14.0637 -0.8597 33.9119 11.1580 -14.8738
# 5 -7.1692 -16.5911 -17.5803 11.1580 33.4040 -16.0714
# 6 9.0482 32.9029 22.3113 -14.8738 -16.0714 37.8815
#
#
#
# Elastic Compliance Matrix: (Units=1/GPa)
#
#
# Indices 1 2 3 4 5 6 
#
# 1 0.019448 -0.005504 -0.003310 0.002340 0.000454 0.003197
# 2 -0.005504 0.011585 -0.001500 0.000424 -0.000078 -0.007731
# 3 -0.003310 -0.001500 0.019269 -0.006911 0.006578 -0.009178
# 4 0.002340 0.000424 -0.006911 0.039336 -0.008947 0.014793
# 5 0.000454 -0.000078 0.006578 -0.008947 0.041303 0.010094
# 6 0.003197 -0.007731 -0.009178 0.014793 0.010094 0.047846
#
#
# Mechanical properties :
#
#
# Convention : Reuss Voigt Hill
#
# Bulk Modulus (GPa) = 33.70176 50.56153 42.13165
# Shear Modulus (GPa) = 23.88855 32.98902 28.43879
#
# Velocity S-wave (km/s) = 3.14252 3.69291 3.42878
# Velocity P-wave (km/s) = 5.20572 6.25183 5.75261
#
# Compressibility (1/GPa) = 0.02967204
#
# Stress axis : x y z
#
# Youngs Moduli (GPa) = 51.42029 86.31995 51.89807
#
# Poissons Ratio (x) = 0.47512 0.17178
# Poissons Ratio (y) = 0.28303 0.07786
# Poissons Ratio (z) = 0.17020 0.12950
#
# Static dielectric constant tensor:
#      x y z
#    x 1.971560 0.039620 0.024350 
#    y 0.039620 2.137240 -0.167320 
#    z 0.024350 -0.167320 2.107320 
# 
# From -- ./inp_files/539301.got.cif
#   From: 2010.05.17/outbox.cif.g08.bks.cpg/sg2_270_cif.got.tgz:539301.got - 2010.06.03 11:33:40.
