data_PCOD9057084
_publ_section_title
;
Structure prediction by ZEFSAII (Michael W. Deem and Ramdas Pophale) SiO2 
 PCOD9057084
Probable space group: P -1
;
_chemical_formula_sum "Si O2"
_cell_formula_units_Z 16
_cell_length_a 8.887556
_cell_length_b 29.234736
_cell_length_c 14.034487
_cell_angle_alpha 160.937909
_cell_angle_beta 45.550396
_cell_angle_gamma 142.460365
_cell_volume 703.142157
_symmetry_space_group_name_H-M "P -1"
_symmetry_group_IT_number 2
_symmetry_cell_setting 'triclinic'
loop_
_space_group_symop_operation_xyz
x,y,z
-x,-y,-z
loop_
_atom_site_type_symbol
_atom_site_label
_atom_site_fract_x
_atom_site_fract_y
_atom_site_fract_z
Si Si1 0.404288 0.127126 0.291441
Si Si2 0.248960 0.408533 0.249702
Si Si3 0.427690 0.071701 0.760376
Si Si4 0.848027 0.648800 0.485225
Si Si5 0.093189 0.158969 0.980489
Si Si6 0.097313 0.193700 0.422002
Si Si7 0.149965 0.503278 0.106517
Si Si8 0.948219 0.379698 0.159935
O O1 0.292979 0.147235 0.280555
O O2 0.607911 0.313707 0.608164
O O3 0.500000 0.000000 0.000000
O O4 0.150355 0.031051 0.279541
O O5 0.544791 0.525734 0.373326
O O6 0.140673 0.229761 0.994005
O O7 0.101595 0.481087 0.509299
O O8 0.184448 0.402572 0.156496
O O9 0.500000 0.000000 0.500000
O O10 0.337609 0.177213 0.953557
O O11 0.690789 0.201551 0.952537
O O12 0.185664 0.935432 0.662529
O O13 0.944048 0.731280 0.709411
O O14 0.919677 0.790051 0.651640
O O15 0.973513 0.545187 0.208853
O O16 0.200518 0.380611 0.784923
O O17 0.000897 0.400625 0.066052
#
# Coordination Sequence:
#
# PCOD9057084 Si02
#       8
#     2   2   2   2   2   2   2   2
#     4  11  23  43  67  97 133 173 220 279 338 392
#     4  11  23  40  67  99 128 168 229 279 331 392
#     4  11  23  44  70  93 136 176 221 273 341 399
#     4  12  23  42  68  99 133 180 227 275 331 402
#     4  11  23  43  66  98 133 176 223 283 327 393
#     4  11  27  42  69 100 135 179 224 272 342 405
#     4  12  23  45  69  93 141 177 220 282 339 397
#     4  11  22  41  69  97 127 176 221 276 336 394
#
# _framework density 22.754999999999999
#
# number of rings (size 3 to 8) (size 9 to 14) (size 15 to 20)
#    0.000    0.750    5.000    2.625    0.000    4.000 
#    4.500    0.625    0.000    0.000    0.000    0.000 
#    0.000    0.000    0.000    0.000    0.000    0.000 
#
# Total GULP energy -89458.277897 kJ/mol
# GULP energy per Si atom -5591.142369 kJ/mol
# Density = 2.270321 g / cm^3
# Si number density = 22.755000 Si / 1000 Ang^3
#
#
#
# Elastic Constant Matrix: (Units=GPa)
#
#
# Indices 1 2 3 4 5 6 
#
# 1 116.2168 34.8938 27.1027 19.4084 -10.3628 1.9174
# 2 34.8938 61.8778 9.8941 21.5308 0.0465 -2.9317
# 3 27.1027 9.8941 85.4538 10.2875 -0.5668 10.3159
# 4 19.4084 21.5308 10.2875 40.3310 7.0733 1.0368
# 5 -10.3628 0.0465 -0.5668 7.0733 28.4233 13.0668
# 6 1.9174 -2.9317 10.3159 1.0368 13.0668 36.0247
#
#
#
# Elastic Compliance Matrix: (Units=1/GPa)
#
#
# Indices 1 2 3 4 5 6 
#
# 1 0.011922 -0.005304 -0.002414 -0.003332 0.006318 -0.002571
# 2 -0.005304 0.022566 -0.000142 -0.009370 -0.000910 0.002759
# 3 -0.002414 -0.000142 0.013310 -0.002393 0.001978 -0.004343
# 4 -0.003332 -0.009370 -0.002393 0.033882 -0.011133 0.003163
# 5 0.006318 -0.000910 0.001978 -0.011133 0.048724 -0.018329
# 6 -0.002571 0.002759 -0.004343 0.003163 -0.018329 0.035921
#
#
# Mechanical properties :
#
#
# Convention : Reuss Voigt Hill
#
# Bulk Modulus (GPa) = 31.17320 45.25884 38.21602
# Shear Modulus (GPa) = 25.94199 33.73300 29.83750
#
# Velocity S-wave (km/s) = 3.38014 3.85443 3.62505
# Velocity P-wave (km/s) = 5.38173 6.30410 5.86108
#
# Compressibility (1/GPa) = 0.03207884
#
# Stress axis : x y z
#
# Youngs Moduli (GPa) = 83.87551 44.31364 75.13350
#
# Poissons Ratio (x) = 0.23506 0.18136
# Poissons Ratio (y) = 0.44491 0.01064
# Poissons Ratio (z) = 0.20246 0.00627
#
# Static dielectric constant tensor:
#      x y z
#    x 1.831770 0.012710 -0.013550 
#    y 0.012710 1.769050 0.042740 
#    z -0.013550 0.042740 1.864440 
# 
# From -- ./inp_files/304726.got.cif
#   From: 2010.05.17/outbox.cif.g08.bks.cpg/sg2_153_cif.got.tgz:304726.got - 2010.06.03 11:33:40.
