data_PCOD9057637
_publ_section_title
;
Structure prediction by ZEFSAII (Michael W. Deem and Ramdas Pophale) SiO2 
 PCOD9057637
Probable space group: P -1
;
_chemical_formula_sum "Si O2"
_cell_formula_units_Z 16
_cell_length_a 9.712511
_cell_length_b 14.847372
_cell_length_c 8.472536
_cell_angle_alpha 85.477748
_cell_angle_beta 66.261260
_cell_angle_gamma 128.626433
_cell_volume 775.057902
_symmetry_space_group_name_H-M "P -1"
_symmetry_group_IT_number 2
_symmetry_cell_setting 'triclinic'
loop_
_space_group_symop_operation_xyz
x,y,z
-x,-y,-z
loop_
_atom_site_type_symbol
_atom_site_label
_atom_site_fract_x
_atom_site_fract_y
_atom_site_fract_z
Si Si1 0.027889 0.778332 0.425919
Si Si2 0.267309 0.443980 0.650855
Si Si3 0.691496 0.023706 0.982187
Si Si4 0.685682 0.809442 0.036234
Si Si5 0.515072 0.281657 0.515498
Si Si6 0.204195 0.158288 0.373271
Si Si7 0.996657 0.777508 0.940156
Si Si8 0.320647 0.850567 0.543136
O O1 0.891507 0.647002 0.409307
O O2 0.881075 0.775970 0.605615
O O3 0.114016 0.887814 0.245029
O O4 0.240490 0.833183 0.404993
O O5 0.500000 0.500000 0.500000
O O6 0.306106 0.566824 0.633374
O O7 0.168688 0.353215 0.862926
O O8 0.674493 0.912284 0.049721
O O9 0.786239 0.116483 0.073636
O O10 0.500000 0.000000 0.000000
O O11 0.652896 0.792154 0.860417
O O12 0.895210 0.833499 0.950537
O O13 0.555306 0.724966 0.269450
O O14 0.332413 0.208598 0.473135
O O15 0.594085 0.213399 0.476629
O O16 0.000000 0.000000 0.500000
O O17 0.093917 0.766198 0.750344
O O18 0.500000 0.000000 0.500000
#
# Coordination Sequence:
#
# PCOD9057637 Si02
#       8
#     2   2   2   2   2   2   2   2
#     4  11  22  43  66  99 140 183 228 294 346 418
#     4  11  23  48  72  94 143 190 245 294 337 412
#     4  11  23  38  64 102 141 178 225 290 357 425
#     4  12  24  41  71 103 133 190 236 276 364 419
#     4  12  27  47  70 102 144 189 231 299 350 415
#     4  12  24  40  70 105 139 178 241 292 353 422
#     4  11  24  42  70  98 136 191 233 287 355 418
#     4  12  26  45  69 109 150 173 228 306 366 419
#
# _framework density 20.643621
#
# number of rings (size 3 to 8) (size 9 to 14) (size 15 to 20)
#    0.000    0.500    5.000    4.125    3.500    1.000 
#    2.250    1.875    0.000    0.000    0.000    0.000 
#    0.000    0.000    0.000    0.000    0.000    0.000 
#
# Total GULP energy -89105.039727 kJ/mol
# GULP energy per Si atom -5569.064983 kJ/mol
# Density = 2.059664 g / cm^3
# Si number density = 20.643621 Si / 1000 Ang^3
#
#
#
# Elastic Constant Matrix: (Units=GPa)
#
#
# Indices 1 2 3 4 5 6 
#
# 1 138.0615 56.2058 27.5180 -8.5976 5.1951 -8.1899
# 2 56.2058 106.6339 32.3252 -17.5548 10.2588 -6.1901
# 3 27.5180 32.3252 119.8661 10.1080 3.3932 -4.5307
# 4 -8.5976 -17.5548 10.1080 23.3330 -1.9442 1.5471
# 5 5.1951 10.2588 3.3932 -1.9442 29.2654 7.1335
# 6 -8.1899 -6.1901 -4.5307 1.5471 7.1335 35.6565
#
#
#
# Elastic Compliance Matrix: (Units=1/GPa)
#
#
# Indices 1 2 3 4 5 6 
#
# 1 0.009366 -0.004503 -0.000909 0.000349 -0.000271 0.001293
# 2 -0.004503 0.015155 -0.003826 0.011003 -0.003672 0.001368
# 3 -0.000909 -0.003826 0.010281 -0.007758 -0.000413 0.000853
# 4 0.000349 0.011003 -0.007758 0.054814 0.001006 -0.001575
# 5 -0.000271 -0.003672 -0.000413 0.001006 0.037650 -0.008328
# 6 0.001293 0.001368 0.000853 -0.001575 -0.008328 0.030423
#
#
# Mechanical properties :
#
#
# Convention : Reuss Voigt Hill
#
# Bulk Modulus (GPa) = 61.24408 66.29551 63.76980
# Shear Modulus (GPa) = 27.53224 34.21848 30.87536
#
# Velocity S-wave (km/s) = 3.65594 4.07576 3.87154
# Velocity P-wave (km/s) = 6.89586 7.37110 7.13743
#
# Compressibility (1/GPa) = 0.01632811
#
# Stress axis : x y z
#
# Youngs Moduli (GPa) = 106.76928 65.98473 97.26645
#
# Poissons Ratio (x) = 0.29711 0.08839
# Poissons Ratio (y) = 0.48075 0.37209
# Poissons Ratio (z) = 0.09703 0.25243
#
# Static dielectric constant tensor:
#      x y z
#    x 1.746060 0.021690 0.034100 
#    y 0.021690 1.823400 0.120070 
#    z 0.034100 0.120070 1.948480 
# 
# From -- ./inp_files/206865.got.cif
#   From: 2010.05.17/outbox.cif.g08.bks.cpg/sg2_104_cif.got.tgz:206865.got - 2010.06.03 11:33:40.
