data_PCOD9057633
_publ_section_title
;
Structure prediction by ZEFSAII (Michael W. Deem and Ramdas Pophale) SiO2 
 PCOD9057633
Probable space group: P -1
;
_chemical_formula_sum "Si O2"
_cell_formula_units_Z 16
_cell_length_a 9.257435
_cell_length_b 8.716129
_cell_length_c 20.472480
_cell_angle_alpha 68.852709
_cell_angle_beta 39.731555
_cell_angle_gamma 49.719963
_cell_volume 773.351878
_symmetry_space_group_name_H-M "P -1"
_symmetry_group_IT_number 2
_symmetry_cell_setting 'triclinic'
loop_
_space_group_symop_operation_xyz
x,y,z
-x,-y,-z
loop_
_atom_site_type_symbol
_atom_site_label
_atom_site_fract_x
_atom_site_fract_y
_atom_site_fract_z
Si Si1 0.477936 0.314571 0.893003
Si Si2 0.556263 0.785032 0.495644
Si Si3 0.876569 0.747669 0.057744
Si Si4 0.075668 0.080143 0.121519
Si Si5 0.358127 0.971727 0.777274
Si Si6 0.429798 0.567212 0.678475
Si Si7 0.230344 0.511645 0.296438
Si Si8 0.659125 0.151960 0.583631
O O1 0.366887 0.277029 0.871116
O O2 0.636008 0.112579 0.914968
O O3 0.692174 0.365105 0.792736
O O4 0.185649 0.521448 0.992758
O O5 0.448579 0.712326 0.600551
O O6 0.899088 0.614808 0.395344
O O7 0.500000 0.000000 0.500000
O O8 0.593512 0.194323 0.523274
O O9 0.793401 0.888573 0.127614
O O10 0.890511 0.851856 0.971335
O O11 0.875665 0.010477 0.190058
O O12 0.885662 0.286524 0.201192
O O13 0.579976 0.727647 0.756066
O O14 0.524588 0.041662 0.672202
O O15 0.657982 0.495585 0.668395
O O16 0.510342 0.367123 0.642134
O O17 0.000000 0.000000 0.500000
#
# Coordination Sequence:
#
# PCOD9057633 Si02
#       8
#     2   2   2   2   2   2   2   2
#     4  11  23  41  68  92 135 173 218 268 330 385
#     4  12  24  42  68  98 129 173 222 269 331 399
#     4  11  24  44  65  97 136 172 222 270 328 385
#     4  11  24  45  66 101 132 172 226 266 328 392
#     4  11  24  43  68  94 135 171 218 274 324 388
#     4  11  23  42  68  94 136 170 218 276 327 393
#     4  11  22  43  66  97 131 174 219 268 333 391
#     4  12  26  44  65  98 132 174 220 272 332 392
#
# _framework density 20.689157999999999
#
# number of rings (size 3 to 8) (size 9 to 14) (size 15 to 20)
#    0.000    0.750    2.500    6.750    1.750    2.500 
#    2.250    0.000    0.000    0.000    0.000    0.000 
#    0.000    0.000    0.000    0.000    0.000    0.000 
#
# Total GULP energy -89576.061850 kJ/mol
# GULP energy per Si atom -5598.503866 kJ/mol
# Density = 2.064207 g / cm^3
# Si number density = 20.689158 Si / 1000 Ang^3
#
#
#
# Elastic Constant Matrix: (Units=GPa)
#
#
# Indices 1 2 3 4 5 6 
#
# 1 77.7710 38.6335 26.5547 30.4176 1.9469 -15.3516
# 2 38.6335 100.8101 21.4782 5.5435 10.2388 -4.9067
# 3 26.5547 21.4782 65.5126 -4.4748 7.7087 -12.1790
# 4 30.4176 5.5435 -4.4748 48.9386 9.5861 -0.3484
# 5 1.9469 10.2388 7.7087 9.5861 22.7002 7.9874
# 6 -15.3516 -4.9067 -12.1790 -0.3484 7.9874 48.4364
#
#
#
# Elastic Compliance Matrix: (Units=1/GPa)
#
#
# Indices 1 2 3 4 5 6 
#
# 1 0.029872 -0.009004 -0.011534 -0.021160 0.013180 0.003330
# 2 -0.009004 0.013773 0.000462 0.005642 -0.007985 0.000015
# 3 -0.011534 0.000462 0.023056 0.011937 -0.013684 0.004531
# 4 -0.021160 0.005642 0.011937 0.038181 -0.021128 0.000625
# 5 0.013180 -0.007985 -0.013684 -0.021128 0.063878 -0.010758
# 6 0.003330 0.000015 0.004531 0.000625 -0.010758 0.024620
#
#
# Mechanical properties :
#
#
# Convention : Reuss Voigt Hill
#
# Bulk Modulus (GPa) = 37.66439 46.38074 42.02256
# Shear Modulus (GPa) = 20.62865 34.51017 27.56941
#
# Velocity S-wave (km/s) = 3.16108 4.08859 3.65438
# Velocity P-wave (km/s) = 5.61851 6.68994 6.17749
#
# Compressibility (1/GPa) = 0.02655028
#
# Stress axis : x y z
#
# Youngs Moduli (GPa) = 33.47580 72.60495 43.37341
#
# Poissons Ratio (x) = 0.65371 0.50025
# Poissons Ratio (y) = 0.30140 -0.02003
# Poissons Ratio (z) = 0.38610 -0.03353
#
# Static dielectric constant tensor:
#      x y z
#    x 1.707700 0.002660 -0.015580 
#    y 0.002660 1.742240 -0.012680 
#    z -0.015580 -0.012680 1.729450 
# 
# From -- ./inp_files/587961.got.cif
#   From: 2010.05.17/outbox.cif.g08.bks.cpg/sg2_294_cif.got.tgz:587961.got - 2010.06.03 11:33:40.
