data_PCOD9057890
_publ_section_title
;
Structure prediction by ZEFSAII (Michael W. Deem and Ramdas Pophale) SiO2 
 PCOD9057890
Probable space group: P -1
;
_chemical_formula_sum "Si O2"
_cell_formula_units_Z 16
_cell_length_a 10.571957
_cell_length_b 5.752500
_cell_length_c 11.169430
_cell_angle_alpha 95.771314
_cell_angle_beta 88.077268
_cell_angle_gamma 67.136751
_cell_volume 620.774361
_symmetry_space_group_name_H-M "P -1"
_symmetry_group_IT_number 2
_symmetry_cell_setting 'triclinic'
loop_
_space_group_symop_operation_xyz
x,y,z
-x,-y,-z
loop_
_atom_site_type_symbol
_atom_site_label
_atom_site_fract_x
_atom_site_fract_y
_atom_site_fract_z
Si Si1 0.915015 0.689606 0.410542
Si Si2 0.026238 0.780001 0.893013
Si Si3 0.378735 0.358188 0.588115
Si Si4 0.369964 0.945686 0.895177
Si Si5 0.300915 0.510223 0.999693
Si Si6 0.187373 0.879672 0.699752
Si Si7 0.420440 0.146586 0.323367
Si Si8 0.840743 0.565200 0.788087
O O1 0.766239 0.677616 0.400513
O O2 0.000000 0.500000 0.500000
O O3 0.020359 0.612732 0.291178
O O4 0.863832 0.993582 0.421098
O O5 0.170506 0.571850 0.919471
O O6 0.060613 0.835929 0.760767
O O7 0.895190 0.711213 0.890387
O O8 0.000000 0.000000 0.000000
O O9 0.325896 0.635165 0.658840
O O10 0.418840 0.322936 0.445674
O O11 0.499145 0.140161 0.645204
O O12 0.364301 0.714642 0.966500
O O13 0.238481 0.016058 0.811527
O O14 0.498677 0.836080 0.795923
O O15 0.375113 0.203422 0.965414
O O16 0.239557 0.569790 0.139173
O O17 0.262927 0.239830 0.291594
#
# Coordination Sequence:
#
# PCOD9057890 Si02
#       8
#     2   2   2   2   2   2   2   2
#     4  12  24  46  72 110 151 190 249 324 382 450
#     4  11  22  43  73 111 151 197 250 312 387 455
#     4  11  24  50  73 106 149 208 254 306 386 457
#     4  11  24  48  75 107 149 207 252 309 378 460
#     4  11  25  46  76 108 149 200 256 314 384 457
#     4  11  23  43  76 102 146 202 251 307 378 459
#     4  11  25  47  77 106 153 202 256 315 381 460
#     4  12  24  44  77 115 150 194 252 320 383 453
#
# _framework density 25.774262
#
# number of rings (size 3 to 8) (size 9 to 14) (size 15 to 20)
#    0.000    0.750    3.750    4.875    0.000    2.000 
#    2.250    6.250    0.000    0.750    0.000    0.000 
#    0.000    0.000    0.000    0.000    0.000    0.000 
#
# Total GULP energy -89429.045421 kJ/mol
# GULP energy per Si atom -5589.315339 kJ/mol
# Density = 2.571560 g / cm^3
# Si number density = 25.774262 Si / 1000 Ang^3
#
#
#
# Elastic Constant Matrix: (Units=GPa)
#
#
# Indices 1 2 3 4 5 6 
#
# 1 92.0618 30.8028 18.1829 -9.1701 -14.3166 -9.2386
# 2 30.8028 132.4773 47.6186 -3.1207 1.9727 -1.4124
# 3 18.1829 47.6186 120.5518 -5.0067 -31.3109 15.3624
# 4 -9.1701 -3.1207 -5.0067 47.3996 -11.2097 7.8786
# 5 -14.3166 1.9727 -31.3109 -11.2097 46.6831 -5.4885
# 6 -9.2386 -1.4124 15.3624 7.8786 -5.4885 36.6792
#
#
#
# Elastic Compliance Matrix: (Units=1/GPa)
#
#
# Indices 1 2 3 4 5 6 
#
# 1 0.013394 -0.003262 0.000482 0.003249 0.005726 0.003205
# 2 -0.003262 0.010200 -0.005140 -0.001957 -0.005188 0.001368
# 3 0.000482 -0.005140 0.013709 0.004446 0.010007 -0.005276
# 4 0.003249 -0.001957 0.004446 0.025162 0.009503 -0.005102
# 5 0.005726 -0.005188 0.010007 0.009503 0.032373 -0.000146
# 6 0.003205 0.001368 -0.005276 -0.005102 -0.000146 0.031407
#
#
# Mechanical properties :
#
#
# Convention : Reuss Voigt Hill
#
# Bulk Modulus (GPa) = 46.59239 59.81106 53.20173
# Shear Modulus (GPa) = 33.50276 42.71815 38.11046
#
# Velocity S-wave (km/s) = 3.60926 4.07553 3.84946
# Velocity P-wave (km/s) = 5.95696 6.73815 6.35956
#
# Compressibility (1/GPa) = 0.02146273
#
# Stress axis : x y z
#
# Youngs Moduli (GPa) = 74.65908 98.03567 72.94389
#
# Poissons Ratio (x) = 0.31981 -0.03515
# Poissons Ratio (y) = 0.24355 0.37495
# Poissons Ratio (z) = -0.03598 0.50393
#
# Static dielectric constant tensor:
#      x y z
#    x 2.132000 0.117320 0.004800 
#    y 0.117320 2.180100 -0.030020 
#    z 0.004800 -0.030020 2.040060 
# 
# From -- ./inp_files/410507.got.cif
#   From: 2010.05.17/outbox.cif.g08.bks.cpg/sg2_206_cif.got.tgz:410507.got - 2010.06.03 11:33:40.
