data_PCOD9057081
_publ_section_title
;
Structure prediction by ZEFSAII (Michael W. Deem and Ramdas Pophale) SiO2 
 PCOD9057081
Probable space group: P -1
;
_chemical_formula_sum "Si O2"
_cell_formula_units_Z 16
_cell_length_a 6.245062
_cell_length_b 16.349400
_cell_length_c 22.009718
_cell_angle_alpha 162.272189
_cell_angle_beta 92.079696
_cell_angle_gamma 82.112209
_cell_volume 643.732023
_symmetry_space_group_name_H-M "P -1"
_symmetry_group_IT_number 2
_symmetry_cell_setting 'triclinic'
loop_
_space_group_symop_operation_xyz
x,y,z
-x,-y,-z
loop_
_atom_site_type_symbol
_atom_site_label
_atom_site_fract_x
_atom_site_fract_y
_atom_site_fract_z
Si Si1 0.532837 0.037828 0.804861
Si Si2 0.328961 0.747174 0.378617
Si Si3 0.291497 0.779476 0.180730
Si Si4 0.178932 0.994162 0.681836
Si Si5 0.398708 0.014531 0.911341
Si Si6 0.837016 0.411749 0.389815
Si Si7 0.807458 0.787625 0.401066
Si Si8 0.807651 0.619745 0.716970
O O1 0.306396 0.112498 0.816579
O O2 0.485917 0.151874 0.953211
O O3 0.631573 0.697832 0.575590
O O4 0.687089 0.130539 0.825020
O O5 0.314563 0.867489 0.532314
O O6 0.612214 0.632161 0.287886
O O7 0.090219 0.652863 0.307799
O O8 0.253267 0.997607 0.504660
O O9 0.256053 0.026543 0.405627
O O10 0.500000 0.500000 0.000000
O O11 0.045257 0.756129 0.162520
O O12 0.142203 0.715403 0.514212
O O13 0.236929 0.842960 0.766229
O O14 0.607488 0.777250 0.779168
O O15 0.275395 0.238389 0.119250
O O16 0.000000 0.500000 0.500000
O O17 0.971860 0.322021 0.264796
#
# Coordination Sequence:
#
# PCOD9057081 Si02
#       8
#     2   2   2   2   2   2   2   2
#     4  12  23  41  67  99 131 176 230 277 343 422
#     4   9  18  34  64  87 124 162 226 273 343 408
#     4  11  25  42  65  92 128 174 230 290 348 410
#     4  11  22  41  69  94 130 182 227 281 346 422
#     4  11  25  40  65 104 139 175 221 281 344 408
#     4  12  22  41  71 100 136 183 222 272 344 424
#     4   9  18  37  58  91 118 167 217 286 339 409
#     4  11  23  42  65  99 142 177 221 278 340 416
#
# _framework density 24.855063000000001
#
# number of rings (size 3 to 8) (size 9 to 14) (size 15 to 20)
#    0.000    1.250    5.000    1.500    0.000    1.500 
#    0.000    0.000    8.250    0.000    0.000    0.000 
#    0.000    0.000    0.000    0.000    0.000    0.000 
#
# Total GULP energy -89258.722258 kJ/mol
# GULP energy per Si atom -5578.670141 kJ/mol
# Density = 2.479849 g / cm^3
# Si number density = 24.855063 Si / 1000 Ang^3
#
#
#
# Elastic Constant Matrix: (Units=GPa)
#
#
# Indices 1 2 3 4 5 6 
#
# 1 128.0528 45.7087 62.8820 46.8474 5.5528 15.9475
# 2 45.7087 109.1955 -3.7212 -37.4848 -0.1820 7.8965
# 3 62.8820 -3.7212 53.3941 -18.0147 -22.4057 4.7916
# 4 46.8474 -37.4848 -18.0147 1.2379 -12.1459 -11.9514
# 5 5.5528 -0.1820 -22.4057 -12.1459 31.0256 0.6001
# 6 15.9475 7.8965 4.7916 -11.9514 0.6001 50.8818
#
#
#
# Elastic Compliance Matrix: (Units=1/GPa)
#
#
# Indices 1 2 3 4 5 6 
#
# 1 0.002951 0.001860 0.001283 0.009027 0.003929 0.000740
# 2 0.001860 0.007036 -0.005073 -0.003810 -0.005407 -0.002028
# 3 0.001283 -0.005073 0.013502 -0.015535 0.003498 -0.004576
# 4 0.009027 -0.003810 -0.015535 0.001451 -0.012284 -0.000289
# 5 0.003929 -0.005407 0.003498 -0.012284 0.029290 -0.003952
# 6 0.000740 -0.002028 -0.004576 -0.000289 -0.003952 0.020146
#
#
# Mechanical properties :
#
#
# Convention : Reuss Voigt Hill
#
# Bulk Modulus (GPa) = 50.94730 55.59792 53.27261
# Shear Modulus (GPa) = 58.97776 29.01394 43.99585
#
# Velocity S-wave (km/s) = 4.87649 3.42032 4.21182
# Velocity P-wave (km/s) = 7.22836 6.16567 6.71806
#
# Compressibility (1/GPa) = 0.01962812
#
# Stress axis : x y z
#
# Youngs Moduli (GPa) = 338.92419 142.12319 74.06544
#
# Poissons Ratio (x) = -0.26441 -0.09499
# Poissons Ratio (y) = -0.63054 0.37574
# Poissons Ratio (z) = -0.43469 0.72100
#
# Static dielectric constant tensor:
#      x y z
#    x 2.087870 0.023270 -0.000730 
#    y 0.023270 1.962000 -0.034660 
#    z -0.000730 -0.034660 2.021460 
# 
# From -- ./inp_files/605006.got.cif
#   From: 2010.05.17/outbox.cif.g08.bks.cpg/sg2_303_cif.got.tgz:605006.got - 2010.06.03 11:33:40.
