data_PCOD9057120
_publ_section_title
;
Structure prediction by ZEFSAII (Michael W. Deem and Ramdas Pophale) SiO2 
 PCOD9057120
Probable space group: P -1
;
_chemical_formula_sum "Si O2"
_cell_formula_units_Z 14
_cell_length_a 11.690689
_cell_length_b 9.963453
_cell_length_c 7.682239
_cell_angle_alpha 44.012790
_cell_angle_beta 100.497818
_cell_angle_gamma 89.121551
_cell_volume 597.139789
_symmetry_space_group_name_H-M "P -1"
_symmetry_group_IT_number 2
_symmetry_cell_setting 'triclinic'
loop_
_space_group_symop_operation_xyz
x,y,z
-x,-y,-z
loop_
_atom_site_type_symbol
_atom_site_label
_atom_site_fract_x
_atom_site_fract_y
_atom_site_fract_z
Si Si1 0.247418 0.889428 0.518624
Si Si2 0.364271 0.892515 0.906982
Si Si3 0.956516 0.604022 0.708947
Si Si4 0.779318 0.382770 0.768801
Si Si5 0.363370 0.085338 0.088477
Si Si6 0.008948 0.982180 0.808553
Si Si7 0.200195 0.504976 0.721484
O O1 0.291418 0.951625 0.656183
O O2 0.230023 0.662394 0.722677
O O3 0.120922 0.020769 0.299889
O O4 0.343522 0.920349 0.373102
O O5 0.323311 0.023674 0.944819
O O6 0.340945 0.674713 0.148938
O O7 0.500881 0.896069 0.908590
O O8 0.062504 0.492044 0.714376
O O9 0.824149 0.572541 0.669786
O O10 0.960152 0.828680 0.456094
O O11 0.000000 0.500000 0.000000
O O12 0.783026 0.394943 0.551142
O O13 0.886859 0.204907 0.025012
O O14 0.285225 0.291813 0.941496
O O15 0.000000 0.000000 0.000000
#
# Coordination Sequence:
#
# PCOD9057120 Si02
#       7
#     2   2   2   2   2   2   2
#     4  11  23  47  70 103 137 183 242 293 355 434
#     4  11  26  47  71 101 141 188 243 297 356 425
#     4  11  25  41  66 108 142 182 243 291 355 442
#     4  12  23  41  66 101 138 188 233 282 356 432
#     4  11  25  49  69 100 142 188 238 304 360 408
#     4  11  22  41  70  98 143 185 224 288 362 422
#     4  11  24  43  72  99 141 188 235 290 359 423
#
# _framework density 23.445097000000001
#
# number of rings (size 3 to 8) (size 9 to 14) (size 15 to 20)
#    0.000    0.857    4.286    3.429    4.000    4.571 
#    2.571    0.000    0.000    0.000    0.000    0.000 
#    0.000    0.000    0.000    0.000    0.000    0.000 
#
# Total GULP energy -78350.638560 kJ/mol
# GULP energy per Si atom -5596.474183 kJ/mol
# Density = 2.339174 g / cm^3
# Si number density = 23.445097 Si / 1000 Ang^3
#
#
#
# Elastic Constant Matrix: (Units=GPa)
#
#
# Indices 1 2 3 4 5 6 
#
# 1 84.3416 32.9195 26.9973 2.7991 -37.2824 26.2500
# 2 32.9195 109.0670 40.0766 19.8714 0.2930 21.9984
# 3 26.9973 40.0766 111.3974 11.8431 -25.7889 14.2094
# 4 2.7991 19.8714 11.8431 51.9682 1.9215 4.9220
# 5 -37.2824 0.2930 -25.7889 1.9215 42.6475 -8.8388
# 6 26.2500 21.9984 14.2094 4.9220 -8.8388 40.1560
#
#
#
# Elastic Compliance Matrix: (Units=1/GPa)
#
#
# Indices 1 2 3 4 5 6 
#
# 1 0.027253 -0.007478 0.002651 0.000829 0.023453 -0.009596
# 2 -0.007478 0.014536 -0.005017 -0.003340 -0.010169 -0.003128
# 3 0.002651 -0.005017 0.012716 -0.001379 0.009866 -0.001143
# 4 0.000829 -0.003340 -0.001379 0.020936 -0.001250 -0.001066
# 5 0.023453 -0.010169 0.009866 -0.001250 0.049591 -0.002183
# 6 -0.009596 -0.003128 -0.001143 -0.001066 -0.002183 0.032944
#
#
# Mechanical properties :
#
#
# Convention : Reuss Voigt Hill
#
# Bulk Modulus (GPa) = 28.72266 56.08809 42.40537
# Shear Modulus (GPa) = 26.41704 40.60851 33.51277
#
# Velocity S-wave (km/s) = 3.36037 4.16633 3.78486
# Velocity P-wave (km/s) = 5.22817 6.86436 6.10136
#
# Compressibility (1/GPa) = 0.03481571
#
# Stress axis : x y z
#
# Youngs Moduli (GPa) = 36.69293 68.79332 78.64120
#
# Poissons Ratio (x) = 0.51447 -0.20847
# Poissons Ratio (y) = 0.27441 0.39457
# Poissons Ratio (z) = -0.09727 0.34516
#
# Static dielectric constant tensor:
#      x y z
#    x 1.863320 0.008220 -0.024840 
#    y 0.008220 1.957030 -0.023550 
#    z -0.024840 -0.023550 1.880960 
# 
# From -- ./inp_files/246522.got.cif
#   From: 2010.05.17/outbox.cif.g08.bks.cpg/sg2_124_cif.got.tgz:246522.got - 2010.06.03 11:33:40.
