data_PCOD9057757
_publ_section_title
;
Structure prediction by ZEFSAII (Michael W. Deem and Ramdas Pophale) SiO2 
 PCOD9057757
Probable space group: P -1
;
_chemical_formula_sum "Si O2"
_cell_formula_units_Z 16
_cell_length_a 13.101371
_cell_length_b 16.640195
_cell_length_c 18.923977
_cell_angle_alpha 28.324207
_cell_angle_beta 44.085978
_cell_angle_gamma 25.305934
_cell_volume 773.195458
_symmetry_space_group_name_H-M "P -1"
_symmetry_group_IT_number 2
_symmetry_cell_setting 'triclinic'
loop_
_space_group_symop_operation_xyz
x,y,z
-x,-y,-z
loop_
_atom_site_type_symbol
_atom_site_label
_atom_site_fract_x
_atom_site_fract_y
_atom_site_fract_z
Si Si1 0.454375 0.716448 0.148278
Si Si2 0.011392 0.316340 0.825017
Si Si3 0.509800 0.339002 0.673751
Si Si4 0.439648 0.720819 0.811987
Si Si5 0.428577 0.713482 0.656620
Si Si6 0.006234 0.370283 0.305954
Si Si7 0.008326 0.299444 0.675216
Si Si8 0.818494 0.696603 0.004730
O O1 0.407385 0.677438 0.277578
O O2 0.615523 0.429933 0.243847
O O3 0.601810 0.754093 0.061442
O O4 0.187582 0.015725 0.011699
O O5 0.058853 0.454030 0.729462
O O6 0.086108 0.226597 0.775562
O O7 0.707372 0.571718 0.790048
O O8 0.500000 0.500000 0.500000
O O9 0.217635 0.551148 0.656816
O O10 0.685046 0.007229 0.828033
O O11 0.373208 0.756335 0.734954
O O12 0.210139 0.025151 0.733678
O O13 0.500000 0.500000 0.000000
O O14 0.728865 0.475083 0.678507
O O15 0.262639 0.019696 0.465499
O O16 0.981980 0.512407 0.138362
O O17 0.000000 0.500000 0.500000
O O18 0.000000 0.500000 0.000000
#
# Coordination Sequence:
#
# PCOD9057757 Si02
#       8
#     2   2   2   2   2   2   2   2
#     4  11  23  45  66  93 137 175 217 271 333 390
#     4  11  22  43  70  92 132 181 216 271 334 392
#     4  11  25  44  69  99 132 168 220 276 326 396
#     4  11  24  43  65  98 135 171 224 278 327 388
#     4  11  26  41  66 102 132 177 224 273 328 394
#     4  11  23  45  66  93 137 175 217 271 333 390
#     4  11  24  43  65  98 135 171 224 278 327 388
#     4  11  25  44  67  99 133 171 221 271 330 397
#
# _framework density 20.693346999999999
#
# number of rings (size 3 to 8) (size 9 to 14) (size 15 to 20)
#    0.000    1.000    2.500    3.750    3.500   11.000 
#    0.000    0.000    0.000    0.000    0.000    0.000 
#    0.000    0.000    0.000    0.000    0.000    0.000 
#
# Total GULP energy -89401.223990 kJ/mol
# GULP energy per Si atom -5587.576499 kJ/mol
# Density = 2.064625 g / cm^3
# Si number density = 20.693347 Si / 1000 Ang^3
#
#
#
# Elastic Constant Matrix: (Units=GPa)
#
#
# Indices 1 2 3 4 5 6 
#
# 1 93.8854 38.7033 64.2582 -4.4151 16.7447 34.0596
# 2 38.7033 122.3877 59.3356 -5.3289 14.2053 40.5357
# 3 64.2582 59.3356 174.2690 -7.9350 14.0969 30.3029
# 4 -4.4151 -5.3289 -7.9350 39.9623 5.7744 -5.0051
# 5 16.7447 14.2053 14.0969 5.7744 36.1231 1.0519
# 6 34.0596 40.5357 30.3029 -5.0051 1.0519 30.1021
#
#
#
# Elastic Compliance Matrix: (Units=1/GPa)
#
#
# Indices 1 2 3 4 5 6 
#
# 1 0.024580 0.006003 -0.004894 0.000311 -0.011006 -0.030533
# 2 0.006003 0.017627 -0.002809 0.000158 -0.007846 -0.027401
# 3 -0.004894 -0.002809 0.008362 0.000886 -0.000062 0.001051
# 4 0.000311 0.000158 0.000886 0.026344 -0.004853 0.003094
# 5 -0.011006 -0.007846 -0.000062 -0.004853 0.036058 0.021014
# 6 -0.030533 -0.027401 0.001051 0.003094 0.021014 0.103388
#
#
# Mechanical properties :
#
#
# Convention : Reuss Voigt Hill
#
# Bulk Modulus (GPa) = 21.19978 79.45959 50.32968
# Shear Modulus (GPa) = 21.23313 36.45383 28.84348
#
# Velocity S-wave (km/s) = 3.20673 4.20172 3.73748
# Velocity P-wave (km/s) = 4.89671 7.87536 6.55740
#
# Compressibility (1/GPa) = 0.04717030
#
# Stress axis : x y z
#
# Youngs Moduli (GPa) = 40.68306 56.73081 119.59453
#
# Poissons Ratio (x) = -0.34056 0.58527
# Poissons Ratio (y) = -0.24423 0.33591
# Poissons Ratio (z) = 0.19909 0.15934
#
# Static dielectric constant tensor:
#      x y z
#    x 1.782650 -0.012220 -0.017880 
#    y -0.012220 1.716660 0.026270 
#    z -0.017880 0.026270 1.824850 
# 
# From -- ./inp_files/273116.got.cif
#   From: 2010.05.17/outbox.cif.g08.bks.cpg/sg2_137_cif.got.tgz:273116.got - 2010.06.03 11:33:40.
