data_PCOD9057843
_publ_section_title
;
Structure prediction by ZEFSAII (Michael W. Deem and Ramdas Pophale) SiO2 
 PCOD9057843
Probable space group: P -1
;
_chemical_formula_sum "Si O2"
_cell_formula_units_Z 16
_cell_length_a 7.861921
_cell_length_b 11.946400
_cell_length_c 9.297507
_cell_angle_alpha 100.621763
_cell_angle_beta 95.898059
_cell_angle_gamma 53.908888
_cell_volume 693.537051
_symmetry_space_group_name_H-M "P -1"
_symmetry_group_IT_number 2
_symmetry_cell_setting 'triclinic'
loop_
_space_group_symop_operation_xyz
x,y,z
-x,-y,-z
loop_
_atom_site_type_symbol
_atom_site_label
_atom_site_fract_x
_atom_site_fract_y
_atom_site_fract_z
Si Si1 0.359605 0.715855 0.305336
Si Si2 0.210071 0.525203 0.855457
Si Si3 0.550952 0.853153 0.913648
Si Si4 0.001134 0.786792 0.689616
Si Si5 0.072577 0.183009 0.617350
Si Si6 0.801944 0.058586 0.894174
Si Si7 0.677756 0.142595 0.383037
Si Si8 0.928309 0.663531 0.093597
O O1 0.553473 0.589370 0.204934
O O2 0.222869 0.848908 0.219779
O O3 0.429577 0.762768 0.461734
O O4 0.179044 0.705543 0.352809
O O5 0.110852 0.645959 0.756007
O O6 0.100984 0.444148 0.852151
O O7 0.157873 0.597369 0.027288
O O8 0.481426 0.847427 0.745979
O O9 0.396906 0.841162 0.000581
O O10 0.780034 0.729471 0.956724
O O11 0.500000 0.000000 0.000000
O O12 0.174469 0.816404 0.666190
O O13 0.893800 0.786129 0.533146
O O14 0.830389 0.920838 0.801271
O O15 0.160431 0.212086 0.770668
O O16 0.167250 0.019437 0.591915
O O17 0.000000 0.000000 0.000000
#
# Coordination Sequence:
#
# PCOD9057843 Si02
#       8
#     2   2   2   2   2   2   2   2
#     4  11  23  46  71  99 135 178 230 277 341 396
#     4  11  27  49  64  99 141 187 228 270 339 418
#     4  12  23  41  69 101 135 176 226 280 343 395
#     4  11  23  43  71 103 137 175 231 279 339 399
#     4  11  22  44  74 101 138 175 223 296 335 394
#     4  12  22  41  71 104 132 173 232 284 327 399
#     4  11  22  43  72 107 136 170 228 295 336 390
#     4  11  26  49  64  97 146 180 225 279 345 405
#
# _framework density 23.070143000000002
#
# number of rings (size 3 to 8) (size 9 to 14) (size 15 to 20)
#    0.000    0.750    6.250    1.500    1.750    3.000 
#   13.500    1.875    0.000    0.000    0.000    0.000 
#    0.000    0.000    0.000    0.000    0.000    0.000 
#
# Total GULP energy -89352.735424 kJ/mol
# GULP energy per Si atom -5584.545964 kJ/mol
# Density = 2.301763 g / cm^3
# Si number density = 23.070143 Si / 1000 Ang^3
#
#
#
# Elastic Constant Matrix: (Units=GPa)
#
#
# Indices 1 2 3 4 5 6 
#
# 1 39.6423 15.8994 28.0109 -2.8182 -7.0311 -11.6897
# 2 15.8994 114.7190 32.8606 -12.4298 -16.6311 -7.1618
# 3 28.0109 32.8606 144.8737 -8.7190 5.9328 -16.4390
# 4 -2.8182 -12.4298 -8.7190 31.7993 -4.6832 -15.7599
# 5 -7.0311 -16.6311 5.9328 -4.6832 40.3961 1.9122
# 6 -11.6897 -7.1618 -16.4390 -15.7599 1.9122 29.5593
#
#
#
# Elastic Compliance Matrix: (Units=1/GPa)
#
#
# Indices 1 2 3 4 5 6 
#
# 1 0.035667 -0.000304 -0.004498 0.011360 0.007250 0.017117
# 2 -0.000304 0.011113 -0.001666 0.007194 0.005358 0.005135
# 3 -0.004498 -0.001666 0.009011 0.003426 -0.002623 0.004826
# 4 0.011360 0.007194 0.003426 0.056128 0.009169 0.037473
# 5 0.007250 0.005358 -0.002623 0.009169 0.029401 0.005693
# 6 0.017117 0.005135 0.004826 0.037473 0.005693 0.064138
#
#
# Mechanical properties :
#
#
# Convention : Reuss Voigt Hill
#
# Bulk Modulus (GPa) = 23.33428 50.30856 36.82142
# Shear Modulus (GPa) = 21.48878 35.18187 28.33533
#
# Velocity S-wave (km/s) = 3.05528 3.90936 3.50841
# Velocity P-wave (km/s) = 4.75214 6.49858 5.69273
#
# Compressibility (1/GPa) = 0.04285541
#
# Stress axis : x y z
#
# Youngs Moduli (GPa) = 28.03723 89.98432 110.97250
#
# Poissons Ratio (x) = 0.02738 0.49915
# Poissons Ratio (y) = 0.00853 0.18484
# Poissons Ratio (z) = 0.12611 0.14988
#
# Static dielectric constant tensor:
#      x y z
#    x 1.976820 0.006030 0.013410 
#    y 0.006030 1.884420 0.040500 
#    z 0.013410 0.040500 1.906240 
# 
# From -- ./inp_files/188540.got.cif
#   From: 2010.05.17/outbox.cif.g08.bks.cpg/sg2_95_cif.got.tgz:188540.got - 2010.06.03 11:33:40.
