data_PCOD9057822
_publ_section_title
;
Structure prediction by ZEFSAII (Michael W. Deem and Ramdas Pophale) SiO2 
 PCOD9057822
Probable space group: P -1
;
_chemical_formula_sum "Si O2"
_cell_formula_units_Z 14
_cell_length_a 12.706874
_cell_length_b 23.142478
_cell_length_c 23.374590
_cell_angle_alpha 161.860564
_cell_angle_beta 26.491957
_cell_angle_gamma 161.274410
_cell_volume 686.157001
_symmetry_space_group_name_H-M "P -1"
_symmetry_group_IT_number 2
_symmetry_cell_setting 'triclinic'
loop_
_space_group_symop_operation_xyz
x,y,z
-x,-y,-z
loop_
_atom_site_type_symbol
_atom_site_label
_atom_site_fract_x
_atom_site_fract_y
_atom_site_fract_z
Si Si1 0.873223 0.138043 0.957061
Si Si2 0.242416 0.698994 0.119825
Si Si3 0.198902 0.222260 0.537542
Si Si4 0.287274 0.742192 0.627079
Si Si5 0.291848 0.365282 0.416140
Si Si6 0.091852 0.491101 0.290490
Si Si7 0.775247 0.695297 0.178460
O O1 0.062883 0.255601 0.915651
O O2 0.858845 0.918743 0.777078
O O3 0.029141 0.336787 0.119571
O O4 0.500000 0.000000 0.000000
O O5 0.048915 0.753966 0.299957
O O6 0.565547 0.982153 0.206404
O O7 0.309775 0.549247 0.981971
O O8 0.000000 0.500000 0.000000
O O9 0.416284 0.246163 0.503997
O O10 0.451965 0.457490 0.592356
O O11 0.025398 0.954303 0.338225
O O12 0.000000 0.500000 0.500000
O O13 0.150526 0.688006 0.707214
O O14 0.500000 0.500000 0.500000
O O15 0.002430 0.354267 0.537676
O O16 0.455833 0.648211 0.282114
#
# Coordination Sequence:
#
# PCOD9057822 Si02
#       7
#     2   2   2   2   2   2   2
#     4  12  23  43  72 101 140 177 233 283 345 420
#     4  12  27  43  74 102 135 191 233 281 353 408
#     4  11  24  45  69 100 141 178 236 285 345 419
#     4  11  25  48  72 100 141 185 233 290 347 409
#     4  11  22  43  71  99 132 190 220 278 357 410
#     4  11  27  43  68 103 138 176 233 293 339 412
#     4  12  26  45  68 106 141 180 230 292 348 414
#
# _framework density 20.403493000000001
#
# number of rings (size 3 to 8) (size 9 to 14) (size 15 to 20)
#    0.000    0.571    4.286    3.429    4.000    4.571 
#    0.000    0.000    0.000    0.000    0.000    0.000 
#    0.000    0.000    0.000    0.000    0.000    0.000 
#
# Total GULP energy -78320.472248 kJ/mol
# GULP energy per Si atom -5594.319446 kJ/mol
# Density = 2.035705 g / cm^3
# Si number density = 20.403493 Si / 1000 Ang^3
#
#
#
# Elastic Constant Matrix: (Units=GPa)
#
#
# Indices 1 2 3 4 5 6 
#
# 1 121.4673 51.7857 67.1623 10.1854 -25.7402 7.3209
# 2 51.7857 83.3027 38.1344 0.9494 -19.1765 2.7561
# 3 67.1623 38.1344 132.2646 9.2858 -17.6798 -10.2250
# 4 10.1854 0.9494 9.2858 40.1770 -0.6199 -4.1337
# 5 -25.7402 -19.1765 -17.6798 -0.6199 47.7181 3.4174
# 6 7.3209 2.7561 -10.2250 -4.1337 3.4174 40.5815
#
#
#
# Elastic Compliance Matrix: (Units=1/GPa)
#
#
# Indices 1 2 3 4 5 6 
#
# 1 0.015154 -0.005724 -0.005646 -0.002791 0.004061 -0.004394
# 2 -0.005724 0.017110 -0.001752 0.001430 0.003208 -0.000695
# 3 -0.005646 -0.001752 0.011306 -0.000737 0.000151 0.003898
# 4 -0.002791 0.001430 -0.000737 0.026022 -0.001078 0.002962
# 5 0.004061 0.003208 0.000151 -0.001078 0.024700 -0.003102
# 6 -0.004394 -0.000695 0.003898 0.002962 -0.003102 0.027027
#
#
# Mechanical properties :
#
#
# Convention : Reuss Voigt Hill
#
# Bulk Modulus (GPa) = 57.71502 72.35546 65.03524
# Shear Modulus (GPa) = 32.60789 37.69213 35.15001
#
# Velocity S-wave (km/s) = 4.00203 4.30273 4.15510
# Velocity P-wave (km/s) = 7.05005 7.76041 7.41374
#
# Compressibility (1/GPa) = 0.01732651
#
# Stress axis : x y z
#
# Youngs Moduli (GPa) = 65.98906 58.44552 88.45118
#
# Poissons Ratio (x) = 0.33455 0.49936
# Poissons Ratio (y) = 0.37774 0.15495
# Poissons Ratio (z) = 0.37254 0.10239
#
# Static dielectric constant tensor:
#      x y z
#    x 1.777680 0.028530 0.032180 
#    y 0.028530 1.754390 0.010220 
#    z 0.032180 0.010220 1.698380 
# 
# From -- ./inp_files/398674.got.cif
#   From: 2010.05.17/outbox.cif.g08.bks.cpg/sg2_200_cif.got.tgz:398674.got - 2010.06.03 11:33:40.
