data_PCOD9057877
_publ_section_title
;
Structure prediction by ZEFSAII (Michael W. Deem and Ramdas Pophale) SiO2 
 PCOD9057877
Probable space group: P -1
;
_chemical_formula_sum "Si O2"
_cell_formula_units_Z 16
_cell_length_a 10.998264
_cell_length_b 9.751361
_cell_length_c 15.072431
_cell_angle_alpha 51.160763
_cell_angle_beta 114.615371
_cell_angle_gamma 72.896177
_cell_volume 710.258703
_symmetry_space_group_name_H-M "P -1"
_symmetry_group_IT_number 2
_symmetry_cell_setting 'triclinic'
loop_
_space_group_symop_operation_xyz
x,y,z
-x,-y,-z
loop_
_atom_site_type_symbol
_atom_site_label
_atom_site_fract_x
_atom_site_fract_y
_atom_site_fract_z
Si Si1 0.976635 0.480894 0.238927
Si Si2 0.302710 0.821074 0.842264
Si Si3 0.882878 0.041094 0.578862
Si Si4 0.391401 0.773152 0.407033
Si Si5 0.810978 0.686158 0.438235
Si Si6 0.604757 0.079618 0.828697
Si Si7 0.419103 0.605082 0.157942
Si Si8 0.329748 0.333644 0.324401
O O1 0.028894 0.227124 0.331473
O O2 0.078575 0.425444 0.387050
O O3 0.102890 0.476165 0.210222
O O4 0.728154 0.792019 0.030218
O O5 0.076559 0.975748 0.677430
O O6 0.323329 0.995076 0.740631
O O7 0.500000 0.500000 0.000000
O O8 0.313768 0.799489 0.961000
O O9 0.778338 0.100918 0.619036
O O10 0.679912 0.325302 0.346367
O O11 0.500000 0.500000 0.500000
O O12 0.301837 0.985106 0.215002
O O13 0.587295 0.664343 0.560899
O O14 0.646203 0.702448 0.354565
O O15 0.000000 0.500000 0.500000
O O16 0.631824 0.221507 0.842378
O O17 0.343506 0.480432 0.199718
O O18 0.500000 0.000000 0.500000
#
# Coordination Sequence:
#
# PCOD9057877 Si02
#       8
#     2   2   2   2   2   2   2   2
#     4  12  26  43  72 108 140 188 237 301 357 418
#     4  12  28  46  72 102 141 189 245 292 343 433
#     4  11  25  46  71 103 142 189 233 298 362 413
#     4  11  22  43  73 103 144 182 232 295 358 425
#     4  12  28  48  70 100 149 193 237 294 352 428
#     4  12  26  43  72 109 139 187 241 294 357 425
#     4  11  25  46  71 104 141 187 238 291 356 430
#     4  11  22  43  73 103 145 180 228 294 363 424
#
# _framework density 22.527003000000001
#
# number of rings (size 3 to 8) (size 9 to 14) (size 15 to 20)
#    0.000    0.500    6.250    3.000    1.750    9.000 
#    0.000    0.000    0.000    0.000    0.000    0.000 
#    0.000    0.000    0.000    0.000    0.000    0.000 
#
# Total GULP energy -89517.744701 kJ/mol
# GULP energy per Si atom -5594.859044 kJ/mol
# Density = 2.247573 g / cm^3
# Si number density = 22.527003 Si / 1000 Ang^3
#
#
#
# Elastic Constant Matrix: (Units=GPa)
#
#
# Indices 1 2 3 4 5 6 
#
# 1 54.7490 -1.0004 2.5034 16.1916 11.9444 2.6332
# 2 -1.0004 70.4999 -2.6159 -0.2913 2.5281 5.6115
# 3 2.5034 -2.6159 89.7580 8.7618 -6.7443 -0.7010
# 4 16.1916 -0.2913 8.7618 37.7377 -1.2454 0.1513
# 5 11.9444 2.5281 -6.7443 -1.2454 34.2125 3.3761
# 6 2.6332 5.6115 -0.7010 0.1513 3.3761 31.5863
#
#
#
# Elastic Compliance Matrix: (Units=1/GPa)
#
#
# Indices 1 2 3 4 5 6 
#
# 1 0.023193 0.000668 -0.000281 -0.010156 -0.008463 -0.001105
# 2 0.000668 0.014440 0.000335 -0.000276 -0.000997 -0.002506
# 3 -0.000281 0.000335 0.011572 -0.002489 0.002265 -0.000009
# 4 -0.010156 -0.000276 -0.002489 0.031569 0.004201 0.000240
# 5 -0.008463 -0.000997 0.002265 0.004201 0.033116 -0.002627
# 6 -0.001105 -0.002506 -0.000009 0.000240 -0.002627 0.032476
#
#
# Mechanical properties :
#
#
# Convention : Reuss Voigt Hill
#
# Bulk Modulus (GPa) = 19.74345 23.64235 21.69290
# Shear Modulus (GPa) = 30.90137 35.11528 33.00833
#
# Velocity S-wave (km/s) = 3.70773 3.95246 3.83205
# Velocity P-wave (km/s) = 5.20702 5.59885 5.40649
#
# Compressibility (1/GPa) = 0.05064970
#
# Stress axis : x y z
#
# Youngs Moduli (GPa) = 43.11634 69.25023 86.41778
#
# Poissons Ratio (x) = -0.04627 0.02424
# Poissons Ratio (y) = -0.02881 -0.02892
# Poissons Ratio (z) = 0.01210 -0.02317
#
# Static dielectric constant tensor:
#      x y z
#    x 1.928570 -0.018760 -0.025010 
#    y -0.018760 1.815140 -0.014810 
#    z -0.025010 -0.014810 1.847750 
# 
# From -- ./inp_files/515227.got.cif
#   From: 2010.05.17/outbox.cif.g08.bks.cpg/sg2_258_cif.got.tgz:515227.got - 2010.06.03 11:33:40.
