data_PCOD9057471
_publ_section_title
;
Structure prediction by ZEFSAII (Michael W. Deem and Ramdas Pophale) SiO2 
 PCOD9057471
Probable space group: P -1
;
_chemical_formula_sum "Si O2"
_cell_formula_units_Z 14
_cell_length_a 8.863727
_cell_length_b 12.784035
_cell_length_c 21.351911
_cell_angle_alpha 26.835000
_cell_angle_beta 135.591953
_cell_angle_gamma 118.299751
_cell_volume 654.152587
_symmetry_space_group_name_H-M "P -1"
_symmetry_group_IT_number 2
_symmetry_cell_setting 'triclinic'
loop_
_space_group_symop_operation_xyz
x,y,z
-x,-y,-z
loop_
_atom_site_type_symbol
_atom_site_label
_atom_site_fract_x
_atom_site_fract_y
_atom_site_fract_z
Si Si1 0.994599 0.257364 0.662217
Si Si2 0.509546 0.711977 0.079458
Si Si3 0.208170 0.213574 0.440632
Si Si4 0.730418 0.037218 0.921044
Si Si5 0.334773 0.366844 0.529922
Si Si6 0.473424 0.585499 0.633845
Si Si7 0.368579 0.600374 0.840291
O O1 0.000000 0.500000 0.500000
O O2 0.888399 0.400803 0.619819
O O3 0.785536 0.222907 0.582244
O O4 0.257975 0.981462 0.884417
O O5 0.579219 0.486591 0.274219
O O6 0.477064 0.600238 0.063536
O O7 0.708578 0.805542 0.074194
O O8 0.256178 0.302372 0.475511
O O9 0.345887 0.294694 0.386042
O O10 0.910489 0.358629 0.262407
O O11 0.321386 0.893986 0.650931
O O12 0.529450 0.105346 0.768293
O O13 0.605567 0.302583 0.785974
O O14 0.000000 0.000000 0.000000
O O15 0.500000 0.500000 0.500000
O O16 0.500000 0.500000 0.000000
#
# Coordination Sequence:
#
# PCOD9057471 Si02
#       7
#     2   2   2   2   2   2   2
#     4  11  24  41  65 107 150 181 221 290 365 421
#     4  12  26  43  68 103 141 185 238 291 356 420
#     4  11  25  50  72 104 141 187 246 289 352 422
#     4  11  23  38  66 104 143 183 232 286 349 426
#     4  11  22  42  71 103 141 185 225 285 358 421
#     4  11  25  41  68 104 143 184 225 294 361 423
#     4  11  28  49  77  98 136 193 248 299 341 425
#
# _framework density 21.401733
#
# number of rings (size 3 to 8) (size 9 to 14) (size 15 to 20)
#    0.000    0.857    5.714    2.143    4.000    2.857 
#    0.000    1.429    0.000    0.000    0.000    0.000 
#    0.000    0.000    0.000    0.000    0.000    0.000 
#
# Total GULP energy -78217.007534 kJ/mol
# GULP energy per Si atom -5586.929110 kJ/mol
# Density = 2.135302 g / cm^3
# Si number density = 21.401733 Si / 1000 Ang^3
#
#
#
# Elastic Constant Matrix: (Units=GPa)
#
#
# Indices 1 2 3 4 5 6 
#
# 1 149.4213 59.7110 53.3826 10.0732 -11.1725 10.1481
# 2 59.7110 103.3290 46.9057 19.9455 0.5518 7.0286
# 3 53.3826 46.9057 109.9123 23.0589 0.2694 -2.1016
# 4 10.0732 19.9455 23.0589 38.7909 -6.5271 -4.3490
# 5 -11.1725 0.5518 0.2694 -6.5271 34.7648 -5.3494
# 6 10.1481 7.0286 -2.1016 -4.3490 -5.3494 38.7497
#
#
#
# Elastic Compliance Matrix: (Units=1/GPa)
#
#
# Indices 1 2 3 4 5 6 
#
# 1 0.009916 -0.004569 -0.003366 0.002231 0.003517 -0.001215
# 2 -0.004569 0.014977 -0.003056 -0.005534 -0.003143 -0.002741
# 3 -0.003366 -0.003056 0.013246 -0.005625 -0.002000 0.001247
# 4 0.002231 -0.005534 -0.005625 0.033263 0.007852 0.004932
# 5 0.003517 -0.003143 -0.002000 0.007852 0.032183 0.004865
# 6 -0.001215 -0.002741 0.001247 0.004932 0.004865 0.027915
#
#
# Mechanical properties :
#
#
# Convention : Reuss Voigt Hill
#
# Bulk Modulus (GPa) = 61.89413 75.85124 68.87269
# Shear Modulus (GPa) = 31.47267 35.97198 33.72232
#
# Velocity S-wave (km/s) = 3.83896 4.10420 3.97379
# Velocity P-wave (km/s) = 6.97374 7.61432 7.30106
#
# Compressibility (1/GPa) = 0.01615662
#
# Stress axis : x y z
#
# Youngs Moduli (GPa) = 100.84744 66.76994 75.49379
#
# Poissons Ratio (x) = 0.30507 0.25412
# Poissons Ratio (y) = 0.46076 0.23072
# Poissons Ratio (z) = 0.33946 0.20406
#
# Static dielectric constant tensor:
#      x y z
#    x 2.890600 -0.079450 -0.958870 
#    y -0.079450 1.777780 0.117340 
#    z -0.958870 0.117340 2.674900 
# 
# From -- ./inp_files/416209.got.cif
#   From: 2010.05.17/outbox.cif.g08.bks.cpg/sg2_209_cif.got.tgz:416209.got - 2010.06.03 11:33:40.
