data_PCOD9057118
_publ_section_title
;
Structure prediction by ZEFSAII (Michael W. Deem and Ramdas Pophale) SiO2 
 PCOD9057118
Probable space group: P -1
;
_chemical_formula_sum "Si O2"
_cell_formula_units_Z 15
_cell_length_a 9.613081
_cell_length_b 11.488438
_cell_length_c 15.726631
_cell_angle_alpha 55.525932
_cell_angle_beta 115.744248
_cell_angle_gamma 68.529173
_cell_volume 730.677944
_symmetry_space_group_name_H-M "P -1"
_symmetry_group_IT_number 2
_symmetry_cell_setting 'triclinic'
loop_
_space_group_symop_operation_xyz
x,y,z
-x,-y,-z
loop_
_atom_site_type_symbol
_atom_site_label
_atom_site_fract_x
_atom_site_fract_y
_atom_site_fract_z
Si Si1 0.993845 0.168282 0.821508
Si Si2 0.757523 0.740608 0.396101
Si Si3 0.962815 0.538887 0.253708
Si Si4 0.746429 0.083780 0.827873
Si Si5 0.856318 0.382898 0.996218
Si Si6 0.414805 0.860975 0.918575
Si Si7 0.500000 0.500000 0.000000
Si Si8 0.751152 0.742550 0.725214
O O1 0.953141 0.364901 0.742241
O O2 0.743911 0.249304 0.732082
O O3 0.140947 0.038164 0.824850
O O4 0.193829 0.972930 0.032659
O O5 0.521964 0.801396 0.311140
O O6 0.000000 0.500000 0.500000
O O7 0.873094 0.679176 0.546157
O O8 0.640333 0.971441 0.230651
O O9 0.034200 0.456054 0.209726
O O10 0.643670 0.747536 0.090935
O O11 0.998980 0.820750 0.953628
O O12 0.660755 0.441221 0.981002
O O13 0.104408 0.259949 0.169805
O O14 0.703885 0.631507 0.809105
O O15 0.512155 0.648204 0.985342
O O16 0.500000 0.000000 0.500000
#
# Coordination Sequence:
#
# PCOD9057118 Si02
#       8
#     2   2   2   2   2   2   1   2
#     4  11  22  41  70  98 133 174 221 278 340 398
#     4  12  25  42  70 104 136 177 225 277 342 406
#     4  12  23  42  70  99 131 179 227 278 341 403
#     4  11  23  42  70 100 133 176 222 277 336 405
#     4  11  23  46  67  96 133 178 223 275 339 401
#     4  12  24  48  67  97 139 180 227 278 341 406
#     4  12  26  44  74  94 138 190 222 284 344 402
#     4  11  24  41  68  97 128 176 229 276 331 404
#
# _framework density 20.528877999999999
#
# number of rings (size 3 to 8) (size 9 to 14) (size 15 to 20)
#    0.000    0.533    6.667    2.000    3.733    0.533 
#    0.000    2.667    0.000    0.000    0.000    0.000 
#    0.000    0.000    0.000    0.000    0.000    0.000 
#
# Total GULP energy -83586.387751 kJ/mol
# GULP energy per Si atom -5572.425850 kJ/mol
# Density = 2.048215 g / cm^3
# Si number density = 20.528878 Si / 1000 Ang^3
#
#
#
# Elastic Constant Matrix: (Units=GPa)
#
#
# Indices 1 2 3 4 5 6 
#
# 1 146.1600 25.1542 50.8848 -2.6984 -2.8333 12.8768
# 2 25.1542 89.7487 -0.6992 2.5764 -5.8356 11.8330
# 3 50.8848 -0.6992 107.0562 11.8197 -15.5913 17.9949
# 4 -2.6984 2.5764 11.8197 22.8341 -7.8475 -3.8696
# 5 -2.8333 -5.8356 -15.5913 -7.8475 -1.5503 -8.5506
# 6 12.8768 11.8330 17.9949 -3.8696 -8.5506 37.0254
#
#
#
# Elastic Compliance Matrix: (Units=1/GPa)
#
#
# Indices 1 2 3 4 5 6 
#
# 1 0.008902 -0.002603 -0.004478 0.005293 0.004049 0.001401
# 2 -0.002603 0.012508 0.002216 -0.005477 -0.004722 -0.005832
# 3 -0.004478 0.002216 0.012816 -0.012972 -0.011539 -0.009400
# 4 0.005293 -0.005477 -0.012972 0.036675 -0.043832 -0.000076
# 5 0.004049 -0.004722 -0.011539 -0.043832 -0.133245 -0.029644
# 6 0.001401 -0.005832 -0.009400 -0.000076 -0.029644 0.026100
#
#
# Mechanical properties :
#
#
# Convention : Reuss Voigt Hill
#
# Bulk Modulus (GPa) = 40.82349 54.84938 47.83643
# Shear Modulus (GPa) = -272.48100 29.50352 -121.48874
#
# Velocity S-wave (km/s) = -11.53337 3.79512 -7.70116
# Velocity P-wave (km/s) = 12.54708 6.78086 7.46489
#
# Compressibility (1/GPa) = 0.02449570
#
# Stress axis : x y z
#
# Youngs Moduli (GPa) = 112.33877 79.94723 78.03023
#
# Poissons Ratio (x) = 0.20811 0.34943
# Poissons Ratio (y) = 0.29243 -0.17294
# Poissons Ratio (z) = 0.50307 -0.17719
#
# Static dielectric constant tensor:
#      x y z
#    x 1.735880 -0.016860 0.005430 
#    y -0.016860 1.724930 -0.025600 
#    z 0.005430 -0.025600 1.736440 
# 
# From -- ./inp_files/280194.got.cif
#   From: 2010.05.17/outbox.cif.g08.bks.cpg/sg2_141_cif.got.tgz:280194.got - 2010.06.03 11:33:40.
