data_PCOD9057212
_publ_section_title
;
Structure prediction by ZEFSAII (Michael W. Deem and Ramdas Pophale) SiO2 
 PCOD9057212
Probable space group: P -1
;
_chemical_formula_sum "Si O2"
_cell_formula_units_Z 14
_cell_length_a 9.094784
_cell_length_b 11.565593
_cell_length_c 9.207090
_cell_angle_alpha 120.959911
_cell_angle_beta 131.150495
_cell_angle_gamma 54.462687
_cell_volume 579.480873
_symmetry_space_group_name_H-M "P -1"
_symmetry_group_IT_number 2
_symmetry_cell_setting 'triclinic'
loop_
_space_group_symop_operation_xyz
x,y,z
-x,-y,-z
loop_
_atom_site_type_symbol
_atom_site_label
_atom_site_fract_x
_atom_site_fract_y
_atom_site_fract_z
Si Si1 0.378285 0.676894 0.687583
Si Si2 0.066717 0.680762 0.285292
Si Si3 0.631865 0.051828 0.992038
Si Si4 0.137186 0.186571 0.224423
Si Si5 0.263510 0.213467 0.631628
Si Si6 0.279378 0.529227 0.793439
Si Si7 0.184473 0.358389 0.144112
O O1 0.297885 0.670585 0.468341
O O2 0.311735 0.569916 0.675312
O O3 0.627137 0.637684 0.830044
O O4 0.289505 0.837115 0.800804
O O5 0.056096 0.523306 0.204941
O O6 0.921142 0.783511 0.377677
O O7 0.961075 0.710994 0.079892
O O8 0.467776 0.136548 0.813306
O O9 0.822984 0.943858 0.947627
O O10 0.500000 0.000000 0.000000
O O11 0.232579 0.141030 0.415594
O O12 0.278307 0.263208 0.283213
O O13 0.910672 0.322740 0.178124
O O14 0.240254 0.378968 0.682950
O O15 0.500000 0.500000 0.000000
#
# Coordination Sequence:
#
# PCOD9057212 Si02
#       7
#     2   2   2   2   2   2   2
#     4  12  24  45  73 105 149 191 253 295 365 441
#     4  11  22  41  73 107 140 193 237 306 362 433
#     4  12  26  50  72 103 154 201 241 303 366 446
#     4  12  25  46  75 104 147 200 237 300 381 429
#     4  12  23  47  74 106 149 192 240 308 375 429
#     4  12  24  44  74 110 144 183 244 313 364 428
#     4  11  23  44  72 105 150 187 243 301 373 422
#
# _framework density 24.159554
#
# number of rings (size 3 to 8) (size 9 to 14) (size 15 to 20)
#    0.000    0.286    7.143    2.143    2.000    0.571 
#    0.000    2.857    0.000    0.000    0.000    0.000 
#    0.000    0.000    0.000    0.000    0.000    0.000 
#
# Total GULP energy -78109.354290 kJ/mol
# GULP energy per Si atom -5579.239592 kJ/mol
# Density = 2.410457 g / cm^3
# Si number density = 24.159554 Si / 1000 Ang^3
#
#
#
# Elastic Constant Matrix: (Units=GPa)
#
#
# Indices 1 2 3 4 5 6 
#
# 1 70.2668 20.2456 24.0813 -6.3988 -14.0035 -10.3302
# 2 20.2456 69.6514 38.4360 -9.5448 -9.1365 -7.5015
# 3 24.0813 38.4360 165.2668 -9.6308 -10.8688 -15.3776
# 4 -6.3988 -9.5448 -9.6308 28.8399 -4.8821 -5.8248
# 5 -14.0035 -9.1365 -10.8688 -4.8821 40.9950 -1.0288
# 6 -10.3302 -7.5015 -15.3776 -5.8248 -1.0288 33.4638
#
#
#
# Elastic Compliance Matrix: (Units=1/GPa)
#
#
# Indices 1 2 3 4 5 6 
#
# 1 0.017721 -0.002671 -0.000763 0.004930 0.005983 0.005563
# 2 -0.002671 0.018310 -0.003069 0.005558 0.003090 0.002932
# 3 -0.000763 -0.003069 0.007349 0.002069 0.001322 0.002854
# 4 0.004930 0.005558 0.002069 0.042066 0.008765 0.011310
# 5 0.005983 0.003090 0.001322 0.008765 0.028659 0.005554
# 6 0.005563 0.002932 0.002854 0.011310 0.005554 0.035709
#
#
# Mechanical properties :
#
#
# Convention : Reuss Voigt Hill
#
# Bulk Modulus (GPa) = 32.92182 52.30119 42.61150
# Shear Modulus (GPa) = 28.91091 35.48789 32.19940
#
# Velocity S-wave (km/s) = 3.46304 3.83678 3.65469
# Velocity P-wave (km/s) = 5.44487 6.42830 5.95691
#
# Compressibility (1/GPa) = 0.03037499
#
# Stress axis : x y z
#
# Youngs Moduli (GPa) = 56.42870 54.61503 136.07490
#
# Poissons Ratio (x) = 0.14586 0.10378
# Poissons Ratio (y) = 0.15070 0.41765
# Poissons Ratio (z) = 0.04304 0.16763
#
# Static dielectric constant tensor:
#      x y z
#    x 1.984000 -0.046110 -0.011960 
#    y -0.046110 2.084310 -0.001150 
#    z -0.011960 -0.001150 1.950390 
# 
# From -- ./inp_files/190440.got.cif
#   From: 2010.05.17/outbox.cif.g08.bks.cpg/sg2_96_cif.got.tgz:190440.got - 2010.06.03 11:33:40.
