data_PCOD9057693
_publ_section_title
;
Structure prediction by ZEFSAII (Michael W. Deem and Ramdas Pophale) SiO2 
 PCOD9057693
Probable space group: P -1
;
_chemical_formula_sum "Si O2"
_cell_formula_units_Z 16
_cell_length_a 21.782631
_cell_length_b 7.493611
_cell_length_c 19.251517
_cell_angle_alpha 46.084530
_cell_angle_beta 19.678981
_cell_angle_gamma 37.669471
_cell_volume 625.922708
_symmetry_space_group_name_H-M "P -1"
_symmetry_group_IT_number 2
_symmetry_cell_setting 'triclinic'
loop_
_space_group_symop_operation_xyz
x,y,z
-x,-y,-z
loop_
_atom_site_type_symbol
_atom_site_label
_atom_site_fract_x
_atom_site_fract_y
_atom_site_fract_z
Si Si1 0.059445 0.849144 0.152924
Si Si2 0.592493 0.153809 0.987973
Si Si3 0.679330 0.844278 0.409256
Si Si4 0.549009 0.619756 0.733891
Si Si5 0.731562 0.966729 0.743667
Si Si6 0.134370 0.401062 0.065394
Si Si7 0.182864 0.326902 0.442565
Si Si8 0.746373 0.326382 0.253995
O O1 0.111652 0.593549 0.107336
O O2 0.900241 0.852185 0.379933
O O3 0.290613 0.743461 0.970728
O O4 0.931778 0.164125 0.160846
O O5 0.363931 0.163458 0.231392
O O6 0.500000 0.500000 0.000000
O O7 0.758203 0.027503 0.780776
O O8 0.734109 0.936521 0.958373
O O9 0.572069 0.817731 0.599315
O O10 0.895782 0.510738 0.259997
O O11 0.500000 0.000000 0.500000
O O12 0.776478 0.043953 0.258029
O O13 0.678988 0.260496 0.679375
O O14 0.673353 0.635137 0.663856
O O15 0.960799 0.645794 0.571901
O O16 0.500000 0.000000 0.000000
O O17 0.244947 0.464129 0.867839
O O18 0.500000 0.500000 0.500000
#
# Coordination Sequence:
#
# PCOD9057693 Si02
#       8
#     2   2   2   2   2   2   2   2
#     4  11  22  45  70 100 136 188 229 285 355 425
#     4  12  26  42  71 107 138 185 241 289 347 416
#     4  11  23  42  70 103 132 183 238 282 354 423
#     4  12  22  41  72  97 138 180 236 283 349 415
#     4  12  25  47  69 101 141 193 229 288 353 420
#     4  11  22  43  68  96 142 182 233 287 352 421
#     4  12  24  44  72  98 144 181 239 283 358 403
#     4  11  23  42  68  97 140 179 227 294 357 414
#
# _framework density 25.562262
#
# number of rings (size 3 to 8) (size 9 to 14) (size 15 to 20)
#    0.000    0.500    6.250    4.125    1.750    0.500 
#    2.250    1.250    2.750    0.000    0.000    0.000 
#    0.000    0.000    0.000    0.000    0.000    0.000 
#
# Total GULP energy -89483.113597 kJ/mol
# GULP energy per Si atom -5592.694600 kJ/mol
# Density = 2.550408 g / cm^3
# Si number density = 25.562262 Si / 1000 Ang^3
#
#
#
# Elastic Constant Matrix: (Units=GPa)
#
#
# Indices 1 2 3 4 5 6 
#
# 1 50.3831 22.6671 43.2430 14.9751 -21.9599 -17.6761
# 2 22.6671 135.5206 33.1885 8.9191 -5.5802 -44.8953
# 3 43.2430 33.1885 140.1044 6.9572 4.3291 -26.5413
# 4 14.9751 8.9191 6.9572 59.7478 -11.9336 -3.7991
# 5 -21.9599 -5.5802 4.3291 -11.9336 59.8831 10.1119
# 6 -17.6761 -44.8953 -26.5413 -3.7991 10.1119 43.8560
#
#
#
# Elastic Compliance Matrix: (Units=1/GPa)
#
#
# Indices 1 2 3 4 5 6 
#
# 1 0.038588 -0.001634 -0.010950 -0.005297 0.013097 0.003774
# 2 -0.001634 0.011383 0.000048 -0.000902 -0.001634 0.011322
# 3 -0.010950 0.000048 0.011362 0.000586 -0.005357 0.003798
# 4 -0.005297 -0.000902 0.000586 0.018404 0.001859 -0.001538
# 5 0.013097 -0.001634 -0.005357 0.001859 0.022911 -0.004757
# 6 0.003774 0.011322 0.003798 -0.001538 -0.004757 0.039175
#
#
# Mechanical properties :
#
#
# Convention : Reuss Voigt Hill
#
# Bulk Modulus (GPa) = 27.57781 58.24503 42.91142
# Shear Modulus (GPa) = 27.93561 47.82470 37.88015
#
# Velocity S-wave (km/s) = 3.30941 4.33009 3.85369
# Velocity P-wave (km/s) = 5.04131 6.91626 6.05184
#
# Compressibility (1/GPa) = 0.03626103
#
# Stress axis : x y z
#
# Youngs Moduli (GPa) = 25.91468 87.84711 88.01560
#
# Poissons Ratio (x) = 0.14358 0.96374
# Poissons Ratio (y) = 0.04236 -0.00423
# Poissons Ratio (z) = 0.28376 -0.00422
#
# Static dielectric constant tensor:
#      x y z
#    x 2.347610 0.131210 0.051560 
#    y 0.131210 2.055580 0.090250 
#    z 0.051560 0.090250 2.115150 
# 
# From -- ./inp_files/601931.got.cif
#   From: 2010.05.17/outbox.cif.g08.bks.cpg/sg2_301_cif.got.tgz:601931.got - 2010.06.03 11:33:40.
