data_PCOD9057767
_publ_section_title
;
Structure prediction by ZEFSAII (Michael W. Deem and Ramdas Pophale) SiO2 
 PCOD9057767
Probable space group: P -1
;
_chemical_formula_sum "Si O2"
_cell_formula_units_Z 16
_cell_length_a 8.580329
_cell_length_b 9.087310
_cell_length_c 16.125201
_cell_angle_alpha 80.790798
_cell_angle_beta 71.793908
_cell_angle_gamma 131.134967
_cell_volume 773.262418
_symmetry_space_group_name_H-M "P -1"
_symmetry_group_IT_number 2
_symmetry_cell_setting 'triclinic'
loop_
_space_group_symop_operation_xyz
x,y,z
-x,-y,-z
loop_
_atom_site_type_symbol
_atom_site_label
_atom_site_fract_x
_atom_site_fract_y
_atom_site_fract_z
Si Si1 0.173124 0.689106 0.522820
Si Si2 0.614331 0.219624 0.916239
Si Si3 0.027334 0.126694 0.404365
Si Si4 0.286718 0.456563 0.000363
Si Si5 0.763711 0.919454 0.145934
Si Si6 0.117862 0.557815 0.723064
Si Si7 0.591726 0.473798 0.213996
Si Si8 0.297341 0.004254 0.671032
O O1 0.171852 0.589162 0.614386
O O2 0.000000 0.500000 0.500000
O O3 0.060385 0.771558 0.558193
O O4 0.451622 0.882641 0.423813
O O5 0.414241 0.161676 0.894481
O O6 0.839799 0.318508 0.812531
O O7 0.719806 0.403135 0.952678
O O8 0.500000 0.000000 0.000000
O O9 0.308681 0.318352 0.303422
O O10 0.842427 0.976564 0.369427
O O11 0.000000 0.000000 0.500000
O O12 0.376022 0.554932 0.883756
O O13 0.500000 0.500000 0.000000
O O14 0.028450 0.185233 0.066890
O O15 0.762618 0.739632 0.168179
O O16 0.657073 0.900844 0.254011
O O17 0.309818 0.589778 0.738579
O O18 0.131691 0.741593 0.729314
#
# Coordination Sequence:
#
# PCOD9057767 Si02
#       8
#     2   2   2   2   2   2   2   2
#     4  11  23  42  68  97 132 175 226 278 338 404
#     4  12  27  46  70 101 136 182 231 279 333 408
#     4  11  23  44  67 100 137 176 226 279 341 403
#     4  12  26  46  70 101 141 178 227 281 341 396
#     4  12  25  46  70 101 139 180 227 279 341 402
#     4  11  24  44  65  99 136 174 228 277 339 399
#     4  12  25  42  70 101 138 180 225 280 340 406
#     4  11  22  43  70  96 135 180 221 282 339 397
#
# _framework density 20.691552999999999
#
# number of rings (size 3 to 8) (size 9 to 14) (size 15 to 20)
#    0.000    0.500    2.500    7.875    3.500    2.000 
#    2.250    2.500    0.000    0.000    0.000    0.000 
#    0.000    0.000    0.000    0.000    0.000    0.000 
#
# Total GULP energy -89478.140644 kJ/mol
# GULP energy per Si atom -5592.383790 kJ/mol
# Density = 2.064446 g / cm^3
# Si number density = 20.691553 Si / 1000 Ang^3
#
#
#
# Elastic Constant Matrix: (Units=GPa)
#
#
# Indices 1 2 3 4 5 6 
#
# 1 109.9849 15.8290 57.8242 3.3664 18.5466 13.0100
# 2 15.8290 79.4195 48.8661 11.9798 9.9967 13.8603
# 3 57.8242 48.8661 176.4949 6.6996 7.8133 9.5220
# 4 3.3664 11.9798 6.6996 41.0900 11.8433 -1.1451
# 5 18.5466 9.9967 7.8133 11.8433 48.3371 -3.7843
# 6 13.0100 13.8603 9.5220 -1.1451 -3.7843 25.0132
#
#
#
# Elastic Compliance Matrix: (Units=1/GPa)
#
#
# Indices 1 2 3 4 5 6 
#
# 1 0.012626 0.001737 -0.004040 0.000424 -0.005184 -0.006757
# 2 0.001737 0.017832 -0.004686 -0.003865 -0.003409 -0.009693
# 3 -0.004040 -0.004686 0.008129 0.000037 0.001338 0.001807
# 4 0.000424 -0.003865 0.000037 0.027172 -0.005849 0.002266
# 5 -0.005184 -0.003409 0.001338 -0.005849 0.025195 0.007620
# 6 -0.006757 -0.009693 0.001807 0.002266 0.007620 0.049433
#
#
# Mechanical properties :
#
#
# Convention : Reuss Voigt Hill
#
# Bulk Modulus (GPa) = 40.63380 67.88197 54.25788
# Shear Modulus (GPa) = 30.75638 39.11340 34.93489
#
# Velocity S-wave (km/s) = 3.85960 4.35248 4.11343
# Velocity P-wave (km/s) = 6.28828 7.62474 6.98853
#
# Compressibility (1/GPa) = 0.02461006
#
# Stress axis : x y z
#
# Youngs Moduli (GPa) = 79.19882 56.07922 123.02281
#
# Poissons Ratio (x) = -0.09740 0.49697
# Poissons Ratio (y) = -0.13755 0.57643
# Poissons Ratio (z) = 0.31994 0.26276
#
# Static dielectric constant tensor:
#      x y z
#    x 1.716980 -0.013270 0.008980 
#    y -0.013270 2.163530 -0.250610 
#    z 0.008980 -0.250610 1.895190 
# 
# From -- ./inp_files/494864.got.cif
#   From: 2010.05.17/outbox.cif.g08.bks.cpg/sg2_248_cif.got.tgz:494864.got - 2010.06.03 11:33:40.
