data_PCOD9057221
_publ_section_title
;
Structure prediction by ZEFSAII (Michael W. Deem and Ramdas Pophale) SiO2 
 PCOD9057221
Probable space group: P -1
;
_chemical_formula_sum "Si O2"
_cell_formula_units_Z 13
_cell_length_a 8.709766
_cell_length_b 12.124220
_cell_length_c 8.131729
_cell_angle_alpha 126.356026
_cell_angle_beta 107.840742
_cell_angle_gamma 52.002574
_cell_volume 542.646798
_symmetry_space_group_name_H-M "P -1"
_symmetry_group_IT_number 2
_symmetry_cell_setting 'triclinic'
loop_
_space_group_symop_operation_xyz
x,y,z
-x,-y,-z
loop_
_atom_site_type_symbol
_atom_site_label
_atom_site_fract_x
_atom_site_fract_y
_atom_site_fract_z
Si Si1 0.278255 0.650404 0.027386
Si Si2 0.260788 0.847675 0.626527
Si Si3 0.209890 0.471530 0.562961
Si Si4 0.221794 0.935511 0.054739
Si Si5 0.054531 0.169552 0.649766
Si Si6 0.500000 0.500000 0.500000
Si Si7 0.320113 0.151244 0.475459
O O1 0.199319 0.597074 0.804228
O O2 0.500000 0.500000 0.000000
O O3 0.294569 0.797477 0.096424
O O4 0.114234 0.717916 0.174429
O O5 0.397511 0.651387 0.464333
O O6 0.044381 0.886628 0.563475
O O7 0.228391 0.002266 0.651745
O O8 0.320778 0.852553 0.838358
O O9 0.295959 0.507772 0.464392
O O10 0.344007 0.284154 0.513029
O O11 0.000000 0.500000 0.500000
O O12 0.256338 0.071942 0.246170
O O13 0.000000 0.000000 0.000000
O O14 0.150837 0.242694 0.640088
O O15 0.500000 0.000000 0.500000
#
# Coordination Sequence:
#
# PCOD9057221 Si02
#       7
#     2   2   2   2   2   1   2
#     4  12  25  45  75 111 150 201 251 311 383 457
#     4  11  22  41  74 109 135 197 251 306 363 453
#     4  12  27  47  74 110 152 191 249 323 375 443
#     4  12  21  45  76 104 143 198 255 305 370 452
#     4  11  23  42  71 104 150 194 249 304 381 441
#     4  12  24  48  74 108 148 196 250 312 384 446
#     4  12  26  47  69 106 154 193 248 317 375 446
#
# _framework density 23.956648999999999
#
# number of rings (size 3 to 8) (size 9 to 14) (size 15 to 20)
#    0.000    0.308    4.615    5.538    0.000    0.615 
#    2.769    1.538    0.000    0.000    0.000    0.000 
#    0.000    0.000    0.000    0.000    0.000    0.000 
#
# Total GULP energy -72403.731347 kJ/mol
# GULP energy per Si atom -5569.517796 kJ/mol
# Density = 2.390212 g / cm^3
# Si number density = 23.956649 Si / 1000 Ang^3
#
#
#
# Elastic Constant Matrix: (Units=GPa)
#
#
# Indices 1 2 3 4 5 6 
#
# 1 143.6596 61.8138 25.0384 4.9355 -0.5420 38.6262
# 2 61.8138 137.7329 -0.1852 16.1995 -7.6058 4.3441
# 3 25.0384 -0.1852 85.5349 4.5257 -10.2234 11.9089
# 4 4.9355 16.1995 4.5257 26.1926 2.7422 9.4703
# 5 -0.5420 -7.6058 -10.2234 2.7422 28.9001 4.5126
# 6 38.6262 4.3441 11.9089 9.4703 4.5126 60.6028
#
#
#
# Elastic Compliance Matrix: (Units=1/GPa)
#
#
# Indices 1 2 3 4 5 6 
#
# 1 0.011592 -0.005600 -0.002858 0.004473 -0.001598 -0.007006
# 2 -0.005600 0.010759 0.002037 -0.007526 0.003645 0.003302
# 3 -0.002858 0.002037 0.013515 -0.003335 0.005718 -0.000885
# 4 0.004473 -0.007526 -0.003335 0.046258 -0.006150 -0.008427
# 5 -0.001598 0.003645 0.005718 -0.006150 0.038492 -0.002272
# 6 -0.007006 0.003302 -0.000885 -0.008427 -0.002272 0.022389
#
#
# Mechanical properties :
#
#
# Convention : Reuss Voigt Hill
#
# Bulk Modulus (GPa) = 43.43224 60.02906 51.73065
# Shear Modulus (GPa) = 30.57687 41.82312 36.20000
#
# Velocity S-wave (km/s) = 3.57647 4.18279 3.89146
# Velocity P-wave (km/s) = 5.93496 6.95984 6.46773
#
# Compressibility (1/GPa) = 0.02302437
#
# Stress axis : x y z
#
# Youngs Moduli (GPa) = 86.26339 92.94793 73.99068
#
# Poissons Ratio (x) = 0.52049 0.21145
# Poissons Ratio (y) = 0.48306 -0.15069
# Poissons Ratio (z) = 0.24652 -0.18930
#
# Static dielectric constant tensor:
#      x y z
#    x 1.987550 -0.045610 -0.024080 
#    y -0.045610 2.144100 0.290450 
#    z -0.024080 0.290450 2.448350 
# 
# From -- ./inp_files/173437.got.cif
#   From: 2010.05.17/outbox.cif.g08.bks.cpg/sg2_87_cif.got.tgz:173437.got - 2010.06.03 11:33:40.
