data_PCOD9057030
_publ_section_title
;
Structure prediction by ZEFSAII (Michael W. Deem and Ramdas Pophale) SiO2 
 PCOD9057030
Probable space group: P -1
;
_chemical_formula_sum "Si O2"
_cell_formula_units_Z 16
_cell_length_a 12.572973
_cell_length_b 18.560584
_cell_length_c 22.040251
_cell_angle_alpha 161.661095
_cell_angle_beta 144.071074
_cell_angle_gamma 28.053578
_cell_volume 747.384284
_symmetry_space_group_name_H-M "P -1"
_symmetry_group_IT_number 2
_symmetry_cell_setting 'triclinic'
loop_
_space_group_symop_operation_xyz
x,y,z
-x,-y,-z
loop_
_atom_site_type_symbol
_atom_site_label
_atom_site_fract_x
_atom_site_fract_y
_atom_site_fract_z
Si Si1 0.957243 0.355383 0.935440
Si Si2 0.195302 0.256231 0.349133
Si Si3 0.030229 0.098446 0.349172
Si Si4 0.723501 0.214564 0.906113
Si Si5 0.099233 0.099909 0.673739
Si Si6 0.478164 0.085304 0.987601
Si Si7 0.943692 0.649797 0.780494
Si Si8 0.453735 0.470608 0.587165
O O1 0.927957 0.288273 0.800049
O O2 0.889504 0.200931 0.823848
O O3 0.231029 0.187932 0.934780
O O4 0.845973 0.691281 0.161265
O O5 0.100329 0.280692 0.256525
O O6 0.369055 0.331083 0.479159
O O7 0.000000 0.500000 0.500000
O O8 0.308419 0.942455 0.179987
O O9 0.062140 0.307560 0.567966
O O10 0.757254 0.300906 0.371270
O O11 0.150742 0.020124 0.277414
O O12 0.500000 0.500000 0.000000
O O13 0.896608 0.277405 0.059808
O O14 0.327140 0.796280 0.560304
O O15 0.000000 0.000000 0.500000
O O16 0.481976 0.357442 0.207519
O O17 0.500000 0.000000 0.000000
O O18 0.698351 0.836747 0.851420
#
# Coordination Sequence:
#
# PCOD9057030 Si02
#       8
#     2   2   2   2   2   2   2   2
#     4  11  24  41  65 100 136 177 220 274 343 403
#     4  11  22  47  71  96 134 177 236 288 329 416
#     4  11  24  45  69 100 132 172 240 274 333 415
#     4  12  26  46  69 101 139 174 229 296 350 398
#     4  11  25  42  61  95 141 180 216 275 342 401
#     4  12  22  41  74 103 136 176 229 277 329 412
#     4  11  24  44  75 101 131 187 232 276 349 406
#     4  11  22  41  68  97 128 176 228 269 332 396
#
# _framework density 21.407997999999999
#
# number of rings (size 3 to 8) (size 9 to 14) (size 15 to 20)
#    0.000    0.750    6.250    1.875    3.500    2.500 
#    0.000    0.000    0.000    0.000    0.000    0.000 
#    0.000    0.000    0.000    0.000    0.000    0.000 
#
# Total GULP energy -89394.330667 kJ/mol
# GULP energy per Si atom -5587.145667 kJ/mol
# Density = 2.135927 g / cm^3
# Si number density = 21.407998 Si / 1000 Ang^3
#
#
#
# Elastic Constant Matrix: (Units=GPa)
#
#
# Indices 1 2 3 4 5 6 
#
# 1 74.9589 13.2895 22.9941 -4.3793 4.4448 16.1141
# 2 13.2895 62.4693 12.4938 6.5293 -9.7045 10.5635
# 3 22.9941 12.4938 128.7377 -1.1181 -1.9437 1.6814
# 4 -4.3793 6.5293 -1.1181 37.5051 1.9012 9.0674
# 5 4.4448 -9.7045 -1.9437 1.9012 44.2872 2.5741
# 6 16.1141 10.5635 1.6814 9.0674 2.5741 25.6774
#
#
#
# Elastic Compliance Matrix: (Units=1/GPa)
#
#
# Indices 1 2 3 4 5 6 
#
# 1 0.017451 -0.002038 -0.002751 0.005206 -0.001869 -0.011584
# 2 -0.002038 0.018687 -0.001321 -0.002325 0.004688 -0.005971
# 3 -0.002751 -0.001321 0.008365 -0.000290 0.000262 0.001798
# 4 0.005206 -0.002325 -0.000290 0.030902 -0.001613 -0.013042
# 5 -0.001869 0.004688 0.000262 -0.001613 0.024027 -0.002612
# 6 -0.011584 -0.005971 0.001798 -0.013042 -0.002612 0.053421
#
#
# Mechanical properties :
#
#
# Convention : Reuss Voigt Hill
#
# Bulk Modulus (GPa) = 30.97569 40.41343 35.69456
# Shear Modulus (GPa) = 28.43607 35.98651 32.21129
#
# Velocity S-wave (km/s) = 3.64853 4.10443 3.88317
# Velocity P-wave (km/s) = 5.67888 6.43277 6.06754
#
# Compressibility (1/GPa) = 0.03228338
#
# Stress axis : x y z
#
# Youngs Moduli (GPa) = 57.30334 53.51434 119.54262
#
# Poissons Ratio (x) = 0.10906 0.32885
# Poissons Ratio (y) = 0.11678 0.15791
# Poissons Ratio (z) = 0.15764 0.07069
#
# Static dielectric constant tensor:
#      x y z
#    x 1.806460 0.018280 0.010340 
#    y 0.018280 1.807720 0.020880 
#    z 0.010340 0.020880 1.798760 
# 
# From -- ./inp_files/596068.got.cif
#   From: 2010.05.17/outbox.cif.g08.bks.cpg/sg2_299_cif.got.tgz:596068.got - 2010.06.03 11:33:40.
