data_PCOD9057193
_publ_section_title
;
Structure prediction by ZEFSAII (Michael W. Deem and Ramdas Pophale) SiO2 
 PCOD9057193
Probable space group: P -1
;
_chemical_formula_sum "Si O2"
_cell_formula_units_Z 12
_cell_length_a 9.785070
_cell_length_b 15.078932
_cell_length_c 17.080933
_cell_angle_alpha 25.909167
_cell_angle_beta 151.412268
_cell_angle_gamma 141.465316
_cell_volume 526.589530
_symmetry_space_group_name_H-M "P -1"
_symmetry_group_IT_number 2
_symmetry_cell_setting 'triclinic'
loop_
_space_group_symop_operation_xyz
x,y,z
-x,-y,-z
loop_
_atom_site_type_symbol
_atom_site_label
_atom_site_fract_x
_atom_site_fract_y
_atom_site_fract_z
Si Si1 0.630087 0.269587 0.923602
Si Si2 0.580593 0.705427 0.476068
Si Si3 0.085271 0.219315 0.954685
Si Si4 0.962409 0.938670 0.248703
Si Si5 0.382194 0.849849 0.813566
Si Si6 0.902425 0.342514 0.327350
O O1 0.633541 0.500764 0.713708
O O2 0.313878 0.182392 0.821855
O O3 0.701853 0.241645 0.073030
O O4 0.840725 0.128574 0.088473
O O5 0.758376 0.682380 0.503032
O O6 0.247450 0.743823 0.260811
O O7 0.680602 0.909042 0.406626
O O8 0.278505 0.185001 0.003157
O O9 0.173895 0.424337 0.879817
O O10 0.119218 0.030144 0.180643
O O11 0.147935 0.791074 0.515307
O O12 0.242751 0.744474 0.753208
#
# Coordination Sequence:
#
# PCOD9057193 Si02
#       6
#     2   2   2   2   2   2
#     4  11  23  41  71 101 129 177 229 272 324 401
#     4  12  23  43  73  98 128 181 229 265 325 406
#     4  12  25  45  70 100 135 180 221 273 334 402
#     4  11  22  41  72  98 130 178 230 266 326 406
#     4  12  28  43  66 106 144 160 221 295 335 370
#     4  12  25  45  70 100 135 180 221 273 334 402
#
# _framework density 22.788146000000001
#
# number of rings (size 3 to 8) (size 9 to 14) (size 15 to 20)
#    0.000    0.333    6.667    3.000    0.000    4.667 
#    0.000    0.000    0.000    0.000    0.000    0.000 
#    0.000    0.000    0.000    0.000    0.000    0.000 
#
# Total GULP energy -67259.152506 kJ/mol
# GULP energy per Si atom -5604.929376 kJ/mol
# Density = 2.273628 g / cm^3
# Si number density = 22.788146 Si / 1000 Ang^3
#
#
#
# Elastic Constant Matrix: (Units=GPa)
#
#
# Indices 1 2 3 4 5 6 
#
# 1 69.7837 1.7180 26.5676 -6.2216 -8.9398 0.0847
# 2 1.7180 93.5291 37.5175 -18.3270 -21.6723 -15.0009
# 3 26.5676 37.5175 89.0768 -22.4847 -36.6811 3.6263
# 4 -6.2216 -18.3270 -22.4847 46.8158 2.5064 -0.9355
# 5 -8.9398 -21.6723 -36.6811 2.5064 55.4191 2.2190
# 6 0.0847 -15.0009 3.6263 -0.9355 2.2190 24.9132
#
#
#
# Elastic Compliance Matrix: (Units=1/GPa)
#
#
# Indices 1 2 3 4 5 6 
#
# 1 0.016609 0.002523 -0.006308 0.000247 -0.000619 0.002445
# 2 0.002523 0.015988 -0.006141 0.003746 0.002006 0.010474
# 3 -0.006308 -0.006141 0.022417 0.006759 0.011421 -0.007702
# 4 0.000247 0.003746 0.006759 0.025889 0.004735 0.001822
# 5 -0.000619 0.002006 0.011421 0.004735 0.026179 -0.002607
# 6 0.002445 0.010474 -0.007702 0.001822 -0.002607 0.047859
#
#
# Mechanical properties :
#
#
# Convention : Reuss Voigt Hill
#
# Bulk Modulus (GPa) = 28.44071 42.66620 35.55346
# Shear Modulus (GPa) = 26.80773 37.86872 32.33822
#
# Velocity S-wave (km/s) = 3.43357 4.08091 3.77116
# Velocity P-wave (km/s) = 5.31289 6.40068 5.88199
#
# Compressibility (1/GPa) = 0.03516086
#
# Stress axis : x y z
#
# Youngs Moduli (GPa) = 60.20727 62.54879 44.60936
#
# Poissons Ratio (x) = -0.15778 0.28140
# Poissons Ratio (y) = -0.15187 0.27394
# Poissons Ratio (z) = 0.37980 0.38410
#
# Static dielectric constant tensor:
#      x y z
#    x 1.829590 0.060400 0.033340 
#    y 0.060400 1.893580 0.041640 
#    z 0.033340 0.041640 1.825020 
# 
# From -- ./inp_files/376329.got.cif
#   From: 2010.05.17/outbox.cif.g08.bks.cpg/sg2_189_cif.got.tgz:376329.got - 2010.06.03 11:33:40.
