data_PCOD9057236
_publ_section_title
;
Structure prediction by ZEFSAII (Michael W. Deem and Ramdas Pophale) SiO2 
 PCOD9057236
Probable space group: P -1
;
_chemical_formula_sum "Si O2"
_cell_formula_units_Z 16
_cell_length_a 9.515396
_cell_length_b 21.213169
_cell_length_c 16.012635
_cell_angle_alpha 161.867350
_cell_angle_beta 52.407840
_cell_angle_gamma 135.788959
_cell_volume 662.662749
_symmetry_space_group_name_H-M "P -1"
_symmetry_group_IT_number 2
_symmetry_cell_setting 'triclinic'
loop_
_space_group_symop_operation_xyz
x,y,z
-x,-y,-z
loop_
_atom_site_type_symbol
_atom_site_label
_atom_site_fract_x
_atom_site_fract_y
_atom_site_fract_z
Si Si1 0.785678 0.797034 0.367682
Si Si2 0.539056 0.012865 0.134318
Si Si3 0.906461 0.206259 0.960283
Si Si4 0.692447 0.414250 0.032413
Si Si5 0.000837 0.368588 0.657680
Si Si6 0.515042 0.067727 0.410943
Si Si7 0.276132 0.422508 0.228124
Si Si8 0.077111 0.015668 0.085145
O O1 0.585147 0.774097 0.366781
O O2 0.747699 0.540339 0.080657
O O3 0.818161 0.937478 0.620114
O O4 0.000000 0.000000 0.500000
O O5 0.639291 0.296741 0.437487
O O6 0.527673 0.988152 0.210071
O O7 0.296077 0.840396 0.973105
O O8 0.695846 0.949127 0.958394
O O9 0.935123 0.380623 0.093650
O O10 0.129699 0.328606 0.079583
O O11 0.897372 0.584450 0.229762
O O12 0.479606 0.403929 0.123967
O O13 0.633728 0.148114 0.742151
O O14 0.091084 0.236841 0.406318
O O15 0.748820 0.196570 0.524672
O O16 0.106036 0.236211 0.122492
O O17 0.000000 0.000000 0.000000
#
# Coordination Sequence:
#
# PCOD9057236 Si02
#       8
#     2   2   2   2   2   2   2   2
#     4  11  25  47  74 102 133 167 221 280 333 409
#     4  11  22  42  62  95 137 178 226 280 315 384
#     4  11  23  45  69  92 134 180 216 272 349 395
#     4  12  23  44  74  96 133 182 220 266 345 400
#     4  12  23  41  70  97 134 185 216 273 332 395
#     4  11  22  46  68  95 141 173 218 269 340 394
#     4  12  23  43  69  92 134 188 224 269 334 392
#     4  12  24  39  61 100 136 175 238 275 316 380
#
# _framework density 24.145011
#
# number of rings (size 3 to 8) (size 9 to 14) (size 15 to 20)
#    0.000    0.500    8.750    1.125    0.000    1.500 
#    2.250    3.125    0.000    0.000    0.000    0.000 
#    0.000    0.000    0.000    0.000    0.000    0.000 
#
# Total GULP energy -89581.905498 kJ/mol
# GULP energy per Si atom -5598.869094 kJ/mol
# Density = 2.409006 g / cm^3
# Si number density = 24.145011 Si / 1000 Ang^3
#
#
#
# Elastic Constant Matrix: (Units=GPa)
#
#
# Indices 1 2 3 4 5 6 
#
# 1 157.7285 29.4752 20.1735 7.0081 -2.6128 13.2684
# 2 29.4752 96.4226 9.1787 22.2772 -8.8213 5.3588
# 3 20.1735 9.1787 73.8088 11.9557 -17.6984 -14.7028
# 4 7.0081 22.2772 11.9557 41.1865 -4.2002 -8.8462
# 5 -2.6128 -8.8213 -17.6984 -4.2002 38.4556 20.1229
# 6 13.2684 5.3588 -14.7028 -8.8462 20.1229 36.5332
#
#
#
# Elastic Compliance Matrix: (Units=1/GPa)
#
#
# Indices 1 2 3 4 5 6 
#
# 1 0.007309 -0.001565 -0.002254 -0.000504 0.001198 -0.004114
# 2 -0.001565 0.013507 0.000077 -0.007856 0.005462 -0.006293
# 3 -0.002254 0.000077 0.016678 -0.003131 0.005142 0.003928
# 4 -0.000504 -0.007856 -0.003131 0.031254 -0.005428 0.010633
# 5 0.001198 0.005462 0.005142 -0.005428 0.041255 -0.023204
# 6 -0.004114 -0.006293 0.003928 0.010633 -0.023204 0.046727
#
#
# Mechanical properties :
#
#
# Convention : Reuss Voigt Hill
#
# Bulk Modulus (GPa) = 33.32230 49.51273 41.41751
# Shear Modulus (GPa) = 28.70013 41.17724 34.93869
#
# Velocity S-wave (km/s) = 3.45143 4.13415 3.80812
# Velocity P-wave (km/s) = 5.45106 6.58325 6.04372
#
# Compressibility (1/GPa) = 0.03000994
#
# Stress axis : x y z
#
# Youngs Moduli (GPa) = 136.81692 74.03807 59.96008
#
# Poissons Ratio (x) = 0.11587 0.13513
# Poissons Ratio (y) = 0.21411 -0.00461
# Poissons Ratio (z) = 0.30833 -0.00569
#
# Static dielectric constant tensor:
#      x y z
#    x 1.916260 -0.008400 -0.022610 
#    y -0.008400 1.983160 -0.009840 
#    z -0.022610 -0.009840 1.914760 
# 
# From -- ./inp_files/562772.got.cif
#   From: 2010.05.17/outbox.cif.g08.bks.cpg/sg2_282_cif.got.tgz:562772.got - 2010.06.03 11:33:40.
