data_PCOD9057708
_publ_section_title
;
Structure prediction by ZEFSAII (Michael W. Deem and Ramdas Pophale) SiO2 
 PCOD9057708
Probable space group: P -1
;
_chemical_formula_sum "Si O2"
_cell_formula_units_Z 16
_cell_length_a 21.048475
_cell_length_b 8.665768
_cell_length_c 17.498327
_cell_angle_alpha 129.281629
_cell_angle_beta 159.853893
_cell_angle_gamma 42.275263
_cell_volume 712.930857
_symmetry_space_group_name_H-M "P -1"
_symmetry_group_IT_number 2
_symmetry_cell_setting 'triclinic'
loop_
_space_group_symop_operation_xyz
x,y,z
-x,-y,-z
loop_
_atom_site_type_symbol
_atom_site_label
_atom_site_fract_x
_atom_site_fract_y
_atom_site_fract_z
Si Si1 0.540474 0.801692 0.841015
Si Si2 0.155940 0.304803 0.554552
Si Si3 0.773184 0.306636 0.478002
Si Si4 0.776406 0.932173 0.031378
Si Si5 0.584344 0.532808 0.186166
Si Si6 0.238846 0.216068 0.357923
Si Si7 0.907049 0.291446 0.138025
Si Si8 0.248160 0.058573 0.156532
O O1 0.365921 0.725126 0.624989
O O2 0.646260 0.826969 0.891010
O O3 0.381092 0.079774 0.773517
O O4 0.748008 0.579540 0.048397
O O5 0.220691 0.433327 0.605967
O O6 0.000000 0.500000 0.500000
O O7 0.026774 0.217035 0.331699
O O8 0.662625 0.338702 0.280099
O O9 0.773536 0.541196 0.566894
O O10 0.029956 0.103285 0.706733
O O11 0.867389 0.821111 0.016264
O O12 0.604945 0.212701 0.915011
O O13 0.500000 0.500000 0.000000
O O14 0.159459 0.201617 0.179525
O O15 0.091241 0.203506 0.252656
O O16 0.499716 0.015602 0.592389
O O17 0.772147 0.169546 0.931411
#
# Coordination Sequence:
#
# PCOD9057708 Si02
#       8
#     2   2   2   2   2   2   2   2
#     4  11  24  41  69  95 132 179 218 272 336 389
#     4  11  26  43  66 101 133 175 229 275 331 408
#     4  12  23  45  69  96 134 178 222 275 332 400
#     4  11  23  45  65  97 136 174 223 278 334 395
#     4  11  25  45  67  97 134 176 220 277 341 400
#     4  11  22  43  69 103 133 177 232 272 340 404
#     4  12  22  47  68  94 141 178 221 280 339 392
#     4  11  24  41  75  97 135 183 222 281 339 401
#
# _framework density 22.442571000000001
#
# number of rings (size 3 to 8) (size 9 to 14) (size 15 to 20)
#    0.000    0.750    5.000    1.875    5.250    1.500 
#    2.250    0.625    0.000    0.000    0.000    0.000 
#    0.000    0.000    0.000    0.000    0.000    0.000 
#
# Total GULP energy -89339.757839 kJ/mol
# GULP energy per Si atom -5583.734865 kJ/mol
# Density = 2.239149 g / cm^3
# Si number density = 22.442571 Si / 1000 Ang^3
#
#
#
# Elastic Constant Matrix: (Units=GPa)
#
#
# Indices 1 2 3 4 5 6 
#
# 1 132.9164 43.2835 62.8632 4.1746 1.0966 -3.7548
# 2 43.2835 49.9496 23.6817 -4.5042 -3.2854 6.7796
# 3 62.8632 23.6817 97.4319 -5.3400 1.6034 3.0713
# 4 4.1746 -4.5042 -5.3400 40.7177 3.5250 0.8119
# 5 1.0966 -3.2854 1.6034 3.5250 44.7528 9.7180
# 6 -3.7548 6.7796 3.0713 0.8119 9.7180 37.7610
#
#
#
# Elastic Compliance Matrix: (Units=1/GPa)
#
#
# Indices 1 2 3 4 5 6 
#
# 1 0.014454 -0.010124 -0.007168 -0.003498 -0.001499 0.004299
# 2 -0.010124 0.030696 -0.000524 0.004184 0.003830 -0.007551
# 3 -0.007168 -0.000524 0.015227 0.002730 -0.000220 -0.001859
# 4 -0.003498 0.004184 0.002730 0.025891 -0.001416 -0.001513
# 5 -0.001499 0.003830 -0.000220 -0.001416 0.024312 -0.007045
# 6 0.004299 -0.007551 -0.001859 -0.001513 -0.007045 0.030262
#
#
# Mechanical properties :
#
#
# Convention : Reuss Voigt Hill
#
# Bulk Modulus (GPa) = 40.41226 59.99496 50.20361
# Shear Modulus (GPa) = 27.06738 34.67762 30.87250
#
# Velocity S-wave (km/s) = 3.47662 3.93513 3.71296
# Velocity P-wave (km/s) = 5.84482 6.88750 6.38747
#
# Compressibility (1/GPa) = 0.02474497
#
# Stress axis : x y z
#
# Youngs Moduli (GPa) = 69.18504 32.57748 65.67117
#
# Poissons Ratio (x) = 0.32982 0.47070
# Poissons Ratio (y) = 0.70045 0.03444
# Poissons Ratio (z) = 0.49588 0.01709
#
# Static dielectric constant tensor:
#      x y z
#    x 1.840220 0.009470 -0.027100 
#    y 0.009470 1.845470 -0.006410 
#    z -0.027100 -0.006410 1.902650 
# 
# From -- ./inp_files/577384.got.cif
#   From: 2010.05.17/outbox.cif.g08.bks.cpg/sg2_289_cif.got.tgz:577384.got - 2010.06.03 11:33:40.
