data_PCOD9057347
_publ_section_title
;
Structure prediction by ZEFSAII (Michael W. Deem and Ramdas Pophale) SiO2 
 PCOD9057347
Probable space group: P -1
;
_chemical_formula_sum "Si O2"
_cell_formula_units_Z 15
_cell_length_a 11.180220
_cell_length_b 19.618454
_cell_length_c 9.187285
_cell_angle_alpha 47.735834
_cell_angle_beta 109.684173
_cell_angle_gamma 146.565852
_cell_volume 686.023629
_symmetry_space_group_name_H-M "P -1"
_symmetry_group_IT_number 2
_symmetry_cell_setting 'triclinic'
loop_
_space_group_symop_operation_xyz
x,y,z
-x,-y,-z
loop_
_atom_site_type_symbol
_atom_site_label
_atom_site_fract_x
_atom_site_fract_y
_atom_site_fract_z
Si Si1 0.056763 0.738951 0.634594
Si Si2 0.011719 0.914174 0.324027
Si Si3 0.349976 0.162021 0.860454
Si Si4 0.145764 0.495172 0.596100
Si Si5 0.000000 0.000000 0.500000
Si Si6 0.510047 0.915912 0.461176
Si Si7 0.611175 0.361426 0.183241
Si Si8 0.269217 0.926090 0.984345
O O1 0.239567 0.801383 0.503231
O O2 0.961042 0.774946 0.479777
O O3 0.274963 0.898386 0.618912
O O4 0.816903 0.539673 0.904079
O O5 0.815801 0.859692 0.243455
O O6 0.996568 0.927193 0.467477
O O7 0.284779 0.110325 0.076539
O O8 0.638938 0.366585 0.639173
O O9 0.269191 0.013956 0.963555
O O10 0.267513 0.570701 0.700418
O O11 0.000000 0.500000 0.500000
O O12 0.979754 0.296877 0.800195
O O13 0.322865 0.221351 0.284034
O O14 0.423623 0.764485 0.707035
O O15 0.658876 0.989118 0.266867
O O16 0.500000 0.000000 0.000000
#
# Coordination Sequence:
#
# PCOD9057347 Si02
#       8
#     2   2   2   2   1   2   2   2
#     4  11  25  42  70 103 143 185 242 291 364 423
#     4  11  25  48  72 100 142 195 226 304 347 427
#     4  11  25  49  70 103 148 177 249 287 355 427
#     4  12  24  42  76 108 141 189 238 291 361 435
#     4  12  24  48  72  98 146 188 238 286 366 410
#     4  11  22  42  68 106 143 180 235 298 352 421
#     4  12  24  46  71 107 143 194 240 298 355 435
#     4  12  22  43  71 101 142 188 227 289 360 420
#
# _framework density 21.865137000000001
#
# number of rings (size 3 to 8) (size 9 to 14) (size 15 to 20)
#    0.000    0.533    6.667    1.200    0.000    0.533 
#   12.000    1.333    0.000    0.000    0.000    0.000 
#    0.000    0.000    0.000    0.000    0.000    0.000 
#
# Total GULP energy -83529.681199 kJ/mol
# GULP energy per Si atom -5568.645413 kJ/mol
# Density = 2.181537 g / cm^3
# Si number density = 21.865137 Si / 1000 Ang^3
#
#
#
# Elastic Constant Matrix: (Units=GPa)
#
#
# Indices 1 2 3 4 5 6 
#
# 1 130.1278 17.4631 74.7102 -12.3747 -8.6322 10.0577
# 2 17.4631 40.6942 26.9162 -24.3829 1.1647 8.8351
# 3 74.7102 26.9162 172.2637 -43.5159 -1.3534 6.7236
# 4 -12.3747 -24.3829 -43.5159 40.9234 0.7996 -2.8749
# 5 -8.6322 1.1647 -1.3534 0.7996 44.2141 3.7669
# 6 10.0577 8.8351 6.7236 -2.8749 3.7669 24.2889
#
#
#
# Elastic Compliance Matrix: (Units=1/GPa)
#
#
# Indices 1 2 3 4 5 6 
#
# 1 0.011151 -0.003490 -0.005329 -0.004618 0.002428 -0.002796
# 2 -0.003490 0.042664 0.001695 0.025395 -0.001246 -0.011344
# 3 -0.005329 0.001695 0.010521 0.010611 -0.000962 0.000083
# 4 -0.004618 0.025395 0.010611 0.049196 -0.001781 -0.004163
# 5 0.002428 -0.001246 -0.000962 -0.001781 0.023479 -0.004138
# 6 -0.002796 -0.011344 0.000083 -0.004163 -0.004138 0.046581
#
#
# Mechanical properties :
#
#
# Convention : Reuss Voigt Hill
#
# Bulk Modulus (GPa) = 19.96447 64.58500 42.27473
# Shear Modulus (GPa) = 23.30614 36.81835 30.06225
#
# Velocity S-wave (km/s) = 3.26836 4.10797 3.71198
# Velocity P-wave (km/s) = 4.83668 7.21821 6.14394
#
# Compressibility (1/GPa) = 0.05008898
#
# Stress axis : x y z
#
# Youngs Moduli (GPa) = 89.68104 23.43871 95.04809
#
# Poissons Ratio (x) = 0.08179 0.50652
# Poissons Ratio (y) = 0.31296 -0.16113
# Poissons Ratio (z) = 0.47792 -0.03973
#
# Static dielectric constant tensor:
#      x y z
#    x 1.838520 0.034320 -0.011920 
#    y 0.034320 1.877970 0.038580 
#    z -0.011920 0.038580 1.814050 
# 
# From -- ./inp_files/281706.got.cif
#   From: 2010.05.17/outbox.cif.g08.bks.cpg/sg2_141_cif.got.tgz:281706.got - 2010.06.03 11:33:40.
