data_PCOD9057850
_publ_section_title
;
Structure prediction by ZEFSAII (Michael W. Deem and Ramdas Pophale) SiO2 
 PCOD9057850
Probable space group: P -1
;
_chemical_formula_sum "Si O2"
_cell_formula_units_Z 12
_cell_length_a 6.805388
_cell_length_b 9.529258
_cell_length_c 16.139277
_cell_angle_alpha 35.346605
_cell_angle_beta 123.878304
_cell_angle_gamma 131.464431
_cell_volume 453.380191
_symmetry_space_group_name_H-M "P -1"
_symmetry_group_IT_number 2
_symmetry_cell_setting 'triclinic'
loop_
_space_group_symop_operation_xyz
x,y,z
-x,-y,-z
loop_
_atom_site_type_symbol
_atom_site_label
_atom_site_fract_x
_atom_site_fract_y
_atom_site_fract_z
Si Si1 0.248190 0.573241 0.778660
Si Si2 0.719787 0.890741 0.095002
Si Si3 0.732333 0.858023 0.685109
Si Si4 0.142690 0.409059 0.005300
Si Si5 0.785482 0.692284 0.603817
Si Si6 0.203209 0.374100 0.591597
O O1 0.296671 0.319470 0.878493
O O2 0.438336 0.833675 0.640889
O O3 0.952020 0.523293 0.706897
O O4 0.278426 0.627612 0.859876
O O5 0.752213 0.763920 0.249605
O O6 0.974620 0.170906 0.018029
O O7 0.500000 0.000000 0.000000
O O8 0.729622 0.728876 0.836980
O O9 0.720686 0.666590 0.699249
O O10 0.007968 0.119030 0.614574
O O11 0.000000 0.500000 0.000000
O O12 0.504271 0.589808 0.540715
O O13 0.000000 0.000000 0.500000
O O14 0.000000 0.500000 0.500000
#
# Coordination Sequence:
#
# PCOD9057850 Si02
#       6
#     2   2   2   2   2   2
#     4  12  24  47  80 111 155 212 252 322 397 456
#     4  11  24  45  77 112 156 203 258 319 386 464
#     4  11  25  47  73 110 154 198 262 317 385 464
#     4  11  22  43  72 113 154 193 256 319 383 464
#     4  12  27  48  77 111 155 204 262 322 388 463
#     4  11  26  49  76 109 157 203 259 324 384 461
#
# _framework density 26.467849999999999
#
# number of rings (size 3 to 8) (size 9 to 14) (size 15 to 20)
#    0.000    0.667    3.333    4.000    2.333    2.000 
#    6.000    0.000    0.000    0.000    0.000    0.000 
#    0.000    0.000    0.000    0.000    0.000    0.000 
#
# Total GULP energy -66871.119454 kJ/mol
# GULP energy per Si atom -5572.593288 kJ/mol
# Density = 2.640761 g / cm^3
# Si number density = 26.467850 Si / 1000 Ang^3
#
#
#
# Elastic Constant Matrix: (Units=GPa)
#
#
# Indices 1 2 3 4 5 6 
#
# 1 191.1894 87.1569 46.8533 -1.7935 6.7116 8.8342
# 2 87.1569 183.9257 28.0890 -5.9781 8.7299 11.1821
# 3 46.8533 28.0890 94.4599 3.6631 19.0098 -7.5520
# 4 -1.7935 -5.9781 3.6631 37.5073 -1.0948 -5.7939
# 5 6.7116 8.7299 19.0098 -1.0948 48.4985 5.3977
# 6 8.8342 11.1821 -7.5520 -5.7939 5.3977 58.4685
#
#
#
# Elastic Compliance Matrix: (Units=1/GPa)
#
#
# Indices 1 2 3 4 5 6 
#
# 1 0.007352 -0.003003 -0.002997 0.000036 0.000810 -0.000995
# 2 -0.003003 0.007057 -0.000610 0.000896 -0.000502 -0.000840
# 3 -0.002997 -0.000610 0.013547 -0.001302 -0.005111 0.002662
# 4 0.000036 0.000896 -0.001302 0.027308 0.000705 0.002296
# 5 0.000810 -0.000502 -0.005111 0.000705 0.022921 -0.002733
# 6 -0.000995 -0.000840 0.002662 0.002296 -0.002733 0.018238
#
#
# Mechanical properties :
#
#
# Convention : Reuss Voigt Hill
#
# Bulk Modulus (GPa) = 67.86619 88.19704 78.03162
# Shear Modulus (GPa) = 43.64734 49.39323 46.52028
#
# Velocity S-wave (km/s) = 4.06528 4.32459 4.19694
# Velocity P-wave (km/s) = 6.90883 7.63746 7.28227
#
# Compressibility (1/GPa) = 0.01473488
#
# Stress axis : x y z
#
# Youngs Moduli (GPa) = 136.02225 141.70192 73.81963
#
# Poissons Ratio (x) = 0.42550 0.22127
# Poissons Ratio (y) = 0.40844 0.04503
# Poissons Ratio (z) = 0.40772 0.08643
#
# Static dielectric constant tensor:
#      x y z
#    x 2.475660 0.305170 -0.010080 
#    y 0.305170 2.199690 -0.013130 
#    z -0.010080 -0.013130 2.207670 
# 
# From -- ./inp_files/547697.got.cif
#   From: 2010.05.17/outbox.cif.g08.bks.cpg/sg2_274_cif.got.tgz:547697.got - 2010.06.03 11:33:40.
