data_PCOD9057855
_publ_section_title
;
Structure prediction by ZEFSAII (Michael W. Deem and Ramdas Pophale) SiO2 
 PCOD9057855
Probable space group: P -1
;
_chemical_formula_sum "Si O2"
_cell_formula_units_Z 16
_cell_length_a 21.511204
_cell_length_b 8.054128
_cell_length_c 12.090245
_cell_angle_alpha 72.501903
_cell_angle_beta 158.854327
_cell_angle_gamma 109.615252
_cell_volume 711.309892
_symmetry_space_group_name_H-M "P -1"
_symmetry_group_IT_number 2
_symmetry_cell_setting 'triclinic'
loop_
_space_group_symop_operation_xyz
x,y,z
-x,-y,-z
loop_
_atom_site_type_symbol
_atom_site_label
_atom_site_fract_x
_atom_site_fract_y
_atom_site_fract_z
Si Si1 0.115835 0.628961 0.326814
Si Si2 0.552877 0.292474 0.273072
Si Si3 0.145476 0.616679 0.643571
Si Si4 0.758361 0.722633 0.407901
Si Si5 0.996277 0.031867 0.617557
Si Si6 0.727901 0.659453 0.602595
Si Si7 0.444092 0.644695 0.293941
Si Si8 0.639411 0.003622 0.822940
O O1 0.281712 0.747057 0.518215
O O2 0.134333 0.603504 0.495113
O O3 0.136717 0.435314 0.358712
O O4 0.928114 0.670363 0.971450
O O5 0.635276 0.456670 0.457072
O O6 0.443916 0.131285 0.193193
O O7 0.407592 0.336057 0.934942
O O8 0.000000 0.500000 0.500000
O O9 0.321657 0.574438 0.000284
O O10 0.107862 0.812667 0.560900
O O11 0.704264 0.772384 0.430704
O O12 0.894216 0.866920 0.544301
O O13 0.202263 0.060875 0.968375
O O14 0.000000 0.000000 0.500000
O O15 0.623598 0.727501 0.517060
O O16 0.500000 0.500000 0.500000
O O17 0.339541 0.791675 0.143179
O O18 0.500000 0.000000 0.500000
#
# Coordination Sequence:
#
# PCOD9057855 Si02
#       8
#     2   2   2   2   2   2   2   2
#     4  11  25  42  68 102 135 179 223 278 337 400
#     4  11  22  45  69  99 133 181 226 273 341 400
#     4  12  26  44  71  99 137 178 227 278 334 408
#     4  11  22  43  72  96 137 177 226 277 335 405
#     4  12  25  47  69 102 134 180 227 279 340 393
#     4  11  25  42  67 102 137 176 224 278 338 399
#     4  12  26  46  67 102 138 176 225 280 338 399
#     4  12  29  43  71 100 140 178 224 282 337 405
#
# _framework density 22.493713
#
# number of rings (size 3 to 8) (size 9 to 14) (size 15 to 20)
#    0.000    0.500    2.500    6.750   10.500    1.000 
#    0.000    3.750    0.000    0.000    0.000    0.000 
#    0.000    0.000    0.000    0.000    0.000    0.000 
#
# Total GULP energy -89254.166220 kJ/mol
# GULP energy per Si atom -5578.385389 kJ/mol
# Density = 2.244252 g / cm^3
# Si number density = 22.493713 Si / 1000 Ang^3
#
#
#
# Elastic Constant Matrix: (Units=GPa)
#
#
# Indices 1 2 3 4 5 6 
#
# 1 110.2569 21.1050 22.3355 0.5427 -3.5853 18.3800
# 2 21.1050 62.5732 -0.2156 -2.8800 8.9698 33.1920
# 3 22.3355 -0.2156 160.2220 -5.3417 1.6396 15.2321
# 4 0.5427 -2.8800 -5.3417 23.2827 2.2658 3.6159
# 5 -3.5853 8.9698 1.6396 2.2658 45.0793 0.3972
# 6 18.3800 33.1920 15.2321 3.6159 0.3972 36.6280
#
#
#
# Elastic Compliance Matrix: (Units=1/GPa)
#
#
# Indices 1 2 3 4 5 6 
#
# 1 0.010228 -0.002412 -0.001236 -0.000584 0.001389 -0.002390
# 2 -0.002412 0.037332 0.004240 0.011940 -0.008062 -0.035474
# 3 -0.001236 0.004240 0.007163 0.003336 -0.001313 -0.006516
# 4 -0.000584 0.011940 0.003336 0.048258 -0.004823 -0.016626
# 5 0.001389 -0.008062 -0.001313 -0.004823 0.024123 0.007369
# 6 -0.002390 -0.035474 -0.006516 -0.016626 0.007369 0.064918
#
#
# Mechanical properties :
#
#
# Convention : Reuss Voigt Hill
#
# Bulk Modulus (GPa) = 17.88684 46.61133 32.24908
# Shear Modulus (GPa) = 23.86928 40.31982 32.09455
#
# Velocity S-wave (km/s) = 3.26107 4.23838 3.78143
# Velocity P-wave (km/s) = 4.70623 6.68720 5.78219
#
# Compressibility (1/GPa) = 0.05590703
#
# Stress axis : x y z
#
# Youngs Moduli (GPa) = 97.76849 26.78688 139.59822
#
# Poissons Ratio (x) = 0.06461 0.17248
# Poissons Ratio (y) = 0.23583 -0.59183
# Poissons Ratio (z) = 0.12080 -0.11356
#
# Static dielectric constant tensor:
#      x y z
#    x 1.734820 0.059000 -0.111110 
#    y 0.059000 1.779810 0.104900 
#    z -0.111110 0.104900 1.746120 
# 
# From -- ./inp_files/469963.got.cif
#   From: 2010.05.17/outbox.cif.g08.bks.cpg/sg2_235_cif.got.tgz:469963.got - 2010.06.03 11:33:40.
