data_PCOD9057179
_publ_section_title
;
Structure prediction by ZEFSAII (Michael W. Deem and Ramdas Pophale) SiO2 
 PCOD9057179
Probable space group: P -1
;
_chemical_formula_sum "Si O2"
_cell_formula_units_Z 16
_cell_length_a 8.509495
_cell_length_b 18.794361
_cell_length_c 21.164502
_cell_angle_alpha 18.970543
_cell_angle_beta 135.742942
_cell_angle_gamma 137.365254
_cell_volume 742.060730
_symmetry_space_group_name_H-M "P -1"
_symmetry_group_IT_number 2
_symmetry_cell_setting 'triclinic'
loop_
_space_group_symop_operation_xyz
x,y,z
-x,-y,-z
loop_
_atom_site_type_symbol
_atom_site_label
_atom_site_fract_x
_atom_site_fract_y
_atom_site_fract_z
Si Si1 0.098531 0.801165 0.864603
Si Si2 0.518157 0.038964 0.263134
Si Si3 0.786833 0.084466 0.839583
Si Si4 0.425269 0.464581 0.080923
Si Si5 0.154558 0.220189 0.617871
Si Si6 0.511363 0.357720 0.844694
Si Si7 0.663639 0.333922 0.374678
Si Si8 0.385803 0.489842 0.562196
O O1 0.261732 0.936529 0.741373
O O2 0.840502 0.681654 0.868667
O O3 0.093951 0.974883 0.774364
O O4 0.223145 0.608370 0.086412
O O5 0.288554 0.958898 0.219302
O O6 0.493416 0.864692 0.459944
O O7 0.544171 0.286454 0.090636
O O8 0.782339 0.341204 0.634995
O O9 0.572664 0.913942 0.956881
O O10 0.000000 0.000000 0.000000
O O11 0.577149 0.341724 0.271795
O O12 0.500000 0.500000 0.000000
O O13 0.255497 0.254518 0.689321
O O14 0.368314 0.387772 0.501583
O O15 0.923063 0.307144 0.473871
O O16 0.368411 0.441375 0.788375
O O17 0.448097 0.463351 0.674422
#
# Coordination Sequence:
#
# PCOD9057179 Si02
#       8
#     2   2   2   2   2   2   2   2
#     4  11  24  50  71 100 141 188 237 291 343 419
#     4  11  24  47  72 105 135 184 241 283 343 428
#     4  11  22  41  72 105 138 177 235 285 333 415
#     4  12  28  48  71 105 141 181 236 299 361 406
#     4  11  25  44  67 105 149 177 231 285 349 419
#     4  11  23  44  72 101 134 189 236 276 348 418
#     4  12  25  45  73 104 139 183 233 298 348 413
#     4  11  24  45  68 105 144 190 227 276 353 423
#
# _framework density 21.561578000000001
#
# number of rings (size 3 to 8) (size 9 to 14) (size 15 to 20)
#    0.000    0.750    6.250    1.875    3.500    4.000 
#    0.000    0.000    0.000    0.000    0.000    0.000 
#    0.000    0.000    0.000    0.000    0.000    0.000 
#
# Total GULP energy -89363.813436 kJ/mol
# GULP energy per Si atom -5585.238340 kJ/mol
# Density = 2.151250 g / cm^3
# Si number density = 21.561578 Si / 1000 Ang^3
#
#
#
# Elastic Constant Matrix: (Units=GPa)
#
#
# Indices 1 2 3 4 5 6 
#
# 1 83.4789 55.2126 35.1757 19.8427 4.0360 -12.7103
# 2 55.2126 105.1785 27.1244 11.2246 6.0803 -3.6335
# 3 35.1757 27.1244 86.9826 11.3723 -3.3172 -6.8357
# 4 19.8427 11.2246 11.3723 48.2260 -8.3747 5.2372
# 5 4.0360 6.0803 -3.3172 -8.3747 43.1273 2.3354
# 6 -12.7103 -3.6335 -6.8357 5.2372 2.3354 26.6649
#
#
#
# Elastic Compliance Matrix: (Units=1/GPa)
#
#
# Indices 1 2 3 4 5 6 
#
# 1 0.024653 -0.010182 -0.004960 -0.008409 -0.003484 0.011049
# 2 -0.010182 0.014916 -0.000969 0.001153 -0.000826 -0.003223
# 3 -0.004960 -0.000969 0.014073 -0.000929 0.001440 0.001168
# 4 -0.008409 0.001153 -0.000929 0.026284 0.006187 -0.009794
# 5 -0.003484 -0.000826 0.001440 0.006187 0.025203 -0.004827
# 6 0.011049 -0.003223 0.001168 -0.009794 -0.004827 0.044976
#
#
# Mechanical properties :
#
#
# Convention : Reuss Voigt Hill
#
# Bulk Modulus (GPa) = 46.68596 56.74062 51.71329
# Shear Modulus (GPa) = 26.39004 34.14547 30.26775
#
# Velocity S-wave (km/s) = 3.50228 3.98380 3.75077
# Velocity P-wave (km/s) = 6.16879 6.89446 6.54170
#
# Compressibility (1/GPa) = 0.02141971
#
# Stress axis : x y z
#
# Youngs Moduli (GPa) = 40.56380 67.04311 71.05968
#
# Poissons Ratio (x) = 0.68261 0.35243
# Poissons Ratio (y) = 0.41300 0.06888
# Poissons Ratio (z) = 0.20118 0.06499
#
# Static dielectric constant tensor:
#      x y z
#    x 1.811810 -0.014220 0.006240 
#    y -0.014220 1.841040 0.004090 
#    z 0.006240 0.004090 1.804040 
# 
# From -- ./inp_files/591198.got.cif
#   From: 2010.05.17/outbox.cif.g08.bks.cpg/sg2_296_cif.got.tgz:591198.got - 2010.06.03 11:33:40.
