data_PCOD9057465
_publ_section_title
;
Structure prediction by ZEFSAII (Michael W. Deem and Ramdas Pophale) SiO2 
 PCOD9057465
Probable space group: P -1
;
_chemical_formula_sum "Si O2"
_cell_formula_units_Z 14
_cell_length_a 8.268261
_cell_length_b 9.048389
_cell_length_c 18.642299
_cell_angle_alpha 148.453990
_cell_angle_beta 49.483717
_cell_angle_gamma 124.463334
_cell_volume 554.464242
_symmetry_space_group_name_H-M "P -1"
_symmetry_group_IT_number 2
_symmetry_cell_setting 'triclinic'
loop_
_space_group_symop_operation_xyz
x,y,z
-x,-y,-z
loop_
_atom_site_type_symbol
_atom_site_label
_atom_site_fract_x
_atom_site_fract_y
_atom_site_fract_z
Si Si1 0.907951 0.644045 0.660662
Si Si2 0.538179 0.104152 0.128514
Si Si3 0.996895 0.671716 0.351833
Si Si4 0.052305 0.507460 0.855308
Si Si5 0.520103 0.506933 0.413027
Si Si6 0.727707 0.951608 0.307459
Si Si7 0.397873 0.491257 0.946887
O O1 0.661488 0.721686 0.770437
O O2 0.000000 0.500000 0.500000
O O3 0.951695 0.461786 0.642413
O O4 0.055133 0.926882 0.740894
O O5 0.774009 0.226628 0.089705
O O6 0.496994 0.190007 0.259163
O O7 0.484624 0.775577 0.999848
O O8 0.088157 0.554906 0.202949
O O9 0.759149 0.589352 0.364143
O O10 0.000000 0.000000 0.500000
O O11 0.195809 0.246629 0.732300
O O12 0.859527 0.520757 0.973312
O O13 0.500000 0.500000 0.500000
O O14 0.389143 0.758674 0.520502
O O15 0.574786 0.774841 0.224037
O O16 0.500000 0.500000 0.000000
#
# Coordination Sequence:
#
# PCOD9057465 Si02
#       7
#     2   2   2   2   2   2   2
#     4  12  23  45  77 110 149 193 238 302 371 431
#     4  11  26  46  73 104 146 193 239 300 372 424
#     4  11  26  40  70 112 149 184 243 305 365 421
#     4  11  28  48  69 110 148 186 253 298 358 448
#     4  11  22  42  71 102 140 186 242 298 360 429
#     4  12  25  47  75 105 146 195 249 296 362 442
#     4  12  29  49  76 103 148 198 244 299 372 432
#
# _framework density 25.249597999999999
#
# number of rings (size 3 to 8) (size 9 to 14) (size 15 to 20)
#    0.000    0.571    4.286    2.143    8.000    2.286 
#    0.000    0.000    0.000    0.000    0.000    0.000 
#    0.000    0.000    0.000    0.000    0.000    0.000 
#
# Total GULP energy -78140.153133 kJ/mol
# GULP energy per Si atom -5581.439509 kJ/mol
# Density = 2.519213 g / cm^3
# Si number density = 25.249598 Si / 1000 Ang^3
#
#
#
# Elastic Constant Matrix: (Units=GPa)
#
#
# Indices 1 2 3 4 5 6 
#
# 1 112.9822 31.0220 22.7869 13.4643 7.3492 -9.3320
# 2 31.0220 121.8129 44.6061 22.5239 4.4046 -6.5395
# 3 22.7869 44.6061 84.6336 23.2365 20.8012 12.6354
# 4 13.4643 22.5239 23.2365 38.9270 14.2572 -0.7893
# 5 7.3492 4.4046 20.8012 14.2572 45.3098 0.9512
# 6 -9.3320 -6.5395 12.6354 -0.7893 0.9512 49.9742
#
#
#
# Elastic Compliance Matrix: (Units=1/GPa)
#
#
# Indices 1 2 3 4 5 6 
#
# 1 0.009977 -0.001523 -0.001748 -0.001383 -0.000277 0.002089
# 2 -0.001523 0.011379 -0.005653 -0.003671 0.002839 0.002522
# 3 -0.001748 -0.005653 0.019137 -0.005424 -0.006122 -0.005874
# 4 -0.001383 -0.003671 -0.005424 0.034407 -0.007783 0.001324
# 5 -0.000277 0.002839 -0.006122 -0.007783 0.027073 0.001230
# 6 0.002089 0.002522 -0.005874 0.001324 0.001230 0.022213
#
#
# Mechanical properties :
#
#
# Convention : Reuss Voigt Hill
#
# Bulk Modulus (GPa) = 44.16153 57.36206 50.76179
# Shear Modulus (GPa) = 33.42643 41.57647 37.50145
#
# Velocity S-wave (km/s) = 3.64241 4.06226 3.85805
# Velocity P-wave (km/s) = 5.93443 6.69103 6.32406
#
# Compressibility (1/GPa) = 0.02264414
#
# Stress axis : x y z
#
# Youngs Moduli (GPa) = 100.23101 87.88159 52.25530
#
# Poissons Ratio (x) = 0.13384 0.09133
# Poissons Ratio (y) = 0.15265 0.29542
# Poissons Ratio (z) = 0.17519 0.49684
#
# Static dielectric constant tensor:
#      x y z
#    x 2.056000 -0.001440 -0.017010 
#    y -0.001440 1.849490 0.176740 
#    z -0.017010 0.176740 1.647300 
# 
# From -- ./inp_files/158377.got.cif
#   From: 2010.05.17/outbox.cif.g08.bks.cpg/sg2_80_cif.got.tgz:158377.got - 2010.06.03 11:33:40.
