data_PCOD9057793
_publ_section_title
;
Structure prediction by ZEFSAII (Michael W. Deem and Ramdas Pophale) SiO2 
 PCOD9057793
Probable space group: P -1
;
_chemical_formula_sum "Si O2"
_cell_formula_units_Z 16
_cell_length_a 14.730309
_cell_length_b 8.801004
_cell_length_c 10.738952
_cell_angle_alpha 55.147548
_cell_angle_beta 103.213256
_cell_angle_gamma 139.578572
_cell_volume 682.745962
_symmetry_space_group_name_H-M "P -1"
_symmetry_group_IT_number 2
_symmetry_cell_setting 'triclinic'
loop_
_space_group_symop_operation_xyz
x,y,z
-x,-y,-z
loop_
_atom_site_type_symbol
_atom_site_label
_atom_site_fract_x
_atom_site_fract_y
_atom_site_fract_z
Si Si1 0.866459 0.736590 0.443633
Si Si2 0.616890 0.438527 0.700437
Si Si3 0.889769 0.358877 0.646829
Si Si4 0.348343 0.099219 0.413001
Si Si5 0.334793 0.554072 0.715297
Si Si6 0.873893 0.958362 0.944044
Si Si7 0.301657 0.827896 0.765821
Si Si8 0.168820 0.375164 0.132442
O O1 0.740583 0.638215 0.534208
O O2 0.905633 0.597070 0.578907
O O3 0.784619 0.560138 0.369843
O O4 0.013122 0.090076 0.291808
O O5 0.618841 0.635379 0.679860
O O6 0.688087 0.399981 0.835385
O O7 0.451072 0.138428 0.735594
O O8 0.000000 0.500000 0.500000
O O9 0.728083 0.067278 0.665055
O O10 0.920651 0.242673 0.807072
O O11 0.507615 0.241280 0.395090
O O12 0.258894 0.893978 0.605978
O O13 0.348093 0.715008 0.758399
O O14 0.255733 0.252639 0.893641
O O15 0.819497 0.789583 0.874348
O O16 0.000000 0.000000 0.000000
O O17 0.181108 0.569877 0.952452
#
# Coordination Sequence:
#
# PCOD9057793 Si02
#       8
#     2   2   2   2   2   2   2   2
#     4  12  23  44  73 100 140 182 231 281 347 407
#     4  12  25  46  67  97 144 192 226 277 344 417
#     4  12  23  41  71 105 133 175 233 286 341 414
#     4  12  24  44  67 104 139 182 239 275 342 415
#     4  11  23  42  71 102 136 179 234 286 342 400
#     4  11  22  43  71 101 135 169 219 296 346 394
#     4  11  24  42  71  97 137 183 227 283 346 399
#     4  11  24  44  68 101 136 179 229 287 346 405
#
# _framework density 23.434778999999999
#
# number of rings (size 3 to 8) (size 9 to 14) (size 15 to 20)
#    0.000    0.500    6.250    2.250    1.750    0.500 
#    4.500    0.625    0.000    0.000    0.000    0.000 
#    0.000    0.000    0.000    0.000    0.000    0.000 
#
# Total GULP energy -89433.551081 kJ/mol
# GULP energy per Si atom -5589.596943 kJ/mol
# Density = 2.338144 g / cm^3
# Si number density = 23.434779 Si / 1000 Ang^3
#
#
#
# Elastic Constant Matrix: (Units=GPa)
#
#
# Indices 1 2 3 4 5 6 
#
# 1 47.6016 13.2667 19.0048 -11.9322 2.6183 -2.7082
# 2 13.2667 100.8558 27.5492 4.4270 -0.6936 9.5758
# 3 19.0048 27.5492 131.8091 -14.0639 11.3981 6.1116
# 4 -11.9322 4.4270 -14.0639 33.1981 6.8666 -2.6737
# 5 2.6183 -0.6936 11.3981 6.8666 22.0159 8.4049
# 6 -2.7082 9.5758 6.1116 -2.6737 8.4049 24.2746
#
#
#
# Elastic Compliance Matrix: (Units=1/GPa)
#
#
# Indices 1 2 3 4 5 6 
#
# 1 0.027303 -0.004961 -0.001034 0.013157 -0.010986 0.010516
# 2 -0.004961 0.012512 -0.002939 -0.006977 0.007822 -0.008226
# 3 -0.001034 -0.002939 0.009514 0.005726 -0.007382 0.001835
# 4 0.013157 -0.006977 0.005726 0.044675 -0.024915 0.016326
# 5 -0.010986 0.007822 -0.007382 -0.024915 0.069774 -0.029356
# 6 0.010516 -0.008226 0.001835 0.016326 -0.029356 0.057114
#
#
# Mechanical properties :
#
#
# Convention : Reuss Voigt Hill
#
# Bulk Modulus (GPa) = 31.78426 44.43422 38.10924
# Shear Modulus (GPa) = 20.06038 30.59411 25.32724
#
# Velocity S-wave (km/s) = 2.92894 3.61709 3.29105
# Velocity P-wave (km/s) = 5.00305 6.03709 5.54423
#
# Compressibility (1/GPa) = 0.03146212
#
# Stress axis : x y z
#
# Youngs Moduli (GPa) = 36.62535 79.92582 105.10540
#
# Poissons Ratio (x) = 0.39649 0.10864
# Poissons Ratio (y) = 0.18169 0.30893
# Poissons Ratio (z) = 0.03786 0.23492
#
# Static dielectric constant tensor:
#      x y z
#    x 1.830500 0.044270 0.022850 
#    y 0.044270 1.958620 0.002150 
#    z 0.022850 0.002150 1.952830 
# 
# From -- ./inp_files/298152.got.cif
#   From: 2010.05.17/outbox.cif.g08.bks.cpg/sg2_150_cif.got.tgz:298152.got - 2010.06.03 11:33:40.
