data_PCOD9057795
_publ_section_title
;
Structure prediction by ZEFSAII (Michael W. Deem and Ramdas Pophale) SiO2 
 PCOD9057795
Probable space group: P -1
;
_chemical_formula_sum "Si O2"
_cell_formula_units_Z 14
_cell_length_a 30.757625
_cell_length_b 9.709055
_cell_length_c 28.076528
_cell_angle_alpha 149.764540
_cell_angle_beta 171.587921
_cell_angle_gamma 30.001294
_cell_volume 610.275825
_symmetry_space_group_name_H-M "P -1"
_symmetry_group_IT_number 2
_symmetry_cell_setting 'triclinic'
loop_
_space_group_symop_operation_xyz
x,y,z
-x,-y,-z
loop_
_atom_site_type_symbol
_atom_site_label
_atom_site_fract_x
_atom_site_fract_y
_atom_site_fract_z
Si Si1 0.155346 0.272407 0.250456
Si Si2 0.279437 0.284138 0.490782
Si Si3 0.754288 0.779795 0.077845
Si Si4 0.853424 0.373307 0.348371
Si Si5 0.258477 0.685619 0.327345
Si Si6 0.322026 0.290513 0.914616
Si Si7 0.516008 0.589732 0.676375
O O1 0.366917 0.260952 0.522910
O O2 0.344354 0.332271 0.427004
O O3 0.861333 0.504063 0.008736
O O4 0.000000 0.000000 0.000000
O O5 0.974592 0.496823 0.225377
O O6 0.207809 0.987486 0.339662
O O7 0.501480 0.444560 0.810034
O O8 0.716119 0.798629 0.098541
O O9 0.889250 0.042396 0.283805
O O10 0.486090 0.759255 0.744078
O O11 0.000000 0.500000 0.500000
O O12 0.030658 0.395724 0.597301
O O13 0.500000 0.500000 0.000000
O O14 0.500000 0.500000 0.500000
O O15 0.364536 0.740895 0.511986
O O16 0.000000 0.500000 0.000000
O O17 0.500000 0.000000 0.000000
#
# Coordination Sequence:
#
# PCOD9057795 Si02
#       7
#     2   2   2   2   2   2   2
#     4  11  22  43  71 101 139 188 245 305 371 448
#     4  11  26  45  77 110 148 206 259 314 388 461
#     4  11  26  48  74 110 149 201 264 308 384 466
#     4  12  29  47  75 110 153 195 247 318 389 450
#     4  12  28  49  72 111 156 200 253 321 396 455
#     4  12  25  50  79 111 158 203 265 322 384 476
#     4  11  24  43  69 101 143 184 242 312 367 444
#
# _framework density 22.940446000000001
#
# number of rings (size 3 to 8) (size 9 to 14) (size 15 to 20)
#    0.000    0.571    2.857    4.286    6.000    1.143 
#    0.000    0.000    0.000    0.000    0.000    0.000 
#    0.000    0.000    0.000    0.000    0.000    0.000 
#
# Total GULP energy -78167.783603 kJ/mol
# GULP energy per Si atom -5583.413114 kJ/mol
# Density = 2.288823 g / cm^3
# Si number density = 22.940446 Si / 1000 Ang^3
#
#
#
# Elastic Constant Matrix: (Units=GPa)
#
#
# Indices 1 2 3 4 5 6 
#
# 1 141.8473 44.7404 36.2191 -9.0262 -3.7086 22.4165
# 2 44.7404 140.3057 29.8340 14.4245 12.1603 17.9617
# 3 36.2191 29.8340 116.3279 3.0667 0.9428 8.6631
# 4 -9.0262 14.4245 3.0667 38.0444 6.3650 1.6936
# 5 -3.7086 12.1603 0.9428 6.3650 53.0648 6.4542
# 6 22.4165 17.9617 8.6631 1.6936 6.4542 36.2105
#
#
#
# Elastic Compliance Matrix: (Units=1/GPa)
#
#
# Indices 1 2 3 4 5 6 
#
# 1 0.009277 -0.002408 -0.002035 0.003244 0.001390 -0.004461
# 2 -0.002408 0.008940 -0.001274 -0.003508 -0.001505 -0.002206
# 3 -0.002035 -0.001274 0.009605 -0.000777 0.000120 -0.000391
# 4 0.003244 -0.003508 -0.000777 0.028877 -0.002295 -0.001024
# 5 0.001390 -0.001505 0.000120 -0.002295 0.019998 -0.003600
# 6 -0.004461 -0.002206 -0.000391 -0.001024 -0.003600 0.032255
#
#
# Mechanical properties :
#
#
# Convention : Reuss Voigt Hill
#
# Bulk Modulus (GPa) = 61.02408 68.89641 64.96025
# Shear Modulus (GPa) = 39.72994 44.64310 42.18652
#
# Velocity S-wave (km/s) = 4.16609 4.41618 4.29296
# Velocity P-wave (km/s) = 7.05695 7.49009 7.27675
#
# Compressibility (1/GPa) = 0.01638697
#
# Stress axis : x y z
#
# Youngs Moduli (GPa) = 107.79474 111.86051 104.10769
#
# Poissons Ratio (x) = 0.26940 0.21189
# Poissons Ratio (y) = 0.25961 0.13262
# Poissons Ratio (z) = 0.21940 0.14250
#
# Static dielectric constant tensor:
#      x y z
#    x 1.907040 -0.061980 -0.054990 
#    y -0.061980 1.809090 0.039520 
#    z -0.054990 0.039520 1.975180 
# 
# From -- ./inp_files/135054.got.cif
#   From: 2010.05.17/outbox.cif.g08.bks.cpg/sg2_68_cif.got.tgz:135054.got - 2010.06.03 11:33:40.
