data_PCOD9057914
_publ_section_title
;
Structure prediction by ZEFSAII (Michael W. Deem and Ramdas Pophale) SiO2 
 PCOD9057914
Probable space group: P -1
;
_chemical_formula_sum "Si O2"
_cell_formula_units_Z 12
_cell_length_a 5.567493
_cell_length_b 11.577224
_cell_length_c 11.191891
_cell_angle_alpha 57.863331
_cell_angle_beta 120.048797
_cell_angle_gamma 121.074934
_cell_volume 497.103469
_symmetry_space_group_name_H-M "P -1"
_symmetry_group_IT_number 2
_symmetry_cell_setting 'triclinic'
loop_
_space_group_symop_operation_xyz
x,y,z
-x,-y,-z
loop_
_atom_site_type_symbol
_atom_site_label
_atom_site_fract_x
_atom_site_fract_y
_atom_site_fract_z
Si Si1 0.094398 0.418779 0.227777
Si Si2 0.049140 0.112618 0.087036
Si Si3 0.050740 0.892399 0.667711
Si Si4 0.463333 0.605524 0.035098
Si Si5 0.775087 0.436596 0.587843
Si Si6 0.325406 0.893016 0.206086
O O1 0.400098 0.519105 0.190671
O O2 0.039400 0.509012 0.274002
O O3 0.057283 0.258702 0.347579
O O4 0.847041 0.376122 0.086395
O O5 0.116586 0.143450 0.226899
O O6 0.075958 0.954510 0.161388
O O7 0.289355 0.240608 0.003219
O O8 0.749369 0.118635 0.948007
O O9 0.379744 0.979175 0.750504
O O10 0.000000 0.000000 0.500000
O O11 0.500000 0.500000 0.000000
O O12 0.500000 0.500000 0.500000
O O13 0.676489 0.261634 0.661425
O O14 0.000000 0.500000 0.500000
#
# Coordination Sequence:
#
# PCOD9057914 Si02
#       6
#     2   2   2   2   2   2
#     4  11  26  44  74 111 147 196 265 319 389 466
#     4  11  25  46  79 113 152 207 265 328 397 476
#     4  12  26  46  74 112 156 201 258 327 401 474
#     4  11  22  43  74 108 144 194 257 327 382 458
#     4  12  31  52  78 114 163 216 264 325 403 487
#     4  11  27  48  76 111 156 206 264 325 398 477
#
# _framework density 24.139845999999999
#
# number of rings (size 3 to 8) (size 9 to 14) (size 15 to 20)
#    0.000    0.667    3.333    2.500   11.667    3.333 
#    0.000    0.000    0.000    0.000    0.000    0.000 
#    0.000    0.000    0.000    0.000    0.000    0.000 
#
# Total GULP energy -66969.678468 kJ/mol
# GULP energy per Si atom -5580.806539 kJ/mol
# Density = 2.408490 g / cm^3
# Si number density = 24.139846 Si / 1000 Ang^3
#
#
#
# Elastic Constant Matrix: (Units=GPa)
#
#
# Indices 1 2 3 4 5 6 
#
# 1 81.8374 44.6853 40.5167 -22.4502 -13.3925 9.3857
# 2 44.6853 159.0096 46.9226 -31.9114 -13.2102 1.8288
# 3 40.5167 46.9226 99.4466 -20.1198 2.6479 17.9068
# 4 -22.4502 -31.9114 -20.1198 66.1031 -5.0902 6.2190
# 5 -13.3925 -13.2102 2.6479 -5.0902 43.4473 -4.2268
# 6 9.3857 1.8288 17.9068 6.2190 -4.2268 42.7385
#
#
#
# Elastic Compliance Matrix: (Units=1/GPa)
#
#
# Indices 1 2 3 4 5 6 
#
# 1 0.018382 -0.002251 -0.005443 0.004093 0.005628 -0.001699
# 2 -0.002251 0.008460 -0.002844 0.002531 0.002465 0.001200
# 3 -0.005443 -0.002844 0.015046 0.001591 -0.003818 -0.005596
# 4 0.004093 0.002531 0.001591 0.018894 0.003753 -0.004052
# 5 0.005628 0.002465 -0.003818 0.003753 0.026399 0.002323
# 6 -0.001699 0.001200 -0.005596 -0.004052 0.002323 0.026884
#
#
# Mechanical properties :
#
#
# Convention : Reuss Voigt Hill
#
# Bulk Modulus (GPa) = 48.05002 67.17141 57.61072
# Shear Modulus (GPa) = 35.19206 44.33572 39.76389
#
# Velocity S-wave (km/s) = 3.82231 4.29023 4.06301
# Velocity P-wave (km/s) = 6.27918 7.24070 6.77702
#
# Compressibility (1/GPa) = 0.02081164
#
# Stress axis : x y z
#
# Youngs Moduli (GPa) = 54.40181 118.20816 66.46180
#
# Poissons Ratio (x) = 0.26610 0.36174
# Poissons Ratio (y) = 0.12246 0.18902
# Poissons Ratio (z) = 0.29610 0.33619
#
# Static dielectric constant tensor:
#      x y z
#    x 2.064360 0.023940 0.074870 
#    y 0.023940 1.992640 0.004660 
#    z 0.074870 0.004660 2.071260 
# 
# From -- ./inp_files/68831.got.cif
#   From: 2010.05.17/outbox.cif.g08.bks.cpg/sg2_35_cif.got.tgz:68831.got - 2010.06.03 11:33:40.
