data_PCOD9057343
_publ_section_title
;
Structure prediction by ZEFSAII (Michael W. Deem and Ramdas Pophale) SiO2 
 PCOD9057343
Probable space group: P -1
;
_chemical_formula_sum "Si O2"
_cell_formula_units_Z 14
_cell_length_a 22.863590
_cell_length_b 11.419713
_cell_length_c 8.729183
_cell_angle_alpha 139.003641
_cell_angle_beta 29.780928
_cell_angle_gamma 150.262304
_cell_volume 561.510405
_symmetry_space_group_name_H-M "P -1"
_symmetry_group_IT_number 2
_symmetry_cell_setting 'triclinic'
loop_
_space_group_symop_operation_xyz
x,y,z
-x,-y,-z
loop_
_atom_site_type_symbol
_atom_site_label
_atom_site_fract_x
_atom_site_fract_y
_atom_site_fract_z
Si Si1 0.189452 0.722207 0.357288
Si Si2 0.672607 0.795407 0.471895
Si Si3 0.607562 0.542299 0.663423
Si Si4 0.077709 0.237675 0.151671
Si Si5 0.512759 0.888968 0.674100
Si Si6 0.836625 0.269120 0.220827
Si Si7 0.890581 0.993511 0.625783
O O1 0.103562 0.457706 0.234723
O O2 0.129546 0.700625 0.644748
O O3 0.205841 0.938295 0.469358
O O4 0.371089 0.841641 0.039402
O O5 0.577350 0.638368 0.680059
O O6 0.591966 0.819858 0.540014
O O7 0.755753 0.695959 0.130208
O O8 0.571877 0.306992 0.460839
O O9 0.779908 0.750508 0.542591
O O10 0.500000 0.500000 0.000000
O O11 0.000079 0.190847 0.445252
O O12 0.000000 0.000000 0.000000
O O13 0.652731 0.149897 0.541277
O O14 0.806902 0.058046 0.983967
O O15 0.000000 0.500000 0.000000
O O16 0.000000 0.000000 0.500000
#
# Coordination Sequence:
#
# PCOD9057343 Si02
#       7
#     2   2   2   2   2   2   2
#     4  11  24  44  75 105 142 191 251 294 365 441
#     4  11  24  44  74 104 142 194 239 302 364 430
#     4  12  25  45  71 106 147 188 245 305 365 436
#     4  12  24  44  73 106 142 191 251 297 360 443
#     4  11  23  47  75 105 144 194 245 298 366 443
#     4  11  22  42  68 103 145 186 236 302 359 427
#     4  12  25  45  70 105 145 193 243 301 371 432
#
# _framework density 24.932753000000002
#
# number of rings (size 3 to 8) (size 9 to 14) (size 15 to 20)
#    0.000    0.571    5.714    3.857    0.000    0.571 
#    2.571    3.571    0.000    0.000    0.000    0.000 
#    0.000    0.000    0.000    0.000    0.000    0.000 
#
# Total GULP energy -78021.844401 kJ/mol
# GULP energy per Si atom -5572.988886 kJ/mol
# Density = 2.487600 g / cm^3
# Si number density = 24.932753 Si / 1000 Ang^3
#
#
#
# Elastic Constant Matrix: (Units=GPa)
#
#
# Indices 1 2 3 4 5 6 
#
# 1 69.8232 28.9912 38.0718 -0.6795 10.4489 6.3536
# 2 28.9912 157.9998 21.3268 -1.4088 7.2379 2.7239
# 3 38.0718 21.3268 152.0862 -4.9863 32.2271 -20.1563
# 4 -0.6795 -1.4088 -4.9863 58.0331 -13.5944 11.2045
# 5 10.4489 7.2379 32.2271 -13.5944 40.0509 2.2492
# 6 6.3536 2.7239 -20.1563 11.2045 2.2492 30.4342
#
#
#
# Elastic Compliance Matrix: (Units=1/GPa)
#
#
# Indices 1 2 3 4 5 6 
#
# 1 0.019099 -0.002635 -0.005648 0.001472 0.000994 -0.008108
# 2 -0.002635 0.006868 -0.000274 0.000096 -0.000286 -0.000260
# 3 -0.005648 -0.000274 0.011289 -0.003322 -0.009283 0.010590
# 4 0.001472 0.000096 -0.003322 0.021517 0.010203 -0.011192
# 5 0.000994 -0.000286 -0.009283 0.010203 0.036411 -0.012777
# 6 -0.008108 -0.000260 0.010590 -0.011192 -0.012777 0.046652
#
#
# Mechanical properties :
#
#
# Convention : Reuss Voigt Hill
#
# Bulk Modulus (GPa) = 49.64855 61.85432 55.75143
# Shear Modulus (GPa) = 30.18146 45.13826 37.65986
#
# Velocity S-wave (km/s) = 3.48302 4.25950 3.89068
# Velocity P-wave (km/s) = 6.01094 7.00381 6.52629
#
# Compressibility (1/GPa) = 0.02014157
#
# Stress axis : x y z
#
# Youngs Moduli (GPa) = 52.35837 145.60222 88.57964
#
# Poissons Ratio (x) = 0.38361 0.50034
# Poissons Ratio (y) = 0.13795 0.02430
# Poissons Ratio (z) = 0.29574 0.03994
#
# Static dielectric constant tensor:
#      x y z
#    x 2.300440 0.097000 0.110210 
#    y 0.097000 2.244970 -0.135500 
#    z 0.110210 -0.135500 2.092310 
# 
# From -- ./inp_files/353852.got.cif
#   From: 2010.05.17/outbox.cif.g08.bks.cpg/sg2_177_cif.got.tgz:353852.got - 2010.06.03 11:33:40.
