data_PCOD9057254
_publ_section_title
;
Structure prediction by ZEFSAII (Michael W. Deem and Ramdas Pophale) SiO2 
 PCOD9057254
Probable space group: P -1
;
_chemical_formula_sum "Si O2"
_cell_formula_units_Z 16
_cell_length_a 5.370977
_cell_length_b 10.877477
_cell_length_c 13.053612
_cell_angle_alpha 88.738054
_cell_angle_beta 85.682257
_cell_angle_gamma 56.640123
_cell_volume 634.991600
_symmetry_space_group_name_H-M "P -1"
_symmetry_group_IT_number 2
_symmetry_cell_setting 'triclinic'
loop_
_space_group_symop_operation_xyz
x,y,z
-x,-y,-z
loop_
_atom_site_type_symbol
_atom_site_label
_atom_site_fract_x
_atom_site_fract_y
_atom_site_fract_z
Si Si1 0.893133 0.684949 0.744751
Si Si2 0.437747 0.871513 0.507729
Si Si3 0.960413 0.940713 0.666532
Si Si4 0.775973 0.372837 0.743099
Si Si5 0.627387 0.410234 0.103062
Si Si6 0.218998 0.873803 0.130439
Si Si7 0.623104 0.137061 0.080461
Si Si8 0.741981 0.611567 0.365843
O O1 0.125710 0.591392 0.834063
O O2 0.988951 0.557211 0.659334
O O3 0.949366 0.797119 0.678189
O O4 0.608509 0.798392 0.821564
O O5 0.669662 0.703161 0.470786
O O6 0.298958 0.878371 0.622260
O O7 0.500000 0.000000 0.500000
O O8 0.209497 0.933164 0.417030
O O9 0.820222 0.027122 0.773712
O O10 0.641821 0.524019 0.807521
O O11 0.734362 0.273727 0.825958
O O12 0.555502 0.384920 0.658907
O O13 0.116754 0.311158 0.705312
O O14 0.750539 0.242010 0.080105
O O15 0.500000 0.500000 0.000000
O O16 0.458181 0.848732 0.037591
O O17 0.886515 0.970858 0.092583
#
# Coordination Sequence:
#
# PCOD9057254 Si02
#       8
#     2   2   2   2   2   2   2   2
#     4  11  26  44  70 102 145 193 235 299 365 434
#     4  11  26  47  75 104 135 187 244 306 370 436
#     4  11  25  46  68 103 143 183 242 305 365 429
#     4  11  23  42  71 104 140 191 236 299 362 426
#     4  11  22  42  64  98 146 187 242 289 350 432
#     4  11  23  43  68 101 145 190 245 298 360 427
#     4  11  24  42  64 105 142 192 244 290 358 435
#     4  11  25  45  74 105 142 186 241 298 368 433
#
# _framework density 25.197182000000002
#
# number of rings (size 3 to 8) (size 9 to 14) (size 15 to 20)
#    0.000    1.000    5.000    0.750    5.250    2.500 
#    0.000    0.625    0.000    0.000    0.000    0.000 
#    0.000    0.000    0.000    0.000    0.000    0.000 
#
# Total GULP energy -89106.589589 kJ/mol
# GULP energy per Si atom -5569.161849 kJ/mol
# Density = 2.513983 g / cm^3
# Si number density = 25.197182 Si / 1000 Ang^3
#
#
#
# Elastic Constant Matrix: (Units=GPa)
#
#
# Indices 1 2 3 4 5 6 
#
# 1 57.8951 11.0392 32.6550 14.1983 -14.0907 1.7342
# 2 11.0392 115.3912 59.2666 35.0223 -12.0772 5.8081
# 3 32.6550 59.2666 133.8225 25.2018 0.3160 -4.1603
# 4 14.1983 35.0223 25.2018 58.5285 -3.9487 7.3030
# 5 -14.0907 -12.0772 0.3160 -3.9487 28.8123 -1.6787
# 6 1.7342 5.8081 -4.1603 7.3030 -1.6787 26.8835
#
#
#
# Elastic Compliance Matrix: (Units=1/GPa)
#
#
# Indices 1 2 3 4 5 6 
#
# 1 0.024846 0.004055 -0.007131 -0.004291 0.013248 -0.001589
# 2 0.004055 0.014138 -0.006201 -0.006025 0.007023 -0.002200
# 3 -0.007131 -0.006201 0.012207 -0.000663 -0.006108 0.003487
# 4 -0.004291 -0.006025 -0.000663 0.022487 -0.001811 -0.004746
# 5 0.013248 0.007023 -0.006108 -0.001811 0.043944 -0.000081
# 6 -0.001589 -0.002200 0.003487 -0.004746 -0.000081 0.039599
#
#
# Mechanical properties :
#
#
# Convention : Reuss Voigt Hill
#
# Bulk Modulus (GPa) = 30.64175 57.00337 43.82256
# Shear Modulus (GPa) = 26.78746 36.45472 31.62109
#
# Velocity S-wave (km/s) = 3.26408 3.80778 3.54636
# Velocity P-wave (km/s) = 5.13739 6.48107 5.84795
#
# Compressibility (1/GPa) = 0.03263522
#
# Stress axis : x y z
#
# Youngs Moduli (GPa) = 40.24788 70.73336 81.92264
#
# Poissons Ratio (x) = -0.28680 0.58421
# Poissons Ratio (y) = -0.16319 0.50800
# Poissons Ratio (z) = 0.28702 0.43862
#
# Static dielectric constant tensor:
#      x y z
#    x 2.173300 -0.054460 0.037890 
#    y -0.054460 2.037080 -0.033740 
#    z 0.037890 -0.033740 2.125620 
# 
# From -- ./inp_files/364479.got.cif
#   From: 2010.05.17/outbox.cif.g08.bks.cpg/sg2_183_cif.got.tgz:364479.got - 2010.06.03 11:33:40.
