data_PCOD9057967
_publ_section_title
;
Structure prediction by ZEFSAII (Michael W. Deem and Ramdas Pophale) SiO2 
 PCOD9057967
Probable space group: P -1
;
_chemical_formula_sum "Si O2"
_cell_formula_units_Z 10
_cell_length_a 6.939460
_cell_length_b 10.932327
_cell_length_c 9.517041
_cell_angle_alpha 39.372018
_cell_angle_beta 99.803209
_cell_angle_gamma 83.898118
_cell_volume 417.349365
_symmetry_space_group_name_H-M "P -1"
_symmetry_group_IT_number 2
_symmetry_cell_setting 'triclinic'
loop_
_space_group_symop_operation_xyz
x,y,z
-x,-y,-z
loop_
_atom_site_type_symbol
_atom_site_label
_atom_site_fract_x
_atom_site_fract_y
_atom_site_fract_z
Si Si1 0.593082 0.910392 0.832510
Si Si2 0.002482 0.712002 0.249612
Si Si3 0.168697 0.841216 0.433524
Si Si4 0.776819 0.513408 0.022348
Si Si5 0.224863 0.775362 0.952067
O O1 0.377983 0.901551 0.871743
O O2 0.932203 0.175810 0.713966
O O3 0.614637 0.121595 0.595327
O O4 0.774402 0.827845 0.047129
O O5 0.656594 0.744755 0.859678
O O6 0.000000 0.500000 0.500000
O O7 0.170371 0.687538 0.167619
O O8 0.997540 0.056796 0.282328
O O9 0.186748 0.644696 0.702271
O O10 0.681727 0.414147 0.976946
O O11 0.000000 0.500000 0.000000
#
# Coordination Sequence:
#
# PCOD9057967 Si02
#       5
#     2   2   2   2   2
#     4  11  24  42  66  96 128 163 216 259 310 377
#     4  11  22  44  66  92 129 169 208 260 317 373
#     4  11  24  43  66  92 128 169 210 258 318 371
#     4  12  22  45  67  91 132 169 205 262 318 372
#     4  11  24  41  67  95 128 166 212 261 312 371
#
# _framework density 23.960740999999999
#
# number of rings (size 3 to 8) (size 9 to 14) (size 15 to 20)
#    0.000    0.800    6.000    3.600    0.000    4.800 
#    7.200    0.000    0.000    0.000    0.000    0.000 
#    0.000    0.000    0.000    0.000    0.000    0.000 
#
# Total GULP energy -55985.855878 kJ/mol
# GULP energy per Si atom -5598.585588 kJ/mol
# Density = 2.390620 g / cm^3
# Si number density = 23.960741 Si / 1000 Ang^3
#
#
#
# Elastic Constant Matrix: (Units=GPa)
#
#
# Indices 1 2 3 4 5 6 
#
# 1 121.1675 11.7685 23.9593 6.0404 -45.5397 33.7492
# 2 11.7685 117.9990 20.1388 9.5779 -6.9329 12.0146
# 3 23.9593 20.1388 96.8054 11.2029 -31.7301 16.2857
# 4 6.0404 9.5779 11.2029 40.2994 1.9124 -13.0471
# 5 -45.5397 -6.9329 -31.7301 1.9124 42.0356 -15.6606
# 6 33.7492 12.0146 16.2857 -13.0471 -15.6606 38.5140
#
#
#
# Elastic Compliance Matrix: (Units=1/GPa)
#
#
# Indices 1 2 3 4 5 6 
#
# 1 0.019214 0.000670 0.005274 -0.010186 0.019922 -0.014626
# 2 0.000670 0.009280 -0.000957 -0.003397 0.000133 -0.004174
# 3 0.005274 -0.000957 0.016633 -0.008485 0.015552 -0.007907
# 4 -0.010186 -0.003397 -0.008485 0.036968 -0.011738 0.021324
# 5 0.019922 0.000133 0.015552 -0.011738 0.055646 -0.005424
# 6 -0.014626 -0.004174 -0.007907 0.021324 -0.005424 0.048445
#
#
# Mechanical properties :
#
#
# Convention : Reuss Voigt Hill
#
# Bulk Modulus (GPa) = 18.14822 49.74504 33.94663
# Shear Modulus (GPa) = 25.69634 42.84349 34.26991
#
# Velocity S-wave (km/s) = 3.27836 4.23315 3.78597
# Velocity P-wave (km/s) = 4.68196 6.68572 5.77146
#
# Compressibility (1/GPa) = 0.05510183
#
# Stress axis : x y z
#
# Youngs Moduli (GPa) = 52.04454 107.76104 60.12015
#
# Poissons Ratio (x) = -0.07221 -0.31710
# Poissons Ratio (y) = -0.03487 0.05755
# Poissons Ratio (z) = -0.27450 0.10316
#
# Static dielectric constant tensor:
#      x y z
#    x 1.956810 -0.008950 -0.005040 
#    y -0.008950 1.940170 -0.011550 
#    z -0.005040 -0.011550 1.895110 
# 
# From -- ./inp_files/365980.got.cif
#   From: 2010.05.17/outbox.cif.g08.bks.cpg/sg2_183_cif.got.tgz:365980.got - 2010.06.03 11:33:40.
