data_PCOD9057724
_publ_section_title
;
Structure prediction by ZEFSAII (Michael W. Deem and Ramdas Pophale) SiO2 
 PCOD9057724
Probable space group: P -1
;
_chemical_formula_sum "Si O2"
_cell_formula_units_Z 16
_cell_length_a 16.126241
_cell_length_b 8.731226
_cell_length_c 14.877119
_cell_angle_alpha 37.160028
_cell_angle_beta 143.667999
_cell_angle_gamma 140.788771
_cell_volume 696.123657
_symmetry_space_group_name_H-M "P -1"
_symmetry_group_IT_number 2
_symmetry_cell_setting 'triclinic'
loop_
_space_group_symop_operation_xyz
x,y,z
-x,-y,-z
loop_
_atom_site_type_symbol
_atom_site_label
_atom_site_fract_x
_atom_site_fract_y
_atom_site_fract_z
Si Si1 0.123293 0.494094 0.334439
Si Si2 0.126097 0.368767 0.681817
Si Si3 0.267372 0.767134 0.153563
Si Si4 0.366839 0.211863 0.702925
Si Si5 0.055203 0.926103 0.176217
Si Si6 0.833164 0.076011 0.190587
Si Si7 0.348033 0.332005 0.329678
Si Si8 0.591145 0.098418 0.291622
O O1 0.174669 0.685420 0.201515
O O2 0.237853 0.338662 0.518571
O O3 0.118586 0.687495 0.321504
O O4 0.958039 0.275733 0.271346
O O5 0.119713 0.170670 0.686399
O O6 0.000000 0.500000 0.500000
O O7 0.076963 0.186521 0.813909
O O8 0.289939 0.601566 0.726610
O O9 0.329191 0.523985 0.302886
O O10 0.414263 0.044608 0.158280
O O11 0.180478 0.777518 0.981975
O O12 0.323546 0.045238 0.835741
O O13 0.524989 0.466076 0.718311
O O14 0.366285 0.015601 0.711038
O O15 0.189583 0.183414 0.212862
O O16 0.000000 0.000000 0.000000
O O17 0.393708 0.097442 0.523678
#
# Coordination Sequence:
#
# PCOD9057724 Si02
#       8
#     2   2   2   2   2   2   2   2
#     4  12  22  42  65  92 128 166 213 259 305 385
#     4  12  24  43  66  91 131 172 206 259 319 373
#     4  11  23  43  68  93 128 169 207 260 323 371
#     4  11  23  41  67  97 121 167 216 255 312 377
#     4  12  26  41  65  97 127 166 211 264 321 367
#     4  12  26  40  64 100 129 162 212 268 315 367
#     4  11  22  44  68  91 129 168 211 257 315 383
#     4  11  22  43  69  91 128 169 213 254 313 387
#
# _framework density 22.984424000000001
#
# number of rings (size 3 to 8) (size 9 to 14) (size 15 to 20)
#    0.000    0.500    3.750    6.000    0.000    5.000 
#    0.000    0.000    0.000    0.000    0.000    0.000 
#    0.000    0.000    0.000    0.000    0.000    0.000 
#
# Total GULP energy -89652.007005 kJ/mol
# GULP energy per Si atom -5603.250438 kJ/mol
# Density = 2.293211 g / cm^3
# Si number density = 22.984424 Si / 1000 Ang^3
#
#
#
# Elastic Constant Matrix: (Units=GPa)
#
#
# Indices 1 2 3 4 5 6 
#
# 1 114.3232 36.8269 -12.3754 -16.2669 -14.5200 16.3016
# 2 36.8269 154.9113 -0.9591 15.5423 -0.7987 22.1967
# 3 -12.3754 -0.9591 38.7147 -6.0431 -8.8381 -0.8395
# 4 -16.2669 15.5423 -6.0431 25.8805 0.9696 -3.8094
# 5 -14.5200 -0.7987 -8.8381 0.9696 33.8129 -4.2643
# 6 16.3016 22.1967 -0.8395 -3.8094 -4.2643 26.5291
#
#
#
# Elastic Compliance Matrix: (Units=1/GPa)
#
#
# Indices 1 2 3 4 5 6 
#
# 1 0.013977 -0.004253 0.007992 0.012667 0.007404 -0.001768
# 2 -0.004253 0.009518 -0.003607 -0.010207 -0.003190 -0.007443
# 3 0.007992 -0.003607 0.033469 0.015032 0.012076 0.003265
# 4 0.012667 -0.010207 0.015032 0.057516 0.008855 0.010914
# 5 0.007404 -0.003190 0.012076 0.008855 0.036288 0.005606
# 6 -0.001768 -0.007443 0.003265 0.010914 0.005606 0.047580
#
#
# Mechanical properties :
#
#
# Convention : Reuss Voigt Hill
#
# Bulk Modulus (GPa) = 17.47342 39.43712 28.45527
# Shear Modulus (GPa) = 23.02446 36.20827 29.61637
#
# Velocity S-wave (km/s) = 3.16846 3.97336 3.59352
# Velocity P-wave (km/s) = 4.58305 6.18430 5.44288
#
# Compressibility (1/GPa) = 0.05722979
#
# Stress axis : x y z
#
# Youngs Moduli (GPa) = 71.54530 105.06290 29.87816
#
# Poissons Ratio (x) = 0.44680 -0.23878
# Poissons Ratio (y) = 0.30426 0.10776
# Poissons Ratio (z) = -0.57178 0.37891
#
# Static dielectric constant tensor:
#      x y z
#    x 1.817670 0.016790 0.005850 
#    y 0.016790 1.815150 -0.041540 
#    z 0.005850 -0.041540 1.914300 
# 
# From -- ./inp_files/185113.got.cif
#   From: 2010.05.17/outbox.cif.g08.bks.cpg/sg2_93_cif.got.tgz:185113.got - 2010.06.03 11:33:40.
