data_PCOD9057569
_publ_section_title
;
Structure prediction by ZEFSAII (Michael W. Deem and Ramdas Pophale) SiO2 
 PCOD9057569
Probable space group: P -1
;
_chemical_formula_sum "Si O2"
_cell_formula_units_Z 16
_cell_length_a 8.618641
_cell_length_b 8.440030
_cell_length_c 11.204455
_cell_angle_alpha 91.440533
_cell_angle_beta 100.326951
_cell_angle_gamma 126.281220
_cell_volume 637.461544
_symmetry_space_group_name_H-M "P -1"
_symmetry_group_IT_number 2
_symmetry_cell_setting 'triclinic'
loop_
_space_group_symop_operation_xyz
x,y,z
-x,-y,-z
loop_
_atom_site_type_symbol
_atom_site_label
_atom_site_fract_x
_atom_site_fract_y
_atom_site_fract_z
Si Si1 0.341824 0.530139 0.524292
Si Si2 0.981898 0.839468 0.409737
Si Si3 0.150217 0.514302 0.241155
Si Si4 0.724833 0.075231 0.186310
Si Si5 0.672074 0.131295 0.432610
Si Si6 0.094222 0.856118 0.171706
Si Si7 0.304692 0.478151 0.014898
Si Si8 0.574054 0.865689 0.942187
O O1 0.500000 0.500000 0.500000
O O2 0.236307 0.524543 0.385238
O O3 0.368405 0.711622 0.602184
O O4 0.231402 0.360106 0.605037
O O5 0.122747 0.783301 0.473616
O O6 0.035882 0.910087 0.284954
O O7 0.000000 0.000000 0.500000
O O8 0.144034 0.700880 0.214072
O O9 0.928777 0.299737 0.208062
O O10 0.277052 0.512235 0.149912
O O11 0.684419 0.023537 0.318730
O O12 0.514903 0.024903 0.117834
O O13 0.715517 0.938708 0.079892
O O14 0.500000 0.000000 0.500000
O O15 0.905085 0.719489 0.057841
O O16 0.267512 0.065831 0.139465
O O17 0.362409 0.661333 0.943144
O O18 0.500000 0.500000 0.000000
#
# Coordination Sequence:
#
# PCOD9057569 Si02
#       8
#     2   2   2   2   2   2   2   2
#     4  12  28  48  74 110 151 198 255 317 387 459
#     4  12  27  48  73 109 147 198 252 316 382 454
#     4  12  23  49  78 106 145 203 254 310 387 456
#     4  11  22  42  75 104 140 189 257 306 367 458
#     4  12  25  45  73 107 146 200 250 306 382 454
#     4  12  25  50  77 108 151 199 257 313 377 468
#     4  12  29  45  73 111 152 199 248 320 382 446
#     4  11  25  44  74 109 145 196 255 312 375 449
#
# _framework density 25.099554999999999
#
# number of rings (size 3 to 8) (size 9 to 14) (size 15 to 20)
#    0.000    0.250    5.000    4.500    3.500    2.500 
#    0.000    0.000    0.000    0.000    0.000    0.000 
#    0.000    0.000    0.000    0.000    0.000    0.000 
#
# Total GULP energy -89185.433081 kJ/mol
# GULP energy per Si atom -5574.089568 kJ/mol
# Density = 2.504243 g / cm^3
# Si number density = 25.099555 Si / 1000 Ang^3
#
#
#
# Elastic Constant Matrix: (Units=GPa)
#
#
# Indices 1 2 3 4 5 6 
#
# 1 99.1230 0.5840 29.7792 -5.4252 -15.4193 2.2663
# 2 0.5840 65.6180 -9.1098 -10.9907 -25.8167 13.2543
# 3 29.7792 -9.1098 130.8405 -12.6921 -32.2489 14.2021
# 4 -5.4252 -10.9907 -12.6921 31.1001 16.0974 -14.4339
# 5 -15.4193 -25.8167 -32.2489 16.0974 53.8428 -13.2907
# 6 2.2663 13.2543 14.2021 -14.4339 -13.2907 47.1120
#
#
#
# Elastic Compliance Matrix: (Units=1/GPa)
#
#
# Indices 1 2 3 4 5 6 
#
# 1 0.011032 0.000442 -0.001962 0.000450 0.002236 0.000705
# 2 0.000442 0.021714 0.004958 0.001835 0.012055 -0.003662
# 3 -0.001962 0.004958 0.010565 0.000935 0.007338 -0.002129
# 4 0.000450 0.001835 0.000935 0.042242 -0.008672 0.009676
# 5 0.002236 0.012055 0.007338 -0.008672 0.032154 0.000703
# 6 0.000705 -0.003662 -0.002129 0.009676 0.000703 0.026027
#
#
# Mechanical properties :
#
#
# Convention : Reuss Voigt Hill
#
# Bulk Modulus (GPa) = 19.92547 37.56538 28.74543
# Shear Modulus (GPa) = 32.55490 44.69950 38.62720
#
# Velocity S-wave (km/s) = 3.60534 4.22464 3.92721
# Velocity P-wave (km/s) = 5.02863 6.22862 5.66052
#
# Compressibility (1/GPa) = 0.05018703
#
# Stress axis : x y z
#
# Youngs Moduli (GPa) = 90.64925 46.05296 94.65114
#
# Poissons Ratio (x) = -0.02035 0.18569
# Poissons Ratio (y) = -0.04006 -0.46928
# Poissons Ratio (z) = 0.17784 -0.22833
#
# Static dielectric constant tensor:
#      x y z
#    x 2.399520 -0.753930 0.198960 
#    y -0.753930 3.131640 -0.461560 
#    z 0.198960 -0.461560 2.472350 
# 
# From -- ./inp_files/382389.got.cif
#   From: 2010.05.17/outbox.cif.g08.bks.cpg/sg2_192_cif.got.tgz:382389.got - 2010.06.03 11:33:40.
