data_PCOD9057144
_publ_section_title
;
Structure prediction by ZEFSAII (Michael W. Deem and Ramdas Pophale) SiO2 
 PCOD9057144
Probable space group: P -1
;
_chemical_formula_sum "Si O2"
_cell_formula_units_Z 16
_cell_length_a 21.001833
_cell_length_b 12.245848
_cell_length_c 9.167766
_cell_angle_alpha 134.258083
_cell_angle_beta 133.768031
_cell_angle_gamma 26.085758
_cell_volume 726.579755
_symmetry_space_group_name_H-M "P -1"
_symmetry_group_IT_number 2
_symmetry_cell_setting 'triclinic'
loop_
_space_group_symop_operation_xyz
x,y,z
-x,-y,-z
loop_
_atom_site_type_symbol
_atom_site_label
_atom_site_fract_x
_atom_site_fract_y
_atom_site_fract_z
Si Si1 0.811133 0.091494 0.336683
Si Si2 0.092821 0.596237 0.975723
Si Si3 0.329555 0.708779 0.393922
Si Si4 0.824901 0.729819 0.960932
Si Si5 0.228019 0.581391 0.910813
Si Si6 0.946904 0.078768 0.304090
Si Si7 0.847592 0.788624 0.594943
Si Si8 0.339528 0.190279 0.494337
O O1 0.979728 0.876091 0.464299
O O2 0.725839 0.256219 0.499798
O O3 0.812762 0.201648 0.303668
O O4 0.768379 0.981321 0.118902
O O5 0.173761 0.538095 0.904833
O O6 0.927384 0.770288 0.835095
O O7 0.186969 0.338529 0.966843
O O8 0.065825 0.776951 0.206406
O O9 0.500000 0.500000 0.500000
O O10 0.232513 0.985740 0.435254
O O11 0.309645 0.601686 0.145055
O O12 0.754368 0.728214 0.720359
O O13 0.000000 0.500000 0.000000
O O14 0.088873 0.842342 0.846271
O O15 0.309223 0.382756 0.722461
O O16 0.721529 0.855135 0.529025
O O17 0.000000 0.500000 0.500000
O O18 0.500000 0.000000 0.500000
#
# Coordination Sequence:
#
# PCOD9057144 Si02
#       8
#     2   2   2   2   2   2   2   2
#     4  11  24  41  71 107 142 187 247 311 376 445
#     4  12  22  42  74 110 142 186 255 324 365 445
#     4  12  29  48  74 108 156 204 251 315 398 463
#     4  12  24  44  72 110 146 194 261 312 381 451
#     4  12  26  46  70 106 148 199 254 310 380 458
#     4  11  22  41  71 107 142 179 243 320 377 430
#     4  12  24  47  80 114 146 202 264 318 375 461
#     4  12  30  49  72 109 159 205 252 320 396 464
#
# _framework density 22.020983999999999
#
# number of rings (size 3 to 8) (size 9 to 14) (size 15 to 20)
#    0.000    0.250    6.250    2.625    3.500    2.000 
#    0.000    2.500    0.000    0.000    0.000    0.000 
#    0.000    0.000    0.000    0.000    0.000    0.000 
#
# Total GULP energy -89253.359652 kJ/mol
# GULP energy per Si atom -5578.334978 kJ/mol
# Density = 2.197086 g / cm^3
# Si number density = 22.020984 Si / 1000 Ang^3
#
#
#
# Elastic Constant Matrix: (Units=GPa)
#
#
# Indices 1 2 3 4 5 6 
#
# 1 170.1519 52.8941 52.3338 -5.2507 -12.8424 -6.0547
# 2 52.8941 64.8125 53.2424 -4.1481 6.6726 -16.6193
# 3 52.3338 53.2424 152.5649 4.7605 -11.6511 -14.7844
# 4 -5.2507 -4.1481 4.7605 28.5668 3.6454 -2.7581
# 5 -12.8424 6.6726 -11.6511 3.6454 36.5677 -4.7344
# 6 -6.0547 -16.6193 -14.7844 -2.7581 -4.7344 30.3869
#
#
#
# Elastic Compliance Matrix: (Units=1/GPa)
#
#
# Indices 1 2 3 4 5 6 
#
# 1 0.008602 -0.007968 -0.000034 -0.000306 0.004232 -0.002029
# 2 -0.007968 0.033992 -0.009100 0.007524 -0.011159 0.011520
# 3 -0.000034 -0.009100 0.010319 -0.003681 0.005373 0.000540
# 4 -0.000306 0.007524 -0.003681 0.037859 -0.005807 0.004795
# 5 0.004232 -0.011159 0.005373 -0.005807 0.033423 0.002035
# 6 -0.002029 0.011520 0.000540 0.004795 0.002035 0.039820
#
#
# Mechanical properties :
#
#
# Convention : Reuss Voigt Hill
#
# Bulk Modulus (GPa) = 53.44805 78.27444 65.86125
# Shear Modulus (GPa) = 24.45508 34.37488 29.41498
#
# Velocity S-wave (km/s) = 3.33608 3.95524 3.65878
# Velocity P-wave (km/s) = 6.25807 7.51539 6.91536
#
# Compressibility (1/GPa) = 0.01870975
#
# Stress axis : x y z
#
# Youngs Moduli (GPa) = 116.24783 29.41902 96.90422
#
# Poissons Ratio (x) = 0.23441 0.00329
# Poissons Ratio (y) = 0.92627 0.88181
# Poissons Ratio (z) = 0.00395 0.26771
#
# Static dielectric constant tensor:
#      x y z
#    x 1.919860 -0.023110 0.021960 
#    y -0.023110 1.918300 0.055930 
#    z 0.021960 0.055930 1.867550 
# 
# From -- ./inp_files/333816.got.cif
#   From: 2010.05.17/outbox.cif.g08.bks.cpg/sg2_167_cif.got.tgz:333816.got - 2010.06.03 11:33:40.
