data_PCOD9057946
_publ_section_title
;
Structure prediction by ZEFSAII (Michael W. Deem and Ramdas Pophale) SiO2 
 PCOD9057946
Probable space group: P -1
;
_chemical_formula_sum "Si O2"
_cell_formula_units_Z 16
_cell_length_a 11.724790
_cell_length_b 10.133541
_cell_length_c 20.031394
_cell_angle_alpha 37.248457
_cell_angle_beta 26.875608
_cell_angle_gamma 50.651324
_cell_volume 625.581502
_symmetry_space_group_name_H-M "P -1"
_symmetry_group_IT_number 2
_symmetry_cell_setting 'triclinic'
loop_
_space_group_symop_operation_xyz
x,y,z
-x,-y,-z
loop_
_atom_site_type_symbol
_atom_site_label
_atom_site_fract_x
_atom_site_fract_y
_atom_site_fract_z
Si Si1 0.469836 0.168109 0.808618
Si Si2 0.781995 0.269449 0.222824
Si Si3 0.115476 0.696793 0.690774
Si Si4 0.949132 0.861819 0.228313
Si Si5 0.395505 0.164481 0.709949
Si Si6 0.438303 0.646390 0.910907
Si Si7 0.041341 0.187314 0.509459
Si Si8 0.286841 0.409413 0.416769
O O1 0.525472 0.337072 0.774316
O O2 0.756617 0.162494 0.637987
O O3 0.347100 0.253564 0.772710
O O4 0.263804 0.933993 0.030870
O O5 0.761544 0.268141 0.313915
O O6 0.871719 0.067755 0.223332
O O7 0.496693 0.269852 0.345810
O O8 0.000000 0.500000 0.000000
O O9 0.333566 0.691422 0.523653
O O10 0.047655 0.931435 0.617496
O O11 0.843834 0.500089 0.910228
O O12 0.823972 0.838778 0.229593
O O13 0.834246 0.652994 0.421243
O O14 0.410802 0.905798 0.821116
O O15 0.702028 0.675639 0.718509
O O16 0.500000 0.500000 0.000000
O O17 0.063571 0.316440 0.516458
#
# Coordination Sequence:
#
# PCOD9057946 Si02
#       8
#     2   2   2   2   2   2   2   2
#     4  12  28  44  64  98 150 188 222 274 340 420
#     4  12  21  43  72 101 127 166 232 289 342 385
#     4  11  22  43  77  98 132 176 224 301 338 385
#     4  12  25  44  70 101 137 180 227 289 343 401
#     4  11  25  46  68 104 140 177 237 278 339 417
#     4  11  24  42  74 104 132 183 232 288 340 397
#     4  11  25  46  68 104 140 177 237 278 339 417
#     4  12  25  44  70 101 137 180 227 289 343 401
#
# _framework density 25.576201999999999
#
# number of rings (size 3 to 8) (size 9 to 14) (size 15 to 20)
#    0.000    0.500    3.750    5.625    0.000    6.000 
#    0.000    0.000    0.000    0.000    0.000    0.000 
#    0.000    0.000    0.000    0.000    0.000    0.000 
#
# Total GULP energy -89636.883150 kJ/mol
# GULP energy per Si atom -5602.305197 kJ/mol
# Density = 2.551799 g / cm^3
# Si number density = 25.576202 Si / 1000 Ang^3
#
#
#
# Elastic Constant Matrix: (Units=GPa)
#
#
# Indices 1 2 3 4 5 6 
#
# 1 118.6104 0.4297 29.3773 -4.4099 -18.3202 0.6988
# 2 0.4297 55.2968 25.0321 -6.0234 -6.7690 7.0847
# 3 29.3773 25.0321 172.6889 0.9225 -25.6362 -5.8271
# 4 -4.4099 -6.0234 0.9225 39.6992 0.0157 2.4774
# 5 -18.3202 -6.7690 -25.6362 0.0157 48.9995 -4.4922
# 6 0.6988 7.0847 -5.8271 2.4774 -4.4922 25.5174
#
#
#
# Elastic Compliance Matrix: (Units=1/GPa)
#
#
# Indices 1 2 3 4 5 6 
#
# 1 0.009248 0.001076 -0.001326 0.001250 0.002869 -0.000471
# 2 0.001076 0.020990 -0.003339 0.003807 0.000928 -0.006826
# 3 -0.001326 -0.003339 0.007064 -0.001019 0.003034 0.003209
# 4 0.001250 0.003807 -0.001019 0.026170 0.000099 -0.003847
# 5 0.002869 0.000928 0.003034 0.000099 0.023609 0.004503
# 6 -0.000471 -0.006826 0.003209 -0.003847 0.004503 0.042996
#
#
# Mechanical properties :
#
#
# Convention : Reuss Voigt Hill
#
# Bulk Modulus (GPa) = 33.19448 50.69714 41.94581
# Shear Modulus (GPa) = 33.94530 42.29370 38.11950
#
# Velocity S-wave (km/s) = 3.64706 4.07090 3.86479
# Velocity P-wave (km/s) = 5.54451 6.47776 6.02922
#
# Compressibility (1/GPa) = 0.03012549
#
# Stress axis : x y z
#
# Youngs Moduli (GPa) = 108.13362 47.64162 141.55598
#
# Poissons Ratio (x) = -0.05126 0.18768
# Poissons Ratio (y) = -0.11635 0.47259
# Poissons Ratio (z) = 0.14337 0.15905
#
# Static dielectric constant tensor:
#      x y z
#    x 1.996910 -0.007170 0.025460 
#    y -0.007170 2.071020 0.007230 
#    z 0.025460 0.007230 1.957200 
# 
# From -- ./inp_files/524049.got.cif
#   From: 2010.05.17/outbox.cif.g08.bks.cpg/sg2_263_cif.got.tgz:524049.got - 2010.06.03 11:33:40.
