data_PCOD9057753
_publ_section_title
;
Structure prediction by ZEFSAII (Michael W. Deem and Ramdas Pophale) SiO2 
 PCOD9057753
Probable space group: P -1
;
_chemical_formula_sum "Si O2"
_cell_formula_units_Z 14
_cell_length_a 5.940594
_cell_length_b 12.791004
_cell_length_c 10.050829
_cell_angle_alpha 48.250711
_cell_angle_beta 96.038164
_cell_angle_gamma 109.741032
_cell_volume 528.449429
_symmetry_space_group_name_H-M "P -1"
_symmetry_group_IT_number 2
_symmetry_cell_setting 'triclinic'
loop_
_space_group_symop_operation_xyz
x,y,z
-x,-y,-z
loop_
_atom_site_type_symbol
_atom_site_label
_atom_site_fract_x
_atom_site_fract_y
_atom_site_fract_z
Si Si1 0.503783 0.180613 0.701712
Si Si2 0.731091 0.612643 0.554233
Si Si3 0.440314 0.829660 0.775178
Si Si4 0.423154 0.582972 0.808468
Si Si5 0.074656 0.612812 0.145017
Si Si6 0.206935 0.859277 0.477688
Si Si7 0.122809 0.899459 0.014551
O O1 0.395359 0.309307 0.624258
O O2 0.641487 0.219332 0.536961
O O3 0.692976 0.151577 0.839254
O O4 0.286681 0.018974 0.817083
O O5 0.532108 0.549404 0.708793
O O6 0.846010 0.483783 0.656137
O O7 0.936899 0.760110 0.505240
O O8 0.536760 0.748064 0.736764
O O9 0.254428 0.871907 0.628645
O O10 0.669766 0.971805 0.713650
O O11 0.294277 0.715595 0.977124
O O12 0.130749 0.515808 0.840140
O O13 0.500000 0.500000 0.000000
O O14 0.966125 0.737067 0.084182
O O15 0.000000 0.000000 0.000000
#
# Coordination Sequence:
#
# PCOD9057753 Si02
#       7
#     2   2   2   2   2   2   2
#     4  11  24  48  72 106 141 188 247 304 360 428
#     4  12  24  43  72 107 154 187 233 302 361 434
#     4  11  22  43  70 108 148 195 241 288 356 438
#     4  12  24  39  69 109 154 190 233 288 360 440
#     4  12  25  47  73 110 148 193 241 298 369 431
#     4  11  23  43  70 107 149 191 245 292 354 436
#     4  11  27  49  78 102 138 193 251 308 358 427
#
# _framework density 26.492602999999999
#
# number of rings (size 3 to 8) (size 9 to 14) (size 15 to 20)
#    0.000    0.571    5.714    2.143    0.000    5.714 
#    0.000    5.000    0.000    0.000    0.000    0.000 
#    0.000    0.000    0.000    0.000    0.000    0.000 
#
# Total GULP energy -78149.220494 kJ/mol
# GULP energy per Si atom -5582.087178 kJ/mol
# Density = 2.643230 g / cm^3
# Si number density = 26.492603 Si / 1000 Ang^3
#
#
#
# Elastic Constant Matrix: (Units=GPa)
#
#
# Indices 1 2 3 4 5 6 
#
# 1 75.1417 24.0284 48.5068 -13.6945 6.9540 2.9082
# 2 24.0284 73.8888 24.4690 -21.2383 -1.4420 6.6319
# 3 48.5068 24.4690 129.2721 -14.8125 11.3832 -0.9438
# 4 -13.6945 -21.2383 -14.8125 42.1427 -2.7075 1.1571
# 5 6.9540 -1.4420 11.3832 -2.7075 58.3823 -9.4771
# 6 2.9082 6.6319 -0.9438 1.1571 -9.4771 50.1967
#
#
#
# Elastic Compliance Matrix: (Units=1/GPa)
#
#
# Indices 1 2 3 4 5 6 
#
# 1 0.018888 -0.003417 -0.006086 0.002227 -0.001213 -0.001038
# 2 -0.003417 0.017384 -0.001279 0.007328 0.001087 -0.002086
# 3 -0.006086 -0.001279 0.010484 0.000971 -0.001231 0.000464
# 4 0.002227 0.007328 0.000971 0.028581 0.000794 -0.001588
# 5 -0.001213 0.001087 -0.001231 0.000794 0.018113 0.003305
# 6 -0.001038 -0.002086 0.000464 -0.001588 0.003305 0.020927
#
#
# Mechanical properties :
#
#
# Convention : Reuss Voigt Hill
#
# Bulk Modulus (GPa) = 39.69783 52.47901 46.08842
# Shear Modulus (GPa) = 34.64053 42.23089 38.43571
#
# Velocity S-wave (km/s) = 3.61994 3.99690 3.81308
# Velocity P-wave (km/s) = 5.69991 6.41500 6.06800
#
# Compressibility (1/GPa) = 0.02519029
#
# Stress axis : x y z
#
# Youngs Moduli (GPa) = 52.94353 57.52568 95.37892
#
# Poissons Ratio (x) = 0.19658 0.58049
# Poissons Ratio (y) = 0.18092 0.12203
# Poissons Ratio (z) = 0.32222 0.07360
#
# Static dielectric constant tensor:
#      x y z
#    x -5.067480 0.361730 -6.734200 
#    y 0.361730 2.059790 0.413490 
#    z -6.734200 0.413490 -4.315400 
# 
# From -- ./inp_files/367399.got.cif
#   From: 2010.05.17/outbox.cif.g08.bks.cpg/sg2_184_cif.got.tgz:367399.got - 2010.06.03 11:33:40.
