data_PCOD9057881
_publ_section_title
;
Structure prediction by ZEFSAII (Michael W. Deem and Ramdas Pophale) SiO2 
 PCOD9057881
Probable space group: P -1
;
_chemical_formula_sum "Si O2"
_cell_formula_units_Z 16
_cell_length_a 28.126827
_cell_length_b 12.570985
_cell_length_c 9.353524
_cell_angle_alpha 36.464238
_cell_angle_beta 153.571363
_cell_angle_gamma 155.214401
_cell_volume 616.412963
_symmetry_space_group_name_H-M "P -1"
_symmetry_group_IT_number 2
_symmetry_cell_setting 'triclinic'
loop_
_space_group_symop_operation_xyz
x,y,z
-x,-y,-z
loop_
_atom_site_type_symbol
_atom_site_label
_atom_site_fract_x
_atom_site_fract_y
_atom_site_fract_z
Si Si1 0.399422 0.357801 0.742586
Si Si2 0.863966 0.421265 0.129719
Si Si3 0.530991 0.959505 0.785242
Si Si4 0.450986 0.621656 0.316069
Si Si5 0.145715 0.923502 0.722892
Si Si6 0.774397 0.086963 0.741498
Si Si7 0.233978 0.554186 0.593404
Si Si8 0.973396 0.855807 0.769199
O O1 0.411224 0.524769 0.476679
O O2 0.235393 0.124918 0.617305
O O3 0.500000 0.500000 0.000000
O O4 0.457396 0.241031 0.959294
O O5 0.000000 0.500000 0.500000
O O6 0.863581 0.288793 0.133477
O O7 0.900111 0.662134 0.913197
O O8 0.703421 0.225658 0.991137
O O9 0.379201 0.814660 0.620374
O O10 0.500000 0.000000 0.500000
O O11 0.500000 0.500000 0.500000
O O12 0.607538 0.917708 0.411972
O O13 0.312753 0.542026 0.946194
O O14 0.019415 0.923671 0.419674
O O15 0.232867 0.009081 0.016179
O O16 0.852660 0.374299 0.657304
O O17 0.871351 0.063640 0.934061
O O18 0.138641 0.323485 0.472858
#
# Coordination Sequence:
#
# PCOD9057881 Si02
#       8
#     2   2   2   2   2   2   2   2
#     4  11  22  43  73 105 147 185 251 308 365 447
#     4  11  27  47  72 110 150 192 249 309 374 445
#     4  11  22  43  76 103 142 190 247 299 369 446
#     4  12  26  45  72 112 150 190 250 316 375 443
#     4  11  24  47  76 108 143 201 253 300 372 454
#     4  12  26  47  72 109 151 195 256 304 377 457
#     4  12  24  46  73 108 148 200 247 311 376 440
#     4  12  26  49  76 104 154 200 247 307 385 446
#
# _framework density 25.956624000000001
#
# number of rings (size 3 to 8) (size 9 to 14) (size 15 to 20)
#    0.000    0.500    5.000    3.375    1.750    0.500 
#    2.250    0.000    0.000    0.000    0.000    0.000 
#    0.000    0.000    0.000    0.000    0.000    0.000 
#
# Total GULP energy -89620.809480 kJ/mol
# GULP energy per Si atom -5601.300592 kJ/mol
# Density = 2.589755 g / cm^3
# Si number density = 25.956624 Si / 1000 Ang^3
#
#
#
# Elastic Constant Matrix: (Units=GPa)
#
#
# Indices 1 2 3 4 5 6 
#
# 1 72.5361 5.9988 11.4080 -6.2927 15.0594 8.3002
# 2 5.9988 58.9491 27.0535 -0.8814 8.0087 -1.3472
# 3 11.4080 27.0535 150.2495 -0.4090 3.0640 4.0829
# 4 -6.2927 -0.8814 -0.4090 52.0010 -2.5872 8.9133
# 5 15.0594 8.0087 3.0640 -2.5872 55.2948 -14.8475
# 6 8.3002 -1.3472 4.0829 8.9133 -14.8475 42.6692
#
#
#
# Elastic Compliance Matrix: (Units=1/GPa)
#
#
# Indices 1 2 3 4 5 6 
#
# 1 0.015983 -0.000570 -0.000840 0.002588 -0.005588 -0.005532
# 2 -0.000570 0.018864 -0.003311 0.000075 -0.002338 0.000194
# 3 -0.000840 -0.003311 0.007329 0.000009 0.000143 -0.000595
# 4 0.002588 0.000075 0.000009 0.020372 -0.001148 -0.005157
# 5 -0.005588 -0.002338 0.000143 -0.001148 0.022300 0.008999
# 6 -0.005532 0.000194 -0.000595 -0.005157 0.008999 0.028784
#
#
# Mechanical properties :
#
#
# Convention : Reuss Voigt Hill
#
# Bulk Modulus (GPa) = 30.54742 41.18393 35.86567
# Shear Modulus (GPa) = 37.31784 45.81131 41.56457
#
# Velocity S-wave (km/s) = 3.79582 4.20565 4.00598
# Velocity P-wave (km/s) = 5.56823 6.28365 5.93672
#
# Compressibility (1/GPa) = 0.03273599
#
# Stress axis : x y z
#
# Youngs Moduli (GPa) = 62.56610 53.00993 136.44892
#
# Poissons Ratio (x) = 0.03020 0.11457
# Poissons Ratio (y) = 0.03564 0.45176
# Poissons Ratio (z) = 0.05253 0.17551
#
# Static dielectric constant tensor:
#      x y z
#    x 2.138530 -0.000900 0.018830 
#    y -0.000900 2.087990 0.059710 
#    z 0.018830 0.059710 1.922670 
# 
# From -- ./inp_files/357052.got.cif
#   From: 2010.05.17/outbox.cif.g08.bks.cpg/sg2_179_cif.got.tgz:357052.got - 2010.06.03 11:33:40.
