data_PCOD9057383
_publ_section_title
;
Structure prediction by ZEFSAII (Michael W. Deem and Ramdas Pophale) SiO2 
 PCOD9057383
Probable space group: P -1
;
_chemical_formula_sum "Si O2"
_cell_formula_units_Z 14
_cell_length_a 15.642416
_cell_length_b 22.727835
_cell_length_c 4.994770
_cell_angle_alpha 73.597488
_cell_angle_beta 115.739649
_cell_angle_gamma 158.604456
_cell_volume 541.834101
_symmetry_space_group_name_H-M "P -1"
_symmetry_group_IT_number 2
_symmetry_cell_setting 'triclinic'
loop_
_space_group_symop_operation_xyz
x,y,z
-x,-y,-z
loop_
_atom_site_type_symbol
_atom_site_label
_atom_site_fract_x
_atom_site_fract_y
_atom_site_fract_z
Si Si1 0.660663 0.909409 0.166387
Si Si2 0.102478 0.630356 0.901207
Si Si3 0.200849 0.124582 0.363733
Si Si4 0.727211 0.592663 0.796221
Si Si5 0.893714 0.094255 0.737360
Si Si6 0.554141 0.075875 0.724293
Si Si7 0.710331 0.500073 0.404824
O O1 0.594663 0.806861 0.360666
O O2 0.916641 0.083734 0.480384
O O3 0.396338 0.793244 0.956741
O O4 0.763087 0.966896 0.930127
O O5 0.893048 0.548820 0.570236
O O6 0.180897 0.722271 0.139327
O O7 0.000000 0.500000 0.000000
O O8 0.411209 0.305836 0.361221
O O9 0.000000 0.000000 0.500000
O O10 0.000000 0.000000 0.000000
O O11 0.500000 0.500000 0.500000
O O12 0.836210 0.623837 0.636770
O O13 0.670600 0.505905 0.051702
O O14 0.893571 0.740657 0.014910
O O15 0.670706 0.009717 0.493913
O O16 0.500000 0.000000 0.500000
O O17 0.500000 0.000000 0.000000
#
# Coordination Sequence:
#
# PCOD9057383 Si02
#       7
#     2   2   2   2   2   2   2
#     4  11  25  46  74 109 145 201 235 308 375 458
#     4  11  24  49  77 116 159 196 257 318 395 461
#     4  12  27  47  74 105 149 194 254 301 370 449
#     4  12  28  48  75 108 151 198 256 317 377 447
#     4  11  24  43  70 104 142 188 247 291 374 446
#     4  11  22  42  69 102 143 196 244 301 367 450
#     4  12  27  50  76 113 148 198 250 319 383 447
#
# _framework density 25.838169000000001
#
# number of rings (size 3 to 8) (size 9 to 14) (size 15 to 20)
#    0.000    0.571    1.429    6.429    6.000    2.286 
#    0.000    7.143    0.000    0.000    0.000    0.000 
#    0.000    0.000    0.000    0.000    0.000    0.000 
#
# Total GULP energy -78170.736757 kJ/mol
# GULP energy per Si atom -5583.624054 kJ/mol
# Density = 2.577936 g / cm^3
# Si number density = 25.838169 Si / 1000 Ang^3
#
#
#
# Elastic Constant Matrix: (Units=GPa)
#
#
# Indices 1 2 3 4 5 6 
#
# 1 100.7031 30.1660 65.0834 -22.4135 3.9939 -2.5185
# 2 30.1660 109.8215 65.3776 -5.1921 -6.8042 -10.2082
# 3 65.0834 65.3776 213.6993 -33.8222 12.6168 8.2164
# 4 -22.4135 -5.1921 -33.8222 49.8924 3.8916 1.4743
# 5 3.9939 -6.8042 12.6168 3.8916 58.3715 -8.0892
# 6 -2.5185 -10.2082 8.2164 1.4743 -8.0892 41.2555
#
#
#
# Elastic Compliance Matrix: (Units=1/GPa)
#
#
# Indices 1 2 3 4 5 6 
#
# 1 0.013197 -0.001703 -0.002882 0.003827 -0.000637 0.000696
# 2 -0.001703 0.012509 -0.004091 -0.002625 0.003263 0.004540
# 3 -0.002882 -0.004091 0.007698 0.003806 -0.002666 -0.003380
# 4 0.003827 -0.002625 0.003806 0.024414 -0.003394 -0.002712
# 5 -0.000637 0.003263 -0.002666 -0.003394 0.019073 0.005160
# 6 0.000696 0.004540 -0.003380 -0.002712 0.005160 0.027187
#
#
# Mechanical properties :
#
#
# Convention : Reuss Voigt Hill
#
# Bulk Modulus (GPa) = 62.29407 82.83089 72.56248
# Shear Modulus (GPa) = 39.43786 47.47700 43.45743
#
# Velocity S-wave (km/s) = 3.91108 4.29123 4.10556
# Velocity P-wave (km/s) = 6.67511 7.52861 7.11467
#
# Compressibility (1/GPa) = 0.01605289
#
# Stress axis : x y z
#
# Youngs Moduli (GPa) = 75.77296 79.94330 129.89793
#
# Poissons Ratio (x) = 0.13618 0.37431
# Poissons Ratio (y) = 0.12908 0.53138
# Poissons Ratio (z) = 0.21835 0.32703
#
# Static dielectric constant tensor:
#      x y z
#    x 0.708960 0.861820 0.919070 
#    y 0.861820 1.530040 -0.560870 
#    z 0.919070 -0.560870 1.399710 
# 
# From -- ./inp_files/112779.got.cif
#   From: 2010.05.17/outbox.cif.g08.bks.cpg/sg2_57_cif.got.tgz:112779.got - 2010.06.03 11:33:40.
