data_PCOD9057279
_publ_section_title
;
Structure prediction by ZEFSAII (Michael W. Deem and Ramdas Pophale) SiO2 
 PCOD9057279
Probable space group: P -1
;
_chemical_formula_sum "Si O2"
_cell_formula_units_Z 16
_cell_length_a 24.290509
_cell_length_b 6.075780
_cell_length_c 17.241030
_cell_angle_alpha 76.741688
_cell_angle_beta 18.974831
_cell_angle_gamma 87.021352
_cell_volume 687.326349
_symmetry_space_group_name_H-M "P -1"
_symmetry_group_IT_number 2
_symmetry_cell_setting 'triclinic'
loop_
_space_group_symop_operation_xyz
x,y,z
-x,-y,-z
loop_
_atom_site_type_symbol
_atom_site_label
_atom_site_fract_x
_atom_site_fract_y
_atom_site_fract_z
Si Si1 0.484232 0.968717 0.431250
Si Si2 0.278829 0.925122 0.297320
Si Si3 0.897342 0.179730 0.146060
Si Si4 0.817118 0.883030 0.433015
Si Si5 0.164702 0.074899 0.059311
Si Si6 0.234995 0.458969 0.061702
Si Si7 0.593823 0.597314 0.017637
Si Si8 0.094435 0.477786 0.472977
O O1 0.267469 0.866567 0.694357
O O2 0.500000 0.000000 0.500000
O O3 0.622568 0.243779 0.179831
O O4 0.602994 0.819758 0.267085
O O5 0.159454 0.620099 0.458437
O O6 0.234919 0.022374 0.426686
O O7 0.500000 0.000000 0.000000
O O8 0.289007 0.112544 0.198667
O O9 0.811325 0.046386 0.354773
O O10 0.000000 0.500000 0.000000
O O11 0.000000 0.000000 0.000000
O O12 0.639417 0.581501 0.677180
O O13 0.043456 0.971349 0.148066
O O14 0.154185 0.298769 0.102768
O O15 0.050158 0.829100 0.291045
O O16 0.363471 0.381545 0.949753
O O17 0.054821 0.423480 0.359509
O O18 0.705041 0.457469 0.841793
#
# Coordination Sequence:
#
# PCOD9057279 Si02
#       8
#     2   2   2   2   2   2   2   2
#     4  11  27  50  77 107 144 191 249 319 387 457
#     4  12  24  39  69 101 144 202 246 304 364 445
#     4  12  31  55  84 116 150 197 258 328 393 458
#     4  12  24  48  72 111 145 197 256 308 382 455
#     4  11  25  44  74 102 147 192 246 305 375 453
#     4  11  25  43  69 108 142 195 242 302 378 446
#     4  12  24  43  68 102 154 189 249 302 363 446
#     4  11  22  42  66 102 146 195 248 286 371 439
#
# _framework density 23.278606
#
# number of rings (size 3 to 8) (size 9 to 14) (size 15 to 20)
#    0.000    0.500    5.000    2.250    3.500    7.500 
#    0.000    0.000    0.000    0.000    0.000    0.000 
#    0.000    0.000    0.000    0.000    0.000    0.000 
#
# Total GULP energy -89140.434248 kJ/mol
# GULP energy per Si atom -5571.277140 kJ/mol
# Density = 2.322562 g / cm^3
# Si number density = 23.278606 Si / 1000 Ang^3
#
#
#
# Elastic Constant Matrix: (Units=GPa)
#
#
# Indices 1 2 3 4 5 6 
#
# 1 118.9107 -1.8130 27.7980 4.7257 -18.9801 -16.6828
# 2 -1.8130 61.9797 39.8115 -1.3265 -13.0825 -0.9291
# 3 27.7980 39.8115 87.2493 8.6663 -29.6813 1.5417
# 4 4.7257 -1.3265 8.6663 35.5128 -6.0760 -7.8636
# 5 -18.9801 -13.0825 -29.6813 -6.0760 51.5565 -4.8796
# 6 -16.6828 -0.9291 1.5417 -7.8636 -4.8796 21.5649
#
#
#
# Elastic Compliance Matrix: (Units=1/GPa)
#
#
# Indices 1 2 3 4 5 6 
#
# 1 0.011853 0.004699 -0.005031 0.003153 0.004150 0.011820
# 2 0.004699 0.025347 -0.013062 0.005683 0.002088 0.008206
# 3 -0.005031 -0.013062 0.021762 -0.005565 0.006075 -0.006665
# 4 0.003153 0.005683 -0.005565 0.033818 0.004949 0.016534
# 5 0.004150 0.002088 0.006075 0.004949 0.026545 0.010677
# 6 0.011820 0.008206 -0.006665 0.016534 0.010677 0.064791
#
#
# Mechanical properties :
#
#
# Convention : Reuss Voigt Hill
#
# Bulk Modulus (GPa) = 31.08115 44.41473 37.74794
# Shear Modulus (GPa) = 22.56030 35.21637 28.88833
#
# Velocity S-wave (km/s) = 3.11648 3.89372 3.52658
# Velocity P-wave (km/s) = 5.13135 6.27183 5.73003
#
# Compressibility (1/GPa) = 0.03217384
#
# Stress axis : x y z
#
# Youngs Moduli (GPa) = 84.36816 39.45181 45.95253
#
# Poissons Ratio (x) = -0.18537 0.23117
# Poissons Ratio (y) = -0.39642 0.60023
# Poissons Ratio (z) = 0.42443 0.51532
#
# Static dielectric constant tensor:
#      x y z
#    x 1.953670 -0.171540 -0.049850 
#    y -0.171540 2.269290 0.075020 
#    z -0.049850 0.075020 1.968470 
# 
# From -- ./inp_files/578699.got.cif
#   From: 2010.05.17/outbox.cif.g08.bks.cpg/sg2_290_cif.got.tgz:578699.got - 2010.06.03 11:33:40.
