data_PCOD9057947
_publ_section_title
;
Structure prediction by ZEFSAII (Michael W. Deem and Ramdas Pophale) SiO2 
 PCOD9057947
Probable space group: P -1
;
_chemical_formula_sum "Si O2"
_cell_formula_units_Z 16
_cell_length_a 16.108250
_cell_length_b 8.799863
_cell_length_c 11.387590
_cell_angle_alpha 109.855827
_cell_angle_beta 108.569704
_cell_angle_gamma 132.617432
_cell_volume 681.559365
_symmetry_space_group_name_H-M "P -1"
_symmetry_group_IT_number 2
_symmetry_cell_setting 'triclinic'
loop_
_space_group_symop_operation_xyz
x,y,z
-x,-y,-z
loop_
_atom_site_type_symbol
_atom_site_label
_atom_site_fract_x
_atom_site_fract_y
_atom_site_fract_z
Si Si1 0.447673 0.185583 0.960662
Si Si2 0.302416 0.387176 0.207411
Si Si3 0.727405 0.261682 0.041732
Si Si4 0.542729 0.301918 0.411726
Si Si5 0.184149 0.271167 0.869405
Si Si6 0.872090 0.144486 0.386308
Si Si7 0.647918 0.717475 0.387757
Si Si8 0.165227 0.839194 0.088581
O O1 0.335072 0.854880 0.882319
O O2 0.318420 0.108669 0.825706
O O3 0.606151 0.397005 0.998265
O O4 0.548185 0.430472 0.179623
O O5 0.360465 0.595213 0.397635
O O6 0.492603 0.603124 0.310389
O O7 0.170774 0.033825 0.108514
O O8 0.201241 0.291041 0.022349
O O9 0.864651 0.630110 0.171312
O O10 0.819664 0.240442 0.044818
O O11 0.551629 0.976848 0.795298
O O12 0.673021 0.641880 0.491557
O O13 0.358370 0.106183 0.308823
O O14 0.080991 0.952856 0.677157
O O15 0.000000 0.500000 0.500000
O O16 0.823567 0.058412 0.480234
O O17 0.000000 0.500000 0.000000
#
# Coordination Sequence:
#
# PCOD9057947 Si02
#       8
#     2   2   2   2   2   2   2   2
#     4  10  17  37  58  81 107 143 186 221 276 336
#     4  11  17  35  57  80 110 142 193 223 265 322
#     4   9  20  35  57  84 111 140 187 221 282 328
#     4   8  19  33  56  83 108 140 190 222 264 325
#     4  11  20  35  60  79 112 148 178 234 277 322
#     4  11  21  35  56  85 109 141 187 229 276 330
#     4   9  15  33  55  80 105 137 185 229 258 320
#     4   9  18  35  55  80 107 149 184 221 270 324
#
# _framework density 23.475577999999999
#
# number of rings (size 3 to 8) (size 9 to 14) (size 15 to 20)
#    0.750    1.500    3.750    2.625    0.000    0.500 
#    9.000    1.250    2.750    0.000    0.000    0.000 
#    0.000    0.000    0.000    0.000    0.000    0.000 
#
# Total GULP energy -89197.848690 kJ/mol
# GULP energy per Si atom -5574.865543 kJ/mol
# Density = 2.342215 g / cm^3
# Si number density = 23.475578 Si / 1000 Ang^3
#
#
#
# Elastic Constant Matrix: (Units=GPa)
#
#
# Indices 1 2 3 4 5 6 
#
# 1 18.4423 8.1898 13.5949 4.2394 -12.7795 -6.1730
# 2 8.1898 156.5493 47.2090 19.1064 -1.5907 11.7239
# 3 13.5949 47.2090 68.5849 6.9081 -13.9796 -2.3655
# 4 4.2394 19.1064 6.9081 33.8815 -4.1131 -3.5766
# 5 -12.7795 -1.5907 -13.9796 -4.1131 19.9437 7.1026
# 6 -6.1730 11.7239 -2.3655 -3.5766 7.1026 29.5576
#
#
#
# Elastic Compliance Matrix: (Units=1/GPa)
#
#
# Indices 1 2 3 4 5 6 
#
# 1 0.104163 -0.003527 -0.005693 -0.001831 0.059154 0.008261
# 2 -0.003527 0.009376 -0.006570 -0.004627 -0.005575 -0.004202
# 3 -0.005693 -0.006570 0.022497 0.001307 0.011662 0.000573
# 4 -0.001831 -0.004627 0.001307 0.033117 0.004617 0.004455
# 5 0.059154 -0.005575 0.011662 0.004617 0.099527 -0.007858
# 6 0.008261 -0.004202 0.000573 0.004455 -0.007858 0.039697
#
#
# Mechanical properties :
#
#
# Convention : Reuss Voigt Hill
#
# Bulk Modulus (GPa) = 9.57341 42.39599 25.98470
# Shear Modulus (GPa) = 13.34131 28.31541 20.82836
#
# Velocity S-wave (km/s) = 2.38650 3.47676 2.98188
# Velocity P-wave (km/s) = 3.41771 5.84944 4.79044
#
# Compressibility (1/GPa) = 0.10445603
#
# Stress axis : x y z
#
# Youngs Moduli (GPa) = 9.60036 106.65214 44.45103
#
# Poissons Ratio (x) = 0.37613 0.25306
# Poissons Ratio (y) = 0.03386 0.29205
# Poissons Ratio (z) = 0.05465 0.70072
#
# Static dielectric constant tensor:
#      x y z
#    x 1.938250 0.017550 -0.042580 
#    y 0.017550 2.205750 0.175960 
#    z -0.042580 0.175960 2.073130 
# 
# From -- ./inp_files/468969.got.cif
#   From: 2010.05.17/outbox.cif.g08.bks.cpg/sg2_235_cif.got.tgz:468969.got - 2010.06.03 11:33:40.
