data_PCOD9057762
_publ_section_title
;
Structure prediction by ZEFSAII (Michael W. Deem and Ramdas Pophale) SiO2 
 PCOD9057762
Probable space group: P -1
;
_chemical_formula_sum "Si O2"
_cell_formula_units_Z 10
_cell_length_a 8.833756
_cell_length_b 10.797078
_cell_length_c 7.756143
_cell_angle_alpha 107.867707
_cell_angle_beta 92.822770
_cell_angle_gamma 137.378078
_cell_volume 431.193114
_symmetry_space_group_name_H-M "P -1"
_symmetry_group_IT_number 2
_symmetry_cell_setting 'triclinic'
loop_
_space_group_symop_operation_xyz
x,y,z
-x,-y,-z
loop_
_atom_site_type_symbol
_atom_site_label
_atom_site_fract_x
_atom_site_fract_y
_atom_site_fract_z
Si Si1 0.271454 0.937534 0.510346
Si Si2 0.874535 0.787702 0.984616
Si Si3 0.220354 0.814771 0.842064
Si Si4 0.439417 0.318099 0.785774
Si Si5 0.134451 0.502220 0.867825
O O1 0.207690 0.869736 0.677832
O O2 0.039473 0.731435 0.301789
O O3 0.500000 0.000000 0.500000
O O4 0.354742 0.143367 0.585127
O O5 0.611922 0.544762 0.803927
O O6 0.062135 0.797634 0.955271
O O7 0.790186 0.777671 0.165314
O O8 0.000000 0.000000 0.000000
O O9 0.152947 0.616561 0.759967
O O10 0.500000 0.000000 0.000000
O O11 0.615662 0.375103 0.971466
O O12 0.000000 0.500000 0.000000
#
# Coordination Sequence:
#
# PCOD9057762 Si02
#       5
#     2   2   2   2   2
#     4  12  23  40  68 102 135 172 230 279 330 400
#     4  11  22  43  70  95 139 180 220 274 342 398
#     4  12  22  41  73 100 133 178 224 279 336 397
#     4  11  24  43  70  98 137 179 218 282 337 395
#     4  12  22  42  68 100 132 176 226 278 333 394
#
# _framework density 23.191465000000001
#
# number of rings (size 3 to 8) (size 9 to 14) (size 15 to 20)
#    0.000    0.400    8.000    0.600    0.000    0.000 
#    0.000    5.000    4.400    0.000    0.000    0.000 
#    0.000    0.000    0.000    0.000    0.000    0.000 
#
# Total GULP energy -55865.435695 kJ/mol
# GULP energy per Si atom -5586.543570 kJ/mol
# Density = 2.313868 g / cm^3
# Si number density = 23.191465 Si / 1000 Ang^3
#
#
#
# Elastic Constant Matrix: (Units=GPa)
#
#
# Indices 1 2 3 4 5 6 
#
# 1 146.1405 52.9023 42.9188 12.9984 -20.8922 16.9525
# 2 52.9023 152.5339 42.9354 30.0209 -18.6043 -10.7655
# 3 42.9188 42.9354 122.0970 34.6465 -21.1259 -0.6364
# 4 12.9984 30.0209 34.6465 50.7023 -14.1586 -18.2202
# 5 -20.8922 -18.6043 -21.1259 -14.1586 40.5375 1.7440
# 6 16.9525 -10.7655 -0.6364 -18.2202 1.7440 57.6219
#
#
#
# Elastic Compliance Matrix: (Units=1/GPa)
#
#
# Indices 1 2 3 4 5 6 
#
# 1 0.009059 -0.002525 -0.001857 0.000033 0.002693 -0.003228
# 2 -0.002525 0.008528 -0.001124 -0.002865 0.000966 0.001388
# 3 -0.001857 -0.001124 0.011529 -0.006728 0.002260 -0.001732
# 4 0.000033 -0.002865 -0.006728 0.030775 0.005560 0.008943
# 5 0.002693 0.000966 0.002260 0.005560 0.029608 0.000275
# 6 -0.003228 0.001388 -0.001732 0.008943 0.000275 0.021364
#
#
# Mechanical properties :
#
#
# Convention : Reuss Voigt Hill
#
# Bulk Modulus (GPa) = 55.23403 77.58716 66.41060
# Shear Modulus (GPa) = 39.09047 48.57333 43.83190
#
# Velocity S-wave (km/s) = 4.11000 4.58148 4.35213
# Velocity P-wave (km/s) = 6.81110 7.84310 7.34525
#
# Compressibility (1/GPa) = 0.01810478
#
# Stress axis : x y z
#
# Youngs Moduli (GPa) = 110.39326 117.26420 86.73544
#
# Poissons Ratio (x) = 0.29610 0.16104
# Poissons Ratio (y) = 0.27875 0.09746
# Poissons Ratio (z) = 0.20496 0.13177
#
# Static dielectric constant tensor:
#      x y z
#    x 2.101560 -0.411820 -0.133700 
#    y -0.411820 2.539430 0.231350 
#    z -0.133700 0.231350 1.951820 
# 
# From -- ./inp_files/166668.got.cif
#   From: 2010.05.17/outbox.cif.g08.bks.cpg/sg2_84_cif.got.tgz:166668.got - 2010.06.03 11:33:40.
