data_PCOD9057262
_publ_section_title
;
Structure prediction by ZEFSAII (Michael W. Deem and Ramdas Pophale) SiO2 
 PCOD9057262
Probable space group: P -1
;
_chemical_formula_sum "Si O2"
_cell_formula_units_Z 14
_cell_length_a 16.822499
_cell_length_b 6.793486
_cell_length_c 9.405217
_cell_angle_alpha 47.870114
_cell_angle_beta 123.791880
_cell_angle_gamma 107.036940
_cell_volume 656.858540
_symmetry_space_group_name_H-M "P -1"
_symmetry_group_IT_number 2
_symmetry_cell_setting 'triclinic'
loop_
_space_group_symop_operation_xyz
x,y,z
-x,-y,-z
loop_
_atom_site_type_symbol
_atom_site_label
_atom_site_fract_x
_atom_site_fract_y
_atom_site_fract_z
Si Si1 0.941969 0.742033 0.238216
Si Si2 0.059984 0.248754 0.101761
Si Si3 0.469356 0.720247 0.563945
Si Si4 0.735094 0.877617 0.476953
Si Si5 0.747978 0.865494 0.163452
Si Si6 0.384718 0.566301 0.824282
Si Si7 0.365483 0.585700 0.253709
O O1 0.842262 0.801443 0.194048
O O2 0.000000 0.500000 0.500000
O O3 0.928008 0.682074 0.086443
O O4 0.999133 0.999323 0.173187
O O5 0.163822 0.157575 0.321065
O O6 0.000000 0.500000 0.000000
O O7 0.386919 0.650635 0.619498
O O8 0.430995 0.717949 0.367988
O O9 0.565759 0.507019 0.764783
O O10 0.500000 0.000000 0.500000
O O11 0.756453 0.799664 0.371531
O O12 0.670577 0.671865 0.585698
O O13 0.675406 0.175809 0.285391
O O14 0.668615 0.696487 0.097719
O O15 0.718796 0.184121 0.976755
O O16 0.500000 0.500000 0.000000
#
# Coordination Sequence:
#
# PCOD9057262 Si02
#       7
#     2   2   2   2   2   2   2
#     4  11  26  48  74 104 142 181 229 292 357 423
#     4  11  26  47  76 105 138 182 234 289 356 426
#     4  11  22  42  65  92 135 186 230 282 338 397
#     4  12  26  45  70 105 141 184 235 290 353 421
#     4  12  27  44  69 105 142 180 239 291 349 419
#     4  12  26  42  68 100 145 188 240 288 347 411
#     4  11  25  41  68  96 136 185 233 284 343 405
#
# _framework density 21.313569999999999
#
# number of rings (size 3 to 8) (size 9 to 14) (size 15 to 20)
#    0.000    0.571    2.857    4.286    4.000   10.286 
#    0.000    0.000    0.000    0.000    0.000    0.000 
#    0.000    0.000    0.000    0.000    0.000    0.000 
#
# Total GULP energy -78282.629159 kJ/mol
# GULP energy per Si atom -5591.616368 kJ/mol
# Density = 2.126506 g / cm^3
# Si number density = 21.313570 Si / 1000 Ang^3
#
#
#
# Elastic Constant Matrix: (Units=GPa)
#
#
# Indices 1 2 3 4 5 6 
#
# 1 155.7520 63.9516 51.2841 5.8265 6.7222 -26.6146
# 2 63.9516 128.0496 53.3159 1.9698 9.1522 -12.2329
# 3 51.2841 53.3159 118.6504 -1.7943 12.9731 -11.3332
# 4 5.8265 1.9698 -1.7943 36.3304 2.0587 3.0859
# 5 6.7222 9.1522 12.9731 2.0587 40.3667 0.4061
# 6 -26.6146 -12.2329 -11.3332 3.0859 0.4061 39.1286
#
#
#
# Elastic Compliance Matrix: (Units=1/GPa)
#
#
# Indices 1 2 3 4 5 6 
#
# 1 0.009381 -0.003300 -0.002124 -0.001840 -0.000087 0.004880
# 2 -0.003300 0.010951 -0.003385 -0.000203 -0.000837 0.000223
# 3 -0.002124 -0.003385 0.011229 0.001165 -0.002554 0.000684
# 4 -0.001840 -0.000203 0.001165 0.028241 -0.001430 -0.003190
# 5 -0.000087 -0.000837 -0.002554 -0.001430 0.025883 -0.001216
# 6 0.004880 0.000223 0.000684 -0.003190 -0.001216 0.029408
#
#
# Mechanical properties :
#
#
# Convention : Reuss Voigt Hill
#
# Bulk Modulus (GPa) = 71.71588 82.17280 76.94434
# Shear Modulus (GPa) = 36.40052 38.75850 37.57951
#
# Velocity S-wave (km/s) = 4.13711 4.26900 4.20357
# Velocity P-wave (km/s) = 7.51943 7.93329 7.72913
#
# Compressibility (1/GPa) = 0.01394391
#
# Stress axis : x y z
#
# Youngs Moduli (GPa) = 106.59360 91.31333 89.05173
#
# Poissons Ratio (x) = 0.30135 0.18916
# Poissons Ratio (y) = 0.35178 0.30142
# Poissons Ratio (z) = 0.22643 0.30907
#
# Static dielectric constant tensor:
#      x y z
#    x 1.761760 -0.003900 0.011610 
#    y -0.003900 1.763250 0.021070 
#    z 0.011610 0.021070 1.790410 
# 
# From -- ./inp_files/138853.got.cif
#   From: 2010.05.17/outbox.cif.g08.bks.cpg/sg2_70_cif.got.tgz:138853.got - 2010.06.03 11:33:40.
