data_PCOD9057575
_publ_section_title
;
Structure prediction by ZEFSAII (Michael W. Deem and Ramdas Pophale) SiO2 
 PCOD9057575
Probable space group: P -1
;
_chemical_formula_sum "Si O2"
_cell_formula_units_Z 16
_cell_length_a 8.484442
_cell_length_b 15.835724
_cell_length_c 11.999517
_cell_angle_alpha 131.264560
_cell_angle_beta 74.837690
_cell_angle_gamma 66.466838
_cell_volume 719.963120
_symmetry_space_group_name_H-M "P -1"
_symmetry_group_IT_number 2
_symmetry_cell_setting 'triclinic'
loop_
_space_group_symop_operation_xyz
x,y,z
-x,-y,-z
loop_
_atom_site_type_symbol
_atom_site_label
_atom_site_fract_x
_atom_site_fract_y
_atom_site_fract_z
Si Si1 0.399240 0.979963 0.170452
Si Si2 0.106904 0.818459 0.934121
Si Si3 0.707070 0.614504 0.176734
Si Si4 0.707952 0.145200 0.732252
Si Si5 0.514856 0.169540 0.364781
Si Si6 0.642573 0.411982 0.107629
Si Si7 0.638947 0.676512 0.709824
Si Si8 0.883315 0.318665 0.418792
O O1 0.506021 0.039451 0.248090
O O2 0.153281 0.141389 0.275840
O O3 0.307177 0.947978 0.258199
O O4 0.615645 0.797781 0.897422
O O5 0.141126 0.719062 0.948123
O O6 0.350633 0.771997 0.859727
O O7 0.135598 0.733819 0.741406
O O8 0.824668 0.032663 0.176359
O O9 0.505838 0.756568 0.239813
O O10 0.603416 0.720542 0.404419
O O11 0.705035 0.481253 0.076343
O O12 0.000000 0.500000 0.000000
O O13 0.636932 0.298685 0.943213
O O14 0.000000 0.000000 0.500000
O O15 0.352620 0.301533 0.403142
O O16 0.362864 0.582332 0.370445
O O17 0.844383 0.472586 0.537100
#
# Coordination Sequence:
#
# PCOD9057575 Si02
#       8
#     2   2   2   2   2   2   2   2
#     4  12  27  45  71 109 148 189 239 301 377 433
#     4  11  22  42  75 107 143 186 238 299 362 448
#     4  12  30  47  73 108 147 196 253 310 370 434
#     4  12  27  50  78 100 148 203 258 304 360 440
#     4  12  27  45  71 104 153 188 238 302 376 431
#     4  11  24  47  75 106 141 191 250 302 366 436
#     4  11  23  46  72 110 142 191 240 296 370 443
#     4  11  23  42  77 107 146 186 244 297 365 447
#
# _framework density 22.223361000000001
#
# number of rings (size 3 to 8) (size 9 to 14) (size 15 to 20)
#    0.000    0.500    3.750    5.625    7.000    1.000 
#    0.000    0.000    0.000    0.000    0.000    0.000 
#    0.000    0.000    0.000    0.000    0.000    0.000 
#
# Total GULP energy -89726.267350 kJ/mol
# GULP energy per Si atom -5607.891709 kJ/mol
# Density = 2.217278 g / cm^3
# Si number density = 22.223361 Si / 1000 Ang^3
#
#
#
# Elastic Constant Matrix: (Units=GPa)
#
#
# Indices 1 2 3 4 5 6 
#
# 1 82.7103 47.4109 34.2209 3.1760 1.6399 -0.0682
# 2 47.4109 159.7103 45.5778 3.0640 0.4335 5.7165
# 3 34.2209 45.5778 115.0257 -8.0187 -8.9509 -4.0414
# 4 3.1760 3.0640 -8.0187 36.9178 -2.7528 6.1606
# 5 1.6399 0.4335 -8.9509 -2.7528 40.9407 7.2060
# 6 -0.0682 5.7165 -4.0414 6.1606 7.2060 35.4507
#
#
#
# Elastic Compliance Matrix: (Units=1/GPa)
#
#
# Indices 1 2 3 4 5 6 
#
# 1 0.015745 -0.003672 -0.003470 -0.002081 -0.001653 0.000925
# 2 -0.003672 0.008043 -0.002203 -0.000611 -0.000213 -0.001405
# 3 -0.003470 -0.002203 0.011035 0.002988 0.002680 0.000543
# 4 -0.002081 -0.000611 0.002988 0.029134 0.003647 -0.005369
# 5 -0.001653 -0.000213 0.002680 0.003647 0.026319 -0.005647
# 6 0.000925 -0.001405 0.000543 -0.005369 -0.005647 0.030579
#
#
# Mechanical properties :
#
#
# Convention : Reuss Voigt Hill
#
# Bulk Modulus (GPa) = 61.99095 67.98506 64.98800
# Shear Modulus (GPa) = 34.50118 38.01095 36.25607
#
# Velocity S-wave (km/s) = 3.94442 4.14019 4.04349
# Velocity P-wave (km/s) = 6.97851 7.31526 7.14887
#
# Compressibility (1/GPa) = 0.01613139
#
# Stress axis : x y z
#
# Youngs Moduli (GPa) = 63.51378 124.33554 90.62126
#
# Poissons Ratio (x) = 0.45659 0.31448
# Poissons Ratio (y) = 0.23324 0.19964
# Poissons Ratio (z) = 0.22041 0.27391
#
# Static dielectric constant tensor:
#      x y z
#    x 1.835890 0.018940 -0.024320 
#    y 0.018940 1.824900 0.029160 
#    z -0.024320 0.029160 1.792030 
# 
# From -- ./inp_files/399594.got.cif
#   From: 2010.05.17/outbox.cif.g08.bks.cpg/sg2_200_cif.got.tgz:399594.got - 2010.06.03 11:33:40.
