data_PCOD9057599
_publ_section_title
;
Structure prediction by ZEFSAII (Michael W. Deem and Ramdas Pophale) SiO2 
 PCOD9057599
Probable space group: P -1
;
_chemical_formula_sum "Si O2"
_cell_formula_units_Z 14
_cell_length_a 10.124774
_cell_length_b 11.273513
_cell_length_c 9.475657
_cell_angle_alpha 108.108607
_cell_angle_beta 96.814776
_cell_angle_gamma 135.631892
_cell_volume 617.112837
_symmetry_space_group_name_H-M "P -1"
_symmetry_group_IT_number 2
_symmetry_cell_setting 'triclinic'
loop_
_space_group_symop_operation_xyz
x,y,z
-x,-y,-z
loop_
_atom_site_type_symbol
_atom_site_label
_atom_site_fract_x
_atom_site_fract_y
_atom_site_fract_z
Si Si1 0.021724 0.856343 0.867325
Si Si2 0.195498 0.561398 0.609411
Si Si3 0.411663 0.579462 0.414415
Si Si4 0.977156 0.652690 0.190109
Si Si5 0.670388 0.292916 0.791158
Si Si6 0.637095 0.071440 0.180183
Si Si7 0.117794 0.022414 0.250365
O O1 0.754597 0.641220 0.767780
O O2 0.046683 0.985466 0.803805
O O3 0.135165 0.815070 0.809125
O O4 0.134877 0.979387 0.075415
O O5 0.273977 0.503403 0.510343
O O6 0.142447 0.481489 0.731761
O O7 0.377116 0.803640 0.704709
O O8 0.000000 0.500000 0.500000
O O9 0.401172 0.690518 0.351721
O O10 0.662538 0.757779 0.565898
O O11 0.197133 0.733982 0.237680
O O12 0.832014 0.501394 0.981458
O O13 0.027529 0.837138 0.258357
O O14 0.467654 0.105995 0.795005
O O15 0.500000 0.000000 0.000000
#
# Coordination Sequence:
#
# PCOD9057599 Si02
#       7
#     2   2   2   2   2   2   2
#     4  11  24  48  65  97 138 177 223 274 330 398
#     4  12  23  38  66  98 136 166 216 282 334 382
#     4  12  24  44  70 101 129 177 224 277 332 393
#     4  11  22  43  63 101 136 175 216 278 333 392
#     4  11  23  38  70  97 133 170 223 276 337 389
#     4  12  23  41  68  98 130 173 219 275 339 391
#     4  11  26  43  70  94 135 185 222 268 332 403
#
# _framework density 22.686288000000001
#
# number of rings (size 3 to 8) (size 9 to 14) (size 15 to 20)
#    0.000    0.571    5.714    3.000    2.000    1.143 
#    0.000    5.000    0.000    0.000    0.000    0.000 
#    0.000    0.000    0.000    0.000    0.000    0.000 
#
# Total GULP energy -78089.371103 kJ/mol
# GULP energy per Si atom -5577.812222 kJ/mol
# Density = 2.263465 g / cm^3
# Si number density = 22.686288 Si / 1000 Ang^3
#
#
#
# Elastic Constant Matrix: (Units=GPa)
#
#
# Indices 1 2 3 4 5 6 
#
# 1 53.8583 25.9520 28.5579 -8.2247 10.2882 -20.6903
# 2 25.9520 86.4165 24.0453 -5.4107 13.5959 -14.9657
# 3 28.5579 24.0453 88.2750 -6.5756 18.1494 -4.7437
# 4 -8.2247 -5.4107 -6.5756 41.6548 -7.7702 1.0005
# 5 10.2882 13.5959 18.1494 -7.7702 33.1029 -5.5330
# 6 -20.6903 -14.9657 -4.7437 1.0005 -5.5330 31.9851
#
#
#
# Elastic Compliance Matrix: (Units=1/GPa)
#
#
# Indices 1 2 3 4 5 6 
#
# 1 0.032205 -0.004132 -0.008042 0.004131 0.000005 0.017578
# 2 -0.004132 0.014356 -0.001758 0.000119 -0.003078 0.003247
# 3 -0.008042 -0.001758 0.015376 -0.000413 -0.006106 -0.004787
# 4 0.004131 0.000119 -0.000413 0.025712 0.005396 0.002796
# 5 0.000005 -0.003078 -0.006106 0.005396 0.036728 0.003842
# 6 0.017578 0.003247 -0.004787 0.002796 0.003842 0.044022
#
#
# Mechanical properties :
#
#
# Convention : Reuss Voigt Hill
#
# Bulk Modulus (GPa) = 29.34742 42.85114 36.09928
# Shear Modulus (GPa) = 24.08240 31.34819 27.71529
#
# Velocity S-wave (km/s) = 3.26166 3.72131 3.49904
# Velocity P-wave (km/s) = 5.21046 6.11504 5.68078
#
# Compressibility (1/GPa) = 0.03407454
#
# Stress axis : x y z
#
# Youngs Moduli (GPa) = 31.05078 69.65820 65.03636
#
# Poissons Ratio (x) = 0.28782 0.52302
# Poissons Ratio (y) = 0.12830 0.11430
# Poissons Ratio (z) = 0.24971 0.12243
#
# Static dielectric constant tensor:
#      x y z
#    x 1.770860 0.025300 0.091520 
#    y 0.025300 1.826010 0.000270 
#    z 0.091520 0.000270 1.609820 
# 
# From -- ./inp_files/178279.got.cif
#   From: 2010.05.17/outbox.cif.g08.bks.cpg/sg2_90_cif.got.tgz:178279.got - 2010.06.03 11:33:40.
