data_PCOD9057220
_publ_section_title
;
Structure prediction by ZEFSAII (Michael W. Deem and Ramdas Pophale) SiO2 
 PCOD9057220
Probable space group: P -1
;
_chemical_formula_sum "Si O2"
_cell_formula_units_Z 16
_cell_length_a 19.205671
_cell_length_b 9.382498
_cell_length_c 16.120826
_cell_angle_alpha 142.725311
_cell_angle_beta 157.466198
_cell_angle_gamma 40.272221
_cell_volume 669.304041
_symmetry_space_group_name_H-M "P -1"
_symmetry_group_IT_number 2
_symmetry_cell_setting 'triclinic'
loop_
_space_group_symop_operation_xyz
x,y,z
-x,-y,-z
loop_
_atom_site_type_symbol
_atom_site_label
_atom_site_fract_x
_atom_site_fract_y
_atom_site_fract_z
Si Si1 0.840116 0.932824 0.023674
Si Si2 0.619053 0.327647 0.250180
Si Si3 0.483453 0.146695 0.635998
Si Si4 0.559601 0.044127 0.221746
Si Si5 0.732556 0.585001 0.863884
Si Si6 0.027917 0.273048 0.655514
Si Si7 0.928677 0.741539 0.488197
Si Si8 0.128141 0.949988 0.200148
O O1 0.983128 0.959254 0.119667
O O2 0.824333 0.671873 0.921482
O O3 0.912960 0.087898 0.249547
O O4 0.643978 0.040854 0.824373
O O5 0.495441 0.578817 0.230572
O O6 0.823567 0.394745 0.498951
O O7 0.606440 0.182887 0.254139
O O8 0.567666 0.153086 0.039846
O O9 0.500000 0.000000 0.500000
O O10 0.286252 0.119682 0.446262
O O11 0.743640 0.893365 0.387168
O O12 0.462342 0.251310 0.268895
O O13 0.753197 0.307218 0.774872
O O14 0.842196 0.669942 0.102404
O O15 0.106050 0.321412 0.674281
O O16 0.000000 0.000000 0.500000
O O17 0.000000 0.500000 0.500000
O O18 0.000000 0.000000 0.000000
#
# Coordination Sequence:
#
# PCOD9057220 Si02
#       8
#     2   2   2   2   2   2   2   2
#     4  12  28  50  71 112 149 193 254 302 371 436
#     4  11  22  41  74 107 145 188 252 299 360 452
#     4  12  27  49  74 109 148 197 251 306 367 437
#     4  11  22  42  73 110 142 195 241 302 378 430
#     4  12  26  48  77 106 152 192 251 307 363 450
#     4  12  21  46  70 103 148 191 234 301 372 434
#     4  12  27  43  72 111 150 189 242 307 369 444
#     4  12  28  51  78 107 146 204 248 303 373 437
#
# _framework density 23.905429000000002
#
# number of rings (size 3 to 8) (size 9 to 14) (size 15 to 20)
#    0.000    0.250    5.000    3.375    5.250    0.500 
#    4.500    2.500    0.000    0.000    0.000    0.000 
#    0.000    0.000    0.000    0.000    0.000    0.000 
#
# Total GULP energy -89579.541042 kJ/mol
# GULP energy per Si atom -5598.721315 kJ/mol
# Density = 2.385102 g / cm^3
# Si number density = 23.905429 Si / 1000 Ang^3
#
#
#
# Elastic Constant Matrix: (Units=GPa)
#
#
# Indices 1 2 3 4 5 6 
#
# 1 103.4295 34.1778 22.4752 -15.2018 17.2152 14.8306
# 2 34.1778 190.6084 31.4687 -10.8828 7.7534 15.9584
# 3 22.4752 31.4687 99.6492 -28.3209 9.7012 4.6449
# 4 -15.2018 -10.8828 -28.3209 41.4643 3.2794 2.4589
# 5 17.2152 7.7534 9.7012 3.2794 32.1355 -5.9678
# 6 14.8306 15.9584 4.6449 2.4589 -5.9678 27.1181
#
#
#
# Elastic Compliance Matrix: (Units=1/GPa)
#
#
# Indices 1 2 3 4 5 6 
#
# 1 0.013901 -0.000967 0.000436 0.006504 -0.009841 -0.009864
# 2 -0.000967 0.005966 -0.001218 0.000657 -0.001196 -0.003096
# 3 0.000436 -0.001218 0.013963 0.010093 -0.005953 -0.004139
# 4 0.006504 0.000657 0.010093 0.035240 -0.012441 -0.011606
# 5 -0.009841 -0.001196 -0.005953 -0.012441 0.043033 0.017704
# 6 -0.009864 -0.003096 -0.004139 -0.011606 0.017704 0.049749
#
#
# Mechanical properties :
#
#
# Convention : Reuss Voigt Hill
#
# Bulk Modulus (GPa) = 32.96874 63.32560 48.14717
# Shear Modulus (GPa) = 28.49611 40.51459 34.50535
#
# Velocity S-wave (km/s) = 3.45633 4.12124 3.80335
# Velocity P-wave (km/s) = 5.45432 7.01383 6.28265
#
# Compressibility (1/GPa) = 0.03033177
#
# Stress axis : x y z
#
# Youngs Moduli (GPa) = 71.93487 167.60733 71.61968
#
# Poissons Ratio (x) = 0.16212 -0.03125
# Poissons Ratio (y) = 0.06958 0.08727
# Poissons Ratio (z) = -0.03139 0.20423
#
# Static dielectric constant tensor:
#      x y z
#    x 1.958020 -0.043290 0.017920 
#    y -0.043290 1.933780 -0.056210 
#    z 0.017920 -0.056210 1.939110 
# 
# From -- ./inp_files/577648.got.cif
#   From: 2010.05.17/outbox.cif.g08.bks.cpg/sg2_289_cif.got.tgz:577648.got - 2010.06.03 11:33:40.
