data_PCOD9057178
_publ_section_title
;
Structure prediction by ZEFSAII (Michael W. Deem and Ramdas Pophale) SiO2 
 PCOD9057178
Probable space group: P -1
;
_chemical_formula_sum "Si O2"
_cell_formula_units_Z 16
_cell_length_a 11.215301
_cell_length_b 16.615498
_cell_length_c 8.546518
_cell_angle_alpha 137.346345
_cell_angle_beta 80.055404
_cell_angle_gamma 131.898636
_cell_volume 622.824204
_symmetry_space_group_name_H-M "P -1"
_symmetry_group_IT_number 2
_symmetry_cell_setting 'triclinic'
loop_
_space_group_symop_operation_xyz
x,y,z
-x,-y,-z
loop_
_atom_site_type_symbol
_atom_site_label
_atom_site_fract_x
_atom_site_fract_y
_atom_site_fract_z
Si Si1 0.800516 0.200996 0.965321
Si Si2 0.115881 0.973029 0.115195
Si Si3 0.799090 0.802697 0.169246
Si Si4 0.683517 0.964045 0.371909
Si Si5 0.569101 0.380110 0.648855
Si Si6 0.155794 0.595712 0.250816
Si Si7 0.329203 0.653586 0.757139
Si Si8 0.053822 0.764607 0.559653
O O1 0.851329 0.127450 0.949716
O O2 0.664053 0.046719 0.629277
O O3 0.730128 0.260322 0.158678
O O4 0.008407 0.413073 0.143888
O O5 0.899550 0.853731 0.050079
O O6 0.322476 0.206249 0.450389
O O7 0.110716 0.928206 0.874272
O O8 0.667280 0.816468 0.222591
O O9 0.687073 0.596594 0.959687
O O10 0.000000 0.000000 0.500000
O O11 0.910140 0.167747 0.532057
O O12 0.516799 0.831740 0.084719
O O13 0.650266 0.340479 0.691974
O O14 0.619100 0.377842 0.455175
O O15 0.202480 0.766806 0.539956
O O16 0.000000 0.500000 0.000000
O O17 0.156099 0.451842 0.619342
#
# Coordination Sequence:
#
# PCOD9057178 Si02
#       8
#     2   2   2   2   2   2   2   2
#     4  11  23  45  71 106 148 184 231 298 365 414
#     4  12  25  46  74 104 139 195 239 286 361 424
#     4  12  27  52  71  98 150 191 237 300 343 428
#     4  12  25  46  73 104 148 186 244 293 349 425
#     4  12  26  46  74 108 141 192 241 285 363 426
#     4  11  22  41  72 104 149 182 228 299 355 423
#     4  11  25  44  73 111 145 184 238 297 357 429
#     4  11  24  43  70 108 142 184 233 299 362 404
#
# _framework density 25.689430000000002
#
# number of rings (size 3 to 8) (size 9 to 14) (size 15 to 20)
#    0.000    0.500    6.250    1.125    1.750    7.500 
#    0.000    0.000    0.000    0.000    0.000    0.000 
#    0.000    0.000    0.000    0.000    0.000    0.000 
#
# Total GULP energy -89431.668227 kJ/mol
# GULP energy per Si atom -5589.479264 kJ/mol
# Density = 2.563096 g / cm^3
# Si number density = 25.689430 Si / 1000 Ang^3
#
#
#
# Elastic Constant Matrix: (Units=GPa)
#
#
# Indices 1 2 3 4 5 6 
#
# 1 47.1812 5.4485 12.1497 4.9448 -14.0222 7.7141
# 2 5.4485 86.4450 20.6310 13.4912 -8.0331 3.6482
# 3 12.1497 20.6310 119.9581 11.8319 -15.1294 5.5405
# 4 4.9448 13.4912 11.8319 49.1099 -0.8715 -1.4170
# 5 -14.0222 -8.0331 -15.1294 -0.8715 42.7602 -2.0586
# 6 7.7141 3.6482 5.5405 -1.4170 -2.0586 28.9162
#
#
#
# Elastic Compliance Matrix: (Units=1/GPa)
#
#
# Indices 1 2 3 4 5 6 
#
# 1 0.024912 -0.000010 -0.001078 -0.002287 0.007449 -0.006020
# 2 -0.000010 0.012645 -0.001595 -0.003097 0.001681 -0.001319
# 3 -0.001078 -0.001595 0.009259 -0.001673 0.002531 -0.001187
# 4 -0.002287 -0.003097 -0.001673 0.021889 -0.001367 0.002297
# 5 0.007449 0.001681 0.002531 -0.001367 0.026973 -0.000831
# 6 -0.006020 -0.001319 -0.001187 0.002297 -0.000831 0.036636
#
#
# Mechanical properties :
#
#
# Convention : Reuss Voigt Hill
#
# Bulk Modulus (GPa) = 24.12612 36.67142 30.39877
# Shear Modulus (GPa) = 33.00444 38.51427 35.75936
#
# Velocity S-wave (km/s) = 3.58823 3.87619 3.73498
# Velocity P-wave (km/s) = 5.15548 5.85995 5.51897
#
# Compressibility (1/GPa) = 0.04144885
#
# Stress axis : x y z
#
# Youngs Moduli (GPa) = 40.14199 79.08542 108.00356
#
# Poissons Ratio (x) = 0.00075 0.11646
# Poissons Ratio (y) = 0.00038 0.17230
# Poissons Ratio (z) = 0.04328 0.12617
#
# Static dielectric constant tensor:
#      x y z
#    x 2.329350 0.047340 0.119650 
#    y 0.047340 2.077520 -0.023000 
#    z 0.119650 -0.023000 2.094740 
# 
# From -- ./inp_files/280105.got.cif
#   From: 2010.05.17/outbox.cif.g08.bks.cpg/sg2_141_cif.got.tgz:280105.got - 2010.06.03 11:33:40.
