data_PCOD9057506
_publ_section_title
;
Structure prediction by ZEFSAII (Michael W. Deem and Ramdas Pophale) SiO2 
 PCOD9057506
Probable space group: P -1
;
_chemical_formula_sum "Si O2"
_cell_formula_units_Z 16
_cell_length_a 18.429630
_cell_length_b 8.756444
_cell_length_c 11.802105
_cell_angle_alpha 131.302446
_cell_angle_beta 29.473297
_cell_angle_gamma 116.953943
_cell_volume 664.965593
_symmetry_space_group_name_H-M "P -1"
_symmetry_group_IT_number 2
_symmetry_cell_setting 'triclinic'
loop_
_space_group_symop_operation_xyz
x,y,z
-x,-y,-z
loop_
_atom_site_type_symbol
_atom_site_label
_atom_site_fract_x
_atom_site_fract_y
_atom_site_fract_z
Si Si1 0.637957 0.903489 0.607525
Si Si2 0.155254 0.838162 0.154509
Si Si3 0.865322 0.812001 0.820812
Si Si4 0.152109 0.782884 0.696681
Si Si5 0.946392 0.559989 0.975751
Si Si6 0.634049 0.994370 0.403393
Si Si7 0.587280 0.258075 0.048959
Si Si8 0.223061 0.568758 0.268157
O O1 0.816964 0.791414 0.279458
O O2 0.574554 0.968843 0.598297
O O3 0.609580 0.084196 0.831587
O O4 0.574843 0.723130 0.661808
O O5 0.290799 0.819372 0.051371
O O6 0.177041 0.957064 0.067399
O O7 0.124852 0.613661 0.063914
O O8 0.000000 0.000000 0.500000
O O9 0.787671 0.657310 0.787474
O O10 0.052136 0.698030 0.510719
O O11 0.790878 0.815962 0.049745
O O12 0.229549 0.712585 0.436065
O O13 0.290872 0.815005 0.597945
O O14 0.087886 0.596404 0.733901
O O15 0.000000 0.000000 0.000000
O O16 0.000000 0.500000 0.000000
O O17 0.500000 0.000000 0.500000
O O18 0.636817 0.446351 0.015256
#
# Coordination Sequence:
#
# PCOD9057506 Si02
#       8
#     2   2   2   2   2   2   2   2
#     4  11  25  47  69 101 145 191 237 295 367 433
#     4  12  24  42  69 105 145 181 239 301 355 425
#     4  11  24  42  70 103 139 181 237 302 350 424
#     4  12  22  44  75 101 139 186 237 296 350 420
#     4  12  26  43  72 110 139 188 246 295 358 432
#     4  12  25  45  73 104 145 187 234 295 365 422
#     4  11  24  44  72  97 143 192 232 295 367 428
#     4  11  22  42  72 102 131 188 243 288 359 418
#
# _framework density 24.061395000000001
#
# number of rings (size 3 to 8) (size 9 to 14) (size 15 to 20)
#    0.000    0.500    5.000    3.000    3.500    0.500 
#    4.500    0.625    0.000    0.000    0.000    0.000 
#    0.000    0.000    0.000    0.000    0.000    0.000 
#
# Total GULP energy -89368.651536 kJ/mol
# GULP energy per Si atom -5585.540721 kJ/mol
# Density = 2.400663 g / cm^3
# Si number density = 24.061395 Si / 1000 Ang^3
#
#
#
# Elastic Constant Matrix: (Units=GPa)
#
#
# Indices 1 2 3 4 5 6 
#
# 1 135.2937 40.5646 19.3177 -11.4122 10.3277 8.1711
# 2 40.5646 142.5835 27.9149 -36.4179 12.5679 2.7762
# 3 19.3177 27.9149 67.6547 -28.8425 17.1957 1.6883
# 4 -11.4122 -36.4179 -28.8425 44.7052 -1.0299 4.4497
# 5 10.3277 12.5679 17.1957 -1.0299 38.7176 -4.9637
# 6 8.1711 2.7762 1.6883 4.4497 -4.9637 29.2058
#
#
#
# Elastic Compliance Matrix: (Units=1/GPa)
#
#
# Indices 1 2 3 4 5 6 
#
# 1 0.008402 -0.002008 -0.001195 -0.000063 -0.001357 -0.002312
# 2 -0.002008 0.009825 0.000852 0.008187 -0.003095 -0.002195
# 3 -0.001195 0.000852 0.024945 0.016786 -0.011317 -0.005669
# 4 -0.000063 0.008187 0.016786 0.040577 -0.010255 -0.009656
# 5 -0.001357 -0.003095 -0.011317 -0.010255 0.033039 0.008505
# 6 -0.002312 -0.002195 -0.005669 -0.009656 0.008505 0.038340
#
#
# Mechanical properties :
#
#
# Convention : Reuss Voigt Hill
#
# Bulk Modulus (GPa) = 25.99493 57.90292 41.94893
# Shear Modulus (GPa) = 28.96004 39.70804 34.33404
#
# Velocity S-wave (km/s) = 3.47304 4.06677 3.78158
# Velocity P-wave (km/s) = 5.18746 6.79473 6.04476
#
# Compressibility (1/GPa) = 0.03846904
#
# Stress axis : x y z
#
# Youngs Moduli (GPa) = 119.02195 101.78423 40.08856
#
# Poissons Ratio (x) = 0.20437 0.04790
# Poissons Ratio (y) = 0.23898 -0.03414
# Poissons Ratio (z) = 0.14221 -0.08667
#
# Static dielectric constant tensor:
#      x y z
#    x 1.843150 0.037580 0.086080 
#    y 0.037580 1.983900 -0.057120 
#    z 0.086080 -0.057120 1.841640 
# 
# From -- ./inp_files/462396.got.cif
#   From: 2010.05.17/outbox.cif.g08.bks.cpg/sg2_232_cif.got.tgz:462396.got - 2010.06.03 11:33:40.
