data_PCOD9057896
_publ_section_title
;
Structure prediction by ZEFSAII (Michael W. Deem and Ramdas Pophale) SiO2 
 PCOD9057896
Probable space group: P -1
;
_chemical_formula_sum "Si O2"
_cell_formula_units_Z 14
_cell_length_a 12.901786
_cell_length_b 9.266366
_cell_length_c 7.128494
_cell_angle_alpha 88.914236
_cell_angle_beta 135.644116
_cell_angle_gamma 105.329529
_cell_volume 556.025476
_symmetry_space_group_name_H-M "P -1"
_symmetry_group_IT_number 2
_symmetry_cell_setting 'triclinic'
loop_
_space_group_symop_operation_xyz
x,y,z
-x,-y,-z
loop_
_atom_site_type_symbol
_atom_site_label
_atom_site_fract_x
_atom_site_fract_y
_atom_site_fract_z
Si Si1 0.160059 0.276847 0.418896
Si Si2 0.362612 0.525996 0.200318
Si Si3 0.185925 0.832296 0.520400
Si Si4 0.150924 0.179817 0.985056
Si Si5 0.125189 0.661953 0.065246
Si Si6 0.345726 0.614143 0.769453
Si Si7 0.662986 0.875358 0.072848
O O1 0.272523 0.457683 0.561370
O O2 0.228971 0.199434 0.668490
O O3 0.157310 0.191381 0.218690
O O4 0.984199 0.281090 0.215425
O O5 0.500000 0.500000 0.500000
O O6 0.273712 0.631231 0.171945
O O7 0.414089 0.583157 0.055820
O O8 0.228716 0.357665 0.018556
O O9 0.188005 0.791221 0.304420
O O10 0.204265 0.677564 0.630944
O O11 0.025664 0.869813 0.322972
O O12 0.319541 0.972165 0.792284
O O13 0.257370 0.094112 0.029951
O O14 0.000000 0.500000 0.000000
O O15 0.486770 0.748413 0.845536
#
# Coordination Sequence:
#
# PCOD9057896 Si02
#       7
#     2   2   2   2   2   2   2
#     4  11  23  44  73 105 132 184 242 272 351 401
#     4  12  25  42  70 110 136 174 238 293 341 410
#     4  11  25  48  66 101 143 183 232 281 351 410
#     4  11  24  42  73 100 137 181 230 291 332 408
#     4  11  22  43  73  97 138 181 229 294 331 408
#     4  12  25  43  71 100 140 186 232 285 346 409
#     4  12  27  44  68 103 146 186 224 288 343 415
#
# _framework density 25.178701
#
# number of rings (size 3 to 8) (size 9 to 14) (size 15 to 20)
#    0.000    0.571    5.714    2.143    6.000    3.429 
#    2.571    0.714    0.000    0.000    0.000    0.000 
#    0.000    0.000    0.000    0.000    0.000    0.000 
#
# Total GULP energy -78381.585371 kJ/mol
# GULP energy per Si atom -5598.684669 kJ/mol
# Density = 2.512139 g / cm^3
# Si number density = 25.178701 Si / 1000 Ang^3
#
#
#
# Elastic Constant Matrix: (Units=GPa)
#
#
# Indices 1 2 3 4 5 6 
#
# 1 111.9267 5.2210 52.5123 6.9827 8.5600 -22.7037
# 2 5.2210 56.3406 14.7525 27.7256 -4.1987 -14.3568
# 3 52.5123 14.7525 116.9674 8.8775 -0.6881 -11.6620
# 4 6.9827 27.7256 8.8775 53.4835 1.0054 -7.7183
# 5 8.5600 -4.1987 -0.6881 1.0054 29.6715 0.8925
# 6 -22.7037 -14.3568 -11.6620 -7.7183 0.8925 30.4094
#
#
#
# Elastic Compliance Matrix: (Units=1/GPa)
#
#
# Indices 1 2 3 4 5 6 
#
# 1 0.013602 0.002636 -0.005482 -0.000831 -0.003927 0.009202
# 2 0.002636 0.027320 -0.002599 -0.012608 0.003154 0.010577
# 3 -0.005482 -0.002599 0.011241 0.000018 0.001505 -0.001048
# 4 -0.000831 -0.012608 0.000018 0.025376 -0.002402 -0.000055
# 5 -0.003927 0.003154 0.001505 -0.002402 0.035474 -0.002516
# 6 0.009202 0.010577 -0.001048 -0.000055 -0.002516 0.044406
#
#
# Mechanical properties :
#
#
# Convention : Reuss Voigt Hill
#
# Bulk Modulus (GPa) = 24.22846 47.80070 36.01458
# Shear Modulus (GPa) = 27.46236 36.89613 32.17925
#
# Velocity S-wave (km/s) = 3.30615 3.83217 3.57884
# Velocity P-wave (km/s) = 4.92115 6.21341 5.60465
#
# Compressibility (1/GPa) = 0.04127377
#
# Stress axis : x y z
#
# Youngs Moduli (GPa) = 73.51893 36.60260 88.95881
#
# Poissons Ratio (x) = -0.09648 0.48764
# Poissons Ratio (y) = -0.19378 0.23121
# Poissons Ratio (z) = 0.40300 0.09513
#
# Static dielectric constant tensor:
#      x y z
#    x 2.113040 -0.015320 0.006060 
#    y -0.015320 1.996360 0.009680 
#    z 0.006060 0.009680 2.014290 
# 
# From -- ./inp_files/298624.got.cif
#   From: 2010.05.17/outbox.cif.g08.bks.cpg/sg2_150_cif.got.tgz:298624.got - 2010.06.03 11:33:40.
