data_PCOD9057730
_publ_section_title
;
Structure prediction by ZEFSAII (Michael W. Deem and Ramdas Pophale) SiO2 
 PCOD9057730
Probable space group: P -1
;
_chemical_formula_sum "Si O2"
_cell_formula_units_Z 16
_cell_length_a 12.214766
_cell_length_b 18.592748
_cell_length_c 8.589676
_cell_angle_alpha 96.183211
_cell_angle_beta 76.465327
_cell_angle_gamma 29.875487
_cell_volume 724.763301
_symmetry_space_group_name_H-M "P -1"
_symmetry_group_IT_number 2
_symmetry_cell_setting 'triclinic'
loop_
_space_group_symop_operation_xyz
x,y,z
-x,-y,-z
loop_
_atom_site_type_symbol
_atom_site_label
_atom_site_fract_x
_atom_site_fract_y
_atom_site_fract_z
Si Si1 0.590906 0.781733 0.076852
Si Si2 0.211990 0.726584 0.005835
Si Si3 0.897221 0.892746 0.483216
Si Si4 0.094862 0.590522 0.864261
Si Si5 0.716669 0.959246 0.038395
Si Si6 0.317817 0.434118 0.095280
Si Si7 0.271647 0.166092 0.482420
Si Si8 0.548331 0.416811 0.606165
O O1 0.427405 0.883980 0.322162
O O2 0.916088 0.622563 0.928903
O O3 0.411553 0.939977 0.057761
O O4 0.581757 0.706977 0.997370
O O5 0.036583 0.816509 0.247170
O O6 0.426951 0.667151 0.941861
O O7 0.417319 0.540003 0.827069
O O8 0.949483 0.880344 0.003431
O O9 0.877599 0.820121 0.517139
O O10 0.122262 0.795643 0.505411
O O11 0.374302 0.446084 0.635043
O O12 0.224538 0.519372 0.977368
O O13 0.878034 0.785751 0.943922
O O14 0.458358 0.098593 0.279413
O O15 0.005631 0.621939 0.328324
O O16 0.500000 0.000000 0.500000
O O17 0.500000 0.500000 0.500000
#
# Coordination Sequence:
#
# PCOD9057730 Si02
#       8
#     2   2   2   2   2   2   2   2
#     4  12  28  43  65 103 146 176 219 285 350 391
#     4  11  23  42  70  98 136 177 235 274 334 408
#     4  12  21  41  68  97 129 180 233 272 325 405
#     4  11  22  43  69  97 131 178 234 275 322 408
#     4  11  24  42  70 102 130 175 233 283 332 399
#     4  12  25  45  67 101 140 181 223 282 339 406
#     4  12  21  39  72  99 126 175 228 277 329 399
#     4  11  23  39  68 106 131 168 229 294 331 381
#
# _framework density 22.076170999999999
#
# number of rings (size 3 to 8) (size 9 to 14) (size 15 to 20)
#    0.000    0.500    6.250    3.375    1.750    1.500 
#    0.000    0.000    0.000    0.000    0.000    0.000 
#    0.000    0.000    0.000    0.000    0.000    0.000 
#
# Total GULP energy -89324.599604 kJ/mol
# GULP energy per Si atom -5582.787475 kJ/mol
# Density = 2.202592 g / cm^3
# Si number density = 22.076171 Si / 1000 Ang^3
#
#
#
# Elastic Constant Matrix: (Units=GPa)
#
#
# Indices 1 2 3 4 5 6 
#
# 1 124.3299 11.2351 24.7387 8.8763 -13.5686 -19.8698
# 2 11.2351 40.6011 3.2640 -11.3138 -14.9916 -13.6231
# 3 24.7387 3.2640 84.6519 8.7543 -10.5556 -0.3655
# 4 8.8763 -11.3138 8.7543 31.8083 7.0801 -3.2943
# 5 -13.5686 -14.9916 -10.5556 7.0801 44.6720 11.1558
# 6 -19.8698 -13.6231 -0.3655 -3.2943 11.1558 35.9849
#
#
#
# Elastic Compliance Matrix: (Units=1/GPa)
#
#
# Indices 1 2 3 4 5 6 
#
# 1 0.009596 -0.001237 -0.002341 -0.002320 0.001265 0.004202
# 2 -0.001237 0.034927 -0.001549 0.013104 0.005935 0.011884
# 3 -0.002341 -0.001549 0.013470 -0.004726 0.003516 -0.003265
# 4 -0.002320 0.013104 -0.004726 0.040366 -0.006125 0.009226
# 5 0.001265 0.005935 0.003516 -0.006125 0.028137 -0.006303
# 6 0.004202 0.011884 -0.003265 0.009226 -0.006303 0.037374
#
#
# Mechanical properties :
#
#
# Convention : Reuss Voigt Hill
#
# Bulk Modulus (GPa) = 20.94691 36.45094 28.69892
# Shear Modulus (GPa) = 26.31072 36.51607 31.41339
#
# Velocity S-wave (km/s) = 3.45601 4.07147 3.77630
# Velocity P-wave (km/s) = 5.04326 6.21689 5.66057
#
# Compressibility (1/GPa) = 0.04773975
#
# Stress axis : x y z
#
# Youngs Moduli (GPa) = 104.21180 28.63108 74.23911
#
# Poissons Ratio (x) = 0.03540 0.17378
# Poissons Ratio (y) = 0.12887 0.11501
# Poissons Ratio (z) = 0.24395 0.04435
#
# Static dielectric constant tensor:
#      x y z
#    x 0.921380 -0.616160 0.773400 
#    y -0.616160 1.497640 0.504780 
#    z 0.773400 0.504780 1.166950 
# 
# From -- ./inp_files/282095.got.cif
#   From: 2010.05.17/outbox.cif.g08.bks.cpg/sg2_142_cif.got.tgz:282095.got - 2010.06.03 11:33:40.
