data_PCOD9057285
_publ_section_title
;
Structure prediction by ZEFSAII (Michael W. Deem and Ramdas Pophale) SiO2 
 PCOD9057285
Probable space group: P -1
;
_chemical_formula_sum "Si O2"
_cell_formula_units_Z 16
_cell_length_a 8.727181
_cell_length_b 15.308910
_cell_length_c 11.117109
_cell_angle_alpha 151.080565
_cell_angle_beta 77.788514
_cell_angle_gamma 114.020552
_cell_volume 619.807216
_symmetry_space_group_name_H-M "P -1"
_symmetry_group_IT_number 2
_symmetry_cell_setting 'triclinic'
loop_
_space_group_symop_operation_xyz
x,y,z
-x,-y,-z
loop_
_atom_site_type_symbol
_atom_site_label
_atom_site_fract_x
_atom_site_fract_y
_atom_site_fract_z
Si Si1 0.209380 0.480373 0.235810
Si Si2 0.826407 0.881259 0.041638
Si Si3 0.838914 0.426374 0.276612
Si Si4 0.699668 0.151195 0.495020
Si Si5 0.315307 0.878859 0.278587
Si Si6 0.191008 0.208787 0.408189
Si Si7 0.525473 0.809557 0.807020
Si Si8 0.184631 0.195067 0.675415
O O1 0.307703 0.710487 0.444623
O O2 0.040345 0.477068 0.330344
O O3 0.252835 0.335346 0.139937
O O4 0.193685 0.363660 0.969950
O O5 0.836396 0.067132 0.344427
O O6 0.684233 0.858271 0.935566
O O7 0.041924 0.980129 0.111655
O O8 0.844878 0.627309 0.460051
O O9 0.669385 0.342584 0.292150
O O10 0.796614 0.253509 0.972780
O O11 0.739312 0.241522 0.731958
O O12 0.515633 0.945620 0.291419
O O13 0.316543 0.097042 0.555362
O O14 0.389862 0.251857 0.392674
O O15 0.194181 0.244479 0.593143
O O16 0.500000 0.000000 0.000000
O O17 0.000000 0.000000 0.500000
#
# Coordination Sequence:
#
# PCOD9057285 Si02
#       8
#     2   2   2   2   2   2   2   2
#     4  12  25  44  76 110 149 192 241 298 370 432
#     4  12  24  49  73 109 141 193 243 302 362 434
#     4  12  25  45  73 110 145 197 243 297 365 433
#     4  11  24  42  69 107 150 191 242 300 366 428
#     4  11  22  42  66 106 154 192 238 300 360 434
#     4  12  26  46  74 110 147 193 247 300 359 436
#     4  12  28  52  74 100 147 195 246 306 363 427
#     4  12  22  40  75 106 149 189 236 293 369 428
#
# _framework density 25.814478999999999
#
# number of rings (size 3 to 8) (size 9 to 14) (size 15 to 20)
#    0.000    0.250    6.250    3.000    0.000    2.500 
#    2.250    1.250    0.000    0.000    0.000    0.000 
#    0.000    0.000    0.000    0.000    0.000    0.000 
#
# Total GULP energy -89405.859363 kJ/mol
# GULP energy per Si atom -5587.866210 kJ/mol
# Density = 2.575572 g / cm^3
# Si number density = 25.814479 Si / 1000 Ang^3
#
#
#
# Elastic Constant Matrix: (Units=GPa)
#
#
# Indices 1 2 3 4 5 6 
#
# 1 105.3355 69.0350 22.4867 3.1876 -17.3140 -8.8678
# 2 69.0350 186.1349 53.3376 15.8112 -2.7995 3.1507
# 3 22.4867 53.3376 80.4919 0.5783 -16.8377 -5.2944
# 4 3.1876 15.8112 0.5783 44.8455 -8.2690 -15.0242
# 5 -17.3140 -2.7995 -16.8377 -8.2690 39.0218 1.8635
# 6 -8.8678 3.1507 -5.2944 -15.0242 1.8635 50.0211
#
#
#
# Elastic Compliance Matrix: (Units=1/GPa)
#
#
# Indices 1 2 3 4 5 6 
#
# 1 0.014649 -0.006251 0.001854 0.003883 0.007480 0.004075
# 2 -0.006251 0.009896 -0.006209 -0.005272 -0.005680 -0.003761
# 3 0.001854 -0.006209 0.018118 0.004734 0.009021 0.003723
# 4 0.003883 -0.005272 0.004734 0.028776 0.009016 0.009829
# 5 0.007480 -0.005680 0.009021 0.009016 0.034146 0.004075
# 6 0.004075 -0.003761 0.003723 0.009829 0.004075 0.024145
#
#
# Mechanical properties :
#
#
# Convention : Reuss Voigt Hill
#
# Bulk Modulus (GPa) = 46.61531 73.52007 60.06769
# Shear Modulus (GPa) = 31.62711 41.91790 36.77250
#
# Velocity S-wave (km/s) = 3.50404 4.03403 3.77834
# Velocity P-wave (km/s) = 5.87095 7.08801 6.50799
#
# Compressibility (1/GPa) = 0.02145218
#
# Stress axis : x y z
#
# Youngs Moduli (GPa) = 68.26226 101.04975 55.19443
#
# Poissons Ratio (x) = 0.63166 -0.10236
# Poissons Ratio (y) = 0.42671 0.34270
# Poissons Ratio (z) = -0.12659 0.62742
#
# Static dielectric constant tensor:
#      x y z
#    x 3.244980 0.288760 -0.223400 
#    y 0.288760 2.149890 -0.156020 
#    z -0.223400 -0.156020 2.123630 
# 
# From -- ./inp_files/400011.got.cif
#   From: 2010.05.17/outbox.cif.g08.bks.cpg/sg2_201_cif.got.tgz:400011.got - 2010.06.03 11:33:40.
