data_PCOD9057884
_publ_section_title
;
Structure prediction by ZEFSAII (Michael W. Deem and Ramdas Pophale) SiO2 
 PCOD9057884
Probable space group: P -1
;
_chemical_formula_sum "Si O2"
_cell_formula_units_Z 12
_cell_length_a 8.935405
_cell_length_b 7.120147
_cell_length_c 15.946236
_cell_angle_alpha 139.014357
_cell_angle_beta 55.471538
_cell_angle_gamma 125.580368
_cell_volume 525.454812
_symmetry_space_group_name_H-M "P -1"
_symmetry_group_IT_number 2
_symmetry_cell_setting 'triclinic'
loop_
_space_group_symop_operation_xyz
x,y,z
-x,-y,-z
loop_
_atom_site_type_symbol
_atom_site_label
_atom_site_fract_x
_atom_site_fract_y
_atom_site_fract_z
Si Si1 0.832172 0.115529 0.214426
Si Si2 0.851585 0.690920 0.589076
Si Si3 0.143694 0.867833 0.122243
Si Si4 0.530789 0.141825 0.446023
Si Si5 0.174050 0.644530 0.873809
Si Si6 0.153546 0.240738 0.602601
O O1 0.642899 0.013476 0.296182
O O2 0.810266 0.099142 0.114972
O O3 0.902945 0.478838 0.323878
O O4 0.982221 0.968086 0.155348
O O5 0.669069 0.469096 0.531495
O O6 0.000000 0.500000 0.500000
O O7 0.784239 0.858734 0.745027
O O8 0.977194 0.962609 0.585034
O O9 0.037536 0.568432 0.106943
O O10 0.262444 0.776752 0.978757
O O11 0.326888 0.142270 0.477649
O O12 0.500000 0.000000 0.500000
O O13 0.243368 0.399243 0.716836
#
# Coordination Sequence:
#
# PCOD9057884 Si02
#       6
#     2   2   2   2   2   2
#     4  10  20  34  60  84 117 150 191 237 280 340
#     4  11  20  37  58  87 114 150 191 233 289 336
#     4  10  17  37  57  88 114 148 193 235 279 342
#     4  12  21  36  60  83 119 153 186 237 287 337
#     4   8  19  34  60  84 113 151 194 227 285 339
#     4   9  21  37  53  90 110 150 191 229 288 331
#
# _framework density 22.83736
#
# number of rings (size 3 to 8) (size 9 to 14) (size 15 to 20)
#    1.000    1.000    3.333    2.000    0.000    0.667 
#    0.000    0.833    0.000    1.000    0.000    0.000 
#    0.000    0.000    0.000    0.000    0.000    0.000 
#
# Total GULP energy -66826.967731 kJ/mol
# GULP energy per Si atom -5568.913978 kJ/mol
# Density = 2.278538 g / cm^3
# Si number density = 22.837360 Si / 1000 Ang^3
#
#
#
# Elastic Constant Matrix: (Units=GPa)
#
#
# Indices 1 2 3 4 5 6 
#
# 1 60.8214 40.6316 0.0868 -2.4276 -3.9666 -5.1953
# 2 40.6316 113.6450 17.4802 -16.0113 -0.3311 -21.7867
# 3 0.0868 17.4802 86.3293 -8.2621 16.4675 -3.2141
# 4 -2.4276 -16.0113 -8.2621 39.2435 -10.9820 12.1851
# 5 -3.9666 -0.3311 16.4675 -10.9820 30.5785 -0.3695
# 6 -5.1953 -21.7867 -3.2141 12.1851 -0.3695 37.6025
#
#
#
# Elastic Compliance Matrix: (Units=1/GPa)
#
#
# Indices 1 2 3 4 5 6 
#
# 1 0.022055 -0.008470 0.001215 -0.000887 0.001779 -0.001452
# 2 -0.008470 0.013753 -0.002577 0.003303 0.001691 0.005525
# 3 0.001215 -0.002577 0.013451 -0.000075 -0.007144 -0.000222
# 4 -0.000887 0.003303 -0.000075 0.032707 0.011602 -0.008700
# 5 0.001779 0.001691 -0.007144 0.011602 0.040933 -0.002743
# 6 -0.001452 0.005525 -0.000222 -0.008700 -0.002743 0.032368
#
#
# Mechanical properties :
#
#
# Convention : Reuss Voigt Hill
#
# Bulk Modulus (GPa) = 33.79020 41.91031 37.85025
# Shear Modulus (GPa) = 27.05663 34.99139 31.02401
#
# Velocity S-wave (km/s) = 3.44576 3.91858 3.68975
# Velocity P-wave (km/s) = 5.53707 6.23419 5.89594
#
# Compressibility (1/GPa) = 0.02959438
#
# Stress axis : x y z
#
# Youngs Moduli (GPa) = 45.34112 72.70895 74.34143
#
# Poissons Ratio (x) = 0.61587 -0.09030
# Poissons Ratio (y) = 0.38405 0.19158
# Poissons Ratio (z) = -0.05507 0.18738
#
# Static dielectric constant tensor:
#      x y z
#    x 1.867000 -0.085170 0.096820 
#    y -0.085170 1.879430 -0.090200 
#    z 0.096820 -0.090200 2.057040 
# 
# From -- ./inp_files/385696.got.cif
#   From: 2010.05.17/outbox.cif.g08.bks.cpg/sg2_193_cif.got.tgz:385696.got - 2010.06.03 11:33:40.
