data_PCOD9057038
_publ_section_title
;
Structure prediction by ZEFSAII (Michael W. Deem and Ramdas Pophale) SiO2 
 PCOD9057038
Probable space group: P -1
;
_chemical_formula_sum "Si O2"
_cell_formula_units_Z 14
_cell_length_a 9.399582
_cell_length_b 15.928662
_cell_length_c 10.581207
_cell_angle_alpha 55.994170
_cell_angle_beta 103.651270
_cell_angle_gamma 56.005756
_cell_volume 655.701220
_symmetry_space_group_name_H-M "P -1"
_symmetry_group_IT_number 2
_symmetry_cell_setting 'triclinic'
loop_
_space_group_symop_operation_xyz
x,y,z
-x,-y,-z
loop_
_atom_site_type_symbol
_atom_site_label
_atom_site_fract_x
_atom_site_fract_y
_atom_site_fract_z
Si Si1 0.184556 0.732737 0.738707
Si Si2 0.207103 0.963095 0.130977
Si Si3 0.735167 0.862745 0.917686
Si Si4 0.803698 0.639421 0.958960
Si Si5 0.773654 0.074585 0.539550
Si Si6 0.881812 0.729241 0.544526
Si Si7 0.271729 0.268191 0.734412
O O1 0.175116 0.842143 0.566883
O O2 0.002915 0.756677 0.608845
O O3 0.500000 0.500000 0.000000
O O4 0.045721 0.844040 0.751513
O O5 0.283963 0.885832 0.356245
O O6 0.473661 0.824450 0.207876
O O7 0.091112 0.147347 0.976588
O O8 0.000000 0.000000 0.000000
O O9 0.860219 0.718279 0.956590
O O10 0.438312 0.089500 0.619408
O O11 0.656768 0.826239 0.038831
O O12 0.483239 0.814581 0.695423
O O13 0.000000 0.500000 0.000000
O O14 0.908931 0.489439 0.202673
O O15 0.828764 0.760453 0.357857
O O16 0.000000 0.500000 0.500000
#
# Coordination Sequence:
#
# PCOD9057038 Si02
#       7
#     2   2   2   2   2   2   2
#     4  11  24  43  70 101 139 188 222 288 367 422
#     4  11  27  46  71 104 143 186 234 299 355 414
#     4  11  25  45  72  99 142 190 233 289 353 419
#     4  12  24  40  71 102 136 176 236 293 345 418
#     4  11  26  43  67 105 142 174 238 291 353 417
#     4  11  22  41  68  98 134 183 235 278 344 427
#     4  11  24  46  71 101 137 191 243 280 350 429
#
# _framework density 21.351185999999998
#
# number of rings (size 3 to 8) (size 9 to 14) (size 15 to 20)
#    0.000    0.857    4.286    3.429    6.000    2.286 
#    0.000    0.714    0.000    0.000    0.000    0.000 
#    0.000    0.000    0.000    0.000    0.000    0.000 
#
# Total GULP energy -78112.362241 kJ/mol
# GULP energy per Si atom -5579.454446 kJ/mol
# Density = 2.130259 g / cm^3
# Si number density = 21.351186 Si / 1000 Ang^3
#
#
#
# Elastic Constant Matrix: (Units=GPa)
#
#
# Indices 1 2 3 4 5 6 
#
# 1 114.0535 57.4891 27.8640 7.0962 4.0457 27.4896
# 2 57.4891 150.6986 37.6379 -19.0867 9.2671 25.8962
# 3 27.8640 37.6379 85.4513 -12.8237 3.0030 3.4527
# 4 7.0962 -19.0867 -12.8237 37.9621 2.5288 -6.4253
# 5 4.0457 9.2671 3.0030 2.5288 27.7665 6.5144
# 6 27.4896 25.8962 3.4527 -6.4253 6.5144 46.6436
#
#
#
# Elastic Compliance Matrix: (Units=1/GPa)
#
#
# Indices 1 2 3 4 5 6 
#
# 1 0.013769 -0.004251 -0.003492 -0.007171 0.002031 -0.006768
# 2 -0.004251 0.009854 -0.002057 0.004916 -0.002474 -0.001790
# 3 -0.003492 -0.002057 0.014446 0.005118 -0.001549 0.003052
# 4 -0.007171 0.004916 0.005118 0.033366 -0.005716 0.006513
# 5 0.002031 -0.002474 -0.001549 -0.005716 0.038614 -0.005889
# 6 -0.006768 -0.001790 0.003052 0.006513 -0.005889 0.027916
#
#
# Mechanical properties :
#
#
# Convention : Reuss Voigt Hill
#
# Bulk Modulus (GPa) = 54.14165 66.24283 60.19224
# Shear Modulus (GPa) = 30.53996 37.62193 34.08095
#
# Velocity S-wave (km/s) = 3.78612 4.20224 3.99959
# Velocity P-wave (km/s) = 6.67275 7.39174 7.04143
#
# Compressibility (1/GPa) = 0.01847007
#
# Stress axis : x y z
#
# Youngs Moduli (GPa) = 72.62833 101.48661 69.22156
#
# Poissons Ratio (x) = 0.43139 0.24169
# Poissons Ratio (y) = 0.30872 0.14239
# Poissons Ratio (z) = 0.25359 0.20876
#
# Static dielectric constant tensor:
#      x y z
#    x 1.822770 -0.033940 -0.020960 
#    y -0.033940 1.791040 0.009740 
#    z -0.020960 0.009740 1.859270 
# 
# From -- ./inp_files/398606.got.cif
#   From: 2010.05.17/outbox.cif.g08.bks.cpg/sg2_200_cif.got.tgz:398606.got - 2010.06.03 11:33:40.
