data_PCOD9057154
_publ_section_title
;
Structure prediction by ZEFSAII (Michael W. Deem and Ramdas Pophale) SiO2 
 PCOD9057154
Probable space group: P -1
;
_chemical_formula_sum "Si O2"
_cell_formula_units_Z 16
_cell_length_a 18.453580
_cell_length_b 8.227093
_cell_length_c 19.357554
_cell_angle_alpha 139.199596
_cell_angle_beta 21.311669
_cell_angle_gamma 136.186962
_cell_volume 696.261844
_symmetry_space_group_name_H-M "P -1"
_symmetry_group_IT_number 2
_symmetry_cell_setting 'triclinic'
loop_
_space_group_symop_operation_xyz
x,y,z
-x,-y,-z
loop_
_atom_site_type_symbol
_atom_site_label
_atom_site_fract_x
_atom_site_fract_y
_atom_site_fract_z
Si Si1 0.060900 0.912514 0.745542
Si Si2 0.904396 0.600740 0.047048
Si Si3 0.002473 0.102695 0.363809
Si Si4 0.839342 0.614828 0.369545
Si Si5 0.437686 0.785505 0.431500
Si Si6 0.667489 0.760830 0.097272
Si Si7 0.346100 0.516197 0.204398
Si Si8 0.547532 0.307035 0.334468
O O1 0.994292 0.970444 0.745045
O O2 0.294341 0.867366 0.522710
O O3 0.888813 0.709236 0.858035
O O4 0.075640 0.109253 0.859253
O O5 0.684728 0.463041 0.206516
O O6 0.000000 0.500000 0.000000
O O7 0.034664 0.533761 0.844927
O O8 0.818152 0.278619 0.593728
O O9 0.206592 0.261843 0.251846
O O10 0.977227 0.849470 0.348868
O O11 0.709772 0.427147 0.472514
O O12 0.666809 0.754853 0.527986
O O13 0.637218 0.726586 0.194843
O O14 0.500000 0.000000 0.500000
O O15 0.496184 0.589162 0.156850
O O16 0.644042 0.054723 0.191870
O O17 0.500000 0.500000 0.000000
O O18 0.500000 0.500000 0.500000
#
# Coordination Sequence:
#
# PCOD9057154 Si02
#       8
#     2   2   2   2   2   2   2   2
#     4  12  22  41  65  95 131 172 212 258 323 380
#     4  12  21  33  62  95 126 160 212 265 310 372
#     4  11  22  41  71  96 122 158 221 280 320 371
#     4  12  24  40  60  95 130 173 211 258 317 383
#     4  12  27  42  60  92 143 182 207 246 312 401
#     4  12  23  41  66  94 127 168 210 269 322 376
#     4  11  23  41  70 102 118 154 219 287 332 361
#     4  12  20  36  63  91 123 160 214 266 315 372
#
# _framework density 22.979861
#
# number of rings (size 3 to 8) (size 9 to 14) (size 15 to 20)
#    0.000    0.250    7.500    3.000    0.000    3.000 
#    0.000    0.625    0.000    1.500    0.000    0.000 
#    0.000    0.000    0.000    0.000    0.000    0.000 
#
# Total GULP energy -89331.096965 kJ/mol
# GULP energy per Si atom -5583.193560 kJ/mol
# Density = 2.292756 g / cm^3
# Si number density = 22.979861 Si / 1000 Ang^3
#
#
#
# Elastic Constant Matrix: (Units=GPa)
#
#
# Indices 1 2 3 4 5 6 
#
# 1 52.3430 26.1033 15.7827 -12.0632 2.1001 14.4337
# 2 26.1033 143.5788 18.3709 -33.2590 4.6260 23.2652
# 3 15.7827 18.3709 107.7307 -32.4491 5.2797 11.7052
# 4 -12.0632 -33.2590 -32.4491 42.6368 0.2014 -2.0047
# 5 2.1001 4.6260 5.2797 0.2014 40.0501 -10.3196
# 6 14.4337 23.2652 11.7052 -2.0047 -10.3196 34.2554
#
#
#
# Elastic Compliance Matrix: (Units=1/GPa)
#
#
# Indices 1 2 3 4 5 6 
#
# 1 0.023918 -0.001514 -0.000620 0.004678 -0.003499 -0.009618
# 2 -0.001514 0.010396 0.002153 0.008976 -0.003425 -0.007665
# 3 -0.000620 0.002153 0.013263 0.011326 -0.003608 -0.006157
# 4 0.004678 0.008976 0.011326 0.039891 -0.005909 -0.011383
# 5 -0.003499 -0.003425 -0.003608 -0.005909 0.029555 0.013592
# 6 -0.009618 -0.007665 -0.006157 -0.011383 0.013592 0.043983
#
#
# Mechanical properties :
#
#
# Convention : Reuss Voigt Hill
#
# Bulk Modulus (GPa) = 21.00169 47.12958 34.06564
# Shear Modulus (GPa) = 28.27398 39.61483 33.94440
#
# Velocity S-wave (km/s) = 3.51148 4.15648 3.84752
# Velocity P-wave (km/s) = 5.05961 6.60218 5.88169
#
# Compressibility (1/GPa) = 0.04761522
#
# Stress axis : x y z
#
# Youngs Moduli (GPa) = 41.81030 96.18939 75.39568
#
# Poissons Ratio (x) = 0.14564 0.04675
# Poissons Ratio (y) = 0.06330 -0.16235
# Poissons Ratio (z) = 0.02593 -0.20712
#
# Static dielectric constant tensor:
#      x y z
#    x 2.002320 -0.046030 -0.049680 
#    y -0.046030 1.938090 0.048180 
#    z -0.049680 0.048180 2.001520 
# 
# From -- ./inp_files/270810.got.cif
#   From: 2010.05.17/outbox.cif.g08.bks.cpg/sg2_136_cif.got.tgz:270810.got - 2010.06.03 11:33:40.
