data_PCOD9057396
_publ_section_title
;
Structure prediction by ZEFSAII (Michael W. Deem and Ramdas Pophale) SiO2 
 PCOD9057396
Probable space group: P -1
;
_chemical_formula_sum "Si O2"
_cell_formula_units_Z 14
_cell_length_a 9.817015
_cell_length_b 9.451348
_cell_length_c 22.375997
_cell_angle_alpha 44.737148
_cell_angle_beta 39.947225
_cell_angle_gamma 29.751672
_cell_volume 654.954228
_symmetry_space_group_name_H-M "P -1"
_symmetry_group_IT_number 2
_symmetry_cell_setting 'triclinic'
loop_
_space_group_symop_operation_xyz
x,y,z
-x,-y,-z
loop_
_atom_site_type_symbol
_atom_site_label
_atom_site_fract_x
_atom_site_fract_y
_atom_site_fract_z
Si Si1 0.303192 0.231359 0.445762
Si Si2 0.259356 0.837734 0.758674
Si Si3 0.830208 0.903368 0.591585
Si Si4 0.710118 0.916055 0.045804
Si Si5 0.167937 0.308841 0.722140
Si Si6 0.751946 0.505319 0.917699
Si Si7 0.599542 0.234041 0.870274
O O1 0.496029 0.284091 0.338020
O O2 0.245400 0.122131 0.442324
O O3 0.000000 0.500000 0.500000
O O4 0.500000 0.000000 0.500000
O O5 0.427867 0.562190 0.826706
O O6 0.188926 0.092866 0.740049
O O7 0.927901 0.999861 0.797970
O O8 0.017822 0.595035 0.651103
O O9 0.518950 0.132403 0.665451
O O10 0.000000 0.000000 0.500000
O O11 0.629277 0.766840 0.083405
O O12 0.024324 0.689125 0.043380
O O13 0.441707 0.161116 0.107289
O O14 0.688578 0.101316 0.946430
O O15 0.968238 0.386949 0.823312
O O16 0.500000 0.500000 0.000000
#
# Coordination Sequence:
#
# PCOD9057396 Si02
#       7
#     2   2   2   2   2   2   2
#     4  11  23  43  65 100 131 165 229 285 330 409
#     4  11  22  42  69  94 131 179 225 269 341 405
#     4  11  24  47  71  97 139 186 222 281 358 407
#     4  11  25  43  64  97 142 172 226 282 325 402
#     4  11  24  44  69 100 134 176 232 269 325 428
#     4  12  25  44  67 100 137 179 226 280 337 390
#     4  11  23  43  66  96 133 183 221 270 345 393
#
# _framework density 21.375540999999998
#
# number of rings (size 3 to 8) (size 9 to 14) (size 15 to 20)
#    0.000    0.857    0.000    8.571    0.000    5.714 
#   15.429    0.000    0.000    0.000    0.000    0.000 
#    0.000    0.000    0.000    0.000    0.000    0.000 
#
# Total GULP energy -78305.347022 kJ/mol
# GULP energy per Si atom -5593.239073 kJ/mol
# Density = 2.132689 g / cm^3
# Si number density = 21.375541 Si / 1000 Ang^3
#
#
#
# Elastic Constant Matrix: (Units=GPa)
#
#
# Indices 1 2 3 4 5 6 
#
# 1 88.4902 35.3127 50.9504 -3.8350 -9.8065 -30.1605
# 2 35.3127 145.1351 64.1920 3.3835 -7.7129 -32.7234
# 3 50.9504 64.1920 142.5353 4.4427 -12.4881 -10.0594
# 4 -3.8350 3.3835 4.4427 54.7151 0.1821 7.4586
# 5 -9.8065 -7.7129 -12.4881 0.1821 25.1927 3.6932
# 6 -30.1605 -32.7234 -10.0594 7.4586 3.6932 36.6540
#
#
#
# Elastic Compliance Matrix: (Units=1/GPa)
#
#
# Indices 1 2 3 4 5 6 
#
# 1 0.020235 0.001848 -0.006663 -0.000382 0.002757 0.016271
# 2 0.001848 0.010915 -0.004787 -0.001554 0.000197 0.010248
# 3 -0.006663 -0.004787 0.011296 -0.000159 0.002550 -0.006881
# 4 -0.000382 -0.001554 -0.000159 0.019127 -0.000015 -0.005636
# 5 0.002757 0.000197 0.002550 -0.000015 0.042254 -0.001111
# 6 0.016271 0.010248 -0.006881 -0.005636 -0.001111 0.049190
#
#
# Mechanical properties :
#
#
# Convention : Reuss Voigt Hill
#
# Bulk Modulus (GPa) = 43.02861 75.23010 59.12935
# Shear Modulus (GPa) = 27.78241 38.35939 33.07090
#
# Velocity S-wave (km/s) = 3.60909 4.24080 3.93763
# Velocity P-wave (km/s) = 6.12706 7.69741 6.95669
#
# Compressibility (1/GPa) = 0.02324035
#
# Stress axis : x y z
#
# Youngs Moduli (GPa) = 49.42044 91.61550 88.52323
#
# Poissons Ratio (x) = -0.16930 0.58987
# Poissons Ratio (y) = -0.09133 0.42379
# Poissons Ratio (z) = 0.32931 0.43860
#
# Static dielectric constant tensor:
#      x y z
#    x 1.763940 -0.006530 -0.019820 
#    y -0.006530 1.765080 0.032650 
#    z -0.019820 0.032650 1.817310 
# 
# From -- ./inp_files/587821.got.cif
#   From: 2010.05.17/outbox.cif.g08.bks.cpg/sg2_294_cif.got.tgz:587821.got - 2010.06.03 11:33:40.
