data_PCOD9057301
_publ_section_title
;
Structure prediction by ZEFSAII (Michael W. Deem and Ramdas Pophale) SiO2 
 PCOD9057301
Probable space group: P -1
;
_chemical_formula_sum "Si O2"
_cell_formula_units_Z 16
_cell_length_a 9.256754
_cell_length_b 10.039629
_cell_length_c 11.693578
_cell_angle_alpha 110.906345
_cell_angle_beta 97.721278
_cell_angle_gamma 122.451639
_cell_volume 780.057669
_symmetry_space_group_name_H-M "P -1"
_symmetry_group_IT_number 2
_symmetry_cell_setting 'triclinic'
loop_
_space_group_symop_operation_xyz
x,y,z
-x,-y,-z
loop_
_atom_site_type_symbol
_atom_site_label
_atom_site_fract_x
_atom_site_fract_y
_atom_site_fract_z
Si Si1 0.287917 0.707217 0.325665
Si Si2 0.700968 0.679880 0.622603
Si Si3 0.979563 0.610425 0.624597
Si Si4 0.181133 0.211652 0.067636
Si Si5 0.536195 0.259847 0.043494
Si Si6 0.827968 0.504082 0.971330
Si Si7 0.624476 0.934939 0.602981
Si Si8 0.403896 0.896837 0.791229
O O1 0.123239 0.525404 0.319955
O O2 0.305148 0.647889 0.185872
O O3 0.480714 0.809436 0.447475
O O4 0.250290 0.852984 0.355043
O O5 0.500000 0.500000 0.500000
O O6 0.851005 0.660422 0.585068
O O7 0.733471 0.699220 0.769823
O O8 0.724786 0.855592 0.634161
O O9 0.000000 0.500000 0.500000
O O10 0.184502 0.794935 0.730704
O O11 0.116847 0.310871 0.020513
O O12 0.347509 0.236067 0.023309
O O13 0.000000 0.000000 0.000000
O O14 0.709979 0.443939 0.056708
O O15 0.505207 0.093443 0.919841
O O16 0.577707 0.231293 0.166770
O O17 0.000000 0.500000 0.000000
O O18 0.493259 0.913448 0.684686
#
# Coordination Sequence:
#
# PCOD9057301 Si02
#       8
#     2   2   2   2   2   2   2   2
#     4  11  23  42  69  98 132 176 230 277 349 404
#     4  12  23  44  70 102 134 180 228 283 349 414
#     4  12  23  41  68 100 133 171 228 286 345 414
#     4  12  27  45  71 105 142 185 237 292 347 420
#     4  11  25  42  70  98 141 184 233 281 350 416
#     4  12  26  45  69 102 143 182 232 289 348 419
#     4  11  22  43  72  95 131 181 227 279 343 415
#     4  11  22  42  67 100 131 182 228 280 347 416
#
# _framework density 20.511305
#
# number of rings (size 3 to 8) (size 9 to 14) (size 15 to 20)
#    0.000    0.500    6.250    1.875    5.250    0.000 
#    0.000    0.625    0.000    0.000    0.000    0.000 
#    0.000    0.000    0.000    0.000    0.000    0.000 
#
# Total GULP energy -89454.695542 kJ/mol
# GULP energy per Si atom -5590.918471 kJ/mol
# Density = 2.046462 g / cm^3
# Si number density = 20.511305 Si / 1000 Ang^3
#
#
#
# Elastic Constant Matrix: (Units=GPa)
#
#
# Indices 1 2 3 4 5 6 
#
# 1 124.5076 55.6210 -2.6227 -7.1488 11.1662 -19.4195
# 2 55.6210 139.2208 16.6791 -10.1759 11.6006 -21.3775
# 3 -2.6227 16.6791 54.4702 -5.6283 1.6371 4.8890
# 4 -7.1488 -10.1759 -5.6283 25.8444 0.5376 4.2592
# 5 11.1662 11.6006 1.6371 0.5376 29.0597 -3.8981
# 6 -19.4195 -21.3775 4.8890 4.2592 -3.8981 39.3131
#
#
#
# Elastic Compliance Matrix: (Units=1/GPa)
#
#
# Indices 1 2 3 4 5 6 
#
# 1 0.010384 -0.003652 0.001603 0.001409 -0.002305 0.002563
# 2 -0.003652 0.009866 -0.003299 0.001601 -0.001895 0.003610
# 3 0.001603 -0.003299 0.020285 0.004259 -0.001070 -0.004092
# 4 0.001409 0.001601 0.004259 0.041307 -0.002681 -0.003704
# 5 -0.002305 -0.001895 -0.001070 -0.002681 0.036414 0.001865
# 6 0.002563 0.003610 -0.004092 -0.003704 0.001865 0.029761
#
#
# Mechanical properties :
#
#
# Convention : Reuss Voigt Hill
#
# Bulk Modulus (GPa) = 33.51131 50.83926 42.17529
# Shear Modulus (GPa) = 29.64544 35.41154 32.52849
#
# Velocity S-wave (km/s) = 3.80586 4.15955 3.98663
# Velocity P-wave (km/s) = 5.97380 6.92163 6.46511
#
# Compressibility (1/GPa) = 0.02984067
#
# Stress axis : x y z
#
# Youngs Moduli (GPa) = 96.29935 101.35511 49.29655
#
# Poissons Ratio (x) = 0.37016 -0.07903
# Poissons Ratio (y) = 0.35170 0.16261
# Poissons Ratio (z) = -0.15438 0.33433
#
# Static dielectric constant tensor:
#      x y z
#    x 1.693560 -0.019030 -0.000510 
#    y -0.019030 1.750350 -0.000420 
#    z -0.000510 -0.000420 1.747810 
# 
# From -- ./inp_files/240378.got.cif
#   From: 2010.05.17/outbox.cif.g08.bks.cpg/sg2_121_cif.got.tgz:240378.got - 2010.06.03 11:33:40.
