data_PCOD9057663
_publ_section_title
;
Structure prediction by ZEFSAII (Michael W. Deem and Ramdas Pophale) SiO2 
 PCOD9057663
Probable space group: P -1
;
_chemical_formula_sum "Si O2"
_cell_formula_units_Z 16
_cell_length_a 14.710567
_cell_length_b 11.703378
_cell_length_c 13.624977
_cell_angle_alpha 31.490564
_cell_angle_beta 37.249958
_cell_angle_gamma 41.138931
_cell_volume 720.875938
_symmetry_space_group_name_H-M "P -1"
_symmetry_group_IT_number 2
_symmetry_cell_setting 'triclinic'
loop_
_space_group_symop_operation_xyz
x,y,z
-x,-y,-z
loop_
_atom_site_type_symbol
_atom_site_label
_atom_site_fract_x
_atom_site_fract_y
_atom_site_fract_z
Si Si1 0.967962 0.034249 0.275175
Si Si2 0.113091 0.542994 0.453973
Si Si3 0.510041 0.501828 0.701976
Si Si4 0.456392 0.337531 0.237718
Si Si5 0.022440 0.473905 0.801649
Si Si6 0.195239 0.817444 0.398871
Si Si7 0.307551 0.201883 0.128324
Si Si8 0.397848 0.977846 0.406104
O O1 0.785150 0.034018 0.424281
O O2 0.068062 0.813014 0.298618
O O3 0.046764 0.980752 0.354173
O O4 0.005778 0.254466 0.034189
O O5 0.281534 0.428921 0.355653
O O6 0.079394 0.443438 0.661863
O O7 0.000000 0.500000 0.500000
O O8 0.457408 0.620198 0.766702
O O9 0.675929 0.328024 0.679575
O O10 0.498181 0.726667 0.485175
O O11 0.392115 0.354149 0.879107
O O12 0.459145 0.098902 0.357356
O O13 0.500000 0.500000 0.000000
O O14 0.132067 0.620061 0.650179
O O15 0.854390 0.638980 0.819274
O O16 0.278476 0.976915 0.270854
O O17 0.408033 0.130846 0.191257
#
# Coordination Sequence:
#
# PCOD9057663 Si02
#       8
#     2   2   2   2   2   2   2   2
#     4  11  23  43  69  98 133 180 223 275 338 391
#     4  11  22  43  67  99 136 172 230 278 326 400
#     4  12  26  46  66 102 140 174 227 274 339 405
#     4  12  24  45  71  98 138 180 217 277 339 398
#     4  11  23  42  69  99 132 177 226 278 330 397
#     4  11  26  45  70 101 137 173 229 289 322 401
#     4  12  24  45  71  99 138 179 222 278 346 391
#     4  12  25  43  70 100 136 180 223 275 337 405
#
# _framework density 22.195221
#
# number of rings (size 3 to 8) (size 9 to 14) (size 15 to 20)
#    0.000    0.500    8.750    1.125    0.000    4.500 
#    2.250    0.000    0.000    0.000    0.000    0.000 
#    0.000    0.000    0.000    0.000    0.000    0.000 
#
# Total GULP energy -89281.448591 kJ/mol
# GULP energy per Si atom -5580.090537 kJ/mol
# Density = 2.214470 g / cm^3
# Si number density = 22.195221 Si / 1000 Ang^3
#
#
#
# Elastic Constant Matrix: (Units=GPa)
#
#
# Indices 1 2 3 4 5 6 
#
# 1 58.7197 9.4625 12.0784 -20.2675 -16.5176 5.1135
# 2 9.4625 71.5159 24.4994 -7.7121 5.9328 1.0454
# 3 12.0784 24.4994 135.1897 -26.8803 -4.4645 6.6742
# 4 -20.2675 -7.7121 -26.8803 38.0694 -4.3566 -8.3175
# 5 -16.5176 5.9328 -4.4645 -4.3566 32.0207 -6.2556
# 6 5.1135 1.0454 6.6742 -8.3175 -6.2556 23.9332
#
#
#
# Elastic Compliance Matrix: (Units=1/GPa)
#
#
# Indices 1 2 3 4 5 6 
#
# 1 0.029254 -0.004326 0.002533 0.019957 0.020015 0.005399
# 2 -0.004326 0.015899 -0.003081 -0.002248 -0.006167 -0.001304
# 3 0.002533 -0.003081 0.009443 0.008113 0.004484 0.000951
# 4 0.019957 -0.002248 0.008113 0.048100 0.021494 0.015906
# 5 0.020015 -0.006167 0.004484 0.021494 0.049191 0.015070
# 6 0.005399 -0.001304 0.000951 0.015906 0.015070 0.049888
#
#
# Mechanical properties :
#
#
# Convention : Reuss Voigt Hill
#
# Bulk Modulus (GPa) = 22.29723 39.72288 31.01005
# Shear Modulus (GPa) = 22.07760 33.43033 27.75397
#
# Velocity S-wave (km/s) = 3.15731 3.88518 3.54000
# Velocity P-wave (km/s) = 4.83314 6.16945 5.54172
#
# Compressibility (1/GPa) = 0.04484863
#
# Stress axis : x y z
#
# Youngs Moduli (GPa) = 34.18282 62.89706 105.89487
#
# Poissons Ratio (x) = 0.27207 -0.26820
# Poissons Ratio (y) = 0.14786 0.32627
# Poissons Ratio (z) = -0.08657 0.19379
#
# Static dielectric constant tensor:
#      x y z
#    x 1.835130 0.091110 0.007650 
#    y 0.091110 1.790360 0.003960 
#    z 0.007650 0.003960 1.805390 
# 
# From -- ./inp_files/531471.got.cif
#   From: 2010.05.17/outbox.cif.g08.bks.cpg/sg2_266_cif.got.tgz:531471.got - 2010.06.03 11:33:40.
