data_PCOD9057844
_publ_section_title
;
Structure prediction by ZEFSAII (Michael W. Deem and Ramdas Pophale) SiO2 
 PCOD9057844
Probable space group: P -1
;
_chemical_formula_sum "Si O2"
_cell_formula_units_Z 16
_cell_length_a 8.901181
_cell_length_b 14.018769
_cell_length_c 8.028866
_cell_angle_alpha 41.795934
_cell_angle_beta 94.980736
_cell_angle_gamma 89.700022
_cell_volume 661.501831
_symmetry_space_group_name_H-M "P -1"
_symmetry_group_IT_number 2
_symmetry_cell_setting 'triclinic'
loop_
_space_group_symop_operation_xyz
x,y,z
-x,-y,-z
loop_
_atom_site_type_symbol
_atom_site_label
_atom_site_fract_x
_atom_site_fract_y
_atom_site_fract_z
Si Si1 0.332138 0.460085 0.537490
Si Si2 0.890756 0.225237 0.500179
Si Si3 0.559441 0.334195 0.193076
Si Si4 0.933702 0.847310 0.713043
Si Si5 0.374152 0.203320 0.109152
Si Si6 0.312502 0.984333 0.104005
Si Si7 0.942985 0.341843 0.712259
Si Si8 0.613305 0.787901 0.386541
O O1 0.500000 0.500000 0.500000
O O2 0.231536 0.609901 0.328842
O O3 0.320006 0.353403 0.520835
O O4 0.304783 0.358352 0.824759
O O5 0.729127 0.307784 0.314309
O O6 0.831601 0.073399 0.748799
O O7 0.954188 0.280640 0.606626
O O8 0.004933 0.230346 0.350560
O O9 0.535582 0.247853 0.132326
O O10 0.430154 0.260127 0.375793
O O11 0.500000 0.500000 0.000000
O O12 0.753069 0.856486 0.708185
O O13 0.000000 0.000000 0.500000
O O14 0.993903 0.761923 0.997862
O O15 0.385187 0.085911 0.114847
O O16 0.440892 0.857163 0.229840
O O17 0.282877 0.086887 0.808465
O O18 0.000000 0.500000 0.500000
#
# Coordination Sequence:
#
# PCOD9057844 Si02
#       8
#     2   2   2   2   2   2   2   2
#     4  11  22  43  72 108 144 190 250 311 379 451
#     4  11  26  48  75 107 151 196 256 317 381 459
#     4  11  24  42  68 112 146 191 250 322 382 448
#     4  12  28  52  76 112 154 208 258 315 384 459
#     4  11  23  44  72 104 155 193 254 313 377 459
#     4   9  19  43  64 100 140 188 245 298 373 452
#     4  12  28  50  78 110 153 206 258 315 382 470
#     4   9  20  35  65  97 139 181 232 299 374 438
#
# _framework density 24.187384999999999
#
# number of rings (size 3 to 8) (size 9 to 14) (size 15 to 20)
#    0.000    1.250    2.500    3.000    3.500    5.000 
#    0.000    0.000    0.000    0.000    0.000    0.000 
#    0.000    0.000    0.000    0.000    0.000    0.000 
#
# Total GULP energy -89244.482157 kJ/mol
# GULP energy per Si atom -5577.780135 kJ/mol
# Density = 2.413233 g / cm^3
# Si number density = 24.187385 Si / 1000 Ang^3
#
#
#
# Elastic Constant Matrix: (Units=GPa)
#
#
# Indices 1 2 3 4 5 6 
#
# 1 94.7730 31.3862 31.0971 9.3310 -23.3546 -8.8399
# 2 31.3862 128.4647 37.5163 11.0407 -4.7597 6.8249
# 3 31.0971 37.5163 95.9958 3.2843 -16.6748 10.7718
# 4 9.3310 11.0407 3.2843 27.7763 -5.0279 -4.8756
# 5 -23.3546 -4.7597 -16.6748 -5.0279 31.0603 0.1621
# 6 -8.8399 6.8249 10.7718 -4.8756 0.1621 40.6521
#
#
#
# Elastic Compliance Matrix: (Units=1/GPa)
#
#
# Indices 1 2 3 4 5 6 
#
# 1 0.015134 -0.002691 -0.002669 -0.001266 0.009307 0.004261
# 2 -0.002691 0.009613 -0.003042 -0.003363 -0.002718 -0.001785
# 3 -0.002669 -0.003042 0.013728 0.000756 0.005038 -0.003637
# 4 -0.001266 -0.003363 0.000756 0.039478 0.005304 0.004802
# 5 0.009307 -0.002718 0.005038 0.005304 0.042332 0.001612
# 6 0.004261 -0.001785 -0.003637 0.004802 0.001612 0.027358
#
#
# Mechanical properties :
#
#
# Convention : Reuss Voigt Hill
#
# Bulk Modulus (GPa) = 46.14390 57.69252 51.91821
# Shear Modulus (GPa) = 29.12550 34.51332 31.81941
#
# Velocity S-wave (km/s) = 3.47387 3.78155 3.63097
# Velocity P-wave (km/s) = 5.93375 6.55522 6.25221
#
# Compressibility (1/GPa) = 0.02167134
#
# Stress axis : x y z
#
# Youngs Moduli (GPa) = 66.07622 104.02373 72.84391
#
# Poissons Ratio (x) = 0.27990 0.19443
# Poissons Ratio (y) = 0.17779 0.22160
# Poissons Ratio (z) = 0.17637 0.31645
#
# Static dielectric constant tensor:
#      x y z
#    x 1.953660 -0.063860 0.012350 
#    y -0.063860 2.074360 -0.066080 
#    z 0.012350 -0.066080 2.139990 
# 
# From -- ./inp_files/205299.got.cif
#   From: 2010.05.17/outbox.cif.g08.bks.cpg/sg2_103_cif.got.tgz:205299.got - 2010.06.03 11:33:40.
