data_PCOD9057510
_publ_section_title
;
Structure prediction by ZEFSAII (Michael W. Deem and Ramdas Pophale) SiO2 
 PCOD9057510
Probable space group: P -1
;
_chemical_formula_sum "Si O2"
_cell_formula_units_Z 16
_cell_length_a 10.330212
_cell_length_b 19.267177
_cell_length_c 8.494006
_cell_angle_alpha 35.061009
_cell_angle_beta 57.662113
_cell_angle_gamma 46.075522
_cell_volume 697.265414
_symmetry_space_group_name_H-M "P -1"
_symmetry_group_IT_number 2
_symmetry_cell_setting 'triclinic'
loop_
_space_group_symop_operation_xyz
x,y,z
-x,-y,-z
loop_
_atom_site_type_symbol
_atom_site_label
_atom_site_fract_x
_atom_site_fract_y
_atom_site_fract_z
Si Si1 0.635587 0.434216 0.179536
Si Si2 0.364531 0.381471 0.635459
Si Si3 0.639820 0.910334 0.442434
Si Si4 0.159235 0.709433 0.216555
Si Si5 0.083502 0.999461 0.280438
Si Si6 0.029261 0.799890 0.488113
Si Si7 0.459488 0.891904 0.141887
Si Si8 0.524732 0.705152 0.921642
O O1 0.537389 0.385276 0.455993
O O2 0.839810 0.306994 0.262900
O O3 0.500000 0.500000 0.000000
O O4 0.642892 0.560410 0.020324
O O5 0.211907 0.549720 0.432693
O O6 0.374639 0.263161 0.728985
O O7 0.402016 0.319135 0.902412
O O8 0.559619 0.817501 0.605460
O O9 0.837100 0.817684 0.559711
O O10 0.500000 0.000000 0.500000
O O11 0.637026 0.021585 0.116128
O O12 0.125727 0.738372 0.371483
O O13 0.325200 0.728483 0.019789
O O14 0.979726 0.837658 0.016133
O O15 0.006620 0.947231 0.286461
O O16 0.298743 0.893286 0.336894
O O17 0.000000 0.000000 0.500000
O O18 0.500000 0.000000 0.000000
#
# Coordination Sequence:
#
# PCOD9057510 Si02
#       8
#     2   2   2   2   2   2   2   2
#     4  11  24  41  72 108 142 187 240 307 362 424
#     4  11  22  45  73 102 140 186 245 295 365 436
#     4  12  27  44  71 105 147 196 241 301 368 437
#     4  11  22  45  76 102 137 190 249 307 350 431
#     4  12  28  44  71 107 146 188 250 300 358 433
#     4  12  24  46  73 106 142 195 251 301 355 435
#     4  12  28  47  70 106 149 190 236 306 378 429
#     4  11  22  42  72 103 141 182 241 291 363 434
#
# _framework density 22.946785999999999
#
# number of rings (size 3 to 8) (size 9 to 14) (size 15 to 20)
#    0.000    0.500    6.250    1.875    8.750    0.500 
#    0.000    0.625    0.000    0.000    0.000    0.000 
#    0.000    0.000    0.000    0.000    0.000    0.000 
#
# Total GULP energy -89368.628128 kJ/mol
# GULP energy per Si atom -5585.539258 kJ/mol
# Density = 2.289456 g / cm^3
# Si number density = 22.946786 Si / 1000 Ang^3
#
#
#
# Elastic Constant Matrix: (Units=GPa)
#
#
# Indices 1 2 3 4 5 6 
#
# 1 71.4626 40.2619 22.2588 -5.2638 0.2793 3.2828
# 2 40.2619 139.1341 42.7316 -23.4716 -1.7231 13.0436
# 3 22.2588 42.7316 76.4969 -13.1962 -0.8444 4.6444
# 4 -5.2638 -23.4716 -13.1962 47.7836 4.0243 -9.6603
# 5 0.2793 -1.7231 -0.8444 4.0243 41.9341 -11.8736
# 6 3.2828 13.0436 4.6444 -9.6603 -11.8736 41.0635
#
#
#
# Elastic Compliance Matrix: (Units=1/GPa)
#
#
# Indices 1 2 3 4 5 6 
#
# 1 0.017206 -0.004291 -0.002778 -0.000957 -0.000254 0.000003
# 2 -0.004291 0.010323 -0.003858 0.003191 -0.000464 -0.001883
# 3 -0.002778 -0.003858 0.016435 0.002367 0.000005 0.000147
# 4 -0.000957 0.003191 0.002367 0.023964 -0.000936 0.004162
# 5 -0.000254 -0.000464 0.000005 -0.000936 0.026036 0.007475
# 6 0.000003 -0.001883 0.000147 0.004162 0.007475 0.028075
#
#
# Mechanical properties :
#
#
# Convention : Reuss Voigt Hill
#
# Bulk Modulus (GPa) = 45.22687 55.28869 50.25778
# Shear Modulus (GPa) = 33.05487 38.27897 35.66692
#
# Velocity S-wave (km/s) = 3.79951 4.08875 3.94678
# Velocity P-wave (km/s) = 6.24505 6.81448 6.53597
#
# Compressibility (1/GPa) = 0.02211075
#
# Stress axis : x y z
#
# Youngs Moduli (GPa) = 58.11799 96.87038 60.84407
#
# Poissons Ratio (x) = 0.41566 0.16902
# Poissons Ratio (y) = 0.24938 0.23476
# Poissons Ratio (z) = 0.16145 0.37376
#
# Static dielectric constant tensor:
#      x y z
#    x 1.913170 0.100970 -0.058640 
#    y 0.100970 2.002880 -0.162890 
#    z -0.058640 -0.162890 2.080730 
# 
# From -- ./inp_files/282606.got.cif
#   From: 2010.05.17/outbox.cif.g08.bks.cpg/sg2_142_cif.got.tgz:282606.got - 2010.06.03 11:33:40.
