data_PCOD9057560
_publ_section_title
;
Structure prediction by ZEFSAII (Michael W. Deem and Ramdas Pophale) SiO2 
 PCOD9057560
Probable space group: P -1
;
_chemical_formula_sum "Si O2"
_cell_formula_units_Z 12
_cell_length_a 8.108874
_cell_length_b 8.329247
_cell_length_c 20.752229
_cell_angle_alpha 40.741691
_cell_angle_beta 142.938059
_cell_angle_gamma 141.241029
_cell_volume 493.610965
_symmetry_space_group_name_H-M "P -1"
_symmetry_group_IT_number 2
_symmetry_cell_setting 'triclinic'
loop_
_space_group_symop_operation_xyz
x,y,z
-x,-y,-z
loop_
_atom_site_type_symbol
_atom_site_label
_atom_site_fract_x
_atom_site_fract_y
_atom_site_fract_z
Si Si1 0.328457 0.190012 0.517002
Si Si2 0.848468 0.268280 0.078796
Si Si3 0.747509 0.758951 0.039535
Si Si4 0.133445 0.380840 0.631809
Si Si5 0.915697 0.181347 0.749213
Si Si6 0.190178 0.262641 0.303137
O O1 0.500000 0.500000 0.500000
O O2 0.561407 0.071595 0.651968
O O3 0.266155 0.233922 0.409805
O O4 0.000000 0.000000 0.500000
O O5 0.512440 0.832747 0.988117
O O6 0.978691 0.357540 0.165332
O O7 0.962286 0.044061 0.159654
O O8 0.000000 0.500000 0.000000
O O9 0.965239 0.710226 0.175193
O O10 0.500000 0.500000 0.000000
O O11 0.000000 0.000000 0.000000
O O12 0.488203 0.522383 0.689336
O O13 0.000000 0.500000 0.500000
O O14 0.071760 0.426219 0.672102
O O15 0.958408 0.057649 0.664341
#
# Coordination Sequence:
#
# PCOD9057560 Si02
#       6
#     2   2   2   2   2   2
#     4  12  29  47  75 115 161 204 252 321 404 464
#     4  11  26  51  84 115 156 209 275 319 386 473
#     4  12  29  50  77 114 157 204 260 323 398 457
#     4  11  22  42  74 109 142 187 256 313 375 448
#     4  11  27  50  83 110 159 208 265 323 386 472
#     4  11  25  44  75 109 151 192 256 316 385 458
#
# _framework density 24.310641
#
# number of rings (size 3 to 8) (size 9 to 14) (size 15 to 20)
#    0.000    0.667    1.667    4.000    7.000    6.667 
#    0.000    0.000    0.000    0.000    0.000    0.000 
#    0.000    0.000    0.000    0.000    0.000    0.000 
#
# Total GULP energy -66866.814982 kJ/mol
# GULP energy per Si atom -5572.234582 kJ/mol
# Density = 2.425531 g / cm^3
# Si number density = 24.310641 Si / 1000 Ang^3
#
#
#
# Elastic Constant Matrix: (Units=GPa)
#
#
# Indices 1 2 3 4 5 6 
#
# 1 128.6049 85.4741 83.3026 14.0778 -7.7434 38.9739
# 2 85.4741 190.4330 78.7102 13.9062 -9.9777 34.8611
# 3 83.3026 78.7102 233.4806 45.0546 -33.9057 19.1184
# 4 14.0778 13.9062 45.0546 55.6668 -3.6606 -4.5433
# 5 -7.7434 -9.9777 -33.9057 -3.6606 71.0988 10.9321
# 6 38.9739 34.8611 19.1184 -4.5433 10.9321 76.8845
#
#
#
# Elastic Compliance Matrix: (Units=1/GPa)
#
#
# Indices 1 2 3 4 5 6 
#
# 1 0.013935 -0.004111 -0.003147 -0.000307 0.000109 -0.004451
# 2 -0.004111 0.007755 -0.000950 -0.000207 0.000370 -0.001261
# 3 -0.003147 -0.000950 0.007015 -0.004498 0.002694 -0.000367
# 4 -0.000307 -0.000207 -0.004498 0.021868 -0.001524 0.002876
# 5 0.000109 0.000370 0.002694 -0.001524 0.015833 -0.003234
# 6 -0.004451 -0.001261 -0.000367 0.002876 -0.003234 0.016556
#
#
# Mechanical properties :
#
#
# Convention : Reuss Voigt Hill
#
# Bulk Modulus (GPa) = 81.37549 116.38805 98.88177
# Shear Modulus (GPa) = 48.32121 61.06544 54.69333
#
# Velocity S-wave (km/s) = 4.46315 5.01730 4.74832
# Velocity P-wave (km/s) = 7.75277 9.03016 8.41574
#
# Compressibility (1/GPa) = 0.01228871
#
# Stress axis : x y z
#
# Youngs Moduli (GPa) = 71.75969 128.95512 142.54574
#
# Poissons Ratio (x) = 0.53018 0.44852
# Poissons Ratio (y) = 0.29503 0.13548
# Poissons Ratio (z) = 0.22579 0.12256
#
# Static dielectric constant tensor:
#      x y z
#    x 2.005060 -0.116200 -0.034270 
#    y -0.116200 1.643670 0.006190 
#    z -0.034270 0.006190 2.079510 
# 
# From -- ./inp_files/587798.got.cif
#   From: 2010.05.17/outbox.cif.g08.bks.cpg/sg2_294_cif.got.tgz:587798.got - 2010.06.03 11:33:40.
