data_PCOD9057874
_publ_section_title
;
Structure prediction by ZEFSAII (Michael W. Deem and Ramdas Pophale) SiO2 
 PCOD9057874
Probable space group: P -1
;
_chemical_formula_sum "Si O2"
_cell_formula_units_Z 14
_cell_length_a 18.756226
_cell_length_b 18.367876
_cell_length_c 8.471992
_cell_angle_alpha 145.892044
_cell_angle_beta 32.501883
_cell_angle_gamma 158.329192
_cell_volume 564.567681
_symmetry_space_group_name_H-M "P -1"
_symmetry_group_IT_number 2
_symmetry_cell_setting 'triclinic'
loop_
_space_group_symop_operation_xyz
x,y,z
-x,-y,-z
loop_
_atom_site_type_symbol
_atom_site_label
_atom_site_fract_x
_atom_site_fract_y
_atom_site_fract_z
Si Si1 0.043697 0.318413 0.459731
Si Si2 0.027710 0.914394 0.100727
Si Si3 0.317739 0.744999 0.696913
Si Si4 0.328074 0.368305 0.228711
Si Si5 0.643985 0.962354 0.727267
Si Si6 0.383861 0.283123 0.446865
Si Si7 0.428406 0.096065 0.787887
O O1 0.102805 0.511009 0.667158
O O2 0.167266 0.357701 0.450932
O O3 0.802735 0.121407 0.582419
O O4 0.091480 0.259749 0.121276
O O5 0.179313 0.133268 0.123731
O O6 0.183074 0.933147 0.933122
O O7 0.834066 0.824810 0.401069
O O8 0.459094 0.784536 0.372463
O O9 0.421140 0.798826 0.770967
O O10 0.320653 0.902270 0.962775
O O11 0.451305 0.495151 0.387780
O O12 0.500000 0.500000 0.000000
O O13 0.690830 0.857296 0.515130
O O14 0.485452 0.249556 0.085038
O O15 0.500000 0.000000 0.500000
#
# Coordination Sequence:
#
# PCOD9057874 Si02
#       7
#     2   2   2   2   2   2   2
#     4  12  22  41  73 110 138 174 237 291 356 411
#     4  12  26  45  72 101 144 187 227 293 348 416
#     4  11  24  44  72 102 143 186 233 290 351 408
#     4  12  23  41  73 108 142 177 232 294 352 412
#     4  11  22  43  73 103 140 184 232 296 347 411
#     4  12  25  46  74 104 144 186 232 286 355 414
#     4  12  27  51  70  98 146 192 233 286 349 419
#
# _framework density 24.797737999999999
#
# number of rings (size 3 to 8) (size 9 to 14) (size 15 to 20)
#    0.000    0.286    7.143    3.000    0.000    0.571 
#    5.143    0.714    0.000    0.000    0.000    0.000 
#    0.000    0.000    0.000    0.000    0.000    0.000 
#
# Total GULP energy -78234.283682 kJ/mol
# GULP energy per Si atom -5588.163120 kJ/mol
# Density = 2.474130 g / cm^3
# Si number density = 24.797738 Si / 1000 Ang^3
#
#
#
# Elastic Constant Matrix: (Units=GPa)
#
#
# Indices 1 2 3 4 5 6 
#
# 1 62.9520 25.9748 23.6442 4.1341 -14.4903 12.7037
# 2 25.9748 124.8082 46.2607 32.8587 -2.4746 -4.7510
# 3 23.6442 46.2607 135.1898 11.1719 4.6798 -3.2150
# 4 4.1341 32.8587 11.1719 43.7815 5.1606 3.3544
# 5 -14.4903 -2.4746 4.6798 5.1606 40.9059 -2.2208
# 6 12.7037 -4.7510 -3.2150 3.3544 -2.2208 34.1123
#
#
#
# Elastic Compliance Matrix: (Units=1/GPa)
#
#
# Indices 1 2 3 4 5 6 
#
# 1 0.022031 -0.004052 -0.003054 0.001557 0.007238 -0.008739
# 2 -0.004052 0.012280 -0.002727 -0.008540 0.000907 0.003861
# 3 -0.003054 -0.002727 0.008959 0.000200 -0.002219 0.001438
# 4 0.001557 -0.008540 0.000200 0.029907 -0.004030 -0.004953
# 5 0.007238 0.000907 -0.002219 -0.004030 0.027796 -0.000572
# 6 -0.008739 0.003861 0.001438 -0.004953 -0.000572 0.033692
#
#
# Mechanical properties :
#
#
# Convention : Reuss Voigt Hill
#
# Bulk Modulus (GPa) = 42.36572 57.18993 49.77783
# Shear Modulus (GPa) = 30.82637 38.89796 34.86217
#
# Velocity S-wave (km/s) = 3.52960 3.96486 3.75355
# Velocity P-wave (km/s) = 5.80796 6.63874 6.23720
#
# Compressibility (1/GPa) = 0.02360399
#
# Stress axis : x y z
#
# Youngs Moduli (GPa) = 45.39023 81.43421 111.62351
#
# Poissons Ratio (x) = 0.32999 0.34085
# Poissons Ratio (y) = 0.18393 0.30441
# Poissons Ratio (z) = 0.13860 0.22208
#
# Static dielectric constant tensor:
#      x y z
#    x 1.991510 -0.037940 0.036110 
#    y -0.037940 1.943320 0.005360 
#    z 0.036110 0.005360 2.055300 
# 
# From -- ./inp_files/77534.got.cif
#   From: 2010.05.17/outbox.cif.g08.bks.cpg/sg2_39_cif.got.tgz:77534.got - 2010.06.03 11:33:40.
