data_PCOD9057546
_publ_section_title
;
Structure prediction by ZEFSAII (Michael W. Deem and Ramdas Pophale) SiO2 
 PCOD9057546
Probable space group: P -1
;
_chemical_formula_sum "Si O2"
_cell_formula_units_Z 14
_cell_length_a 16.767757
_cell_length_b 11.903412
_cell_length_c 11.420212
_cell_angle_alpha 123.309627
_cell_angle_beta 157.738528
_cell_angle_gamma 48.717922
_cell_volume 633.619217
_symmetry_space_group_name_H-M "P -1"
_symmetry_group_IT_number 2
_symmetry_cell_setting 'triclinic'
loop_
_space_group_symop_operation_xyz
x,y,z
-x,-y,-z
loop_
_atom_site_type_symbol
_atom_site_label
_atom_site_fract_x
_atom_site_fract_y
_atom_site_fract_z
Si Si1 0.805005 0.177079 0.857711
Si Si2 0.609488 0.092209 0.768090
Si Si3 0.590119 0.131101 0.313511
Si Si4 0.154358 0.325283 0.431567
Si Si5 0.825351 0.787636 0.370616
Si Si6 0.220134 0.601983 0.646289
Si Si7 0.938408 0.127063 0.589265
O O1 0.683806 0.175864 0.815918
O O2 0.623950 0.207021 0.519723
O O3 0.945325 0.277125 0.101361
O O4 0.000000 0.000000 0.000000
O O5 0.403118 0.207522 0.640509
O O6 0.500000 0.000000 0.500000
O O7 0.831184 0.959802 0.064230
O O8 0.719930 0.156868 0.393777
O O9 0.724985 0.946068 0.396252
O O10 0.326634 0.181255 0.936624
O O11 0.196007 0.322183 0.626209
O O12 0.102611 0.490617 0.412682
O O13 0.093659 0.716069 0.648464
O O14 0.147073 0.711503 0.497645
O O15 0.500000 0.500000 0.000000
O O16 0.000000 0.000000 0.500000
#
# Coordination Sequence:
#
# PCOD9057546 Si02
#       7
#     2   2   2   2   2   2   2
#     4  12  23  44  72 104 147 186 240 295 358 425
#     4  12  24  44  77 104 142 190 247 297 346 431
#     4  11  22  42  73 109 135 182 244 306 346 425
#     4  12  26  46  71 108 144 195 236 299 372 424
#     4  11  23  43  74 103 143 181 243 300 363 422
#     4  12  28  44  70 109 152 190 235 305 374 431
#     4  12  23  42  71 104 137 182 245 297 353 424
#
# _framework density 22.095289000000001
#
# number of rings (size 3 to 8) (size 9 to 14) (size 15 to 20)
#    0.000    0.286    5.714    3.000    6.000    0.000 
#    0.000    3.571    0.000    0.000    0.000    0.000 
#    0.000    0.000    0.000    0.000    0.000    0.000 
#
# Total GULP energy -78251.946199 kJ/mol
# GULP energy per Si atom -5589.424728 kJ/mol
# Density = 2.204500 g / cm^3
# Si number density = 22.095289 Si / 1000 Ang^3
#
#
#
# Elastic Constant Matrix: (Units=GPa)
#
#
# Indices 1 2 3 4 5 6 
#
# 1 138.2772 32.3009 56.7589 -9.0513 4.8357 21.7503
# 2 32.3009 113.4031 48.4018 4.3332 -5.5434 37.6184
# 3 56.7589 48.4018 134.3218 15.2910 -8.6503 -3.3294
# 4 -9.0513 4.3332 15.2910 36.8883 -6.4803 2.2463
# 5 4.8357 -5.5434 -8.6503 -6.4803 35.7692 -1.7386
# 6 21.7503 37.6184 -3.3294 2.2463 -1.7386 44.2688
#
#
#
# Elastic Compliance Matrix: (Units=1/GPa)
#
#
# Indices 1 2 3 4 5 6 
#
# 1 0.010988 0.001774 -0.006198 0.005149 -0.002152 -0.007718
# 2 0.001774 0.016555 -0.007376 0.002542 0.000244 -0.015614
# 3 -0.006198 -0.007376 0.013900 -0.006656 0.002375 0.010790
# 4 0.005149 0.002542 -0.006656 0.031860 0.003536 -0.006668
# 5 -0.002152 0.000244 0.002375 0.003536 0.029598 0.002012
# 6 -0.007718 -0.015614 0.010790 -0.006668 0.002012 0.040879
#
#
# Mechanical properties :
#
#
# Convention : Reuss Voigt Hill
#
# Bulk Modulus (GPa) = 56.04468 73.43613 64.74041
# Shear Modulus (GPa) = 28.84696 39.95462 34.40079
#
# Velocity S-wave (km/s) = 3.61719 4.25701 3.95007
# Velocity P-wave (km/s) = 6.54717 7.58097 7.08296
#
# Compressibility (1/GPa) = 0.01784291
#
# Stress axis : x y z
#
# Youngs Moduli (GPa) = 91.00782 60.40409 71.94244
#
# Poissons Ratio (x) = -0.10717 0.44594
# Poissons Ratio (y) = -0.16147 0.53064
# Poissons Ratio (z) = 0.56411 0.44554
#
# Static dielectric constant tensor:
#      x y z
#    x 1.887200 0.050870 -0.000890 
#    y 0.050870 1.845740 0.031580 
#    z -0.000890 0.031580 1.841650 
# 
# From -- ./inp_files/285861.got.cif
#   From: 2010.05.17/outbox.cif.g08.bks.cpg/sg2_143_cif.got.tgz:285861.got - 2010.06.03 11:33:40.
