data_PCOD9057223
_publ_section_title
;
Structure prediction by ZEFSAII (Michael W. Deem and Ramdas Pophale) SiO2 
 PCOD9057223
Probable space group: P -1
;
_chemical_formula_sum "Si O2"
_cell_formula_units_Z 15
_cell_length_a 9.314305
_cell_length_b 11.250457
_cell_length_c 7.925861
_cell_angle_alpha 82.065631
_cell_angle_beta 72.611911
_cell_angle_gamma 51.971829
_cell_volume 623.162697
_symmetry_space_group_name_H-M "P -1"
_symmetry_group_IT_number 2
_symmetry_cell_setting 'triclinic'
loop_
_space_group_symop_operation_xyz
x,y,z
-x,-y,-z
loop_
_atom_site_type_symbol
_atom_site_label
_atom_site_fract_x
_atom_site_fract_y
_atom_site_fract_z
Si Si1 0.390013 0.727886 0.931182
Si Si2 0.065416 0.015023 0.189511
Si Si3 0.273461 0.848695 0.495164
Si Si4 0.892881 0.720706 0.938428
Si Si5 0.684654 0.504440 0.136305
Si Si6 0.500000 0.500000 0.500000
Si Si7 0.647925 0.796104 0.680076
Si Si8 0.626545 0.848525 0.318708
O O1 0.353538 0.613907 0.891517
O O2 0.531948 0.727928 0.753672
O O3 0.192679 0.879513 0.037727
O O4 0.525472 0.654098 0.062984
O O5 0.164535 0.946424 0.348864
O O6 0.078561 0.148307 0.109796
O O7 0.853373 0.076705 0.305067
O O8 0.327330 0.683097 0.496722
O O9 0.456991 0.842137 0.425841
O O10 0.799146 0.729636 0.791450
O O11 0.097841 0.570853 0.946915
O O12 0.750614 0.758764 0.132019
O O13 0.642205 0.520296 0.344784
O O14 0.738667 0.788506 0.469135
O O15 0.480910 0.975920 0.723620
#
# Coordination Sequence:
#
# PCOD9057223 Si02
#       8
#     2   2   2   2   2   1   2   2
#     4  11  24  49  70 103 143 189 237 298 354 429
#     4  11  22  41  75 105 138 184 245 291 347 422
#     4  11  23  41  70 109 141 190 232 294 355 422
#     4  12  24  47  72 109 140 186 238 297 357 424
#     4  11  27  45  71 103 145 191 237 289 369 418
#     4  12  22  44  66 102 146 184 230 286 352 426
#     4  11  24  42  73 103 146 185 234 300 359 418
#     4  11  24  44  70 107 144 185 237 295 360 422
#
# _framework density 24.070761000000001
#
# number of rings (size 3 to 8) (size 9 to 14) (size 15 to 20)
#    0.000    0.800    5.333    2.000    0.000    3.200 
#    4.800    0.667    0.000    0.000    0.000    0.000 
#    0.000    0.000    0.000    0.000    0.000    0.000 
#
# Total GULP energy -83632.508349 kJ/mol
# GULP energy per Si atom -5575.500557 kJ/mol
# Density = 2.401597 g / cm^3
# Si number density = 24.070761 Si / 1000 Ang^3
#
#
#
# Elastic Constant Matrix: (Units=GPa)
#
#
# Indices 1 2 3 4 5 6 
#
# 1 103.8257 18.0534 33.1808 0.4479 -10.0267 -17.5309
# 2 18.0534 78.1887 8.7847 0.1847 -11.9060 -14.3375
# 3 33.1808 8.7847 132.4133 -1.0386 -5.9255 -22.0431
# 4 0.4479 0.1847 -1.0386 29.1999 -0.7116 0.3163
# 5 -10.0267 -11.9060 -5.9255 -0.7116 38.2267 -5.8787
# 6 -17.5309 -14.3375 -22.0431 0.3163 -5.8787 31.9471
#
#
#
# Elastic Compliance Matrix: (Units=1/GPa)
#
#
# Indices 1 2 3 4 5 6 
#
# 1 0.011590 -0.001015 -0.001820 -0.000214 0.003245 0.005248
# 2 -0.001015 0.015277 0.000824 0.000005 0.005842 0.007943
# 3 -0.001820 0.000824 0.009049 0.000331 0.002111 0.006001
# 4 -0.000214 0.000005 0.000331 0.034278 0.000617 -0.000113
# 5 0.003245 0.005842 0.002111 0.000617 0.030945 0.011547
# 6 0.005248 0.007943 0.006001 -0.000113 0.011547 0.044013
#
#
# Mechanical properties :
#
#
# Convention : Reuss Voigt Hill
#
# Bulk Modulus (GPa) = 31.35098 48.27393 39.81246
# Shear Modulus (GPa) = 31.28825 36.83532 34.06178
#
# Velocity S-wave (km/s) = 3.60925 3.91614 3.76582
# Velocity P-wave (km/s) = 5.51558 6.36763 5.95686
#
# Compressibility (1/GPa) = 0.03189692
#
# Stress axis : x y z
#
# Youngs Moduli (GPa) = 86.28146 65.45688 110.50437
#
# Poissons Ratio (x) = 0.06641 0.20109
# Poissons Ratio (y) = 0.08754 -0.09111
# Poissons Ratio (z) = 0.15701 -0.05397
#
# Static dielectric constant tensor:
#      x y z
#    x 1.992590 0.011630 0.089870 
#    y 0.011630 1.971120 0.011880 
#    z 0.089870 0.011880 1.948500 
# 
# From -- ./inp_files/175898.got.cif
#   From: 2010.05.17/outbox.cif.g08.bks.cpg/sg2_88_cif.got.tgz:175898.got - 2010.06.03 11:33:40.
