data_PCOD9057528
_publ_section_title
;
Structure prediction by ZEFSAII (Michael W. Deem and Ramdas Pophale) SiO2 
 PCOD9057528
Probable space group: P -1
;
_chemical_formula_sum "Si O2"
_cell_formula_units_Z 16
_cell_length_a 9.979566
_cell_length_b 9.641339
_cell_length_c 13.693514
_cell_angle_alpha 96.945908
_cell_angle_beta 130.960235
_cell_angle_gamma 113.269478
_cell_volume 764.790285
_symmetry_space_group_name_H-M "P -1"
_symmetry_group_IT_number 2
_symmetry_cell_setting 'triclinic'
loop_
_space_group_symop_operation_xyz
x,y,z
-x,-y,-z
loop_
_atom_site_type_symbol
_atom_site_label
_atom_site_fract_x
_atom_site_fract_y
_atom_site_fract_z
Si Si1 0.417815 0.478399 0.570299
Si Si2 0.276597 0.120009 0.151393
Si Si3 0.303043 0.301064 0.854867
Si Si4 0.846623 0.217391 0.664704
Si Si5 0.730650 0.822702 0.374042
Si Si6 0.444673 0.917107 0.316922
Si Si7 0.999407 0.530109 0.617398
Si Si8 0.489549 0.149856 0.047537
O O1 0.500000 0.500000 0.500000
O O2 0.591891 0.674949 0.726253
O O3 0.363261 0.306164 0.586305
O O4 0.169205 0.425647 0.444068
O O5 0.362499 0.028129 0.248570
O O6 0.358513 0.119354 0.082228
O O7 0.000000 0.000000 0.000000
O O8 0.297567 0.302546 0.736345
O O9 0.066704 0.230975 0.782986
O O10 0.500000 0.500000 0.000000
O O11 0.369009 0.180917 0.909872
O O12 0.648390 0.029052 0.503171
O O13 0.899080 0.356168 0.619279
O O14 0.766403 0.241392 0.731189
O O15 0.560032 0.871697 0.289357
O O16 0.000000 0.000000 0.500000
O O17 0.000000 0.500000 0.500000
O O18 0.251619 0.678032 0.790749
O O19 0.500000 0.000000 0.000000
#
# Coordination Sequence:
#
# PCOD9057528 Si02
#       8
#     2   2   2   2   2   2   2   2
#     4  12  28  47  75 107 144 188 244 296 360 432
#     4  12  27  49  71 103 147 190 235 296 364 430
#     4  12  24  44  68 100 142 183 231 291 354 423
#     4  11  22  42  72  99 134 187 231 281 359 417
#     4  12  27  45  74 111 141 184 246 299 351 426
#     4  11  24  44  71 101 140 182 232 289 349 427
#     4  12  23  45  74 100 138 186 241 297 349 429
#     4  12  27  43  71 106 140 184 236 294 362 417
#
# _framework density 20.920770000000001
#
# number of rings (size 3 to 8) (size 9 to 14) (size 15 to 20)
#    0.000    0.250    5.000    3.750    7.000    0.000 
#    0.000    1.250    0.000    0.000    0.000    0.000 
#    0.000    0.000    0.000    0.000    0.000    0.000 
#
# Total GULP energy -89317.237969 kJ/mol
# GULP energy per Si atom -5582.327373 kJ/mol
# Density = 2.087315 g / cm^3
# Si number density = 20.920770 Si / 1000 Ang^3
#
#
#
# Elastic Constant Matrix: (Units=GPa)
#
#
# Indices 1 2 3 4 5 6 
#
# 1 150.9949 34.5445 32.0701 6.5288 10.9666 13.0487
# 2 34.5445 110.5998 14.6069 -5.9806 6.4272 3.1877
# 3 32.0701 14.6069 70.6262 -0.2520 22.6974 3.4820
# 4 6.5288 -5.9806 -0.2520 25.5705 -8.1687 4.5519
# 5 10.9666 6.4272 22.6974 -8.1687 49.3495 -10.0233
# 6 13.0487 3.1877 3.4820 4.5519 -10.0233 39.4788
#
#
#
# Elastic Compliance Matrix: (Units=1/GPa)
#
#
# Indices 1 2 3 4 5 6 
#
# 1 0.008093 -0.002171 -0.002763 -0.002561 -0.001125 -0.002246
# 2 -0.002171 0.010028 -0.001098 0.002980 0.000112 -0.000310
# 3 -0.002763 -0.001098 0.018515 -0.001638 -0.008561 -0.002616
# 4 -0.002561 0.002980 -0.001638 0.043291 0.007632 -0.002303
# 5 -0.001125 0.000112 -0.008561 0.007632 0.027148 0.007131
# 6 -0.002246 -0.000310 -0.002616 -0.002303 0.007131 0.028404
#
#
# Mechanical properties :
#
#
# Convention : Reuss Voigt Hill
#
# Bulk Modulus (GPa) = 40.69579 54.96268 47.82923
# Shear Modulus (GPa) = 32.10601 39.61305 35.85953
#
# Velocity S-wave (km/s) = 3.92171 4.35613 4.14462
# Velocity P-wave (km/s) = 6.32463 7.18541 6.76872
#
# Compressibility (1/GPa) = 0.02457257
#
# Stress axis : x y z
#
# Youngs Moduli (GPa) = 123.56703 99.71701 54.01004
#
# Poissons Ratio (x) = 0.21650 0.14920
# Poissons Ratio (y) = 0.26829 0.05931
# Poissons Ratio (z) = 0.34136 0.10950
#
# Static dielectric constant tensor:
#      x y z
#    x 1.806850 0.026130 0.007040 
#    y 0.026130 1.802380 -0.034960 
#    z 0.007040 -0.034960 1.743920 
# 
# From -- ./inp_files/495307.got.cif
#   From: 2010.05.17/outbox.cif.g08.bks.cpg/sg2_248_cif.got.tgz:495307.got - 2010.06.03 11:33:40.
