data_PCOD9057478
_publ_section_title
;
Structure prediction by ZEFSAII (Michael W. Deem and Ramdas Pophale) SiO2 
 PCOD9057478
Probable space group: P -1
;
_chemical_formula_sum "Si O2"
_cell_formula_units_Z 16
_cell_length_a 5.069550
_cell_length_b 11.350696
_cell_length_c 11.293099
_cell_angle_alpha 66.027847
_cell_angle_beta 95.343381
_cell_angle_gamma 90.677947
_cell_volume 590.963003
_symmetry_space_group_name_H-M "P -1"
_symmetry_group_IT_number 2
_symmetry_cell_setting 'triclinic'
loop_
_space_group_symop_operation_xyz
x,y,z
-x,-y,-z
loop_
_atom_site_type_symbol
_atom_site_label
_atom_site_fract_x
_atom_site_fract_y
_atom_site_fract_z
Si Si1 0.143541 0.771922 0.370529
Si Si2 0.277874 0.528709 0.588282
Si Si3 0.771908 0.920896 0.953368
Si Si4 0.432267 0.855439 0.587545
Si Si5 0.261683 0.560928 0.038134
Si Si6 0.785907 0.610353 0.672585
Si Si7 0.369536 0.229797 0.763787
Si Si8 0.760867 0.141705 0.153888
O O1 0.136888 0.614878 0.443213
O O2 0.257427 0.817943 0.480679
O O3 0.336061 0.804692 0.256321
O O4 0.849489 0.824883 0.313035
O O5 0.576668 0.584357 0.569338
O O6 0.327774 0.382235 0.685850
O O7 0.091998 0.588449 0.662783
O O8 0.715266 0.809506 0.092706
O O9 0.465306 0.943980 0.886250
O O10 0.936347 0.893951 0.851606
O O11 0.000000 0.000000 0.000000
O O12 0.683035 0.752787 0.648278
O O13 0.294187 0.853159 0.711057
O O14 0.500000 0.000000 0.500000
O O15 0.279678 0.501000 0.192842
O O16 0.500000 0.500000 0.000000
O O17 0.266222 0.713865 0.961230
O O18 0.000000 0.500000 0.000000
#
# Coordination Sequence:
#
# PCOD9057478 Si02
#       8
#     2   2   2   2   2   2   2   2
#     4  11  25  43  72 108 144 193 239 301 359 446
#     4  11  22  42  71 105 146 188 235 301 369 443
#     4  12  29  49  79 105 145 194 253 317 362 437
#     4  11  28  48  76 106 152 200 249 298 369 442
#     4  12  23  41  73 108 149 187 239 307 367 442
#     4  11  23  43  69 107 148 188 245 297 372 437
#     4  12  24  46  74 106 147 188 246 299 377 428
#     4  12  27  51  76 113 145 196 250 305 385 440
#
# _framework density 27.074453999999999
#
# number of rings (size 3 to 8) (size 9 to 14) (size 15 to 20)
#    0.000    0.500    1.250    7.125    5.250    1.000 
#    0.000    6.250    0.000    0.000    0.000    0.000 
#    0.000    0.000    0.000    0.000    0.000    0.000 
#
# Total GULP energy -89542.048192 kJ/mol
# GULP energy per Si atom -5596.378012 kJ/mol
# Density = 2.701283 g / cm^3
# Si number density = 27.074454 Si / 1000 Ang^3
#
#
#
# Elastic Constant Matrix: (Units=GPa)
#
#
# Indices 1 2 3 4 5 6 
#
# 1 183.3731 26.7901 42.1747 5.6900 -9.6754 -7.4909
# 2 26.7901 77.8366 35.6906 -16.6785 -6.6698 10.2618
# 3 42.1747 35.6906 151.6382 -17.5139 -27.1813 6.2990
# 4 5.6900 -16.6785 -17.5139 49.6146 11.2119 -4.9257
# 5 -9.6754 -6.6698 -27.1813 11.2119 64.2879 11.3296
# 6 -7.4909 10.2618 6.2990 -4.9257 11.3296 42.8720
#
#
#
# Elastic Compliance Matrix: (Units=1/GPa)
#
#
# Indices 1 2 3 4 5 6 
#
# 1 0.006222 -0.002033 -0.001501 -0.001802 0.000132 0.001552
# 2 -0.002033 0.016114 -0.002561 0.004387 0.000110 -0.003361
# 3 -0.001501 -0.002561 0.008395 0.001427 0.003079 -0.001533
# 4 -0.001802 0.004387 0.001427 0.023373 -0.003655 0.002077
# 5 0.000132 0.000110 0.003079 -0.003655 0.018544 -0.005776
# 6 0.001552 -0.003361 -0.001533 0.002077 -0.005776 0.026391
#
#
# Mechanical properties :
#
#
# Convention : Reuss Voigt Hill
#
# Bulk Modulus (GPa) = 53.93419 69.12874 61.53146
# Shear Modulus (GPa) = 42.58601 51.90106 47.24353
#
# Velocity S-wave (km/s) = 3.97031 4.38308 4.18179
# Velocity P-wave (km/s) = 6.40170 7.15566 6.78915
#
# Compressibility (1/GPa) = 0.01854112
#
# Stress axis : x y z
#
# Youngs Moduli (GPa) = 160.72341 62.05722 119.11315
#
# Poissons Ratio (x) = 0.12615 0.17880
# Poissons Ratio (y) = 0.32671 0.30508
# Poissons Ratio (z) = 0.24126 0.15895
#
# Static dielectric constant tensor:
#      x y z
#    x 2.161360 0.114700 0.054990 
#    y 0.114700 2.309350 0.072090 
#    z 0.054990 0.072090 2.030280 
# 
# From -- ./inp_files/363890.got.cif
#   From: 2010.05.17/outbox.cif.g08.bks.cpg/sg2_182_cif.got.tgz:363890.got - 2010.06.03 11:33:40.
