data_PCOD9057987
_publ_section_title
;
Structure prediction by ZEFSAII (Michael W. Deem and Ramdas Pophale) SiO2 
 PCOD9057987
Probable space group: P -1
;
_chemical_formula_sum "Si O2"
_cell_formula_units_Z 16
_cell_length_a 9.131862
_cell_length_b 15.058405
_cell_length_c 15.570323
_cell_angle_alpha 31.136274
_cell_angle_beta 84.481365
_cell_angle_gamma 62.833564
_cell_volume 756.453579
_symmetry_space_group_name_H-M "P -1"
_symmetry_group_IT_number 2
_symmetry_cell_setting 'triclinic'
loop_
_space_group_symop_operation_xyz
x,y,z
-x,-y,-z
loop_
_atom_site_type_symbol
_atom_site_label
_atom_site_fract_x
_atom_site_fract_y
_atom_site_fract_z
Si Si1 0.922062 0.427286 0.630825
Si Si2 0.639666 0.288017 0.239174
Si Si3 0.549592 0.067380 0.708097
Si Si4 0.840777 0.033155 0.118111
Si Si5 0.898278 0.858267 0.457452
Si Si6 0.970545 0.759489 0.038043
Si Si7 0.366674 0.403165 0.873050
Si Si8 0.372472 0.246865 0.390124
O O1 0.671860 0.682292 0.444089
O O2 0.000000 0.500000 0.500000
O O3 0.008798 0.185053 0.779463
O O4 0.027949 0.349776 0.783302
O O5 0.650917 0.423744 0.201080
O O6 0.520869 0.212967 0.339143
O O7 0.849457 0.049889 0.371395
O O8 0.500000 0.500000 0.000000
O O9 0.516788 0.163755 0.534440
O O10 0.746102 0.974306 0.827863
O O11 0.597363 0.821163 0.906581
O O12 0.866244 0.939302 0.292476
O O13 0.586516 0.242094 0.940396
O O14 0.917682 0.160635 0.008709
O O15 0.724506 0.858315 0.491671
O O16 0.143081 0.592858 0.677732
O O17 0.143893 0.531604 0.153200
#
# Coordination Sequence:
#
# PCOD9057987 Si02
#       8
#     2   2   2   2   2   2   2   2
#     4  11  24  42  69 100 134 176 224 271 327 401
#     4  12  24  46  69  97 137 175 219 279 333 389
#     4  11  24  44  68  99 136 176 221 272 334 393
#     4  12  24  46  67  98 139 173 221 280 328 390
#     4  12  25  43  69  99 132 178 224 270 334 396
#     4  11  24  42  69  98 136 176 220 271 337 392
#     4  12  24  43  68  96 135 174 220 271 332 390
#     4  11  22  44  67  98 134 176 221 274 327 398
#
# _framework density 21.151330000000002
#
# number of rings (size 3 to 8) (size 9 to 14) (size 15 to 20)
#    0.000    0.500    6.250    1.875    1.750    2.000 
#    2.250    1.250    0.000    0.000    0.000    0.000 
#    0.000    0.000    0.000    0.000    0.000    0.000 
#
# Total GULP energy -89127.416073 kJ/mol
# GULP energy per Si atom -5570.463505 kJ/mol
# Density = 2.110319 g / cm^3
# Si number density = 21.151330 Si / 1000 Ang^3
#
#
#
# Elastic Constant Matrix: (Units=GPa)
#
#
# Indices 1 2 3 4 5 6 
#
# 1 84.4019 21.4284 75.3214 20.2072 35.6085 17.4979
# 2 21.4284 100.2935 49.4467 -10.3376 19.6270 -15.9010
# 3 75.3214 49.4467 172.8494 -0.4834 79.8590 23.1638
# 4 20.2072 -10.3376 -0.4834 35.8902 -0.2573 -5.2767
# 5 35.6085 19.6270 79.8590 -0.2573 65.3602 23.2886
# 6 17.4979 -15.9010 23.1638 -5.2767 23.2886 62.5293
#
#
#
# Elastic Compliance Matrix: (Units=1/GPa)
#
#
# Indices 1 2 3 4 5 6 
#
# 1 0.027261 -0.003732 -0.010771 -0.017544 0.001755 -0.006722
# 2 -0.003732 0.014157 -0.002724 0.007121 -0.001258 0.006723
# 3 -0.010771 -0.002724 0.018926 0.005735 -0.017199 0.002200
# 4 -0.017544 0.007121 0.005735 0.041182 -0.002653 0.009059
# 5 0.001755 -0.001258 -0.017199 -0.002653 0.039000 -0.009188
# 6 -0.006722 0.006723 0.002200 0.009059 -0.009188 0.022955
#
#
# Mechanical properties :
#
#
# Convention : Reuss Voigt Hill
#
# Bulk Modulus (GPa) = 38.62320 72.21530 55.41925
# Shear Modulus (GPa) = 24.20569 46.84583 35.52576
#
# Velocity S-wave (km/s) = 3.38658 4.71126 4.10274
# Velocity P-wave (km/s) = 5.79585 7.98818 6.97864
#
# Compressibility (1/GPa) = 0.02589117
#
# Stress axis : x y z
#
# Youngs Moduli (GPa) = 36.68208 70.63743 52.83834
#
# Poissons Ratio (x) = 0.26360 0.56912
# Poissons Ratio (y) = 0.13689 0.14391
# Poissons Ratio (z) = 0.39510 0.19239
#
# Static dielectric constant tensor:
#      x y z
#    x 1.759360 0.021740 -0.018190 
#    y 0.021740 1.750090 0.027520 
#    z -0.018190 0.027520 1.681750 
# 
# From -- ./inp_files/505017.got.cif
#   From: 2010.05.17/outbox.cif.g08.bks.cpg/sg2_253_cif.got.tgz:505017.got - 2010.06.03 11:33:40.
