data_PCOD9057532
_publ_section_title
;
Structure prediction by ZEFSAII (Michael W. Deem and Ramdas Pophale) SiO2 
 PCOD9057532
Probable space group: P -1
;
_chemical_formula_sum "Si O2"
_cell_formula_units_Z 12
_cell_length_a 11.377491
_cell_length_b 14.880191
_cell_length_c 9.545806
_cell_angle_alpha 38.431826
_cell_angle_beta 48.093883
_cell_angle_gamma 29.398189
_cell_volume 492.542181
_symmetry_space_group_name_H-M "P -1"
_symmetry_group_IT_number 2
_symmetry_cell_setting 'triclinic'
loop_
_space_group_symop_operation_xyz
x,y,z
-x,-y,-z
loop_
_atom_site_type_symbol
_atom_site_label
_atom_site_fract_x
_atom_site_fract_y
_atom_site_fract_z
Si Si1 0.257892 0.826411 0.937909
Si Si2 0.572073 0.865995 0.758156
Si Si3 0.118096 0.749221 0.889191
Si Si4 0.554736 0.415399 0.400020
Si Si5 0.781211 0.640037 0.610357
Si Si6 0.449669 0.878937 0.129136
O O1 0.394336 0.608812 0.180606
O O2 0.385598 0.888538 0.797436
O O3 0.226822 0.803668 0.829163
O O4 0.000000 0.000000 0.000000
O O5 0.799684 0.704462 0.671187
O O6 0.436713 0.112421 0.582792
O O7 0.604267 0.766195 0.001927
O O8 0.185054 0.727644 0.699110
O O9 0.226504 0.524489 0.139548
O O10 0.832389 0.941220 0.902905
O O11 0.500000 0.500000 0.500000
O O12 0.500236 0.283745 0.605812
O O13 0.000000 0.500000 0.500000
O O14 0.500000 0.000000 0.000000
#
# Coordination Sequence:
#
# PCOD9057532 Si02
#       6
#     2   2   2   2   2   2
#     4  12  23  43  75 105 142 183 247 299 353 429
#     4  11  24  43  69 108 142 184 239 300 358 426
#     4  12  25  47  75 107 140 195 246 295 363 428
#     4  12  25  47  72 106 150 188 240 296 366 437
#     4  11  22  42  73 101 145 181 238 300 352 423
#     4  12  27  47  71 105 148 191 239 297 369 436
#
# _framework density 24.363396000000002
#
# number of rings (size 3 to 8) (size 9 to 14) (size 15 to 20)
#    0.000    0.333    6.667    1.000    2.333    2.667 
#    0.000    5.000    0.000    0.000    0.000    0.000 
#    0.000    0.000    0.000    0.000    0.000    0.000 
#
# Total GULP energy -67063.259458 kJ/mol
# GULP energy per Si atom -5588.604955 kJ/mol
# Density = 2.430794 g / cm^3
# Si number density = 24.363396 Si / 1000 Ang^3
#
#
#
# Elastic Constant Matrix: (Units=GPa)
#
#
# Indices 1 2 3 4 5 6 
#
# 1 93.0909 6.7626 20.2252 7.9851 -7.9306 23.7557
# 2 6.7626 126.4302 37.9885 33.0745 5.6454 24.7666
# 3 20.2252 37.9885 162.7965 23.4978 -20.6368 12.0265
# 4 7.9851 33.0745 23.4978 57.7167 14.9667 12.0045
# 5 -7.9306 5.6454 -20.6368 14.9667 34.5240 -3.3768
# 6 23.7557 24.7666 12.0265 12.0045 -3.3768 32.3731
#
#
#
# Elastic Compliance Matrix: (Units=1/GPa)
#
#
# Indices 1 2 3 4 5 6 
#
# 1 0.013743 0.001774 -0.001051 -0.000658 0.001482 -0.010652
# 2 0.001774 0.010945 -0.001875 -0.003707 -0.001656 -0.007776
# 3 -0.001051 -0.001875 0.008065 -0.004135 0.006820 0.001454
# 4 -0.000658 -0.003707 -0.004135 0.026159 -0.013973 -0.006303
# 5 0.001482 -0.001656 0.006820 -0.013973 0.040400 0.007042
# 6 -0.010652 -0.007776 0.001454 -0.006303 0.007042 0.047187
#
#
# Mechanical properties :
#
#
# Convention : Reuss Voigt Hill
#
# Bulk Modulus (GPa) = 32.84373 56.91893 44.88133
# Shear Modulus (GPa) = 31.45584 46.07886 38.76735
#
# Velocity S-wave (km/s) = 3.59710 4.35364 3.99333
# Velocity P-wave (km/s) = 5.54637 6.97750 6.30269
#
# Compressibility (1/GPa) = 0.03044721
#
# Stress axis : x y z
#
# Youngs Moduli (GPa) = 72.76544 91.36545 123.99782
#
# Poissons Ratio (x) = -0.16204 0.13037
# Poissons Ratio (y) = -0.12905 0.23247
# Poissons Ratio (z) = 0.07651 0.17129
#
# Static dielectric constant tensor:
#      x y z
#    x 1.965260 -0.045610 -0.000210 
#    y -0.045610 2.184640 0.039900 
#    z -0.000210 0.039900 1.959030 
# 
# From -- ./inp_files/159189.got.cif
#   From: 2010.05.17/outbox.cif.g08.bks.cpg/sg2_80_cif.got.tgz:159189.got - 2010.06.03 11:33:40.
