data_PCOD9057563
_publ_section_title
;
Structure prediction by ZEFSAII (Michael W. Deem and Ramdas Pophale) SiO2 
 PCOD9057563
Probable space group: P -1
;
_chemical_formula_sum "Si O2"
_cell_formula_units_Z 14
_cell_length_a 15.061714
_cell_length_b 9.396819
_cell_length_c 5.504724
_cell_angle_alpha 55.784172
_cell_angle_beta 120.066919
_cell_angle_gamma 125.084235
_cell_volume 508.672727
_symmetry_space_group_name_H-M "P -1"
_symmetry_group_IT_number 2
_symmetry_cell_setting 'triclinic'
loop_
_space_group_symop_operation_xyz
x,y,z
-x,-y,-z
loop_
_atom_site_type_symbol
_atom_site_label
_atom_site_fract_x
_atom_site_fract_y
_atom_site_fract_z
Si Si1 0.942393 0.259920 0.685325
Si Si2 0.544315 0.715980 0.436760
Si Si3 0.957717 0.165735 0.310057
Si Si4 0.215662 0.541450 0.912152
Si Si5 0.334577 0.705667 0.436520
Si Si6 0.217419 0.182942 0.089565
Si Si7 0.297507 0.050318 0.924811
O O1 0.869627 0.373626 0.389105
O O2 0.014316 0.274527 0.526835
O O3 0.873470 0.031690 0.834363
O O4 0.978025 0.300161 0.976287
O O5 0.500000 0.500000 0.500000
O O6 0.457942 0.741066 0.478665
O O7 0.668259 0.782909 0.649574
O O8 0.581355 0.856442 0.124887
O O9 0.821639 0.071847 0.252491
O O10 0.000000 0.000000 0.500000
O O11 0.309150 0.605792 0.760240
O O12 0.260622 0.607392 0.183750
O O13 0.173436 0.317293 0.041859
O O14 0.312766 0.893719 0.265398
O O15 0.265931 0.210187 0.854693
#
# Coordination Sequence:
#
# PCOD9057563 Si02
#       7
#     2   2   2   2   2   2   2
#     4  11  22  45  67 101 135 170 222 280 333 401
#     4  12  24  40  62  98 135 183 228 274 325 397
#     4  11  22  42  75 100 128 175 221 276 343 400
#     4  12  23  43  67  98 133 186 220 271 335 395
#     4  12  25  41  66  93 138 178 229 272 328 393
#     4  11  24  40  69  92 141 177 228 271 336 388
#     4  11  24  44  64  98 135 176 226 281 331 404
#
# _framework density 27.52261
#
# number of rings (size 3 to 8) (size 9 to 14) (size 15 to 20)
#    0.000    0.571    7.143    1.714    2.000    1.714 
#    0.000    0.000    0.000   12.000    0.000    0.000 
#    0.000    0.000    0.000    0.000    0.000    0.000 
#
# Total GULP energy -78275.382600 kJ/mol
# GULP energy per Si atom -5591.098757 kJ/mol
# Density = 2.745997 g / cm^3
# Si number density = 27.522610 Si / 1000 Ang^3
#
#
#
# Elastic Constant Matrix: (Units=GPa)
#
#
# Indices 1 2 3 4 5 6 
#
# 1 116.3430 18.1417 11.4208 -3.6661 -15.1508 -17.2689
# 2 18.1417 124.4538 31.1959 0.6905 -2.7777 -16.4480
# 3 11.4208 31.1959 107.4271 6.5660 -12.9437 -2.2720
# 4 -3.6661 0.6905 6.5660 46.1346 -6.3859 0.7614
# 5 -15.1508 -2.7777 -12.9437 -6.3859 52.6920 -0.8618
# 6 -17.2689 -16.4480 -2.2720 0.7614 -0.8618 51.7809
#
#
#
# Elastic Compliance Matrix: (Units=1/GPa)
#
#
# Indices 1 2 3 4 5 6 
#
# 1 0.009610 -0.000843 -0.000449 0.001179 0.002799 0.002947
# 2 -0.000843 0.009119 -0.002551 0.000071 -0.000339 0.002497
# 3 -0.000449 -0.002551 0.010418 -0.001176 0.002146 -0.000450
# 4 0.001179 0.000071 -0.001176 0.022316 0.002760 0.000082
# 5 0.002799 -0.000339 0.002146 0.002760 0.020647 0.001223
# 6 0.002947 0.002497 -0.000450 0.000082 0.001223 0.021087
#
#
# Mechanical properties :
#
#
# Convention : Reuss Voigt Hill
#
# Bulk Modulus (GPa) = 46.59586 52.19339 49.39463
# Shear Modulus (GPa) = 46.27999 49.28589 47.78294
#
# Velocity S-wave (km/s) = 4.10509 4.23631 4.17121
# Velocity P-wave (km/s) = 6.27979 6.55236 6.41752
#
# Compressibility (1/GPa) = 0.02146113
#
# Stress axis : x y z
#
# Youngs Moduli (GPa) = 104.05935 109.65553 95.98717
#
# Poissons Ratio (x) = 0.09242 0.04313
# Poissons Ratio (y) = 0.08770 0.24486
# Poissons Ratio (z) = 0.04676 0.27973
#
# Static dielectric constant tensor:
#      x y z
#    x 2.254650 0.013010 -0.114210 
#    y 0.013010 2.316800 0.133250 
#    z -0.114210 0.133250 2.329780 
# 
# From -- ./inp_files/106391.got.cif
#   From: 2010.05.17/outbox.cif.g08.bks.cpg/sg2_54_cif.got.tgz:106391.got - 2010.06.03 11:33:40.
