data_PCOD9057389
_publ_section_title
;
Structure prediction by ZEFSAII (Michael W. Deem and Ramdas Pophale) SiO2 
 PCOD9057389
Probable space group: P -1
;
_chemical_formula_sum "Si O2"
_cell_formula_units_Z 16
_cell_length_a 7.270077
_cell_length_b 9.255507
_cell_length_c 12.145622
_cell_angle_alpha 124.434124
_cell_angle_beta 78.861514
_cell_angle_gamma 107.477403
_cell_volume 642.654317
_symmetry_space_group_name_H-M "P -1"
_symmetry_group_IT_number 2
_symmetry_cell_setting 'triclinic'
loop_
_space_group_symop_operation_xyz
x,y,z
-x,-y,-z
loop_
_atom_site_type_symbol
_atom_site_label
_atom_site_fract_x
_atom_site_fract_y
_atom_site_fract_z
Si Si1 0.776811 0.891014 0.751743
Si Si2 0.596026 0.849724 0.369443
Si Si3 0.654892 0.631872 0.461932
Si Si4 0.408654 0.330252 0.133223
Si Si5 0.823760 0.503693 0.903411
Si Si6 0.191820 0.657395 0.786443
Si Si7 0.052663 0.226899 0.806031
Si Si8 0.602918 0.973600 0.169859
O O1 0.754319 0.805702 0.596211
O O2 0.735741 0.729192 0.773522
O O3 0.596928 0.981979 0.825593
O O4 0.965214 0.049619 0.810503
O O5 0.539291 0.686767 0.395019
O O6 0.822816 0.837288 0.330730
O O7 0.576705 0.890320 0.258812
O O8 0.500000 0.000000 0.500000
O O9 0.500000 0.500000 0.500000
O O10 0.808916 0.519423 0.361017
O O11 0.367540 0.498311 0.143487
O O12 0.623077 0.337904 0.153740
O O13 0.353960 0.169828 0.982146
O O14 0.002503 0.626919 0.868412
O O15 0.876818 0.311690 0.823521
O O16 0.826696 0.605962 0.063394
O O17 0.244316 0.835201 0.782244
#
# Coordination Sequence:
#
# PCOD9057389 Si02
#       8
#     2   2   2   2   2   2   2   2
#     4  11  24  44  70 103 143 186 238 296 349 425
#     4  12  24  45  71 100 137 192 231 286 362 422
#     4  12  23  48  70  95 141 188 240 288 347 426
#     4  11  23  42  74 108 136 188 242 286 360 425
#     4  11  24  45  71 106 150 185 229 303 357 418
#     4  11  23  44  72 102 146 189 236 296 351 418
#     4  11  25  45  67 106 148 179 235 300 357 419
#     4  11  22  42  69 107 137 180 240 288 355 426
#
# _framework density 24.896742
#
# number of rings (size 3 to 8) (size 9 to 14) (size 15 to 20)
#    0.000    0.750    6.250    3.000    1.750    2.500 
#    0.000    3.125    0.000    0.000    0.000    0.000 
#    0.000    0.000    0.000    0.000    0.000    0.000 
#
# Total GULP energy -89429.490585 kJ/mol
# GULP energy per Si atom -5589.343162 kJ/mol
# Density = 2.484008 g / cm^3
# Si number density = 24.896742 Si / 1000 Ang^3
#
#
#
# Elastic Constant Matrix: (Units=GPa)
#
#
# Indices 1 2 3 4 5 6 
#
# 1 64.7473 45.0949 25.2823 3.3067 -7.5069 -12.2745
# 2 45.0949 156.1534 11.3483 -20.6672 -3.1772 -8.9372
# 3 25.2823 11.3483 119.9162 0.4613 -14.7434 -2.5423
# 4 3.3067 -20.6672 0.4613 38.2553 -10.1512 -9.1886
# 5 -7.5069 -3.1772 -14.7434 -10.1512 35.8656 -7.9546
# 6 -12.2745 -8.9372 -2.5423 -9.1886 -7.9546 52.7966
#
#
#
# Elastic Compliance Matrix: (Units=1/GPa)
#
#
# Indices 1 2 3 4 5 6 
#
# 1 0.022622 -0.006528 -0.003778 -0.003958 0.002288 0.003628
# 2 -0.006528 0.009202 0.000744 0.006381 0.001887 0.001471
# 3 -0.003778 0.000744 0.009542 0.001772 0.003831 0.000593
# 4 -0.003958 0.006381 0.001772 0.035121 0.012224 0.008199
# 5 0.002288 0.001887 0.003831 0.012224 0.035449 0.008504
# 6 0.003628 0.001471 0.000593 0.008199 0.008504 0.022770
#
#
# Mechanical properties :
#
#
# Convention : Reuss Voigt Hill
#
# Bulk Modulus (GPa) = 44.96045 56.02977 50.49511
# Shear Modulus (GPa) = 31.00903 42.65627 36.83265
#
# Velocity S-wave (km/s) = 3.53300 4.14373 3.85049
# Velocity P-wave (km/s) = 5.89413 6.74149 6.33200
#
# Compressibility (1/GPa) = 0.02224177
#
# Stress axis : x y z
#
# Youngs Moduli (GPa) = 44.20542 108.67115 104.79959
#
# Poissons Ratio (x) = 0.70939 0.39595
# Poissons Ratio (y) = 0.28857 -0.07798
# Poissons Ratio (z) = 0.16702 -0.08086
#
# Static dielectric constant tensor:
#      x y z
#    x 1.992300 -0.026510 0.037810 
#    y -0.026510 2.002660 -0.012250 
#    z 0.037810 -0.012250 1.992620 
# 
# From -- ./inp_files/380311.got.cif
#   From: 2010.05.17/outbox.cif.g08.bks.cpg/sg2_191_cif.got.tgz:380311.got - 2010.06.03 11:33:40.
