data_PCOD9057688
_publ_section_title
;
Structure prediction by ZEFSAII (Michael W. Deem and Ramdas Pophale) SiO2 
 PCOD9057688
Probable space group: P -1
;
_chemical_formula_sum "Si O2"
_cell_formula_units_Z 10
_cell_length_a 7.331060
_cell_length_b 8.770422
_cell_length_c 9.266306
_cell_angle_alpha 56.677047
_cell_angle_beta 130.001687
_cell_angle_gamma 96.115749
_cell_volume 351.917712
_symmetry_space_group_name_H-M "P -1"
_symmetry_group_IT_number 2
_symmetry_cell_setting 'triclinic'
loop_
_space_group_symop_operation_xyz
x,y,z
-x,-y,-z
loop_
_atom_site_type_symbol
_atom_site_label
_atom_site_fract_x
_atom_site_fract_y
_atom_site_fract_z
Si Si1 0.614180 0.108695 0.148990
Si Si2 0.835877 0.426249 0.801548
Si Si3 0.172598 0.301091 0.599507
Si Si4 0.290242 0.889711 0.256401
Si Si5 0.417769 0.304188 0.218794
O O1 0.582687 0.271514 0.172543
O O2 0.859130 0.914225 0.320046
O O3 0.463846 0.989016 0.216399
O O4 0.436397 0.223167 0.867250
O O5 0.844989 0.608271 0.616193
O O6 0.691429 0.320566 0.687597
O O7 0.696526 0.495832 0.847468
O O8 0.138643 0.290557 0.053692
O O9 0.000000 0.500000 0.500000
O O10 0.390125 0.847789 0.491498
O O11 0.000000 0.000000 0.000000
#
# Coordination Sequence:
#
# PCOD9057688 Si02
#       5
#     2   2   2   2   2
#     4  11  24  41  71  97 134 175 222 270 332 398
#     4  11  24  41  73  94 135 173 222 277 329 390
#     4  11  22  43  68  95 134 185 211 266 346 390
#     4  12  23  40  68 104 131 168 225 279 324 391
#     4  11  23  41  67 104 125 176 224 272 330 392
#
# _framework density 28.415732999999999
#
# number of rings (size 3 to 8) (size 9 to 14) (size 15 to 20)
#    0.000    0.800    6.000    1.200    0.000    0.000 
#    0.000    1.000    0.000    8.400    0.000    0.000 
#    0.000    0.000    0.000    0.000    0.000    0.000 
#
# Total GULP energy -55787.656891 kJ/mol
# GULP energy per Si atom -5578.765689 kJ/mol
# Density = 2.835106 g / cm^3
# Si number density = 28.415733 Si / 1000 Ang^3
#
#
#
# Elastic Constant Matrix: (Units=GPa)
#
#
# Indices 1 2 3 4 5 6 
#
# 1 88.5969 24.8945 66.5745 -1.7293 2.5211 -21.4417
# 2 24.8945 157.1213 40.6587 -0.3488 6.8372 -49.9340
# 3 66.5745 40.6587 223.9062 -3.2498 5.0357 -26.8168
# 4 -1.7293 -0.3488 -3.2498 66.4250 -23.7478 6.7517
# 5 2.5211 6.8372 5.0357 -23.7478 50.9358 6.0696
# 6 -21.4417 -49.9340 -26.8168 6.7517 6.0696 64.3271
#
#
#
# Elastic Compliance Matrix: (Units=1/GPa)
#
#
# Indices 1 2 3 4 5 6 
#
# 1 0.015241 -0.000269 -0.004072 -0.000473 -0.000931 0.003311
# 2 -0.000269 0.008915 -0.000665 -0.001680 -0.002734 0.006988
# 3 -0.004072 -0.000665 0.005879 -0.000017 -0.000372 0.000614
# 4 -0.000473 -0.001680 -0.000017 0.018901 0.009582 -0.004357
# 5 -0.000931 -0.002734 -0.000372 0.009582 0.025262 -0.005977
# 6 0.003311 0.006988 0.000614 -0.004357 -0.005977 0.023351
#
#
# Mechanical properties :
#
#
# Convention : Reuss Voigt Hill
#
# Bulk Modulus (GPa) = 49.94205 81.54221 65.74213
# Shear Modulus (GPa) = 43.76859 58.83734 51.30296
#
# Velocity S-wave (km/s) = 3.92892 4.55531 4.25366
# Velocity P-wave (km/s) = 6.18025 7.51174 6.87829
#
# Compressibility (1/GPa) = 0.02002321
#
# Stress axis : x y z
#
# Youngs Moduli (GPa) = 65.61113 112.16776 170.08606
#
# Poissons Ratio (x) = 0.03021 0.69262
# Poissons Ratio (y) = 0.01767 0.11307
# Poissons Ratio (z) = 0.26718 0.07457
#
# Static dielectric constant tensor:
#      x y z
#    x 2.335570 -0.185280 0.098870 
#    y -0.185280 2.564780 -0.159660 
#    z 0.098870 -0.159660 2.162840 
# 
# From -- ./inp_files/145186.got.cif
#   From: 2010.05.17/outbox.cif.g08.bks.cpg/sg2_73_cif.got.tgz:145186.got - 2010.06.03 11:33:40.
