data_PCOD9057513
_publ_section_title
;
Structure prediction by ZEFSAII (Michael W. Deem and Ramdas Pophale) SiO2 
 PCOD9057513
Probable space group: P -1
;
_chemical_formula_sum "Si O2"
_cell_formula_units_Z 14
_cell_length_a 9.012323
_cell_length_b 15.906716
_cell_length_c 15.786512
_cell_angle_alpha 38.442313
_cell_angle_beta 143.441498
_cell_angle_gamma 150.665304
_cell_volume 633.133275
_symmetry_space_group_name_H-M "P -1"
_symmetry_group_IT_number 2
_symmetry_cell_setting 'triclinic'
loop_
_space_group_symop_operation_xyz
x,y,z
-x,-y,-z
loop_
_atom_site_type_symbol
_atom_site_label
_atom_site_fract_x
_atom_site_fract_y
_atom_site_fract_z
Si Si1 0.267134 0.913116 0.381693
Si Si2 0.975256 0.049780 0.043186
Si Si3 0.700683 0.521624 0.491517
Si Si4 0.318610 0.019290 0.635220
Si Si5 0.240828 0.717585 0.032405
Si Si6 0.834136 0.284955 0.800404
Si Si7 0.149429 0.366643 0.233664
O O1 0.434288 0.886146 0.404649
O O2 0.933282 0.723670 0.407785
O O3 0.500000 0.000000 0.500000
O O4 0.191788 0.034959 0.215585
O O5 0.597499 0.895085 0.023736
O O6 0.072632 0.241875 0.930733
O O7 0.000000 0.000000 0.000000
O O8 0.500000 0.500000 0.500000
O O9 0.902670 0.459425 0.659670
O O10 0.455006 0.406000 0.391095
O O11 0.512266 0.126851 0.723870
O O12 0.000000 0.000000 0.500000
O O13 0.174073 0.815350 0.729215
O O14 0.224377 0.732113 0.113148
O O15 0.201700 0.543434 0.135218
O O16 0.944551 0.681260 0.870887
#
# Coordination Sequence:
#
# PCOD9057513 Si02
#       7
#     2   2   2   2   2   2   2
#     4  12  28  48  76 104 149 198 245 300 374 439
#     4  12  24  47  70 106 150 190 240 308 367 435
#     4  12  24  47  77 110 148 196 246 306 366 443
#     4  12  26  44  74 108 144 190 250 307 363 434
#     4  11  24  41  74 105 142 200 247 296 369 439
#     4  12  25  44  76 108 148 188 253 296 372 434
#     4  11  22  42  72 106 143 188 250 297 365 430
#
# _framework density 22.112248999999998
#
# number of rings (size 3 to 8) (size 9 to 14) (size 15 to 20)
#    0.000    0.286    7.143    1.286    2.000    0.571 
#    2.571    0.714    0.000    0.000    0.000    0.000 
#    0.000    0.000    0.000    0.000    0.000    0.000 
#
# Total GULP energy -78232.226375 kJ/mol
# GULP energy per Si atom -5588.016170 kJ/mol
# Density = 2.206192 g / cm^3
# Si number density = 22.112249 Si / 1000 Ang^3
#
#
#
# Elastic Constant Matrix: (Units=GPa)
#
#
# Indices 1 2 3 4 5 6 
#
# 1 61.6432 -3.9649 45.5672 20.8683 -12.7979 -16.1237
# 2 -3.9649 52.4683 16.4242 19.4117 -12.9281 -7.9159
# 3 45.5672 16.4242 183.8874 19.9921 -3.7933 -14.7834
# 4 20.8683 19.4117 19.9921 54.4631 -18.8022 -8.0067
# 5 -12.7979 -12.9281 -3.7933 -18.8022 38.5644 1.7893
# 6 -16.1237 -7.9159 -14.7834 -8.0067 1.7893 28.4398
#
#
#
# Elastic Compliance Matrix: (Units=1/GPa)
#
#
# Indices 1 2 3 4 5 6 
#
# 1 0.029715 0.011406 -0.006193 -0.008219 0.008421 0.013959
# 2 0.011406 0.027640 -0.003415 -0.008835 0.007972 0.009396
# 3 -0.006193 -0.003415 0.007179 0.000023 -0.002456 -0.000569
# 4 -0.008219 -0.008835 0.000023 0.027294 0.007616 0.000099
# 5 0.008421 0.007972 -0.002456 0.007616 0.034606 0.005683
# 6 0.013959 0.009396 -0.000569 0.000099 0.005683 0.045066
#
#
# Mechanical properties :
#
#
# Convention : Reuss Voigt Hill
#
# Bulk Modulus (GPa) = 14.67767 46.00576 30.34172
# Shear Modulus (GPa) = 26.23105 40.29163 33.26134
#
# Velocity S-wave (km/s) = 3.44796 4.27329 3.88262
# Velocity P-wave (km/s) = 4.74378 6.72300 5.81817
#
# Compressibility (1/GPa) = 0.06813071
#
# Stress axis : x y z
#
# Youngs Moduli (GPa) = 33.65255 36.17901 139.30003
#
# Poissons Ratio (x) = -0.41264 0.86265
# Poissons Ratio (y) = -0.38383 0.47567
# Poissons Ratio (z) = 0.20840 0.12354
#
# Static dielectric constant tensor:
#      x y z
#    x 1.765350 -0.052930 0.017690 
#    y -0.052930 1.715350 -0.088460 
#    z 0.017690 -0.088460 1.850590 
# 
# From -- ./inp_files/505330.got.cif
#   From: 2010.05.17/outbox.cif.g08.bks.cpg/sg2_253_cif.got.tgz:505330.got - 2010.06.03 11:33:40.
