data_PCOD9057441
_publ_section_title
;
Structure prediction by ZEFSAII (Michael W. Deem and Ramdas Pophale) SiO2 
 PCOD9057441
Probable space group: P -1
;
_chemical_formula_sum "Si O2"
_cell_formula_units_Z 16
_cell_length_a 15.395564
_cell_length_b 12.500241
_cell_length_c 8.641066
_cell_angle_alpha 135.239406
_cell_angle_beta 131.700546
_cell_angle_gamma 37.855546
_cell_volume 697.216258
_symmetry_space_group_name_H-M "P -1"
_symmetry_group_IT_number 2
_symmetry_cell_setting 'triclinic'
loop_
_space_group_symop_operation_xyz
x,y,z
-x,-y,-z
loop_
_atom_site_type_symbol
_atom_site_label
_atom_site_fract_x
_atom_site_fract_y
_atom_site_fract_z
Si Si1 0.388148 0.190339 0.153185
Si Si2 0.715539 0.221760 0.096863
Si Si3 0.071417 0.749060 0.471543
Si Si4 0.402777 0.217522 0.550728
Si Si5 0.933060 0.558556 0.651666
Si Si6 0.340720 0.545828 0.342241
Si Si7 0.392415 0.541972 0.070153
Si Si8 0.849914 0.855907 0.074095
O O1 0.437670 0.211717 0.403207
O O2 0.367258 0.347061 0.178612
O O3 0.243808 0.204890 0.023796
O O4 0.500000 0.000000 0.000000
O O5 0.870859 0.183552 0.259109
O O6 0.671264 0.270623 0.915515
O O7 0.742697 0.045562 0.040321
O O8 0.566115 0.419113 0.185143
O O9 0.052730 0.602035 0.386596
O O10 0.209644 0.665028 0.432319
O O11 0.930821 0.881834 0.333836
O O12 0.237813 0.290653 0.429555
O O13 0.393803 0.379236 0.809528
O O14 0.500000 0.000000 0.500000
O O15 0.000000 0.500000 0.500000
O O16 0.967543 0.679071 0.921336
O O17 0.500000 0.500000 0.500000
O O18 0.299097 0.614627 0.188296
#
# Coordination Sequence:
#
# PCOD9057441 Si02
#       8
#     2   2   2   2   2   2   2   2
#     4  11  24  44  68 106 142 177 243 298 360 425
#     4  11  23  45  66 104 140 187 234 294 359 428
#     4  12  24  46  70 100 143 189 245 294 358 433
#     4  11  22  42  70 105 138 179 235 303 353 425
#     4  11  25  46  69 101 144 188 242 293 369 432
#     4  12  24  43  69 104 138 187 242 290 360 431
#     4  11  23  40  74  97 144 186 231 293 362 423
#     4  11  25  45  72 104 145 187 241 304 351 431
#
# _framework density 22.948402999999999
#
# number of rings (size 3 to 8) (size 9 to 14) (size 15 to 20)
#    0.000    0.750    5.000    3.750    3.500    1.000 
#    0.000    3.750    0.000    0.000    0.000    0.000 
#    0.000    0.000    0.000    0.000    0.000    0.000 
#
# Total GULP energy -89178.004680 kJ/mol
# GULP energy per Si atom -5573.625292 kJ/mol
# Density = 2.289617 g / cm^3
# Si number density = 22.948403 Si / 1000 Ang^3
#
#
#
# Elastic Constant Matrix: (Units=GPa)
#
#
# Indices 1 2 3 4 5 6 
#
# 1 125.4123 33.2336 16.9057 -12.7558 -19.2248 16.6258
# 2 33.2336 86.6960 8.4646 -16.2462 8.6841 21.6623
# 3 16.9057 8.4646 72.1107 -20.9964 10.1499 -6.1697
# 4 -12.7558 -16.2462 -20.9964 29.3482 2.6831 -5.9081
# 5 -19.2248 8.6841 10.1499 2.6831 45.0730 5.1396
# 6 16.6258 21.6623 -6.1697 -5.9081 5.1396 32.4477
#
#
#
# Elastic Compliance Matrix: (Units=1/GPa)
#
#
# Indices 1 2 3 4 5 6 
#
# 1 0.011123 -0.003518 -0.004247 -0.001939 0.007137 -0.005642
# 2 -0.003518 0.016309 0.001101 0.007330 -0.004549 -0.006821
# 3 -0.004247 0.001101 0.021958 0.017371 -0.009169 0.010231
# 4 -0.001939 0.007330 0.017371 0.052828 -0.010515 0.010688
# 5 0.007137 -0.004549 -0.009169 -0.010515 0.029824 -0.009002
# 6 -0.005642 -0.006821 0.010231 0.010688 -0.009002 0.043581
#
#
# Mechanical properties :
#
#
# Convention : Reuss Voigt Hill
#
# Bulk Modulus (GPa) = 27.72918 44.60300 36.16609
# Shear Modulus (GPa) = 24.87923 36.41480 30.64701
#
# Velocity S-wave (km/s) = 3.29620 3.98780 3.65838
# Velocity P-wave (km/s) = 5.15714 6.37823 5.79991
#
# Compressibility (1/GPa) = 0.03606310
#
# Stress axis : x y z
#
# Youngs Moduli (GPa) = 89.90254 61.31541 45.54224
#
# Poissons Ratio (x) = 0.21570 0.19341
# Poissons Ratio (y) = 0.31627 -0.05015
# Poissons Ratio (z) = 0.38180 -0.06752
#
# Static dielectric constant tensor:
#      x y z
#    x 1.858430 -0.009930 -0.046110 
#    y -0.009930 1.827660 -0.038760 
#    z -0.046110 -0.038760 1.971590 
# 
# From -- ./inp_files/308605.got.cif
#   From: 2010.05.17/outbox.cif.g08.bks.cpg/sg2_155_cif.got.tgz:308605.got - 2010.06.03 11:33:40.
