data_PCOD9057679
_publ_section_title
;
Structure prediction by ZEFSAII (Michael W. Deem and Ramdas Pophale) SiO2 
 PCOD9057679
Probable space group: P -1
;
_chemical_formula_sum "Si O2"
_cell_formula_units_Z 16
_cell_length_a 11.172227
_cell_length_b 10.780847
_cell_length_c 11.329809
_cell_angle_alpha 112.290497
_cell_angle_beta 144.826276
_cell_angle_gamma 63.050175
_cell_volume 700.633810
_symmetry_space_group_name_H-M "P -1"
_symmetry_group_IT_number 2
_symmetry_cell_setting 'triclinic'
loop_
_space_group_symop_operation_xyz
x,y,z
-x,-y,-z
loop_
_atom_site_type_symbol
_atom_site_label
_atom_site_fract_x
_atom_site_fract_y
_atom_site_fract_z
Si Si1 0.732045 0.959445 0.113984
Si Si2 0.331253 0.220561 0.209055
Si Si3 0.035893 0.815288 0.687633
Si Si4 0.149435 0.704693 0.109686
Si Si5 0.303562 0.551705 0.954048
Si Si6 0.646555 0.372239 0.501298
Si Si7 0.948499 0.683461 0.337228
Si Si8 0.680161 0.060023 0.611810
O O1 0.870060 0.826357 0.249946
O O2 0.711058 0.904659 0.945384
O O3 0.822039 0.094122 0.229152
O O4 0.500000 0.000000 0.000000
O O5 0.462768 0.307364 0.270889
O O6 0.523554 0.168830 0.437530
O O7 0.100560 0.297302 0.107277
O O8 0.942150 0.733734 0.483987
O O9 0.162114 0.697482 0.836428
O O10 0.850160 0.934783 0.641341
O O11 0.189211 0.687679 0.276871
O O12 0.192930 0.854936 0.175829
O O13 0.311996 0.598645 0.115337
O O14 0.188763 0.427217 0.824247
O O15 0.500000 0.500000 0.000000
O O16 0.500000 0.500000 0.500000
O O17 0.808335 0.388184 0.535241
O O18 0.500000 0.000000 0.500000
#
# Coordination Sequence:
#
# PCOD9057679 Si02
#       8
#     2   2   2   2   2   2   2   2
#     4  12  23  42  75 105 142 190 238 301 360 427
#     4  11  22  43  68 109 138 177 245 300 366 412
#     4  12  26  48  71 109 151 187 246 302 363 437
#     4  11  25  48  71 108 149 184 255 301 361 437
#     4  12  30  47  72 102 152 206 236 294 370 442
#     4  11  25  42  74 104 141 194 240 302 359 427
#     4  12  26  48  71 109 151 187 246 302 363 437
#     4  11  25  42  74 104 141 194 240 302 359 427
#
# _framework density 22.836466000000001
#
# number of rings (size 3 to 8) (size 9 to 14) (size 15 to 20)
#    0.000    0.500    2.500    5.250    7.000    3.000 
#    0.000    0.000    0.000    0.000    0.000    0.000 
#    0.000    0.000    0.000    0.000    0.000    0.000 
#
# Total GULP energy -89253.989622 kJ/mol
# GULP energy per Si atom -5578.374351 kJ/mol
# Density = 2.278449 g / cm^3
# Si number density = 22.836466 Si / 1000 Ang^3
#
#
#
# Elastic Constant Matrix: (Units=GPa)
#
#
# Indices 1 2 3 4 5 6 
#
# 1 89.9793 20.1745 17.5755 9.1389 14.0242 -22.1729
# 2 20.1745 67.1263 25.7142 6.8291 8.8747 0.3689
# 3 17.5755 25.7142 66.7573 5.5980 4.8177 -7.3545
# 4 9.1389 6.8291 5.5980 48.4532 -7.2127 -5.4560
# 5 14.0242 8.8747 4.8177 -7.2127 27.3622 -1.5362
# 6 -22.1729 0.3689 -7.3545 -5.4560 -1.5362 46.6083
#
#
#
# Elastic Compliance Matrix: (Units=1/GPa)
#
#
# Indices 1 2 3 4 5 6 
#
# 1 0.014910 -0.002808 -0.001439 -0.002544 -0.006791 0.006367
# 2 -0.002808 0.019033 -0.006395 -0.002399 -0.004404 -0.002922
# 3 -0.001439 -0.006395 0.018153 -0.000754 -0.000464 0.002127
# 4 -0.002544 -0.002399 -0.000754 0.022975 0.008364 0.001655
# 5 -0.006791 -0.004404 -0.000464 0.008364 0.043695 -0.000850
# 6 0.006367 -0.002922 0.002127 0.001655 -0.000850 0.025009
#
#
# Mechanical properties :
#
#
# Convention : Reuss Voigt Hill
#
# Bulk Modulus (GPa) = 32.45489 38.97680 35.71585
# Shear Modulus (GPa) = 28.51770 35.17798 31.84784
#
# Velocity S-wave (km/s) = 3.53764 3.92909 3.73849
# Velocity P-wave (km/s) = 5.56141 6.13910 5.85738
#
# Compressibility (1/GPa) = 0.03081199
#
# Stress axis : x y z
#
# Youngs Moduli (GPa) = 67.06840 52.53911 55.08795
#
# Poissons Ratio (x) = 0.14755 0.07926
# Poissons Ratio (y) = 0.18835 0.35229
# Poissons Ratio (z) = 0.09650 0.33599
#
# Static dielectric constant tensor:
#      x y z
#    x 1.697040 0.046150 0.005300 
#    y 0.046150 2.231360 0.125620 
#    z 0.005300 0.125620 2.034400 
# 
# From -- ./inp_files/428822.got.cif
#   From: 2010.05.17/outbox.cif.g08.bks.cpg/sg2_215_cif.got.tgz:428822.got - 2010.06.03 11:33:40.
