data_PCOD9057584
_publ_section_title
;
Structure prediction by ZEFSAII (Michael W. Deem and Ramdas Pophale) SiO2 
 PCOD9057584
Probable space group: P -1
;
_chemical_formula_sum "Si O2"
_cell_formula_units_Z 16
_cell_length_a 14.964007
_cell_length_b 9.295699
_cell_length_c 13.829721
_cell_angle_alpha 102.546739
_cell_angle_beta 149.421189
_cell_angle_gamma 56.499218
_cell_volume 647.861861
_symmetry_space_group_name_H-M "P -1"
_symmetry_group_IT_number 2
_symmetry_cell_setting 'triclinic'
loop_
_space_group_symop_operation_xyz
x,y,z
-x,-y,-z
loop_
_atom_site_type_symbol
_atom_site_label
_atom_site_fract_x
_atom_site_fract_y
_atom_site_fract_z
Si Si1 0.230658 0.042884 0.582691
Si Si2 0.693779 0.494386 0.130075
Si Si3 0.030425 0.632011 0.989619
Si Si4 0.764507 0.767138 0.563384
Si Si5 0.236862 0.267379 0.853653
Si Si6 0.800097 0.018928 0.960250
Si Si7 0.614859 0.443078 0.826292
Si Si8 0.042000 0.835338 0.366316
O O1 0.242616 0.079422 0.485268
O O2 0.977349 0.294436 0.408761
O O3 0.512366 0.898483 0.867733
O O4 0.140610 0.933006 0.508454
O O5 0.500000 0.500000 0.000000
O O6 0.657944 0.692686 0.128854
O O7 0.664987 0.467661 0.985878
O O8 0.299684 0.488233 0.161964
O O9 0.000000 0.500000 0.000000
O O10 0.822425 0.763603 0.728225
O O11 0.986226 0.794286 0.044062
O O12 0.489281 0.863150 0.304189
O O13 0.994020 0.513345 0.705235
O O14 0.122252 0.174649 0.722832
O O15 0.790875 0.191204 0.939314
O O16 0.878068 0.968820 0.137483
O O17 0.314356 0.590740 0.557787
#
# Coordination Sequence:
#
# PCOD9057584 Si02
#       8
#     2   2   2   2   2   2   2   2
#     4  11  22  42  76  98 140 184 230 285 362 410
#     4  11  25  48  76 104 140 186 233 289 363 428
#     4  12  26  44  68 103 141 195 242 282 347 425
#     4  11  22  44  65  99 141 188 230 286 344 417
#     4  11  22  43  73 102 138 185 229 290 354 415
#     4  12  25  41  69 101 144 185 237 286 351 410
#     4  12  25  47  68  99 148 182 233 301 351 414
#     4  12  23  41  74 102 136 185 237 290 349 414
#
# _framework density 24.696622999999999
#
# number of rings (size 3 to 8) (size 9 to 14) (size 15 to 20)
#    0.000    0.500    7.500    1.500    1.750    1.000 
#    2.250    1.250    0.000    0.000    0.000    0.000 
#    0.000    0.000    0.000    0.000    0.000    0.000 
#
# Total GULP energy -89514.837419 kJ/mol
# GULP energy per Si atom -5594.677339 kJ/mol
# Density = 2.464041 g / cm^3
# Si number density = 24.696623 Si / 1000 Ang^3
#
#
#
# Elastic Constant Matrix: (Units=GPa)
#
#
# Indices 1 2 3 4 5 6 
#
# 1 135.1650 53.2170 36.7459 4.4083 11.4280 49.9417
# 2 53.2170 124.2761 12.4026 -1.8291 3.8195 38.1900
# 3 36.7459 12.4026 132.1973 7.3451 10.2641 24.9615
# 4 4.4083 -1.8291 7.3451 43.7086 10.5569 9.3622
# 5 11.4280 3.8195 10.2641 10.5569 36.2958 -0.9125
# 6 49.9417 38.1900 24.9615 9.3622 -0.9125 51.9068
#
#
#
# Elastic Compliance Matrix: (Units=1/GPa)
#
#
# Indices 1 2 3 4 5 6 
#
# 1 0.012729 -0.001841 -0.001098 0.002213 -0.004420 -0.010841
# 2 -0.001841 0.011070 0.000839 0.002479 -0.001726 -0.007254
# 3 -0.001098 0.000839 0.008682 0.000056 -0.002309 -0.003787
# 4 0.002213 0.002479 0.000056 0.026849 -0.009009 -0.008981
# 5 -0.004420 -0.001726 -0.002309 -0.009009 0.032620 0.008831
# 6 -0.010841 -0.007254 -0.003787 -0.008981 0.008831 0.038629
#
#
# Mechanical properties :
#
#
# Convention : Reuss Voigt Hill
#
# Bulk Modulus (GPa) = 35.35979 66.26328 50.81154
# Shear Modulus (GPa) = 34.67232 45.66709 40.16970
#
# Velocity S-wave (km/s) = 3.75097 4.30481 4.03740
# Velocity P-wave (km/s) = 5.75399 7.18315 6.50792
#
# Compressibility (1/GPa) = 0.02828071
#
# Stress axis : x y z
#
# Youngs Moduli (GPa) = 78.56028 90.33425 115.17864
#
# Poissons Ratio (x) = 0.16633 0.12649
# Poissons Ratio (y) = 0.14465 -0.09666
# Poissons Ratio (z) = 0.08628 -0.07581
#
# Static dielectric constant tensor:
#      x y z
#    x 1.989870 -0.025690 0.030950 
#    y -0.025690 2.032030 -0.006030 
#    z 0.030950 -0.006030 1.919100 
# 
# From -- ./inp_files/529810.got.cif
#   From: 2010.05.17/outbox.cif.g08.bks.cpg/sg2_265_cif.got.tgz:529810.got - 2010.06.03 11:33:40.
