data_PCOD9057016
_publ_section_title
;
Structure prediction by ZEFSAII (Michael W. Deem and Ramdas Pophale) SiO2 
 PCOD9057016
Probable space group: P -1
;
_chemical_formula_sum "Si O2"
_cell_formula_units_Z 16
_cell_length_a 23.962384
_cell_length_b 13.765860
_cell_length_c 9.633025
_cell_angle_alpha 140.125809
_cell_angle_beta 45.313732
_cell_angle_gamma 157.311267
_cell_volume 785.631203
_symmetry_space_group_name_H-M "P -1"
_symmetry_group_IT_number 2
_symmetry_cell_setting 'triclinic'
loop_
_space_group_symop_operation_xyz
x,y,z
-x,-y,-z
loop_
_atom_site_type_symbol
_atom_site_label
_atom_site_fract_x
_atom_site_fract_y
_atom_site_fract_z
Si Si1 0.251483 0.780318 0.598728
Si Si2 0.511738 0.151086 0.349742
Si Si3 0.237050 0.357359 0.738594
Si Si4 0.567675 0.519831 0.273207
Si Si5 0.758892 0.285543 0.854926
Si Si6 0.825564 0.122856 0.368295
Si Si7 0.992929 0.832121 0.743154
Si Si8 0.344443 0.933938 0.915790
O O1 0.169769 0.798512 0.706458
O O2 0.161559 0.488094 0.380742
O O3 0.408128 0.038742 0.531959
O O4 0.270243 0.804082 0.755283
O O5 0.656237 0.472469 0.395589
O O6 0.403609 0.972170 0.209747
O O7 0.565094 0.072314 0.217552
O O8 0.334023 0.452489 0.800377
O O9 0.092974 0.022772 0.640188
O O10 0.194851 0.464732 0.951259
O O11 0.500000 0.500000 0.500000
O O12 0.667997 0.795436 0.314291
O O13 0.447981 0.246514 0.089534
O O14 0.837721 0.289560 0.628558
O O15 0.759293 0.226508 0.945671
O O16 0.930621 0.165800 0.288776
O O17 0.000000 0.000000 0.000000
#
# Coordination Sequence:
#
# PCOD9057016 Si02
#       8
#     2   2   2   2   2   2   2   2
#     4  11  24  39  58  94 128 160 191 254 314 344
#     4  10  18  37  62  91 117 163 202 239 291 367
#     4  10  19  35  64  89 113 157 215 247 278 352
#     4  11  18  33  60  93 118 155 209 250 288 352
#     4  10  17  36  64  92 114 162 209 244 289 363
#     4  10  22  37  62  85 119 164 209 238 294 372
#     4  11  24  41  65  88 120 158 208 248 296 366
#     4  11  20  34  61  94 129 152 197 256 306 347
#
# _framework density 20.365788999999999
#
# number of rings (size 3 to 8) (size 9 to 14) (size 15 to 20)
#    0.000    1.500    3.750    3.750    1.750    0.500 
#    0.000    3.125    2.750    0.000    0.000    0.000 
#    0.000    0.000    0.000    0.000    0.000    0.000 
#
# Total GULP energy -89267.071115 kJ/mol
# GULP energy per Si atom -5579.191945 kJ/mol
# Density = 2.031944 g / cm^3
# Si number density = 20.365789 Si / 1000 Ang^3
#
#
#
# Elastic Constant Matrix: (Units=GPa)
#
#
# Indices 1 2 3 4 5 6 
#
# 1 110.8386 37.9239 61.6974 -3.8370 4.1002 -18.0612
# 2 37.9239 112.9405 28.4984 11.8826 0.3219 -26.9653
# 3 61.6974 28.4984 75.9042 5.2760 10.3542 -6.4462
# 4 -3.8370 11.8826 5.2760 26.1560 -6.9667 -6.4542
# 5 4.1002 0.3219 10.3542 -6.9667 37.7120 -6.2969
# 6 -18.0612 -26.9653 -6.4462 -6.4542 -6.2969 30.2635
#
#
#
# Elastic Compliance Matrix: (Units=1/GPa)
#
#
# Indices 1 2 3 4 5 6 
#
# 1 0.021350 -0.001146 -0.017662 0.011947 0.006733 0.011908
# 2 -0.001146 0.012601 -0.003090 -0.002288 0.002084 0.009831
# 3 -0.017662 -0.003090 0.030045 -0.013033 -0.010697 -0.011899
# 4 0.011947 -0.002288 -0.013033 0.051561 0.014552 0.016339
# 5 0.006733 0.002084 -0.010697 0.014552 0.033681 0.013708
# 6 0.011908 0.009831 -0.011899 0.016339 0.013708 0.052712
#
#
# Mechanical properties :
#
#
# Convention : Reuss Voigt Hill
#
# Bulk Modulus (GPa) = 49.50144 61.76917 55.63531
# Shear Modulus (GPa) = 19.80368 30.26386 25.03377
#
# Velocity S-wave (km/s) = 3.12171 3.85907 3.50981
# Velocity P-wave (km/s) = 6.11166 7.08888 6.61833
#
# Compressibility (1/GPa) = 0.02020143
#
# Stress axis : x y z
#
# Youngs Moduli (GPa) = 46.83814 79.36056 33.28325
#
# Poissons Ratio (x) = 0.09092 0.58783
# Poissons Ratio (y) = 0.05366 0.10285
# Poissons Ratio (z) = 0.82723 0.24524
#
# Static dielectric constant tensor:
#      x y z
#    x 1.712140 0.016560 -0.037050 
#    y 0.016560 1.857170 -0.030750 
#    z -0.037050 -0.030750 1.705480 
# 
# From -- ./inp_files/346357.got.cif
#   From: 2010.05.17/outbox.cif.g08.bks.cpg/sg2_174_cif.got.tgz:346357.got - 2010.06.03 11:33:40.
