data_PCOD9057090
_publ_section_title
;
Structure prediction by ZEFSAII (Michael W. Deem and Ramdas Pophale) SiO2 
 PCOD9057090
Probable space group: P -1
;
_chemical_formula_sum "Si O2"
_cell_formula_units_Z 16
_cell_length_a 15.845256
_cell_length_b 12.054122
_cell_length_c 8.885764
_cell_angle_alpha 51.199100
_cell_angle_beta 139.727096
_cell_angle_gamma 107.281572
_cell_volume 797.903232
_symmetry_space_group_name_H-M "P -1"
_symmetry_group_IT_number 2
_symmetry_cell_setting 'triclinic'
loop_
_space_group_symop_operation_xyz
x,y,z
-x,-y,-z
loop_
_atom_site_type_symbol
_atom_site_label
_atom_site_fract_x
_atom_site_fract_y
_atom_site_fract_z
Si Si1 0.860180 0.261972 0.383949
Si Si2 0.550402 0.342517 0.284496
Si Si3 0.851634 0.159908 0.808142
Si Si4 0.528437 0.907872 0.766855
Si Si5 0.623566 0.876662 0.364179
Si Si6 0.121442 0.049053 0.471963
Si Si7 0.598431 0.564057 0.681746
Si Si8 0.844725 0.875763 0.207245
O O1 0.865574 0.205058 0.614809
O O2 0.014413 0.258036 0.545804
O O3 0.833899 0.127811 0.366184
O O4 0.737904 0.422238 0.042503
O O5 0.715177 0.287022 0.580168
O O6 0.516006 0.234175 0.208124
O O7 0.477248 0.358814 0.331996
O O8 0.500000 0.500000 0.000000
O O9 0.984988 0.137225 0.112388
O O10 0.823717 0.003050 0.939363
O O11 0.500000 0.000000 0.500000
O O12 0.418574 0.033772 0.614002
O O13 0.697213 0.857076 0.061408
O O14 0.765232 0.882241 0.487134
O O15 0.623425 0.705610 0.512323
O O16 0.500000 0.000000 0.000000
O O17 0.112585 0.066579 0.625293
O O18 0.500000 0.500000 0.500000
#
# Coordination Sequence:
#
# PCOD9057090 Si02
#       8
#     2   2   2   2   2   2   2   2
#     4  11  24  42  66 102 135 178 221 278 342 394
#     4  12  26  45  68 103 134 176 225 277 347 391
#     4  11  22  41  69  99 134 178 224 276 329 404
#     4  12  24  43  73  94 134 179 230 282 319 403
#     4  12  25  46  68 102 132 177 232 272 337 398
#     4  11  24  41  71  97 136 180 227 276 326 405
#     4  12  28  44  69 100 141 177 218 286 341 400
#     4  11  23  42  68 102 132 179 230 272 332 397
#
# _framework density 20.052555999999999
#
# number of rings (size 3 to 8) (size 9 to 14) (size 15 to 20)
#    0.000    0.500    5.000    4.500    7.000    0.000 
#    2.250    1.875    0.000    0.000    0.000    0.000 
#    0.000    0.000    0.000    0.000    0.000    0.000 
#
# Total GULP energy -89185.893979 kJ/mol
# GULP energy per Si atom -5574.118374 kJ/mol
# Density = 2.000692 g / cm^3
# Si number density = 20.052556 Si / 1000 Ang^3
#
#
#
# Elastic Constant Matrix: (Units=GPa)
#
#
# Indices 1 2 3 4 5 6 
#
# 1 98.6204 25.0159 41.3873 -2.2430 7.4292 -2.0484
# 2 25.0159 101.1662 49.5472 -8.0036 0.3968 12.2932
# 3 41.3873 49.5472 140.4017 -10.6723 9.5806 1.6892
# 4 -2.2430 -8.0036 -10.6723 34.6162 0.2067 -1.2931
# 5 7.4292 0.3968 9.5806 0.2067 40.2184 3.8958
# 6 -2.0484 12.2932 1.6892 -1.2931 3.8958 37.5584
#
#
#
# Elastic Compliance Matrix: (Units=1/GPa)
#
#
# Indices 1 2 3 4 5 6 
#
# 1 0.011923 -0.001777 -0.002827 -0.000443 -0.001656 0.001515
# 2 -0.001777 0.012895 -0.003970 0.001475 0.001551 -0.004249
# 3 -0.002827 -0.003970 0.009615 0.001911 -0.001833 0.000969
# 4 -0.000443 0.001475 0.001911 0.029811 -0.000589 0.000495
# 5 -0.001656 0.001551 -0.001833 -0.000589 0.025907 -0.003223
# 6 0.001515 -0.004249 0.000969 0.000495 -0.003223 0.028406
#
#
# Mechanical properties :
#
#
# Convention : Reuss Voigt Hill
#
# Bulk Modulus (GPa) = 57.84465 63.56546 60.70506
# Shear Modulus (GPa) = 35.34433 37.42781 36.38607
#
# Velocity S-wave (km/s) = 4.20287 4.32497 4.26436
# Velocity P-wave (km/s) = 7.24302 7.53052 7.38817
#
# Compressibility (1/GPa) = 0.01728768
#
# Stress axis : x y z
#
# Youngs Moduli (GPa) = 83.87232 77.54908 104.00324
#
# Poissons Ratio (x) = 0.13777 0.29397
# Poissons Ratio (y) = 0.14901 0.41284
# Poissons Ratio (z) = 0.23707 0.30783
#
# Static dielectric constant tensor:
#      x y z
#    x 1.764350 0.005820 0.057650 
#    y 0.005820 1.684910 0.016040 
#    z 0.057650 0.016040 1.780520 
# 
# From -- ./inp_files/306620.got.cif
#   From: 2010.05.17/outbox.cif.g08.bks.cpg/sg2_154_cif.got.tgz:306620.got - 2010.06.03 11:33:40.
