data_PCOD9057564
_publ_section_title
;
Structure prediction by ZEFSAII (Michael W. Deem and Ramdas Pophale) SiO2 
 PCOD9057564
Probable space group: P -1
;
_chemical_formula_sum "Si O2"
_cell_formula_units_Z 12
_cell_length_a 11.772007
_cell_length_b 9.986862
_cell_length_c 9.362302
_cell_angle_alpha 135.217842
_cell_angle_beta 127.682085
_cell_angle_gamma 81.862244
_cell_volume 522.485245
_symmetry_space_group_name_H-M "P -1"
_symmetry_group_IT_number 2
_symmetry_cell_setting 'triclinic'
loop_
_space_group_symop_operation_xyz
x,y,z
-x,-y,-z
loop_
_atom_site_type_symbol
_atom_site_label
_atom_site_fract_x
_atom_site_fract_y
_atom_site_fract_z
Si Si1 0.680037 0.616947 0.803809
Si Si2 0.832236 0.936643 0.907018
Si Si3 0.166847 0.087558 0.602651
Si Si4 0.304711 0.793276 0.861292
Si Si5 0.675722 0.611457 0.302609
Si Si6 0.308122 0.800801 0.530216
O O1 0.500000 0.500000 0.500000
O O2 0.808821 0.793127 0.921425
O O3 0.721343 0.428548 0.727644
O O4 0.685803 0.749816 0.049050
O O5 0.685298 0.770266 0.558276
O O6 0.812406 0.139333 0.093981
O O7 0.000000 0.000000 0.000000
O O8 0.185053 0.231909 0.588923
O O9 0.199415 0.890958 0.443150
O O10 0.000000 0.000000 0.500000
O O11 0.494985 0.007031 0.186168
O O12 0.294529 0.575520 0.751488
O O13 0.268036 0.766396 0.643182
O O14 0.500000 0.500000 0.000000
#
# Coordination Sequence:
#
# PCOD9057564 Si02
#       6
#     2   2   2   2   2   2
#     4  12  22  44  76  98 128 191 237 264 328 429
#     4  12  26  43  70 105 139 175 228 286 339 400
#     4  12  27  45  67 104 147 172 219 296 347 387
#     4  11  23  43  73 101 133 182 236 274 331 414
#     4  12  26  44  69 106 139 176 225 289 342 394
#     4  11  22  42  75 100 129 186 237 270 329 419
#
# _framework density 22.967155999999999
#
# number of rings (size 3 to 8) (size 9 to 14) (size 15 to 20)
#    0.000    0.333    6.667    3.000    0.000    4.667 
#    0.000    0.000    0.000    0.000    0.000    0.000 
#    0.000    0.000    0.000    0.000    0.000    0.000 
#
# Total GULP energy -67254.203332 kJ/mol
# GULP energy per Si atom -5604.516944 kJ/mol
# Density = 2.291488 g / cm^3
# Si number density = 22.967156 Si / 1000 Ang^3
#
#
#
# Elastic Constant Matrix: (Units=GPa)
#
#
# Indices 1 2 3 4 5 6 
#
# 1 122.2168 50.8791 1.9515 12.0113 -1.0149 0.2275
# 2 50.8791 155.9238 13.5761 25.7037 -6.8670 7.6351
# 3 1.9515 13.5761 50.5382 -3.6342 -9.1521 -2.4372
# 4 12.0113 25.7037 -3.6342 30.6645 -2.3896 -7.7940
# 5 -1.0149 -6.8670 -9.1521 -2.3896 32.1893 4.2963
# 6 0.2275 7.6351 -2.4372 -7.7940 4.2963 51.6692
#
#
#
# Elastic Compliance Matrix: (Units=1/GPa)
#
#
# Indices 1 2 3 4 5 6 
#
# 1 0.009525 -0.002970 0.000291 -0.001168 -0.000373 0.000266
# 2 -0.002970 0.008997 -0.002803 -0.007311 0.000836 -0.002621
# 3 0.000291 -0.002803 0.022097 0.005780 0.005878 0.001838
# 4 -0.001168 -0.007311 0.005780 0.041959 0.002159 0.007508
# 5 -0.000373 0.000836 0.005878 0.002159 0.033370 -0.002294
# 6 0.000266 -0.002621 0.001838 0.007508 -0.002294 0.021150
#
#
# Mechanical properties :
#
#
# Convention : Reuss Voigt Hill
#
# Bulk Modulus (GPa) = 33.72007 51.27690 42.49848
# Shear Modulus (GPa) = 31.65600 40.38940 36.02270
#
# Velocity S-wave (km/s) = 3.71660 4.19808 3.96466
# Velocity P-wave (km/s) = 5.75597 6.77297 6.28508
#
# Compressibility (1/GPa) = 0.02965593
#
# Stress axis : x y z
#
# Youngs Moduli (GPa) = 104.98323 111.14674 45.25424
#
# Poissons Ratio (x) = 0.33015 -0.01319
# Poissons Ratio (y) = 0.31184 0.12685
# Poissons Ratio (z) = -0.03060 0.31154
#
# Static dielectric constant tensor:
#      x y z
#    x 1.837050 0.014990 0.053100 
#    y 0.014990 1.820750 -0.004670 
#    z 0.053100 -0.004670 1.948950 
# 
# From -- ./inp_files/156372.got.cif
#   From: 2010.05.17/outbox.cif.g08.bks.cpg/sg2_79_cif.got.tgz:156372.got - 2010.06.03 11:33:40.
