data_PCOD9057112
_publ_section_title
;
Structure prediction by ZEFSAII (Michael W. Deem and Ramdas Pophale) SiO2 
 PCOD9057112
Probable space group: P -1
;
_chemical_formula_sum "Si O2"
_cell_formula_units_Z 16
_cell_length_a 5.713391
_cell_length_b 11.475423
_cell_length_c 10.085110
_cell_angle_alpha 66.945669
_cell_angle_beta 88.551232
_cell_angle_gamma 90.686795
_cell_volume 608.040487
_symmetry_space_group_name_H-M "P -1"
_symmetry_group_IT_number 2
_symmetry_cell_setting 'triclinic'
loop_
_space_group_symop_operation_xyz
x,y,z
-x,-y,-z
loop_
_atom_site_type_symbol
_atom_site_label
_atom_site_fract_x
_atom_site_fract_y
_atom_site_fract_z
Si Si1 0.372543 0.377955 0.625072
Si Si2 0.430872 0.121447 0.092375
Si Si3 0.922119 0.552718 0.145503
Si Si4 0.063397 0.828533 0.053292
Si Si5 0.354900 0.674787 0.831196
Si Si6 0.742266 0.649010 0.640413
Si Si7 0.287080 0.850334 0.305918
Si Si8 0.072039 0.858250 0.587211
O O1 0.500000 0.500000 0.500000
O O2 0.251399 0.405548 0.752088
O O3 0.207076 0.344929 0.518593
O O4 0.542129 0.260659 0.691241
O O5 0.460692 0.261660 0.097447
O O6 0.401635 0.992050 0.235420
O O7 0.681292 0.113133 0.017610
O O8 0.183620 0.121038 0.017131
O O9 0.056308 0.685897 0.057419
O O10 0.104873 0.459674 0.251723
O O11 0.784644 0.459909 0.084182
O O12 0.075603 0.839053 0.207822
O O13 0.486230 0.637287 0.709494
O O14 0.206404 0.798947 0.736655
O O15 0.828565 0.783548 0.631744
O O16 0.214400 0.824123 0.468804
O O17 0.000000 0.000000 0.500000
#
# Coordination Sequence:
#
# PCOD9057112 Si02
#       8
#     2   2   2   2   2   2   2   2
#     4  12  21  42  74 114 154 188 243 312 392 467
#     4  12  31  51  78 109 156 207 272 317 375 455
#     4  11  25  44  76 108 151 202 256 316 386 452
#     4  12  29  53  77 111 149 213 270 322 371 444
#     4  11  26  48  73 114 155 198 249 319 390 472
#     4  11  22  41  70 112 151 190 245 307 394 466
#     4  12  26  49  80 111 153 200 253 324 386 454
#     4  11  25  43  75 113 152 195 240 310 396 476
#
# _framework density 26.314035000000001
#
# number of rings (size 3 to 8) (size 9 to 14) (size 15 to 20)
#    0.000    0.500    2.500    4.875    8.750    3.000 
#    0.000    0.000    0.000    0.000    0.000    0.000 
#    0.000    0.000    0.000    0.000    0.000    0.000 
#
# Total GULP energy -89466.517963 kJ/mol
# GULP energy per Si atom -5591.657373 kJ/mol
# Density = 2.625414 g / cm^3
# Si number density = 26.314035 Si / 1000 Ang^3
#
#
#
# Elastic Constant Matrix: (Units=GPa)
#
#
# Indices 1 2 3 4 5 6 
#
# 1 98.1715 46.9952 40.5379 -19.4348 -4.0075 15.9539
# 2 46.9952 126.5590 22.3593 -26.9410 19.4181 -15.2918
# 3 40.5379 22.3593 89.1872 -10.9298 5.2405 15.3918
# 4 -19.4348 -26.9410 -10.9298 58.4698 0.0068 -4.1763
# 5 -4.0075 19.4181 5.2405 0.0068 38.4218 -1.7044
# 6 15.9539 -15.2918 15.3918 -4.1763 -1.7044 38.7336
#
#
#
# Elastic Compliance Matrix: (Units=1/GPa)
#
#
# Indices 1 2 3 4 5 6 
#
# 1 0.017341 -0.007152 -0.004991 0.000990 0.005766 -0.007623
# 2 -0.007152 0.013833 -0.000774 0.004487 -0.007238 0.008880
# 3 -0.004991 -0.000774 0.014568 0.000415 -0.002298 -0.004095
# 4 0.000990 0.004487 0.000415 0.019809 -0.002081 0.003243
# 5 0.005766 -0.007238 -0.002298 -0.002081 0.030458 -0.003203
# 6 -0.007623 0.008880 -0.004095 0.003243 -0.003203 0.034299
#
#
# Mechanical properties :
#
#
# Convention : Reuss Voigt Hill
#
# Bulk Modulus (GPa) = 50.23492 59.30029 54.76760
# Shear Modulus (GPa) = 30.71666 40.72673 35.72169
#
# Velocity S-wave (km/s) = 3.42030 3.93837 3.68844
# Velocity P-wave (km/s) = 5.89321 6.57766 6.24482
#
# Compressibility (1/GPa) = 0.01990647
#
# Stress axis : x y z
#
# Youngs Moduli (GPa) = 57.66590 72.29198 68.64551
#
# Poissons Ratio (x) = 0.51707 0.34260
# Poissons Ratio (y) = 0.41245 0.05315
# Poissons Ratio (z) = 0.28780 0.05597
#
# Static dielectric constant tensor:
#      x y z
#    x 2.032910 -0.059520 -0.163690 
#    y -0.059520 2.063080 -0.033360 
#    z -0.163690 -0.033360 2.101260 
# 
# From -- ./inp_files/363936.got.cif
#   From: 2010.05.17/outbox.cif.g08.bks.cpg/sg2_182_cif.got.tgz:363936.got - 2010.06.03 11:33:40.
