data_PCOD9057200
_publ_section_title
;
Structure prediction by ZEFSAII (Michael W. Deem and Ramdas Pophale) SiO2 
 PCOD9057200
Probable space group: P -1
;
_chemical_formula_sum "Si O2"
_cell_formula_units_Z 14
_cell_length_a 6.433681
_cell_length_b 12.184568
_cell_length_c 15.055666
_cell_angle_alpha 46.054427
_cell_angle_beta 137.102028
_cell_angle_gamma 117.756698
_cell_volume 576.238638
_symmetry_space_group_name_H-M "P -1"
_symmetry_group_IT_number 2
_symmetry_cell_setting 'triclinic'
loop_
_space_group_symop_operation_xyz
x,y,z
-x,-y,-z
loop_
_atom_site_type_symbol
_atom_site_label
_atom_site_fract_x
_atom_site_fract_y
_atom_site_fract_z
Si Si1 0.576526 0.021978 0.114305
Si Si2 0.486836 0.205534 0.482298
Si Si3 0.415436 0.278042 0.605960
Si Si4 0.530942 0.530873 0.310695
Si Si5 0.813098 0.584002 0.050935
Si Si6 0.787895 0.864694 0.755560
Si Si7 0.881053 0.724748 0.175923
O O1 0.851398 0.127379 0.145749
O O2 0.664996 0.866952 0.280719
O O3 0.276363 0.117908 0.001302
O O4 0.500000 0.000000 0.000000
O O5 0.279878 0.262641 0.472418
O O6 0.669645 0.356345 0.437856
O O7 0.327116 0.178920 0.353038
O O8 0.653558 0.036015 0.645865
O O9 0.411065 0.417546 0.597488
O O10 0.774038 0.250495 0.708324
O O11 0.692186 0.654279 0.234492
O O12 0.171782 0.530711 0.166969
O O13 0.732188 0.737108 0.882053
O O14 0.500000 0.500000 0.000000
O O15 0.872529 0.607845 0.159445
#
# Coordination Sequence:
#
# PCOD9057200 Si02
#       7
#     2   2   2   2   2   2   2
#     4  12  21  42  73 101 137 176 233 291 337 398
#     4  11  26  46  67  99 147 188 223 278 348 422
#     4  11  24  43  68 105 137 183 233 280 346 413
#     4  11  24  46  71 105 136 180 234 289 344 399
#     4  11  24  44  73 104 134 176 235 287 340 407
#     4  11  25  47  69 103 140 187 230 276 351 414
#     4  11  22  41  73 101 134 175 233 293 339 393
#
# _framework density 24.295490000000001
#
# number of rings (size 3 to 8) (size 9 to 14) (size 15 to 20)
#    0.000    0.857    2.857    4.286    2.000    2.286 
#   10.286    0.000    0.000    0.000    0.000    0.000 
#    0.000    0.000    0.000    0.000    0.000    0.000 
#
# Total GULP energy -78151.151585 kJ/mol
# GULP energy per Si atom -5582.225113 kJ/mol
# Density = 2.424019 g / cm^3
# Si number density = 24.295490 Si / 1000 Ang^3
#
#
#
# Elastic Constant Matrix: (Units=GPa)
#
#
# Indices 1 2 3 4 5 6 
#
# 1 72.4484 47.4424 39.7783 0.9452 -12.2264 13.1185
# 2 47.4424 138.0372 43.5818 -12.2136 -7.7315 0.1151
# 3 39.7783 43.5818 95.4316 -17.7358 -24.5391 1.0695
# 4 0.9452 -12.2136 -17.7358 43.7400 -3.1382 -6.5989
# 5 -12.2264 -7.7315 -24.5391 -3.1382 40.8419 -0.5422
# 6 13.1185 0.1151 1.0695 -6.5989 -0.5422 51.1642
#
#
#
# Elastic Compliance Matrix: (Units=1/GPa)
#
#
# Indices 1 2 3 4 5 6 
#
# 1 0.023600 -0.006109 -0.008046 -0.006453 0.000490 -0.006696
# 2 -0.006109 0.010093 -0.001842 0.002430 -0.000813 0.001887
# 3 -0.008046 -0.001842 0.018492 0.008233 0.009024 0.002838
# 4 -0.006453 0.002430 0.008233 0.028209 0.005711 0.005176
# 5 0.000490 -0.000813 0.009024 0.005711 0.030348 0.000746
# 6 -0.006696 0.001887 0.002838 0.005176 0.000746 0.021874
#
#
# Mechanical properties :
#
#
# Convention : Reuss Voigt Hill
#
# Bulk Modulus (GPa) = 49.52179 63.05801 56.28990
# Shear Modulus (GPa) = 29.18165 38.82354 34.00260
#
# Velocity S-wave (km/s) = 3.46947 4.00180 3.74511
# Velocity P-wave (km/s) = 6.03962 6.88212 6.47459
#
# Compressibility (1/GPa) = 0.02019313
#
# Stress axis : x y z
#
# Youngs Moduli (GPa) = 42.37234 99.07456 54.07723
#
# Poissons Ratio (x) = 0.60525 0.43509
# Poissons Ratio (y) = 0.25885 0.09959
# Poissons Ratio (z) = 0.34092 0.18246
#
# Static dielectric constant tensor:
#      x y z
#    x 2.005340 -0.010190 0.081260 
#    y -0.010190 1.908420 0.002400 
#    z 0.081260 0.002400 2.025020 
# 
# From -- ./inp_files/427512.got.cif
#   From: 2010.05.17/outbox.cif.g08.bks.cpg/sg2_214_cif.got.tgz:427512.got - 2010.06.03 11:33:40.
