data_PCOD9057541
_publ_section_title
;
Structure prediction by ZEFSAII (Michael W. Deem and Ramdas Pophale) SiO2 
 PCOD9057541
Probable space group: P -1
;
_chemical_formula_sum "Si O2"
_cell_formula_units_Z 12
_cell_length_a 9.023348
_cell_length_b 11.785400
_cell_length_c 9.024303
_cell_angle_alpha 55.483798
_cell_angle_beta 49.439945
_cell_angle_gamma 89.358478
_cell_volume 493.303754
_symmetry_space_group_name_H-M "P -1"
_symmetry_group_IT_number 2
_symmetry_cell_setting 'triclinic'
loop_
_space_group_symop_operation_xyz
x,y,z
-x,-y,-z
loop_
_atom_site_type_symbol
_atom_site_label
_atom_site_fract_x
_atom_site_fract_y
_atom_site_fract_z
Si Si1 0.234943 0.835488 0.297901
Si Si2 0.453980 0.601038 0.630565
Si Si3 0.188856 0.496443 0.592175
Si Si4 0.342253 0.745433 0.854077
Si Si5 0.859997 0.949228 0.977279
Si Si6 0.784787 0.072580 0.434216
O O1 0.229643 0.671858 0.399005
O O2 0.147867 0.841500 0.513967
O O3 0.118719 0.886858 0.214283
O O4 0.500000 0.000000 0.000000
O O5 0.229703 0.492627 0.746980
O O6 0.619738 0.532598 0.576926
O O7 0.391863 0.627288 0.815285
O O8 0.607860 0.780997 0.309943
O O9 0.916977 0.359251 0.828346
O O10 0.311729 0.845861 0.669030
O O11 0.561811 0.875592 0.719684
O O12 0.990586 0.908572 0.801550
O O13 0.000000 0.000000 0.000000
#
# Coordination Sequence:
#
# PCOD9057541 Si02
#       6
#     2   2   2   2   2   2
#     4  12  26  46  69 109 143 185 243 296 352 420
#     4  11  22  42  73 105 139 190 237 287 357 425
#     4  11  24  42  72 105 144 187 237 296 349 425
#     4  11  22  42  74 105 142 189 238 285 360 425
#     4  12  24  47  75 103 142 191 240 292 361 424
#     4  11  24  43  73 107 143 187 238 294 349 430
#
# _framework density 24.325780999999999
#
# number of rings (size 3 to 8) (size 9 to 14) (size 15 to 20)
#    0.000    0.667    6.667    1.000    2.333    0.000 
#    3.000    4.167    0.000    0.000    0.000    0.000 
#    0.000    0.000    0.000    0.000    0.000    0.000 
#
# Total GULP energy -67209.456573 kJ/mol
# GULP energy per Si atom -5600.788048 kJ/mol
# Density = 2.427041 g / cm^3
# Si number density = 24.325781 Si / 1000 Ang^3
#
#
#
# Elastic Constant Matrix: (Units=GPa)
#
#
# Indices 1 2 3 4 5 6 
#
# 1 97.7891 45.5531 24.6231 -2.9185 18.7049 -15.7920
# 2 45.5531 136.6333 28.8999 4.5307 13.9922 -33.7541
# 3 24.6231 28.8999 64.5014 2.2986 -6.2515 -5.2698
# 4 -2.9185 4.5307 2.2986 31.9619 -2.0335 -11.0685
# 5 18.7049 13.9922 -6.2515 -2.0335 36.8720 -8.4644
# 6 -15.7920 -33.7541 -5.2698 -11.0685 -8.4644 38.4850
#
#
#
# Elastic Compliance Matrix: (Units=1/GPa)
#
#
# Indices 1 2 3 4 5 6 
#
# 1 0.014323 -0.002639 -0.004819 0.002367 -0.006454 0.002164
# 2 -0.002639 0.011062 -0.003471 0.001165 -0.001513 0.008146
# 3 -0.004819 -0.003471 0.019492 -0.001364 0.006700 -0.001272
# 4 0.002367 0.001165 -0.001364 0.036085 0.003068 0.012860
# 5 -0.006454 -0.001513 0.006700 0.003068 0.033464 0.005184
# 6 0.002164 0.008146 -0.001272 0.012860 0.005184 0.038682
#
#
# Mechanical properties :
#
#
# Convention : Reuss Voigt Hill
#
# Bulk Modulus (GPa) = 43.44141 55.23067 49.33604
# Shear Modulus (GPa) = 27.37630 34.78696 31.08163
#
# Velocity S-wave (km/s) = 3.35834 3.78570 3.57840
# Velocity P-wave (km/s) = 5.73889 6.47013 6.11545
#
# Compressibility (1/GPa) = 0.02301951
#
# Stress axis : x y z
#
# Youngs Moduli (GPa) = 69.81539 90.40224 51.30200
#
# Poissons Ratio (x) = 0.23858 0.24720
# Poissons Ratio (y) = 0.18425 0.17809
# Poissons Ratio (z) = 0.33641 0.31382
#
# Static dielectric constant tensor:
#      x y z
#    x 2.216250 -0.113220 0.057940 
#    y -0.113220 2.034560 -0.007620 
#    z 0.057940 -0.007620 1.834320 
# 
# From -- ./inp_files/166854.got.cif
#   From: 2010.05.17/outbox.cif.g08.bks.cpg/sg2_84_cif.got.tgz:166854.got - 2010.06.03 11:33:40.
