data_PCOD9057297
_publ_section_title
;
Structure prediction by ZEFSAII (Michael W. Deem and Ramdas Pophale) SiO2 
 PCOD9057297
Probable space group: P -1
;
_chemical_formula_sum "Si O2"
_cell_formula_units_Z 16
_cell_length_a 11.285615
_cell_length_b 10.774518
_cell_length_c 6.667135
_cell_angle_alpha 83.211522
_cell_angle_beta 92.591205
_cell_angle_gamma 120.633295
_cell_volume 692.569620
_symmetry_space_group_name_H-M "P -1"
_symmetry_group_IT_number 2
_symmetry_cell_setting 'triclinic'
loop_
_space_group_symop_operation_xyz
x,y,z
-x,-y,-z
loop_
_atom_site_type_symbol
_atom_site_label
_atom_site_fract_x
_atom_site_fract_y
_atom_site_fract_z
Si Si1 0.982735 0.136496 0.924443
Si Si2 0.586122 0.115604 0.199503
Si Si3 0.296596 0.354730 0.802351
Si Si4 0.468455 0.645653 0.024384
Si Si5 0.715445 0.096211 0.825334
Si Si6 0.285211 0.469437 0.392615
Si Si7 0.013570 0.380651 0.160536
Si Si8 0.199352 0.673976 0.514193
O O1 0.951533 0.225463 0.075414
O O2 0.131453 0.263748 0.833426
O O3 0.842498 0.072159 0.795882
O O4 0.000000 0.000000 0.000000
O O5 0.688600 0.194927 0.370771
O O6 0.431542 0.001550 0.274318
O O7 0.574104 0.238737 0.053551
O O8 0.658209 0.063087 0.055047
O O9 0.366968 0.280553 0.950712
O O10 0.311387 0.366643 0.558999
O O11 0.389782 0.515506 0.881208
O O12 0.415823 0.577199 0.252561
O O13 0.783151 0.262314 0.720101
O O14 0.164241 0.411622 0.229477
O O15 0.239554 0.551820 0.529378
O O16 0.939452 0.374802 0.365563
O O17 0.000000 0.500000 0.000000
#
# Coordination Sequence:
#
# PCOD9057297 Si02
#       8
#     2   2   2   2   2   2   2   2
#     4  12  25  47  69  98 138 190 224 271 348 407
#     4  11  22  42  66  98 132 175 229 285 340 397
#     4  11  24  42  67  92 138 181 222 279 340 408
#     4  11  22  42  66  98 132 175 229 285 340 397
#     4  11  24  42  67  92 138 181 222 279 340 408
#     4  12  22  40  67 103 133 173 230 284 346 400
#     4  12  24  43  71 103 141 182 230 287 337 404
#     4  12  22  40  67 103 133 173 230 284 346 400
#
# _framework density 23.102368999999999
#
# number of rings (size 3 to 8) (size 9 to 14) (size 15 to 20)
#    0.000    0.500    5.000    4.875    0.000    0.000 
#    0.000    2.500    0.000    0.000    0.000    0.000 
#    0.000    0.000    0.000    0.000    0.000    0.000 
#
# Total GULP energy -89183.112547 kJ/mol
# GULP energy per Si atom -5573.944534 kJ/mol
# Density = 2.304979 g / cm^3
# Si number density = 23.102369 Si / 1000 Ang^3
#
#
#
# Elastic Constant Matrix: (Units=GPa)
#
#
# Indices 1 2 3 4 5 6 
#
# 1 112.5955 13.8509 17.0075 -12.6457 13.1809 30.1863
# 2 13.8509 62.7277 18.6845 -4.6020 -0.5902 3.9223
# 3 17.0075 18.6845 78.9766 -12.1627 7.4163 6.8217
# 4 -12.6457 -4.6020 -12.1627 33.3229 1.9707 -0.3889
# 5 13.1809 -0.5902 7.4163 1.9707 34.4690 3.3888
# 6 30.1863 3.9223 6.8217 -0.3889 3.3888 46.0089
#
#
#
# Elastic Compliance Matrix: (Units=1/GPa)
#
#
# Indices 1 2 3 4 5 6 
#
# 1 0.012121 -0.001786 -0.000500 0.004325 -0.004079 -0.007389
# 2 -0.001786 0.017525 -0.003909 0.000211 0.001800 0.000127
# 3 -0.000500 -0.003909 0.014856 0.004869 -0.003226 -0.001263
# 4 0.004325 0.000211 0.004869 0.033679 -0.004331 -0.002974
# 5 -0.004079 0.001800 -0.003226 -0.004331 0.031480 0.000646
# 6 -0.007389 0.000127 -0.001263 -0.002974 0.000646 0.026687
#
#
# Mechanical properties :
#
#
# Convention : Reuss Voigt Hill
#
# Bulk Modulus (GPa) = 31.14170 39.26506 35.20338
# Shear Modulus (GPa) = 31.35917 36.41062 33.88489
#
# Velocity S-wave (km/s) = 3.68829 3.97426 3.83394
# Velocity P-wave (km/s) = 5.62558 6.17193 5.90507
#
# Compressibility (1/GPa) = 0.03211129
#
# Stress axis : x y z
#
# Youngs Moduli (GPa) = 82.50196 57.06069 67.31124
#
# Poissons Ratio (x) = 0.10194 0.03367
# Poissons Ratio (y) = 0.14738 0.26312
# Poissons Ratio (z) = 0.04127 0.22305
#
# Static dielectric constant tensor:
#      x y z
#    x 1.947430 0.017470 0.014580 
#    y 0.017470 1.911340 0.042130 
#    z 0.014580 0.042130 1.932170 
# 
# From -- ./inp_files/70004.got.cif
#   From: 2010.05.17/outbox.cif.g08.bks.cpg/sg2_36_cif.got.tgz:70004.got - 2010.06.03 11:33:40.
