data_PCOD9057288
_publ_section_title
;
Structure prediction by ZEFSAII (Michael W. Deem and Ramdas Pophale) SiO2 
 PCOD9057288
Probable space group: P -1
;
_chemical_formula_sum "Si O2"
_cell_formula_units_Z 16
_cell_length_a 16.028369
_cell_length_b 15.333275
_cell_length_c 15.168557
_cell_angle_alpha 151.655138
_cell_angle_beta 153.093613
_cell_angle_gamma 28.559778
_cell_volume 721.160683
_symmetry_space_group_name_H-M "P -1"
_symmetry_group_IT_number 2
_symmetry_cell_setting 'triclinic'
loop_
_space_group_symop_operation_xyz
x,y,z
-x,-y,-z
loop_
_atom_site_type_symbol
_atom_site_label
_atom_site_fract_x
_atom_site_fract_y
_atom_site_fract_z
Si Si1 0.642762 0.094225 0.762017
Si Si2 0.671160 0.893289 0.993942
Si Si3 0.935885 0.895819 0.592551
Si Si4 0.616320 0.283146 0.182934
Si Si5 0.401662 0.454802 0.454192
Si Si6 0.695791 0.659671 0.210682
Si Si7 0.055633 0.811923 0.999442
Si Si8 0.037013 0.180664 0.650996
O O1 0.470312 0.290681 0.823914
O O2 0.782677 0.145043 0.870295
O O3 0.500000 0.000000 0.500000
O O4 0.820090 0.939314 0.857753
O O5 0.602390 0.761215 0.747686
O O6 0.851890 0.759969 0.112200
O O7 0.500000 0.000000 0.000000
O O8 0.696392 0.074825 0.130082
O O9 0.804598 0.809910 0.449262
O O10 0.872460 0.898680 0.432136
O O11 0.176201 0.735656 0.683479
O O12 0.924462 0.102984 0.809458
O O13 0.512476 0.483828 0.324108
O O14 0.447039 0.284454 0.959605
O O15 0.500000 0.500000 0.500000
O O16 0.168947 0.622552 0.386234
O O17 0.867232 0.429332 0.154437
O O18 0.000000 0.000000 0.500000
#
# Coordination Sequence:
#
# PCOD9057288 Si02
#       8
#     2   2   2   2   2   2   2   2
#     4  11  24  50  77 110 140 180 228 280 348 430
#     4  12  22  42  65  89 131 183 233 294 341 397
#     4  11  24  45  66 104 142 182 237 288 345 416
#     4  11  25  45  64  98 143 179 240 292 342 413
#     4  11  23  40  62  93 124 179 240 286 350 405
#     4  12  26  45  75 106 143 186 230 281 356 419
#     4  11  26  47  77 105 145 182 223 289 348 419
#     4  11  22  42  66  92 136 181 236 297 335 397
#
# _framework density 22.186457000000001
#
# number of rings (size 3 to 8) (size 9 to 14) (size 15 to 20)
#    0.000    0.750    6.250    1.500    0.000    6.500 
#    0.000    0.000    0.000    0.000    0.000    0.000 
#    0.000    0.000    0.000    0.000    0.000    0.000 
#
# Total GULP energy -89300.781601 kJ/mol
# GULP energy per Si atom -5581.298850 kJ/mol
# Density = 2.213596 g / cm^3
# Si number density = 22.186457 Si / 1000 Ang^3
#
#
#
# Elastic Constant Matrix: (Units=GPa)
#
#
# Indices 1 2 3 4 5 6 
#
# 1 72.2241 13.5516 20.2505 4.0106 -5.9414 -21.7711
# 2 13.5516 66.6729 25.4455 8.3409 -7.7967 -13.2856
# 3 20.2505 25.4455 118.7971 10.1371 -7.6787 -8.2557
# 4 4.0106 8.3409 10.1371 36.1340 -13.1094 -6.1103
# 5 -5.9414 -7.7967 -7.6787 -13.1094 35.5234 3.0298
# 6 -21.7711 -13.2856 -8.2557 -6.1103 3.0298 30.4032
#
#
#
# Elastic Compliance Matrix: (Units=1/GPa)
#
#
# Indices 1 2 3 4 5 6 
#
# 1 0.018379 -0.000362 -0.002184 0.001501 0.002009 0.012511
# 2 -0.000362 0.017919 -0.003085 -0.001392 0.002160 0.006239
# 3 -0.002184 -0.003085 0.009576 -0.001680 0.000467 -0.000696
# 4 0.001501 -0.001392 -0.001680 0.033391 0.011429 0.005582
# 5 0.002009 0.002160 0.000467 0.011429 0.033151 0.001503
# 6 0.012511 0.006239 -0.000696 0.005582 0.001503 0.045360
#
#
# Mechanical properties :
#
#
# Convention : Reuss Voigt Hill
#
# Bulk Modulus (GPa) = 28.89059 41.79881 35.34470
# Shear Modulus (GPa) = 27.68928 33.64190 30.66559
#
# Velocity S-wave (km/s) = 3.53657 3.89823 3.72180
# Velocity P-wave (km/s) = 5.45220 6.25638 5.86808
#
# Compressibility (1/GPa) = 0.03461335
#
# Stress axis : x y z
#
# Youngs Moduli (GPa) = 54.40858 55.80602 104.42860
#
# Poissons Ratio (x) = 0.02019 0.22810
# Poissons Ratio (y) = 0.01969 0.32211
# Poissons Ratio (z) = 0.11884 0.17213
#
# Static dielectric constant tensor:
#      x y z
#    x 2.026710 0.073760 -0.122350 
#    y 0.073760 1.851650 -0.071790 
#    z -0.122350 -0.071790 1.921800 
# 
# From -- ./inp_files/534635.got.cif
#   From: 2010.05.17/outbox.cif.g08.bks.cpg/sg2_268_cif.got.tgz:534635.got - 2010.06.03 11:33:40.
