data_PCOD9057929
_publ_section_title
;
Structure prediction by ZEFSAII (Michael W. Deem and Ramdas Pophale) SiO2 
 PCOD9057929
Probable space group: P -1
;
_chemical_formula_sum "Si O2"
_cell_formula_units_Z 16
_cell_length_a 17.161731
_cell_length_b 20.366234
_cell_length_c 11.825749
_cell_angle_alpha 41.744797
_cell_angle_beta 29.985038
_cell_angle_gamma 21.380301
_cell_volume 710.446811
_symmetry_space_group_name_H-M "P -1"
_symmetry_group_IT_number 2
_symmetry_cell_setting 'triclinic'
loop_
_space_group_symop_operation_xyz
x,y,z
-x,-y,-z
loop_
_atom_site_type_symbol
_atom_site_label
_atom_site_fract_x
_atom_site_fract_y
_atom_site_fract_z
Si Si1 0.886013 0.042060 0.962585
Si Si2 0.216103 0.593790 0.780555
Si Si3 0.171365 0.934123 0.524187
Si Si4 0.761046 0.548855 0.852313
Si Si5 0.253208 0.997207 0.125537
Si Si6 0.087199 0.332889 0.382500
Si Si7 0.177493 0.500637 0.738263
Si Si8 0.139109 0.178064 0.719377
O O1 0.541697 0.260997 0.082813
O O2 0.100297 0.985441 0.678778
O O3 0.916341 0.907243 0.075815
O O4 0.000000 0.000000 0.000000
O O5 0.500000 0.500000 0.500000
O O6 0.070964 0.633707 0.795982
O O7 0.975200 0.793240 0.887507
O O8 0.309537 0.459040 0.924678
O O9 0.466964 0.707883 0.426101
O O10 0.884545 0.029067 0.716498
O O11 0.237399 0.991079 0.288478
O O12 0.935428 0.556599 0.652548
O O13 0.960223 0.356638 0.788319
O O14 0.576988 0.842816 0.866121
O O15 0.047128 0.258116 0.604537
O O16 0.877225 0.447507 0.390016
O O17 0.000000 0.500000 0.000000
O O18 0.500000 0.000000 0.500000
#
# Coordination Sequence:
#
# PCOD9057929 Si02
#       8
#     2   2   2   2   2   2   2   2
#     4  12  29  49  73 108 146 195 246 304 363 431
#     4  12  24  41  73 108 142 187 242 294 368 439
#     4  11  22  45  72 100 146 186 238 293 365 430
#     4  12  25  47  76 102 147 198 244 295 371 426
#     4  11  22  43  75 104 140 191 239 295 358 446
#     4  12  25  47  73 106 148 192 243 303 370 422
#     4  12  25  44  68 109 144 184 234 306 366 427
#     4  12  27  48  76 107 141 195 255 293 357 448
#
# _framework density 22.521037
#
# number of rings (size 3 to 8) (size 9 to 14) (size 15 to 20)
#    0.000    0.250    6.250    2.625    1.750    3.000 
#    2.250    0.000    0.000    0.000    0.000    0.000 
#    0.000    0.000    0.000    0.000    0.000    0.000 
#
# Total GULP energy -89467.735939 kJ/mol
# GULP energy per Si atom -5591.733496 kJ/mol
# Density = 2.246978 g / cm^3
# Si number density = 22.521037 Si / 1000 Ang^3
#
#
#
# Elastic Constant Matrix: (Units=GPa)
#
#
# Indices 1 2 3 4 5 6 
#
# 1 112.8474 43.6959 14.1411 -6.5657 24.1782 -4.6040
# 2 43.6959 152.6563 27.0521 0.1376 12.3202 2.5448
# 3 14.1411 27.0521 69.2073 -2.6698 24.2705 -0.6919
# 4 -6.5657 0.1376 -2.6698 33.2603 -10.0473 14.2260
# 5 24.1782 12.3202 24.2705 -10.0473 37.2656 -9.9367
# 6 -4.6040 2.5448 -0.6919 14.2260 -9.9367 41.0958
#
#
#
# Elastic Compliance Matrix: (Units=1/GPa)
#
#
# Indices 1 2 3 4 5 6 
#
# 1 0.011392 -0.002908 0.001400 0.000325 -0.007364 -0.000413
# 2 -0.002908 0.007815 -0.002791 -0.000337 0.000890 -0.000525
# 3 0.001400 -0.002791 0.020107 -0.001380 -0.014054 -0.002252
# 4 0.000325 -0.000337 -0.001380 0.037060 0.007888 -0.010888
# 5 -0.007364 0.000890 -0.014054 0.007888 0.044437 0.006897
# 6 -0.000413 -0.000525 -0.002252 -0.010888 0.006897 0.029718
#
#
# Mechanical properties :
#
#
# Convention : Reuss Voigt Hill
#
# Bulk Modulus (GPa) = 32.55643 56.05435 44.30539
# Shear Modulus (GPa) = 29.52195 38.97915 34.25055
#
# Velocity S-wave (km/s) = 3.62451 4.16479 3.90401
# Velocity P-wave (km/s) = 5.65716 6.93333 6.32750
#
# Compressibility (1/GPa) = 0.03071590
#
# Stress axis : x y z
#
# Youngs Moduli (GPa) = 87.78123 127.96185 49.73407
#
# Poissons Ratio (x) = 0.37211 -0.06962
# Poissons Ratio (y) = 0.25526 0.13880
# Poissons Ratio (z) = -0.12288 0.35712
#
# Static dielectric constant tensor:
#      x y z
#    x 1.774160 -0.025790 0.064960 
#    y -0.025790 1.839160 -0.016650 
#    z 0.064960 -0.016650 1.823920 
# 
# From -- ./inp_files/467089.got.cif
#   From: 2010.05.17/outbox.cif.g08.bks.cpg/sg2_234_cif.got.tgz:467089.got - 2010.06.03 11:33:40.
