data_PCOD9057186
_publ_section_title
;
Structure prediction by ZEFSAII (Michael W. Deem and Ramdas Pophale) SiO2 
 PCOD9057186
Probable space group: P -1
;
_chemical_formula_sum "Si O2"
_cell_formula_units_Z 16
_cell_length_a 11.850703
_cell_length_b 5.090767
_cell_length_c 12.090890
_cell_angle_alpha 86.087321
_cell_angle_beta 96.522666
_cell_angle_gamma 68.447821
_cell_volume 669.252589
_symmetry_space_group_name_H-M "P -1"
_symmetry_group_IT_number 2
_symmetry_cell_setting 'triclinic'
loop_
_space_group_symop_operation_xyz
x,y,z
-x,-y,-z
loop_
_atom_site_type_symbol
_atom_site_label
_atom_site_fract_x
_atom_site_fract_y
_atom_site_fract_z
Si Si1 0.692222 0.100059 0.804755
Si Si2 0.069776 0.955104 0.624786
Si Si3 0.729638 0.727293 0.040029
Si Si4 0.542712 0.571350 0.116947
Si Si5 0.890132 0.255445 0.920608
Si Si6 0.351982 0.751515 0.668132
Si Si7 0.955188 0.560865 0.224003
Si Si8 0.498817 0.124545 0.617522
O O1 0.572201 0.371387 0.817737
O O2 0.815255 0.161188 0.821098
O O3 0.635865 0.017786 0.690502
O O4 0.704788 0.909772 0.920644
O O5 0.212359 0.873053 0.611717
O O6 0.051945 0.714567 0.708829
O O7 0.028093 0.240516 0.684075
O O8 0.000000 0.000000 0.500000
O O9 0.602732 0.796950 0.087526
O O10 0.830204 0.731824 0.138315
O O11 0.793341 0.412176 0.001527
O O12 0.651161 0.344043 0.203181
O O13 0.500000 0.500000 0.000000
O O14 0.943143 0.468665 0.858970
O O15 0.000000 0.000000 0.000000
O O16 0.428838 0.466880 0.612830
O O17 0.415397 0.979717 0.672687
O O18 0.500000 0.000000 0.500000
#
# Coordination Sequence:
#
# PCOD9057186 Si02
#       8
#     2   2   2   2   2   2   2   2
#     4  11  26  42  72 110 143 195 250 294 370 457
#     4  12  28  52  75 110 143 198 262 307 365 439
#     4  12  24  44  72 103 152 188 245 299 375 445
#     4  11  22  41  72 107 143 189 235 305 368 434
#     4  12  26  46  68 110 157 198 242 302 372 460
#     4  11  25  47  75 107 145 185 246 311 364 436
#     4  12  27  46  77 104 152 200 243 307 375 428
#     4  11  26  50  75 105 148 190 243 307 377 433
#
# _framework density 23.907267000000001
#
# number of rings (size 3 to 8) (size 9 to 14) (size 15 to 20)
#    0.000    0.500    3.750    3.750    7.000    1.000 
#    2.250    0.000    0.000    0.000    0.000    0.000 
#    0.000    0.000    0.000    0.000    0.000    0.000 
#
# Total GULP energy -89382.950876 kJ/mol
# GULP energy per Si atom -5586.434430 kJ/mol
# Density = 2.385285 g / cm^3
# Si number density = 23.907267 Si / 1000 Ang^3
#
#
#
# Elastic Constant Matrix: (Units=GPa)
#
#
# Indices 1 2 3 4 5 6 
#
# 1 125.1190 6.4606 25.7604 -4.2667 24.2772 10.6676
# 2 6.4606 60.8223 -13.6506 10.9156 -1.3839 0.6229
# 3 25.7604 -13.6506 131.5524 20.9238 33.4430 -7.9573
# 4 -4.2667 10.9156 20.9238 40.2286 1.7393 -0.5779
# 5 24.2772 -1.3839 33.4430 1.7393 52.8332 -4.5708
# 6 10.6676 0.6229 -7.9573 -0.5779 -4.5708 30.6647
#
#
#
# Elastic Compliance Matrix: (Units=1/GPa)
#
#
# Indices 1 2 3 4 5 6 
#
# 1 0.009656 -0.001935 -0.001795 0.002586 -0.003809 -0.004305
# 2 -0.001935 0.018734 0.003683 -0.007163 -0.000628 0.001020
# 3 -0.001795 0.003683 0.010953 -0.006611 -0.005584 0.002435
# 4 0.002586 -0.007163 -0.006611 0.030418 0.001665 -0.001648
# 5 -0.003809 -0.000628 -0.005584 0.001665 0.024450 0.003565
# 6 -0.004305 0.001020 0.002435 -0.001648 0.003565 0.035220
#
#
# Mechanical properties :
#
#
# Convention : Reuss Voigt Hill
#
# Bulk Modulus (GPa) = 25.47738 39.40382 32.44060
# Shear Modulus (GPa) = 35.06102 44.67352 39.86727
#
# Velocity S-wave (km/s) = 3.83370 4.32744 4.08803
# Velocity P-wave (km/s) = 5.50238 6.44102 5.99011
#
# Compressibility (1/GPa) = 0.03925050
#
# Stress axis : x y z
#
# Youngs Moduli (GPa) = 103.56085 53.37796 91.29515
#
# Poissons Ratio (x) = 0.10330 0.16387
# Poissons Ratio (y) = 0.20041 -0.33628
# Poissons Ratio (z) = 0.18589 -0.19661
#
# Static dielectric constant tensor:
#      x y z
#    x 2.009880 -0.014150 -0.028990 
#    y -0.014150 2.016780 0.005520 
#    z -0.028990 0.005520 1.969640 
# 
# From -- ./inp_files/408502.got.cif
#   From: 2010.05.17/outbox.cif.g08.bks.cpg/sg2_205_cif.got.tgz:408502.got - 2010.06.03 11:33:40.
