data_PCOD9057215
_publ_section_title
;
Structure prediction by ZEFSAII (Michael W. Deem and Ramdas Pophale) SiO2 
 PCOD9057215
Probable space group: P -1
;
_chemical_formula_sum "Si O2"
_cell_formula_units_Z 14
_cell_length_a 10.029996
_cell_length_b 19.221705
_cell_length_c 9.500216
_cell_angle_alpha 138.693954
_cell_angle_beta 118.070719
_cell_angle_gamma 32.997065
_cell_volume 590.084965
_symmetry_space_group_name_H-M "P -1"
_symmetry_group_IT_number 2
_symmetry_cell_setting 'triclinic'
loop_
_space_group_symop_operation_xyz
x,y,z
-x,-y,-z
loop_
_atom_site_type_symbol
_atom_site_label
_atom_site_fract_x
_atom_site_fract_y
_atom_site_fract_z
Si Si1 0.620392 0.696743 0.892744
Si Si2 0.042218 0.080976 0.228334
Si Si3 0.760985 0.886030 0.044160
Si Si4 0.764716 0.821162 0.260581
Si Si5 0.679231 0.536469 0.386105
Si Si6 0.155925 0.923895 0.607040
Si Si7 0.310838 0.554568 0.301048
O O1 0.661574 0.619585 0.643979
O O2 0.585359 0.618132 0.859531
O O3 0.351013 0.926253 0.111660
O O4 0.822542 0.664965 0.009445
O O5 0.977682 0.077839 0.348919
O O6 0.835065 0.294767 0.415662
O O7 0.000000 0.000000 0.000000
O O8 0.714332 0.911659 0.227389
O O9 0.851144 0.952381 0.153643
O O10 0.009777 0.661792 0.799423
O O11 0.500000 0.000000 0.000000
O O12 0.048479 0.690936 0.277029
O O13 0.500000 0.000000 0.500000
O O14 0.477695 0.707512 0.432791
O O15 0.541450 0.500584 0.281111
O O16 0.000000 0.000000 0.500000
#
# Coordination Sequence:
#
# PCOD9057215 Si02
#       7
#     2   2   2   2   2   2   2
#     4  12  24  42  75 107 144 188 240 296 359 428
#     4  11  22  41  73 107 143 181 241 291 346 432
#     4  12  29  49  74 102 149 194 239 303 366 425
#     4  12  28  48  70 106 149 188 239 297 362 435
#     4  11  26  47  74 110 140 188 254 292 352 442
#     4  11  25  45  74 107 148 191 234 300 365 420
#     4  11  24  44  75 107 143 185 238 299 358 423
#
# _framework density 23.725397000000001
#
# number of rings (size 3 to 8) (size 9 to 14) (size 15 to 20)
#    0.000    0.571    4.286    4.286    4.000    5.714 
#    0.000    0.000    0.000    0.000    0.000    0.000 
#    0.000    0.000    0.000    0.000    0.000    0.000 
#
# Total GULP energy -78259.593747 kJ/mol
# GULP energy per Si atom -5589.970982 kJ/mol
# Density = 2.367140 g / cm^3
# Si number density = 23.725397 Si / 1000 Ang^3
#
#
#
# Elastic Constant Matrix: (Units=GPa)
#
#
# Indices 1 2 3 4 5 6 
#
# 1 63.3677 16.7560 40.2977 -12.4299 15.3968 -6.9229
# 2 16.7560 146.5233 50.4737 -6.5995 -12.7663 -20.5489
# 3 40.2977 50.4737 83.2320 12.0443 3.2400 -20.3722
# 4 -12.4299 -6.5995 12.0443 48.6456 -10.9701 7.7334
# 5 15.3968 -12.7663 3.2400 -10.9701 56.8346 0.6933
# 6 -6.9229 -20.5489 -20.3722 7.7334 0.6933 38.2325
#
#
#
# Elastic Compliance Matrix: (Units=1/GPa)
#
#
# Indices 1 2 3 4 5 6 
#
# 1 0.030322 0.002644 -0.019490 0.013006 -0.003925 -0.006033
# 2 0.002644 0.009730 -0.007782 0.004449 0.002764 0.000612
# 3 -0.019490 -0.007782 0.031618 -0.016191 -0.001547 0.012439
# 4 0.013006 0.004449 -0.016191 0.031147 0.004536 -0.010264
# 5 -0.003925 0.002764 -0.001547 0.004536 0.020259 -0.001335
# 6 -0.006033 0.000612 0.012439 -0.010264 -0.001335 0.034120
#
#
# Mechanical properties :
#
#
# Convention : Reuss Voigt Hill
#
# Bulk Modulus (GPa) = 44.61630 56.46422 50.54026
# Shear Modulus (GPa) = 23.37252 41.11556 32.24404
#
# Velocity S-wave (km/s) = 3.14208 4.16742 3.69053
# Velocity P-wave (km/s) = 5.65771 6.85618 6.28557
#
# Compressibility (1/GPa) = 0.02241333
#
# Stress axis : x y z
#
# Youngs Moduli (GPa) = 32.97910 102.77103 31.62721
#
# Poissons Ratio (x) = -0.27173 0.61642
# Poissons Ratio (y) = -0.08720 0.24614
# Poissons Ratio (z) = 0.64277 0.79982
#
# Static dielectric constant tensor:
#      x y z
#    x 2.085430 -0.197240 -0.004550 
#    y -0.197240 2.117780 -0.018280 
#    z -0.004550 -0.018280 1.939240 
# 
# From -- ./inp_files/283417.got.cif
#   From: 2010.05.17/outbox.cif.g08.bks.cpg/sg2_142_cif.got.tgz:283417.got - 2010.06.03 11:33:40.
