data_PCOD9057944
_publ_section_title
;
Structure prediction by ZEFSAII (Michael W. Deem and Ramdas Pophale) SiO2 
 PCOD9057944
Probable space group: P -1
;
_chemical_formula_sum "Si O2"
_cell_formula_units_Z 16
_cell_length_a 8.950057
_cell_length_b 14.888641
_cell_length_c 8.473631
_cell_angle_alpha 104.924278
_cell_angle_beta 107.431381
_cell_angle_gamma 40.877861
_cell_volume 704.160819
_symmetry_space_group_name_H-M "P -1"
_symmetry_group_IT_number 2
_symmetry_cell_setting 'triclinic'
loop_
_space_group_symop_operation_xyz
x,y,z
-x,-y,-z
loop_
_atom_site_type_symbol
_atom_site_label
_atom_site_fract_x
_atom_site_fract_y
_atom_site_fract_z
Si Si1 0.299354 0.484311 0.279661
Si Si2 0.089473 0.901386 0.192667
Si Si3 0.528711 0.701395 0.052134
Si Si4 0.135560 0.094343 0.381815
Si Si5 0.556397 0.084460 0.064953
Si Si6 0.581421 0.868485 0.622343
Si Si7 0.291496 0.696785 0.446649
Si Si8 0.854446 0.612381 0.368684
O O1 0.322908 0.585071 0.319083
O O2 0.470002 0.380404 0.429453
O O3 0.038983 0.574818 0.288665
O O4 0.380615 0.397944 0.109003
O O5 0.266386 0.795358 0.062945
O O6 0.189176 0.816552 0.349042
O O7 0.096433 0.009479 0.262116
O O8 0.831016 0.980047 0.117725
O O9 0.688676 0.618681 0.218039
O O10 0.535633 0.807397 0.051495
O O11 0.255422 0.112274 0.306581
O O12 0.896433 0.234706 0.442403
O O13 0.325058 0.006329 0.543241
O O14 0.442773 0.167435 0.231900
O O15 0.500000 0.000000 0.000000
O O16 0.694634 0.757058 0.471603
O O17 0.000000 0.500000 0.500000
#
# Coordination Sequence:
#
# PCOD9057944 Si02
#       8
#     2   2   2   2   2   2   2   2
#     4  11  26  45  69 107 147 194 244 297 359 431
#     4  12  25  45  74 104 145 193 241 299 371 437
#     4  12  27  47  73 105 152 190 244 304 360 432
#     4  11  22  43  77 104 138 186 245 308 351 432
#     4  12  28  45  71 113 148 187 237 309 379 428
#     4  11  24  44  75 106 142 188 244 297 370 428
#     4  11  24  45  74 103 146 192 244 300 360 437
#     4  12  25  48  73 104 143 198 249 290 363 440
#
# _framework density 22.722079999999998
#
# number of rings (size 3 to 8) (size 9 to 14) (size 15 to 20)
#    0.000    0.500    3.750    4.125    5.250    1.500 
#    0.000    0.000    0.000    0.000    0.000    0.000 
#    0.000    0.000    0.000    0.000    0.000    0.000 
#
# Total GULP energy -89662.838882 kJ/mol
# GULP energy per Si atom -5603.927430 kJ/mol
# Density = 2.267036 g / cm^3
# Si number density = 22.722080 Si / 1000 Ang^3
#
#
#
# Elastic Constant Matrix: (Units=GPa)
#
#
# Indices 1 2 3 4 5 6 
#
# 1 114.0513 30.5425 46.1625 13.0808 7.2487 -24.3744
# 2 30.5425 85.1098 44.4861 8.6697 10.0792 -14.1550
# 3 46.1625 44.4861 103.9698 19.2042 1.8468 -6.0909
# 4 13.0808 8.6697 19.2042 51.4143 2.3720 -3.0383
# 5 7.2487 10.0792 1.8468 2.3720 40.6958 3.1052
# 6 -24.3744 -14.1550 -6.0909 -3.0383 3.1052 36.2112
#
#
#
# Elastic Compliance Matrix: (Units=1/GPa)
#
#
# Indices 1 2 3 4 5 6 
#
# 1 0.012740 -0.000366 -0.004854 -0.000792 -0.002505 0.007764
# 2 -0.000366 0.016760 -0.006659 0.000278 -0.004225 0.005571
# 3 -0.004854 -0.006659 0.015018 -0.003587 0.002335 -0.003845
# 4 -0.000792 0.000278 -0.003587 0.021042 -0.001055 0.000828
# 5 -0.002505 -0.004225 0.002335 -0.001055 0.026425 -0.005299
# 6 0.007764 0.005571 -0.003845 0.000828 -0.005299 0.034897
#
#
# Mechanical properties :
#
#
# Convention : Reuss Voigt Hill
#
# Bulk Modulus (GPa) = 48.16876 60.61256 54.39066
# Shear Modulus (GPa) = 31.73401 37.79359 34.76380
#
# Velocity S-wave (km/s) = 3.74119 4.08278 3.91571
# Velocity P-wave (km/s) = 6.31721 6.99707 6.66581
#
# Compressibility (1/GPa) = 0.02076034
#
# Stress axis : x y z
#
# Youngs Moduli (GPa) = 78.49173 59.66693 66.58540
#
# Poissons Ratio (x) = 0.02184 0.32323
# Poissons Ratio (y) = 0.02873 0.44336
# Poissons Ratio (z) = 0.38103 0.39730
#
# Static dielectric constant tensor:
#      x y z
#    x 1.849900 0.005010 -0.011370 
#    y 0.005010 1.827710 0.014390 
#    z -0.011370 0.014390 1.830710 
# 
# From -- ./inp_files/208451.got.cif
#   From: 2010.05.17/outbox.cif.g08.bks.cpg/sg2_105_cif.got.tgz:208451.got - 2010.06.03 11:33:40.
