data_PCOD9057453
_publ_section_title
;
Structure prediction by ZEFSAII (Michael W. Deem and Ramdas Pophale) SiO2 
 PCOD9057453
Probable space group: P -1
;
_chemical_formula_sum "Si O2"
_cell_formula_units_Z 15
_cell_length_a 9.167955
_cell_length_b 12.385364
_cell_length_c 7.363613
_cell_angle_alpha 89.257314
_cell_angle_beta 73.802613
_cell_angle_gamma 134.779414
_cell_volume 542.372946
_symmetry_space_group_name_H-M "P -1"
_symmetry_group_IT_number 2
_symmetry_cell_setting 'triclinic'
loop_
_space_group_symop_operation_xyz
x,y,z
-x,-y,-z
loop_
_atom_site_type_symbol
_atom_site_label
_atom_site_fract_x
_atom_site_fract_y
_atom_site_fract_z
Si Si1 0.686475 0.398238 0.525985
Si Si2 0.000000 0.000000 0.000000
Si Si3 0.132873 0.943222 0.559088
Si Si4 0.104949 0.856710 0.959632
Si Si5 0.394441 0.890832 0.330969
Si Si6 0.667298 0.721411 0.619837
Si Si7 0.895148 0.339112 0.868401
Si Si8 0.531845 0.324488 0.955345
O O1 0.623421 0.238944 0.579959
O O2 0.505947 0.373481 0.480237
O O3 0.683536 0.441855 0.730489
O O4 0.908443 0.509238 0.324489
O O5 0.013257 0.120830 0.869290
O O6 0.292453 0.161413 0.955494
O O7 0.070744 0.927037 0.797783
O O8 0.309730 0.939675 0.491053
O O9 0.901632 0.783901 0.554887
O O10 0.241225 0.105104 0.428992
O O11 0.365706 0.969683 0.846790
O O12 0.008125 0.685908 0.004884
O O13 0.219390 0.805037 0.226928
O O14 0.535023 0.635961 0.855475
O O15 0.692963 0.314318 0.984974
#
# Coordination Sequence:
#
# PCOD9057453 Si02
#       8
#     2   1   2   2   2   2   2   2
#     4  11  25  49  67 101 140 185 232 277 338 422
#     4  12  22  40  72 100 138 166 230 288 338 394
#     4  11  24  41  66 108 136 168 236 295 336 404
#     4  12  23  42  68 106 132 178 229 289 338 405
#     4  11  22  42  70  97 137 177 233 284 337 403
#     4  11  24  43  70 102 138 182 224 287 354 395
#     4  11  26  44  69 100 139 184 230 273 349 411
#     4  11  23  43  71 100 135 182 224 282 340 401
#
# _framework density 27.656248000000001
#
# number of rings (size 3 to 8) (size 9 to 14) (size 15 to 20)
#    0.000    0.800    5.333    3.200    5.600    0.533 
#    2.400    4.667    0.000    0.000    0.000    0.000 
#    0.000    0.000    0.000    0.000    0.000    0.000 
#
# Total GULP energy -83688.478933 kJ/mol
# GULP energy per Si atom -5579.231929 kJ/mol
# Density = 2.759330 g / cm^3
# Si number density = 27.656248 Si / 1000 Ang^3
#
#
#
# Elastic Constant Matrix: (Units=GPa)
#
#
# Indices 1 2 3 4 5 6 
#
# 1 194.4890 27.4320 58.3868 -12.7898 -32.9486 1.6911
# 2 27.4320 27.2659 37.8540 -6.8560 6.8747 -0.3060
# 3 58.3868 37.8540 131.1310 -15.1467 -4.1727 -8.5528
# 4 -12.7898 -6.8560 -15.1467 42.0648 6.1261 -0.3252
# 5 -32.9486 6.8747 -4.1727 6.1261 47.7210 0.7083
# 6 1.6911 -0.3060 -8.5528 -0.3252 0.7083 39.3432
#
#
#
# Elastic Compliance Matrix: (Units=1/GPa)
#
#
# Indices 1 2 3 4 5 6 
#
# 1 0.007633 -0.008049 -0.000950 -0.000269 0.006392 -0.000714
# 2 -0.008049 0.077132 -0.018760 0.006123 -0.019055 -0.002739
# 3 -0.000950 -0.018760 0.013891 0.001232 0.003061 0.002870
# 4 -0.000269 0.006123 0.001232 0.025760 -0.004276 0.000617
# 5 0.006392 -0.019055 0.003061 -0.004276 0.028935 -0.000314
# 6 -0.000714 -0.002739 0.002870 0.000617 -0.000314 0.026061
#
#
# Mechanical properties :
#
#
# Convention : Reuss Voigt Hill
#
# Bulk Modulus (GPa) = 23.18044 66.69240 44.93642
# Shear Modulus (GPa) = 20.05535 41.10666 30.58101
#
# Velocity S-wave (km/s) = 2.69581 3.85949 3.32890
# Velocity P-wave (km/s) = 4.25320 6.63536 5.57305
#
# Compressibility (1/GPa) = 0.04313983
#
# Stress axis : x y z
#
# Youngs Moduli (GPa) = 131.00245 12.96475 71.98846
#
# Poissons Ratio (x) = 0.10435 0.06836
# Poissons Ratio (y) = 1.05444 1.35049
# Poissons Ratio (z) = 0.12440 0.24322
#
# Static dielectric constant tensor:
#      x y z
#    x 2.327850 0.043510 0.169580 
#    y 0.043510 2.322670 0.157240 
#    z 0.169580 0.157240 2.306250 
# 
# From -- ./inp_files/155506.got.cif
#   From: 2010.05.17/outbox.cif.g08.bks.cpg/sg2_78_cif.got.tgz:155506.got - 2010.06.03 11:33:40.
