data_PCOD9057858
_publ_section_title
;
Structure prediction by ZEFSAII (Michael W. Deem and Ramdas Pophale) SiO2 
 PCOD9057858
Probable space group: P -1
;
_chemical_formula_sum "Si O2"
_cell_formula_units_Z 14
_cell_length_a 8.056145
_cell_length_b 16.253231
_cell_length_c 6.011403
_cell_angle_alpha 110.124031
_cell_angle_beta 68.708846
_cell_angle_gamma 121.768472
_cell_volume 611.801572
_symmetry_space_group_name_H-M "P -1"
_symmetry_group_IT_number 2
_symmetry_cell_setting 'triclinic'
loop_
_space_group_symop_operation_xyz
x,y,z
-x,-y,-z
loop_
_atom_site_type_symbol
_atom_site_label
_atom_site_fract_x
_atom_site_fract_y
_atom_site_fract_z
Si Si1 0.312298 0.319725 0.321742
Si Si2 0.662085 0.362295 0.487166
Si Si3 0.265740 0.456665 0.128311
Si Si4 0.165505 0.030227 0.751123
Si Si5 0.994148 0.850773 0.369639
Si Si6 0.904599 0.302651 0.969058
Si Si7 0.512097 0.222491 0.810762
O O1 0.512103 0.385172 0.427808
O O2 0.227441 0.380959 0.279175
O O3 0.150108 0.237786 0.482204
O O4 0.391405 0.265308 0.057226
O O5 0.766811 0.451896 0.690310
O O6 0.523856 0.263318 0.596464
O O7 0.808200 0.337147 0.245895
O O8 0.500000 0.500000 0.000000
O O9 0.125245 0.395234 0.935629
O O10 0.111542 0.096101 0.666574
O O11 0.389660 0.105123 0.788016
O O12 0.146343 0.935329 0.538653
O O13 0.000000 0.000000 0.000000
O O14 0.074109 0.796933 0.105914
O O15 0.742001 0.272100 0.824528
#
# Coordination Sequence:
#
# PCOD9057858 Si02
#       7
#     2   2   2   2   2   2   2
#     4  11  22  43  72  97 136 176 234 282 326 394
#     4  11  24  45  66 100 143 179 224 279 341 398
#     4  12  24  45  71 100 131 186 239 276 323 399
#     4  11  23  43  78 101 128 174 233 280 333 401
#     4  11  24  43  70 106 131 174 232 277 334 406
#     4  11  28  42  66 101 146 181 213 279 352 400
#     4  11  23  45  67 100 141 179 216 286 341 399
#
# _framework density 22.883234999999999
#
# number of rings (size 3 to 8) (size 9 to 14) (size 15 to 20)
#    0.000    0.857    4.286    2.571    2.000    1.143 
#    0.000    1.429    0.000    0.000    0.000    0.000 
#    0.000    0.000    0.000    0.000    0.000    0.000 
#
# Total GULP energy -78264.525132 kJ/mol
# GULP energy per Si atom -5590.323224 kJ/mol
# Density = 2.283115 g / cm^3
# Si number density = 22.883235 Si / 1000 Ang^3
#
#
#
# Elastic Constant Matrix: (Units=GPa)
#
#
# Indices 1 2 3 4 5 6 
#
# 1 92.0629 45.3548 21.4035 10.0768 4.2798 23.7361
# 2 45.3548 122.8164 28.3557 13.0013 -0.8459 17.6677
# 3 21.4035 28.3557 52.2256 17.8794 -8.8737 11.3678
# 4 10.0768 13.0013 17.8794 58.9571 -4.1224 7.6452
# 5 4.2798 -0.8459 -8.8737 -4.1224 24.4580 12.6321
# 6 23.7361 17.6677 11.3678 7.6452 12.6321 35.3543
#
#
#
# Elastic Compliance Matrix: (Units=1/GPa)
#
#
# Indices 1 2 3 4 5 6 
#
# 1 0.015353 -0.004016 -0.002418 -0.000004 0.000223 -0.007602
# 2 -0.004016 0.010734 -0.003622 -0.000334 0.000543 -0.001625
# 3 -0.002418 -0.003622 0.028574 -0.005111 0.014966 -0.009997
# 4 -0.000004 -0.000334 -0.005111 0.019261 0.003184 -0.003490
# 5 0.000223 0.000543 0.014966 0.003184 0.061182 -0.027783
# 6 -0.007602 -0.001625 -0.009997 -0.003490 -0.027783 0.048097
#
#
# Mechanical properties :
#
#
# Convention : Reuss Voigt Hill
#
# Bulk Modulus (GPa) = 28.94386 50.81477 39.87931
# Shear Modulus (GPa) = 23.27441 35.21993 29.24717
#
# Velocity S-wave (km/s) = 3.19265 3.92741 3.57894
# Velocity P-wave (km/s) = 5.12510 6.54373 5.87737
#
# Compressibility (1/GPa) = 0.03454965
#
# Stress axis : x y z
#
# Youngs Moduli (GPa) = 65.13520 93.15842 34.99736
#
# Poissons Ratio (x) = 0.37411 0.08461
# Poissons Ratio (y) = 0.26157 0.12676
# Poissons Ratio (z) = 0.15747 0.33743
#
# Static dielectric constant tensor:
#      x y z
#    x 1.922560 0.049320 0.012270 
#    y 0.049320 1.834390 0.021460 
#    z 0.012270 0.021460 1.853410 
# 
# From -- ./inp_files/31608.got.cif
#   From: 2010.05.17/outbox.cif.g08.bks.cpg/sg2_16_cif.got.tgz:31608.got - 2010.06.03 11:33:40.
