data_PCOD9057294
_publ_section_title
;
Structure prediction by ZEFSAII (Michael W. Deem and Ramdas Pophale) SiO2 
 PCOD9057294
Probable space group: P -1
;
_chemical_formula_sum "Si O2"
_cell_formula_units_Z 14
_cell_length_a 22.164744
_cell_length_b 12.114193
_cell_length_c 9.564513
_cell_angle_alpha 123.800564
_cell_angle_beta 37.286480
_cell_angle_gamma 151.286087
_cell_volume 653.209391
_symmetry_space_group_name_H-M "P -1"
_symmetry_group_IT_number 2
_symmetry_cell_setting 'triclinic'
loop_
_space_group_symop_operation_xyz
x,y,z
-x,-y,-z
loop_
_atom_site_type_symbol
_atom_site_label
_atom_site_fract_x
_atom_site_fract_y
_atom_site_fract_z
Si Si1 0.466285 0.251252 0.331682
Si Si2 0.973379 0.121480 0.778976
Si Si3 0.306972 0.874932 0.573069
Si Si4 0.184791 0.147507 0.835623
Si Si5 0.669956 0.594802 0.795865
Si Si6 0.447942 0.090474 0.974266
Si Si7 0.880687 0.288844 0.909818
O O1 0.311433 0.190679 0.540362
O O2 0.672158 0.567384 0.179074
O O3 0.417055 0.130229 0.487977
O O4 0.442876 0.105181 0.160683
O O5 0.955295 0.235266 0.802262
O O6 0.193464 0.315544 0.510405
O O7 0.824825 0.849334 0.785862
O O8 0.896060 0.034488 0.016513
O O9 0.431735 0.895640 0.297891
O O10 0.079199 0.603018 0.749472
O O11 0.272161 0.834471 0.776344
O O12 0.000000 0.000000 0.000000
O O13 0.566930 0.357098 0.896955
O O14 0.500000 0.500000 0.000000
O O15 0.237726 0.855697 0.117920
#
# Coordination Sequence:
#
# PCOD9057294 Si02
#       7
#     2   2   2   2   2   2   2
#     4  11  26  45  67  96 138 173 220 273 324 400
#     4  11  22  42  66  97 130 168 218 276 324 386
#     4  11  25  46  63  94 139 175 223 271 324 394
#     4  11  26  43  69  97 131 177 219 266 336 395
#     4  11  23  37  68  99 128 165 214 276 331 385
#     4  12  24  41  68 100 130 176 221 269 334 389
#     4  11  24  43  70  96 129 174 225 274 325 388
#
# _framework density 21.432638000000001
#
# number of rings (size 3 to 8) (size 9 to 14) (size 15 to 20)
#    0.000    0.857    5.714    0.857    2.000    4.000 
#    0.000    0.000    0.000    0.000    0.000    0.000 
#    0.000    0.000    0.000    0.000    0.000    0.000 
#
# Total GULP energy -78175.876505 kJ/mol
# GULP energy per Si atom -5583.991179 kJ/mol
# Density = 2.138386 g / cm^3
# Si number density = 21.432638 Si / 1000 Ang^3
#
#
#
# Elastic Constant Matrix: (Units=GPa)
#
#
# Indices 1 2 3 4 5 6 
#
# 1 60.7792 10.8630 41.8349 -3.8604 -18.5073 -3.9510
# 2 10.8630 47.5912 7.4022 -6.2929 -6.2559 0.1659
# 3 41.8349 7.4022 100.6391 1.8297 -23.6633 12.7702
# 4 -3.8604 -6.2929 1.8297 39.8902 -7.6105 0.4980
# 5 -18.5073 -6.2559 -23.6633 -7.6105 35.8738 -1.3474
# 6 -3.9510 0.1659 12.7702 0.4980 -1.3474 35.4678
#
#
#
# Elastic Compliance Matrix: (Units=1/GPa)
#
#
# Indices 1 2 3 4 5 6 
#
# 1 0.027073 -0.003064 -0.010131 0.004015 0.007861 0.006920
# 2 -0.003064 0.022620 0.000416 0.003918 0.003450 -0.000521
# 3 -0.010131 0.000416 0.016197 -0.000591 0.005150 -0.006758
# 4 0.004015 0.003918 -0.000591 0.027671 0.008256 0.000567
# 5 0.007861 0.003450 0.005150 0.008256 0.037694 0.000321
# 6 0.006920 -0.000521 -0.006758 0.000567 0.000321 0.031405
#
#
# Mechanical properties :
#
#
# Convention : Reuss Voigt Hill
#
# Bulk Modulus (GPa) = 24.79451 36.57888 30.68670
# Shear Modulus (GPa) = 24.79407 32.17365 28.48386
#
# Velocity S-wave (km/s) = 3.40492 3.87867 3.64949
# Velocity P-wave (km/s) = 5.20112 6.09613 5.66632
#
# Compressibility (1/GPa) = 0.04033151
#
# Stress axis : x y z
#
# Youngs Moduli (GPa) = 36.93778 44.20819 61.74100
#
# Poissons Ratio (x) = 0.13544 0.62551
# Poissons Ratio (y) = 0.11316 -0.02567
# Poissons Ratio (z) = 0.37422 -0.01838
#
# Static dielectric constant tensor:
#      x y z
#    x 1.775370 -0.003300 0.021830 
#    y -0.003300 1.732300 0.040120 
#    z 0.021830 0.040120 1.847170 
# 
# From -- ./inp_files/100342.got.cif
#   From: 2010.05.17/outbox.cif.g08.bks.cpg/sg2_51_cif.got.tgz:100342.got - 2010.06.03 11:33:40.
