data_PCOD9057834
_publ_section_title
;
Structure prediction by ZEFSAII (Michael W. Deem and Ramdas Pophale) SiO2 
 PCOD9057834
Probable space group: P -1
;
_chemical_formula_sum "Si O2"
_cell_formula_units_Z 16
_cell_length_a 8.368176
_cell_length_b 11.395253
_cell_length_c 14.154854
_cell_angle_alpha 65.817824
_cell_angle_beta 35.420684
_cell_angle_gamma 80.934572
_cell_volume 672.821567
_symmetry_space_group_name_H-M "P -1"
_symmetry_group_IT_number 2
_symmetry_cell_setting 'triclinic'
loop_
_space_group_symop_operation_xyz
x,y,z
-x,-y,-z
loop_
_atom_site_type_symbol
_atom_site_label
_atom_site_fract_x
_atom_site_fract_y
_atom_site_fract_z
Si Si1 0.069936 0.200617 0.120511
Si Si2 0.124748 0.306608 0.672862
Si Si3 0.461123 0.493531 0.907904
Si Si4 0.826633 0.287145 0.020544
Si Si5 0.373918 0.812489 0.501772
Si Si6 0.382455 0.835042 0.178814
Si Si7 0.329762 0.020063 0.306422
Si Si8 0.865792 0.400945 0.474148
O O1 0.942075 0.230020 0.074054
O O2 0.816065 0.153051 0.335608
O O3 0.298069 0.340924 0.004413
O O4 0.277766 0.112882 0.029375
O O5 0.362974 0.232304 0.570665
O O6 0.217908 0.462592 0.540124
O O7 0.834836 0.220360 0.784859
O O8 0.050873 0.313421 0.816920
O O9 0.256613 0.582011 0.953319
O O10 0.786758 0.553211 0.688636
O O11 0.500000 0.500000 0.000000
O O12 0.527897 0.176180 0.163730
O O13 0.461111 0.937642 0.345205
O O14 0.187743 0.682521 0.571041
O O15 0.322258 0.949875 0.232914
O O16 0.313581 0.704880 0.326323
O O17 0.000000 0.000000 0.500000
#
# Coordination Sequence:
#
# PCOD9057834 Si02
#       8
#     2   2   2   2   2   2   2   2
#     4  12  26  44  74 107 143 182 235 290 358 414
#     4  12  25  44  72 108 143 186 233 298 351 414
#     4  12  22  43  73 110 141 184 230 297 355 416
#     4  12  26  45  71 102 147 187 236 287 351 417
#     4  11  26  45  71 106 143 183 238 289 353 412
#     4  11  26  47  74 105 139 192 237 285 356 418
#     4  11  28  51  75  99 142 189 237 289 348 427
#     4  11  22  43  72 103 152 181 233 290 358 416
#
# _framework density 23.780452
#
# number of rings (size 3 to 8) (size 9 to 14) (size 15 to 20)
#    0.000    0.500    3.750    4.125    5.250    4.000 
#    0.000    0.000    0.000    0.000    0.000    0.000 
#    0.000    0.000    0.000    0.000    0.000    0.000 
#
# Total GULP energy -89741.964954 kJ/mol
# GULP energy per Si atom -5608.872810 kJ/mol
# Density = 2.372633 g / cm^3
# Si number density = 23.780452 Si / 1000 Ang^3
#
#
#
# Elastic Constant Matrix: (Units=GPa)
#
#
# Indices 1 2 3 4 5 6 
#
# 1 105.1620 2.7226 17.6117 10.1340 17.3704 2.1178
# 2 2.7226 65.1881 15.4837 21.1202 6.9088 -4.4498
# 3 17.6117 15.4837 96.2474 22.6400 6.9445 -16.0134
# 4 10.1340 21.1202 22.6400 44.6627 -3.8532 -4.0839
# 5 17.3704 6.9088 6.9445 -3.8532 37.3546 -0.2288
# 6 2.1178 -4.4498 -16.0134 -4.0839 -0.2288 31.3746
#
#
#
# Elastic Compliance Matrix: (Units=1/GPa)
#
#
# Indices 1 2 3 4 5 6 
#
# 1 0.010922 0.001304 -0.001395 -0.003007 -0.005381 -0.001695
# 2 0.001304 0.019051 -0.000566 -0.009349 -0.004982 0.001072
# 3 -0.001395 -0.000566 0.013261 -0.005784 -0.002272 0.006013
# 4 -0.003007 -0.009349 -0.005784 0.031067 0.007408 0.000023
# 5 -0.005381 -0.004982 -0.002272 0.007408 0.031379 -0.000310
# 6 -0.001695 0.001072 0.006013 0.000023 -0.000310 0.035209
#
#
# Mechanical properties :
#
#
# Convention : Reuss Voigt Hill
#
# Bulk Modulus (GPa) = 23.85530 37.58149 30.71840
# Shear Modulus (GPa) = 32.01537 38.06366 35.03952
#
# Velocity S-wave (km/s) = 3.67316 4.00513 3.84273
# Velocity P-wave (km/s) = 5.29554 6.10130 5.71264
#
# Compressibility (1/GPa) = 0.04191940
#
# Stress axis : x y z
#
# Youngs Moduli (GPa) = 91.56083 52.49186 75.40857
#
# Poissons Ratio (x) = -0.06845 0.10517
# Poissons Ratio (y) = -0.11939 0.04271
# Poissons Ratio (z) = 0.12769 0.02973
#
# Static dielectric constant tensor:
#      x y z
#    x 1.878520 -0.018600 0.003830 
#    y -0.018600 1.889320 0.006290 
#    z 0.003830 0.006290 1.896590 
# 
# From -- ./inp_files/299491.got.cif
#   From: 2010.05.17/outbox.cif.g08.bks.cpg/sg2_150_cif.got.tgz:299491.got - 2010.06.03 11:33:40.
