data_PCOD9057529
_publ_section_title
;
Structure prediction by ZEFSAII (Michael W. Deem and Ramdas Pophale) SiO2 
 PCOD9057529
Probable space group: P -1
;
_chemical_formula_sum "Si O2"
_cell_formula_units_Z 16
_cell_length_a 8.428157
_cell_length_b 10.758522
_cell_length_c 8.947937
_cell_angle_alpha 83.900458
_cell_angle_beta 51.395160
_cell_angle_gamma 86.344202
_cell_volume 630.450928
_symmetry_space_group_name_H-M "P -1"
_symmetry_group_IT_number 2
_symmetry_cell_setting 'triclinic'
loop_
_space_group_symop_operation_xyz
x,y,z
-x,-y,-z
loop_
_atom_site_type_symbol
_atom_site_label
_atom_site_fract_x
_atom_site_fract_y
_atom_site_fract_z
Si Si1 0.150279 0.679745 0.370995
Si Si2 0.859302 0.932411 0.801511
Si Si3 0.671112 0.812274 0.308909
Si Si4 0.279697 0.938800 0.420757
Si Si5 0.778038 0.658582 0.809413
Si Si6 0.570351 0.563206 0.213461
Si Si7 0.126449 0.829010 0.063228
Si Si8 0.479072 0.707621 0.715228
O O1 0.217147 0.808742 0.394624
O O2 0.343049 0.589796 0.282650
O O3 0.108051 0.724790 0.220767
O O4 0.962422 0.633126 0.589648
O O5 0.820116 0.786479 0.861358
O O6 0.100571 0.957439 0.642355
O O7 0.754919 0.958585 0.698493
O O8 0.783338 0.043370 0.936686
O O9 0.503538 0.914107 0.349669
O O10 0.626338 0.680711 0.268668
O O11 0.629885 0.783247 0.510835
O O12 0.899724 0.850838 0.137726
O O13 0.584006 0.683315 0.815890
O O14 0.722309 0.560264 0.982640
O O15 0.570993 0.428262 0.306058
O O16 0.272499 0.779818 0.855890
#
# Coordination Sequence:
#
# PCOD9057529 Si02
#       8
#     2   2   2   2   2   2   2   2
#     4   9  19  40  66  98 128 167 226 273 321 392
#     4   9  20  42  71 100 132 171 221 276 325 402
#     4  11  25  45  66  98 140 179 210 277 354 380
#     4   8  18  39  68  95 130 172 220 263 327 407
#     4  11  22  42  73 100 127 178 226 274 333 383
#     4  11  25  45  69  97 132 176 234 278 321 393
#     4  11  23  42  65 102 139 170 221 271 334 406
#     4  12  26  43  67 101 136 176 229 275 326 401
#
# _framework density 25.378658000000001
#
# number of rings (size 3 to 8) (size 9 to 14) (size 15 to 20)
#    0.000    1.750    2.500    1.500    0.000    6.000 
#    0.000    1.250    0.000    0.000    0.000    0.000 
#    0.000    0.000    0.000    0.000    0.000    0.000 
#
# Total GULP energy -89667.554971 kJ/mol
# GULP energy per Si atom -5604.222186 kJ/mol
# Density = 2.532090 g / cm^3
# Si number density = 25.378658 Si / 1000 Ang^3
#
#
#
# Elastic Constant Matrix: (Units=GPa)
#
#
# Indices 1 2 3 4 5 6 
#
# 1 70.0341 9.2447 12.7249 12.4954 -1.7598 7.3602
# 2 9.2447 98.9360 35.1309 17.2427 -6.7331 8.6630
# 3 12.7249 35.1309 112.8281 -5.6831 -6.1250 -4.4132
# 4 12.4954 17.2427 -5.6831 38.0331 -1.3576 -3.6159
# 5 -1.7598 -6.7331 -6.1250 -1.3576 27.0359 0.1813
# 6 7.3602 8.6630 -4.4132 -3.6159 0.1813 26.9523
#
#
#
# Elastic Compliance Matrix: (Units=1/GPa)
#
#
# Indices 1 2 3 4 5 6 
#
# 1 0.016559 0.001272 -0.002842 -0.007029 0.000440 -0.006342
# 2 0.001272 0.013905 -0.005030 -0.008041 0.002048 -0.006733
# 3 -0.002842 -0.005030 0.011291 0.005421 0.001359 0.004960
# 4 -0.007029 -0.008041 0.005421 0.034018 0.000410 0.009953
# 5 0.000440 0.002048 0.001359 0.000410 0.037860 -0.000756
# 6 -0.006342 -0.006733 0.004960 0.009953 -0.000756 0.043151
#
#
# Mechanical properties :
#
#
# Convention : Reuss Voigt Hill
#
# Bulk Modulus (GPa) = 35.02054 43.99991 39.51023
# Shear Modulus (GPa) = 27.85483 33.38412 30.61947
#
# Velocity S-wave (km/s) = 3.31655 3.63083 3.47725
# Velocity P-wave (km/s) = 5.33809 5.91205 5.63238
#
# Compressibility (1/GPa) = 0.02855467
#
# Stress axis : x y z
#
# Youngs Moduli (GPa) = 60.39067 71.91620 88.56893
#
# Poissons Ratio (x) = -0.09149 0.25170
# Poissons Ratio (y) = -0.07682 0.44552
# Poissons Ratio (z) = 0.17162 0.36176
#
# Static dielectric constant tensor:
#      x y z
#    x 1.966650 0.023500 0.025160 
#    y 0.023500 1.980610 0.013100 
#    z 0.025160 0.013100 1.981350 
# 
# From -- ./inp_files/186383.got.cif
#   From: 2010.05.17/outbox.cif.g08.bks.cpg/sg2_94_cif.got.tgz:186383.got - 2010.06.03 11:33:40.
