data_PCOD9057201
_publ_section_title
;
Structure prediction by ZEFSAII (Michael W. Deem and Ramdas Pophale) SiO2 
 PCOD9057201
Probable space group: P -1
;
_chemical_formula_sum "Si O2"
_cell_formula_units_Z 15
_cell_length_a 14.252280
_cell_length_b 18.976820
_cell_length_c 6.222009
_cell_angle_alpha 123.806143
_cell_angle_beta 128.184478
_cell_angle_gamma 26.623058
_cell_volume 592.711420
_symmetry_space_group_name_H-M "P -1"
_symmetry_group_IT_number 2
_symmetry_cell_setting 'triclinic'
loop_
_space_group_symop_operation_xyz
x,y,z
-x,-y,-z
loop_
_atom_site_type_symbol
_atom_site_label
_atom_site_fract_x
_atom_site_fract_y
_atom_site_fract_z
Si Si1 0.113986 0.980229 0.820777
Si Si2 0.950749 0.750654 0.440094
Si Si3 0.625071 0.575702 0.273036
Si Si4 0.200575 0.762654 0.853655
Si Si5 0.236790 0.353345 0.696836
Si Si6 0.523989 0.776489 0.787967
Si Si7 0.679126 0.832652 0.819718
Si Si8 0.500000 0.000000 0.500000
O O1 0.177333 0.866786 0.880496
O O2 0.328394 0.896709 0.885614
O O3 0.000000 0.000000 0.500000
O O4 0.940955 0.144549 0.971309
O O5 0.137327 0.594445 0.588461
O O6 0.078387 0.759015 0.554624
O O7 0.738253 0.895409 0.534896
O O8 0.871912 0.743514 0.105792
O O9 0.650861 0.631745 0.221575
O O10 0.510893 0.694534 0.509449
O O11 0.461520 0.601662 0.997965
O O12 0.318424 0.209420 0.499360
O O13 0.000000 0.500000 0.500000
O O14 0.254371 0.349970 0.968669
O O15 0.551084 0.830568 0.736676
O O16 0.579758 0.977220 0.828221
#
# Coordination Sequence:
#
# PCOD9057201 Si02
#       8
#     2   2   2   2   2   2   2   1
#     4  11  24  45  72 104 133 183 241 291 342 409
#     4  12  28  46  71 101 150 185 233 285 361 424
#     4  11  23  46  68 110 140 182 237 291 347 418
#     4  11  26  45  74 104 140 189 232 287 351 422
#     4  11  22  41  73 101 139 182 232 291 345 410
#     4  11  23  43  77 101 138 179 241 294 342 412
#     4  11  26  45  69 104 137 186 236 289 350 419
#     4  12  28  48  64  98 142 192 230 284 352 418
#
# _framework density 25.307424000000001
#
# number of rings (size 3 to 8) (size 9 to 14) (size 15 to 20)
#    0.000    0.800    2.667    4.000    5.600    3.200 
#    0.000    0.667    0.000    0.000    0.000    0.000 
#    0.000    0.000    0.000    0.000    0.000    0.000 
#
# Total GULP energy -83588.146530 kJ/mol
# GULP energy per Si atom -5572.543102 kJ/mol
# Density = 2.524982 g / cm^3
# Si number density = 25.307424 Si / 1000 Ang^3
#
#
#
# Elastic Constant Matrix: (Units=GPa)
#
#
# Indices 1 2 3 4 5 6 
#
# 1 147.2221 34.2554 35.5039 -26.7553 25.0781 -4.2357
# 2 34.2554 70.7326 26.3071 -27.8417 6.5088 -6.3290
# 3 35.5039 26.3071 73.0186 -41.6585 13.7407 -3.3282
# 4 -26.7553 -27.8417 -41.6585 40.0412 5.8926 4.0889
# 5 25.0781 6.5088 13.7407 5.8926 43.9165 -7.3436
# 6 -4.2357 -6.3290 -3.3282 4.0889 -7.3436 30.1227
#
#
#
# Elastic Compliance Matrix: (Units=1/GPa)
#
#
# Indices 1 2 3 4 5 6 
#
# 1 0.009404 -0.001301 0.002542 0.009310 -0.007517 -0.001767
# 2 -0.001301 0.021931 0.007691 0.023555 -0.008055 0.000113
# 3 0.002542 0.007691 0.054274 0.068863 -0.030278 -0.008759
# 4 0.009310 0.023555 0.068863 0.128216 -0.050195 -0.015774
# 5 -0.007517 -0.008055 -0.030278 -0.050195 0.046480 0.012050
# 6 -0.001767 0.000113 -0.008759 -0.015774 0.012050 0.037084
#
#
# Mechanical properties :
#
#
# Convention : Reuss Voigt Hill
#
# Bulk Modulus (GPa) = 9.66437 53.67844 31.67141
# Shear Modulus (GPa) = 15.92273 35.80986 25.86630
#
# Velocity S-wave (km/s) = 2.51105 3.76572 3.20047
# Velocity P-wave (km/s) = 3.49775 6.33752 5.11852
#
# Compressibility (1/GPa) = 0.10347284
#
# Stress axis : x y z
#
# Youngs Moduli (GPa) = 106.33963 45.59838 18.42487
#
# Poissons Ratio (x) = 0.05934 -0.04684
# Poissons Ratio (y) = 0.13839 -0.14171
# Poissons Ratio (z) = -0.27032 -0.35071
#
# Static dielectric constant tensor:
#      x y z
#    x 1.892030 -0.247430 0.004040 
#    y -0.247430 1.948420 -0.050270 
#    z 0.004040 -0.050270 2.038820 
# 
# From -- ./inp_files/100485.got.cif
#   From: 2010.05.17/outbox.cif.g08.bks.cpg/sg2_51_cif.got.tgz:100485.got - 2010.06.03 11:33:40.
