data_PCOD9057162
_publ_section_title
;
Structure prediction by ZEFSAII (Michael W. Deem and Ramdas Pophale) SiO2 
 PCOD9057162
Probable space group: P -1
;
_chemical_formula_sum "Si O2"
_cell_formula_units_Z 16
_cell_length_a 9.511549
_cell_length_b 12.085764
_cell_length_c 9.244308
_cell_angle_alpha 126.680359
_cell_angle_beta 76.606072
_cell_angle_gamma 117.507509
_cell_volume 754.433325
_symmetry_space_group_name_H-M "P -1"
_symmetry_group_IT_number 2
_symmetry_cell_setting 'triclinic'
loop_
_space_group_symop_operation_xyz
x,y,z
-x,-y,-z
loop_
_atom_site_type_symbol
_atom_site_label
_atom_site_fract_x
_atom_site_fract_y
_atom_site_fract_z
Si Si1 0.697291 0.118114 0.656913
Si Si2 0.443674 0.215998 0.461979
Si Si3 0.797013 0.278990 0.453629
Si Si4 0.498658 0.289448 0.946057
Si Si5 0.679388 0.633722 0.167221
Si Si6 0.611485 0.651272 0.683876
Si Si7 0.996067 0.661475 0.089088
Si Si8 0.082473 0.365697 0.249333
O O1 0.757688 0.176437 0.526877
O O2 0.559292 0.169552 0.778656
O O3 0.839437 0.208764 0.802381
O O4 0.635583 0.940630 0.556379
O O5 0.624175 0.247735 0.405388
O O6 0.437359 0.344983 0.671181
O O7 0.347097 0.219208 0.345704
O O8 0.877819 0.455357 0.617046
O O9 0.923754 0.267957 0.302540
O O10 0.337908 0.272565 0.891828
O O11 0.622678 0.458253 0.000086
O O12 0.482585 0.306634 0.133568
O O13 0.853756 0.680865 0.223893
O O14 0.500000 0.500000 0.500000
O O15 0.765360 0.644025 0.716354
O O16 0.953133 0.672746 0.941097
O O17 0.000000 0.500000 0.000000
#
# Coordination Sequence:
#
# PCOD9057162 Si02
#       8
#     2   2   2   2   2   2   2   2
#     4  12  27  45  69 104 142 186 228 279 353 414
#     4  12  27  45  69 104 142 186 228 279 353 414
#     4  11  23  43  70  99 144 172 228 295 345 401
#     4  11  22  41  71  99 135 178 232 283 333 409
#     4  11  22  41  71  99 135 178 232 283 333 409
#     4  12  24  43  70 103 139 178 231 289 337 412
#     4  12  24  43  70 103 139 178 231 289 337 412
#     4  11  24  43  69 106 132 175 237 290 341 391
#
# _framework density 21.207972000000002
#
# number of rings (size 3 to 8) (size 9 to 14) (size 15 to 20)
#    0.000    0.500    7.500    0.375    3.500    1.000 
#    0.000    0.625    0.000    0.000    0.000    0.000 
#    0.000    0.000    0.000    0.000    0.000    0.000 
#
# Total GULP energy -89359.114124 kJ/mol
# GULP energy per Si atom -5584.944633 kJ/mol
# Density = 2.115970 g / cm^3
# Si number density = 21.207972 Si / 1000 Ang^3
#
#
#
# Elastic Constant Matrix: (Units=GPa)
#
#
# Indices 1 2 3 4 5 6 
#
# 1 134.5606 34.1138 37.1879 -14.2900 11.5277 1.6247
# 2 34.1138 95.9846 34.1502 -17.9749 -7.1689 -10.7808
# 3 37.1879 34.1502 71.6444 -24.6315 9.1564 -6.1592
# 4 -14.2900 -17.9749 -24.6315 36.6748 0.1379 4.7479
# 5 11.5277 -7.1689 9.1564 0.1379 31.5241 -4.8881
# 6 1.6247 -10.7808 -6.1592 4.7479 -4.8881 31.8037
#
#
#
# Elastic Compliance Matrix: (Units=1/GPa)
#
#
# Indices 1 2 3 4 5 6 
#
# 1 0.009377 -0.002650 -0.003185 0.000568 -0.003515 -0.002619
# 2 -0.002650 0.014666 -0.005400 0.001883 0.006608 0.004796
# 3 -0.003185 -0.005400 0.023050 0.011617 -0.006807 0.000016
# 4 0.000568 0.001883 0.011617 0.036641 -0.003810 -0.003197
# 5 -0.003515 0.006608 -0.006807 -0.003810 0.037660 0.007458
# 6 -0.002619 0.004796 0.000016 -0.003197 0.007458 0.034829
#
#
# Mechanical properties :
#
#
# Convention : Reuss Voigt Hill
#
# Bulk Modulus (GPa) = 40.61122 57.01038 48.81080
# Shear Modulus (GPa) = 26.75219 33.11637 29.93428
#
# Velocity S-wave (km/s) = 3.55550 3.95588 3.76102
# Velocity P-wave (km/s) = 6.00384 6.91413 6.47500
#
# Compressibility (1/GPa) = 0.02462374
#
# Stress axis : x y z
#
# Youngs Moduli (GPa) = 106.64888 68.18345 43.38361
#
# Poissons Ratio (x) = 0.18067 0.13816
# Poissons Ratio (y) = 0.28260 0.23429
# Poissons Ratio (z) = 0.33963 0.36822
#
# Static dielectric constant tensor:
#      x y z
#    x 1.797630 -0.002730 -0.002470 
#    y -0.002730 1.784290 -0.033490 
#    z -0.002470 -0.033490 1.762260 
# 
# From -- ./inp_files/190009.got.cif
#   From: 2010.05.17/outbox.cif.g08.bks.cpg/sg2_96_cif.got.tgz:190009.got - 2010.06.03 11:33:40.
