data_PCOD9057119
_publ_section_title
;
Structure prediction by ZEFSAII (Michael W. Deem and Ramdas Pophale) SiO2 
 PCOD9057119
Probable space group: P -1
;
_chemical_formula_sum "Si O2"
_cell_formula_units_Z 16
_cell_length_a 7.646631
_cell_length_b 5.959106
_cell_length_c 19.928055
_cell_angle_alpha 88.781993
_cell_angle_beta 119.862828
_cell_angle_gamma 64.645796
_cell_volume 679.039378
_symmetry_space_group_name_H-M "P -1"
_symmetry_group_IT_number 2
_symmetry_cell_setting 'triclinic'
loop_
_space_group_symop_operation_xyz
x,y,z
-x,-y,-z
loop_
_atom_site_type_symbol
_atom_site_label
_atom_site_fract_x
_atom_site_fract_y
_atom_site_fract_z
Si Si1 0.915334 0.922226 0.588841
Si Si2 0.415775 0.801505 0.958487
Si Si3 0.132332 0.947706 0.145333
Si Si4 0.489819 0.558972 0.838472
Si Si5 0.754155 0.294166 0.683969
Si Si6 0.551459 0.903461 0.753306
Si Si7 0.643184 0.148571 0.407175
Si Si8 0.130784 0.442517 0.723441
O O1 0.122482 0.942333 0.590916
O O2 0.014649 0.632479 0.636970
O O3 0.833495 0.097923 0.638291
O O4 0.715245 0.016697 0.493986
O O5 0.486256 0.744947 0.894260
O O6 0.500000 0.500000 0.000000
O O7 0.137185 0.951208 0.913876
O O8 0.500000 0.000000 0.000000
O O9 0.288324 0.731191 0.120966
O O10 0.223357 0.825643 0.237745
O O11 0.207814 0.165146 0.163806
O O12 0.249018 0.555341 0.795356
O O13 0.490827 0.688439 0.767522
O O14 0.501078 0.539459 0.617828
O O15 0.941621 0.391508 0.721114
O O16 0.350831 0.176478 0.741806
O O17 0.523457 0.918877 0.667928
#
# Coordination Sequence:
#
# PCOD9057119 Si02
#       8
#     2   2   2   2   2   2   2   2
#     4  11  24  43  58  96 148 187 240 308 365 417
#     4  12  32  52  79 120 155 187 235 297 380 453
#     4  11  27  45  80 102 142 193 237 298 358 443
#     4  11  25  48  76 104 144 187 246 288 361 440
#     4  12  24  43  68 101 135 190 249 293 360 431
#     4  11  22  46  71 102 134 190 252 291 351 433
#     4  11  23  42  64  96 141 189 244 303 363 421
#     4  11  22  41  70  98 138 189 237 304 356 427
#
# _framework density 23.562697
#
# number of rings (size 3 to 8) (size 9 to 14) (size 15 to 20)
#    0.000    0.750    3.750    2.625   10.500    2.000 
#    2.250    0.000    0.000    0.000    0.000    0.000 
#    0.000    0.000    0.000    0.000    0.000    0.000 
#
# Total GULP energy -89463.891997 kJ/mol
# GULP energy per Si atom -5591.493250 kJ/mol
# Density = 2.350907 g / cm^3
# Si number density = 23.562697 Si / 1000 Ang^3
#
#
#
# Elastic Constant Matrix: (Units=GPa)
#
#
# Indices 1 2 3 4 5 6 
#
# 1 66.4014 7.3163 16.0636 15.1185 8.8198 -3.7924
# 2 7.3163 87.0690 31.4767 9.6721 6.9829 -11.1041
# 3 16.0636 31.4767 75.8347 8.1956 15.3852 -3.3536
# 4 15.1185 9.6721 8.1956 40.4946 3.2507 1.5806
# 5 8.8198 6.9829 15.3852 3.2507 33.5208 0.3485
# 6 -3.7924 -11.1041 -3.3536 1.5806 0.3485 39.4447
#
#
#
# Elastic Compliance Matrix: (Units=1/GPa)
#
#
# Indices 1 2 3 4 5 6 
#
# 1 0.017493 0.000627 -0.002634 -0.005984 -0.002964 0.001900
# 2 0.000627 0.014219 -0.005509 -0.002629 -0.000382 0.003703
# 3 -0.002634 -0.005509 0.017322 -0.000712 -0.006038 -0.000249
# 4 -0.005984 -0.002629 -0.000712 0.027816 -0.000223 -0.002489
# 5 -0.002964 -0.000382 -0.006038 -0.000223 0.033497 -0.001193
# 6 0.001900 0.003703 -0.000249 -0.002489 -0.001193 0.026666
#
#
# Mechanical properties :
#
#
# Convention : Reuss Voigt Hill
#
# Bulk Modulus (GPa) = 29.41001 37.66869 33.53935
# Shear Modulus (GPa) = 30.60372 34.32191 32.46282
#
# Velocity S-wave (km/s) = 3.60783 3.82071 3.71579
# Velocity P-wave (km/s) = 5.46479 5.95693 5.71616
#
# Compressibility (1/GPa) = 0.03400203
#
# Stress axis : x y z
#
# Youngs Moduli (GPa) = 57.16711 70.32765 57.72965
#
# Poissons Ratio (x) = -0.04409 0.15203
# Poissons Ratio (y) = -0.03584 0.31805
# Poissons Ratio (z) = 0.15055 0.38746
#
# Static dielectric constant tensor:
#      x y z
#    x 1.921800 0.055740 0.005620 
#    y 0.055740 1.958120 0.014490 
#    z 0.005620 0.014490 1.940160 
# 
# From -- ./inp_files/585750.got.cif
#   From: 2010.05.17/outbox.cif.g08.bks.cpg/sg2_293_cif.got.tgz:585750.got - 2010.06.03 11:33:40.
