data_PCOD9057702
_publ_section_title
;
Structure prediction by ZEFSAII (Michael W. Deem and Ramdas Pophale) SiO2 
 PCOD9057702
Probable space group: P -1
;
_chemical_formula_sum "Si O2"
_cell_formula_units_Z 14
_cell_length_a 16.020728
_cell_length_b 31.005334
_cell_length_c 12.652349
_cell_angle_alpha 160.421069
_cell_angle_beta 29.518424
_cell_angle_gamma 162.010218
_cell_volume 629.719417
_symmetry_space_group_name_H-M "P -1"
_symmetry_group_IT_number 2
_symmetry_cell_setting 'triclinic'
loop_
_space_group_symop_operation_xyz
x,y,z
-x,-y,-z
loop_
_atom_site_type_symbol
_atom_site_label
_atom_site_fract_x
_atom_site_fract_y
_atom_site_fract_z
Si Si1 0.666511 0.369342 0.739382
Si Si2 0.327606 0.440312 0.653552
Si Si3 0.217545 0.850480 0.531485
Si Si4 0.650113 0.775995 0.719676
Si Si5 0.025546 0.657962 0.525763
Si Si6 0.221208 0.336994 0.859382
Si Si7 0.836769 0.036915 0.766448
O O1 0.846792 0.373457 0.611302
O O2 0.472367 0.182038 0.435449
O O3 0.522387 0.370175 0.992925
O O4 0.808188 0.565665 0.966762
O O5 0.500000 0.500000 0.500000
O O6 0.249726 0.263540 0.393246
O O7 0.046341 0.337359 0.685515
O O8 0.161535 0.741899 0.452494
O O9 0.500000 0.000000 0.500000
O O10 0.229638 0.009919 0.909059
O O11 0.752924 0.777368 0.500065
O O12 0.310656 0.563957 0.615440
O O13 0.106082 0.844177 0.919218
O O14 0.968487 0.194170 0.887493
O O15 0.500000 0.500000 0.000000
O O16 0.000000 0.000000 0.500000
#
# Coordination Sequence:
#
# PCOD9057702 Si02
#       7
#     2   2   2   2   2   2   2
#     4  11  27  42  67 101 143 179 224 295 347 407
#     4  11  24  46  72  99 132 189 238 280 342 409
#     4  12  28  45  72 103 141 183 233 289 350 412
#     4  11  24  44  71 100 136 181 235 286 338 417
#     4  12  26  45  67 106 142 182 226 292 360 404
#     4  11  22  43  69 101 130 178 235 279 337 418
#     4  12  23  43  73  98 137 183 232 281 346 419
#
# _framework density 22.232125
#
# number of rings (size 3 to 8) (size 9 to 14) (size 15 to 20)
#    0.000    0.571    4.286    3.429    4.000    5.143 
#    0.000    0.000    0.000    0.000    0.000    0.000 
#    0.000    0.000    0.000    0.000    0.000    0.000 
#
# Total GULP energy -78256.307885 kJ/mol
# GULP energy per Si atom -5589.736277 kJ/mol
# Density = 2.218152 g / cm^3
# Si number density = 22.232125 Si / 1000 Ang^3
#
#
#
# Elastic Constant Matrix: (Units=GPa)
#
#
# Indices 1 2 3 4 5 6 
#
# 1 119.8858 6.7687 17.1797 -8.4427 -17.7716 4.6840
# 2 6.7687 54.7391 -14.0625 -3.8345 3.4438 -3.6436
# 3 17.1797 -14.0625 89.6757 4.3456 -0.9922 1.9165
# 4 -8.4427 -3.8345 4.3456 27.1218 0.9391 5.2455
# 5 -17.7716 3.4438 -0.9922 0.9391 35.8505 -7.1018
# 6 4.6840 -3.6436 1.9165 5.2455 -7.1018 34.7985
#
#
#
# Elastic Compliance Matrix: (Units=1/GPa)
#
#
# Indices 1 2 3 4 5 6 
#
# 1 0.009720 -0.001913 -0.002243 0.003127 0.004679 -0.000901
# 2 -0.001913 0.019715 0.003329 0.001474 -0.002511 0.001404
# 3 -0.002243 0.003329 0.012195 -0.002165 -0.001018 0.000097
# 4 0.003127 0.001474 -0.002165 0.039654 -0.000942 -0.006317
# 5 0.004679 -0.002511 -0.001018 -0.000942 0.031590 0.005752
# 6 -0.000901 0.001404 0.000097 -0.006317 0.005752 0.031126
#
#
# Mechanical properties :
#
#
# Convention : Reuss Voigt Hill
#
# Bulk Modulus (GPa) = 25.01555 31.56361 28.28958
# Shear Modulus (GPa) = 31.45084 36.51514 33.98299
#
# Velocity S-wave (km/s) = 3.76527 4.05711 3.91391
# Velocity P-wave (km/s) = 5.49358 6.01456 5.75997
#
# Compressibility (1/GPa) = 0.03997514
#
# Stress axis : x y z
#
# Youngs Moduli (GPa) = 102.88331 50.72297 82.00407
#
# Poissons Ratio (x) = 0.09705 0.18390
# Poissons Ratio (y) = 0.19686 -0.27299
# Poissons Ratio (z) = 0.23073 -0.16885
#
# Static dielectric constant tensor:
#      x y z
#    x 1.869290 0.059730 0.019030 
#    y 0.059730 1.955420 -0.022180 
#    z 0.019030 -0.022180 1.826620 
# 
# From -- ./inp_files/259803.got.cif
#   From: 2010.05.17/outbox.cif.g08.bks.cpg/sg2_130_cif.got.tgz:259803.got - 2010.06.03 11:33:40.
