data_PCOD9057622
_publ_section_title
;
Structure prediction by ZEFSAII (Michael W. Deem and Ramdas Pophale) SiO2 
 PCOD9057622
Probable space group: P -1
;
_chemical_formula_sum "Si O2"
_cell_formula_units_Z 16
_cell_length_a 8.969707
_cell_length_b 11.783879
_cell_length_c 15.219132
_cell_angle_alpha 107.770632
_cell_angle_beta 30.713977
_cell_angle_gamma 106.054620
_cell_volume 782.078501
_symmetry_space_group_name_H-M "P -1"
_symmetry_group_IT_number 2
_symmetry_cell_setting 'triclinic'
loop_
_space_group_symop_operation_xyz
x,y,z
-x,-y,-z
loop_
_atom_site_type_symbol
_atom_site_label
_atom_site_fract_x
_atom_site_fract_y
_atom_site_fract_z
Si Si1 0.905039 0.558331 0.153953
Si Si2 0.872752 0.356086 0.617503
Si Si3 0.852791 0.782205 0.833839
Si Si4 0.328833 0.414035 0.998884
Si Si5 0.218292 0.588776 0.518501
Si Si6 0.769685 0.189136 0.919126
Si Si7 0.829083 0.096648 0.669894
Si Si8 0.167930 0.996765 0.005542
O O1 0.564474 0.581819 0.337504
O O2 0.086597 0.679684 0.112730
O O3 0.000000 0.500000 0.000000
O O4 0.019005 0.463598 0.143859
O O5 0.546152 0.404410 0.805426
O O6 0.923083 0.367186 0.491319
O O7 0.880382 0.224975 0.624926
O O8 0.086040 0.457012 0.575866
O O9 0.100802 0.691659 0.663573
O O10 0.693757 0.715669 0.979659
O O11 0.583391 0.801948 0.908854
O O12 0.972952 0.907576 0.835352
O O13 0.500000 0.500000 0.000000
O O14 0.880855 0.125927 0.756523
O O15 0.832124 0.120613 0.962037
O O16 0.499090 0.041701 0.828185
O O17 0.000000 0.000000 0.500000
O O18 0.000000 0.000000 0.000000
#
# Coordination Sequence:
#
# PCOD9057622 Si02
#       8
#     2   2   2   2   2   2   2   2
#     4  12  26  41  68 102 138 178 223 286 340 402
#     4  11  22  43  66 100 137 174 227 271 344 406
#     4  11  23  45  71  94 134 184 224 279 340 412
#     4  12  20  44  69  94 136 178 223 274 352 405
#     4  11  26  39  68 104 135 175 223 287 331 407
#     4  11  25  47  70  97 138 185 230 275 344 414
#     4  11  25  46  72  98 133 184 230 278 338 412
#     4  11  27  46  69 102 133 178 231 286 339 402
#
# _framework density 20.458303999999998
#
# number of rings (size 3 to 8) (size 9 to 14) (size 15 to 20)
#    0.000    0.750    6.250    1.500    8.750    1.500 
#    0.000    1.250    0.000    0.000    0.000    0.000 
#    0.000    0.000    0.000    0.000    0.000    0.000 
#
# Total GULP energy -89191.088286 kJ/mol
# GULP energy per Si atom -5574.443018 kJ/mol
# Density = 2.041174 g / cm^3
# Si number density = 20.458304 Si / 1000 Ang^3
#
#
#
# Elastic Constant Matrix: (Units=GPa)
#
#
# Indices 1 2 3 4 5 6 
#
# 1 102.5091 27.7202 21.5606 9.4380 -2.6936 -12.1893
# 2 27.7202 86.9841 21.0192 16.4130 2.9450 -15.4575
# 3 21.5606 21.0192 97.4796 32.1593 1.2417 8.8010
# 4 9.4380 16.4130 32.1593 30.3625 -4.9044 8.2416
# 5 -2.6936 2.9450 1.2417 -4.9044 23.9713 -2.7934
# 6 -12.1893 -15.4575 8.8010 8.2416 -2.7934 36.2941
#
#
#
# Elastic Compliance Matrix: (Units=1/GPa)
#
#
# Indices 1 2 3 4 5 6 
#
# 1 0.011400 -0.002423 -0.002145 -0.000621 0.001983 0.003611
# 2 -0.002423 0.015804 -0.000129 -0.010386 -0.003395 0.008045
# 3 -0.002145 -0.000129 0.016654 -0.017337 -0.004780 -0.001245
# 4 -0.000621 -0.010386 -0.017337 0.062988 0.013395 -0.013700
# 5 0.001983 -0.003395 -0.004780 0.013395 0.045442 0.000835
# 6 0.003611 0.008045 -0.001245 -0.013700 0.000835 0.035669
#
#
# Mechanical properties :
#
#
# Convention : Reuss Voigt Hill
#
# Bulk Modulus (GPa) = 29.01549 47.50809 38.26179
# Shear Modulus (GPa) = 23.94185 32.57043 28.25614
#
# Velocity S-wave (km/s) = 3.42464 3.99437 3.72042
# Velocity P-wave (km/s) = 5.46361 6.67425 6.09904
#
# Compressibility (1/GPa) = 0.03446435
#
# Stress axis : x y z
#
# Youngs Moduli (GPa) = 87.71660 63.27546 60.04662
#
# Poissons Ratio (x) = 0.15331 0.12882
# Poissons Ratio (y) = 0.21253 0.00772
# Poissons Ratio (z) = 0.18818 0.00814
#
# Static dielectric constant tensor:
#      x y z
#    x 1.776700 0.038430 0.048500 
#    y 0.038430 1.661230 0.040850 
#    z 0.048500 0.040850 1.733990 
# 
# From -- ./inp_files/226542.got.cif
#   From: 2010.05.17/outbox.cif.g08.bks.cpg/sg2_114_cif.got.tgz:226542.got - 2010.06.03 11:33:40.
