data_PCOD9057126
_publ_section_title
;
Structure prediction by ZEFSAII (Michael W. Deem and Ramdas Pophale) SiO2 
 PCOD9057126
Probable space group: P -1
;
_chemical_formula_sum "Si O2"
_cell_formula_units_Z 16
_cell_length_a 9.407498
_cell_length_b 9.061041
_cell_length_c 14.704735
_cell_angle_alpha 124.982369
_cell_angle_beta 113.253330
_cell_angle_gamma 103.765685
_cell_volume 742.713170
_symmetry_space_group_name_H-M "P -1"
_symmetry_group_IT_number 2
_symmetry_cell_setting 'triclinic'
loop_
_space_group_symop_operation_xyz
x,y,z
-x,-y,-z
loop_
_atom_site_type_symbol
_atom_site_label
_atom_site_fract_x
_atom_site_fract_y
_atom_site_fract_z
Si Si1 0.701000 0.730474 0.667668
Si Si2 0.772020 0.309736 0.352000
Si Si3 0.754794 0.327830 0.714909
Si Si4 0.880011 0.025830 0.191941
Si Si5 0.998443 0.852305 0.317363
Si Si6 0.274292 0.313351 0.130697
Si Si7 0.723381 0.646056 0.350820
Si Si8 0.511673 0.102675 0.393750
O O1 0.500000 0.500000 0.500000
O O2 0.715770 0.750549 0.786491
O O3 0.676531 0.910362 0.683195
O O4 0.889478 0.763741 0.688896
O O5 0.719313 0.454156 0.336433
O O6 0.643481 0.187749 0.367111
O O7 0.000000 0.500000 0.500000
O O8 0.763083 0.119391 0.224190
O O9 0.907507 0.273845 0.725551
O O10 0.841616 0.580741 0.856741
O O11 0.646511 0.275306 0.571157
O O12 0.583805 0.144194 0.676242
O O13 0.881360 0.871768 0.215041
O O14 0.810569 0.889385 0.032369
O O15 0.854378 0.723297 0.321085
O O16 0.172645 0.116996 0.483790
O O17 0.496213 0.520683 0.231098
#
# Coordination Sequence:
#
# PCOD9057126 Si02
#       8
#     2   2   2   2   2   2   2   2
#     4  12  22  47  72  99 133 179 234 288 332 398
#     4  12  24  43  71 100 132 181 233 283 340 400
#     4  11  24  41  70 103 134 177 228 282 340 400
#     4  12  28  45  66 104 143 181 223 283 348 412
#     4  11  24  45  69 102 136 178 237 281 328 406
#     4  12  27  45  67 102 145 181 221 281 354 409
#     4  11  24  44  71 101 136 177 233 287 334 405
#     4  11  22  41  71 101 128 173 241 287 325 397
#
# _framework density 21.542636999999999
#
# number of rings (size 3 to 8) (size 9 to 14) (size 15 to 20)
#    0.000    0.500    5.000    4.125    5.250    1.500 
#    0.000    0.000    0.000    0.000    0.000    0.000 
#    0.000    0.000    0.000    0.000    0.000    0.000 
#
# Total GULP energy -89495.869046 kJ/mol
# GULP energy per Si atom -5593.491815 kJ/mol
# Density = 2.149361 g / cm^3
# Si number density = 21.542637 Si / 1000 Ang^3
#
#
#
# Elastic Constant Matrix: (Units=GPa)
#
#
# Indices 1 2 3 4 5 6 
#
# 1 119.4237 58.4711 24.0002 6.3979 -19.4843 0.2196
# 2 58.4711 128.5543 46.6868 -4.3914 -21.5570 5.5604
# 3 24.0002 46.6868 65.3304 -8.4066 -29.2561 -3.9483
# 4 6.3979 -4.3914 -8.4066 16.2913 -0.6313 -7.8331
# 5 -19.4843 -21.5570 -29.2561 -0.6313 33.1946 5.7179
# 6 0.2196 5.5604 -3.9483 -7.8331 5.7179 49.4068
#
#
#
# Elastic Compliance Matrix: (Units=1/GPa)
#
#
# Indices 1 2 3 4 5 6 
#
# 1 0.011702 -0.004867 0.000007 -0.006201 0.003755 -0.000921
# 2 -0.004867 0.012768 -0.007982 0.000291 -0.001274 -0.001860
# 3 0.000007 -0.007982 0.035006 0.018681 0.025388 0.003719
# 4 -0.006201 0.000291 0.018681 0.080153 0.012339 0.012767
# 5 0.003755 -0.001274 0.025388 0.012339 0.054490 -0.002194
# 6 -0.000921 -0.001860 0.003719 0.012767 -0.002194 0.023029
#
#
# Mechanical properties :
#
#
# Convention : Reuss Voigt Hill
#
# Bulk Modulus (GPa) = 29.59258 63.51385 46.55322
# Shear Modulus (GPa) = 19.67760 32.05522 25.86641
#
# Velocity S-wave (km/s) = 3.02557 3.86163 3.46888
# Velocity P-wave (km/s) = 5.09627 7.03063 6.14011
#
# Compressibility (1/GPa) = 0.03379225
#
# Stress axis : x y z
#
# Youngs Moduli (GPa) = 85.45757 78.31985 28.56646
#
# Poissons Ratio (x) = 0.38121 -0.00021
# Poissons Ratio (y) = 0.41596 0.22802
# Poissons Ratio (z) = -0.00064 0.62514
#
# Static dielectric constant tensor:
#      x y z
#    x 1.832360 -0.026250 -0.010950 
#    y -0.026250 1.829110 0.009380 
#    z -0.010950 0.009380 1.763270 
# 
# From -- ./inp_files/298380.got.cif
#   From: 2010.05.17/outbox.cif.g08.bks.cpg/sg2_150_cif.got.tgz:298380.got - 2010.06.03 11:33:40.
