data_PCOD9057230
_publ_section_title
;
Structure prediction by ZEFSAII (Michael W. Deem and Ramdas Pophale) SiO2 
 PCOD9057230
Probable space group: P -1
;
_chemical_formula_sum "Si O2"
_cell_formula_units_Z 12
_cell_length_a 5.502036
_cell_length_b 9.783760
_cell_length_c 19.296261
_cell_angle_alpha 38.829828
_cell_angle_beta 84.491261
_cell_angle_gamma 64.681465
_cell_volume 534.721327
_symmetry_space_group_name_H-M "P -1"
_symmetry_group_IT_number 2
_symmetry_cell_setting 'triclinic'
loop_
_space_group_symop_operation_xyz
x,y,z
-x,-y,-z
loop_
_atom_site_type_symbol
_atom_site_label
_atom_site_fract_x
_atom_site_fract_y
_atom_site_fract_z
Si Si1 0.228320 0.639114 0.899688
Si Si2 0.696849 0.521740 0.428570
Si Si3 0.208573 0.435269 0.231780
Si Si4 0.163802 0.212995 0.017508
Si Si5 0.416929 0.405510 0.755448
Si Si6 0.288869 0.056903 0.656326
O O1 0.950087 0.766336 0.909026
O O2 0.206315 0.866614 0.766092
O O3 0.500000 0.500000 0.000000
O O4 0.269092 0.409765 0.940286
O O5 0.500000 0.500000 0.500000
O O6 0.582527 0.543273 0.346414
O O7 0.688488 0.779913 0.347305
O O8 0.032687 0.269951 0.528523
O O9 0.421505 0.477560 0.256113
O O10 0.918605 0.483866 0.257398
O O11 0.401324 0.140592 0.311858
O O12 0.093987 0.644771 0.088753
O O13 0.395673 0.910345 0.112739
#
# Coordination Sequence:
#
# PCOD9057230 Si02
#       6
#     2   2   2   2   2   2
#     4  11  22  41  77 110 142 189 250 305 354 435
#     4  11  28  50  79 101 143 197 255 315 352 445
#     4  12  28  47  74 113 155 195 235 311 373 447
#     4  11  25  43  73 112 151 194 240 302 369 440
#     4  12  29  48  75 111 153 196 245 298 380 440
#     4  11  26  48  76 108 143 193 254 304 369 430
#
# _framework density 22.441595
#
# number of rings (size 3 to 8) (size 9 to 14) (size 15 to 20)
#    0.000    0.667    1.667    4.000   16.333    1.333 
#    0.000    0.000    0.000    0.000    0.000    0.000 
#    0.000    0.000    0.000    0.000    0.000    0.000 
#
# Total GULP energy -67215.424175 kJ/mol
# GULP energy per Si atom -5601.285348 kJ/mol
# Density = 2.239052 g / cm^3
# Si number density = 22.441595 Si / 1000 Ang^3
#
#
#
# Elastic Constant Matrix: (Units=GPa)
#
#
# Indices 1 2 3 4 5 6 
#
# 1 108.5599 44.8240 38.1426 -1.6512 5.1106 4.7030
# 2 44.8240 92.5621 60.5105 -3.6818 18.2300 -1.9902
# 3 38.1426 60.5105 93.9535 -8.9820 16.5897 5.7207
# 4 -1.6512 -3.6818 -8.9820 45.7620 -0.0514 12.8091
# 5 5.1106 18.2300 16.5897 -0.0514 39.8552 -0.0228
# 6 4.7030 -1.9902 5.7207 12.8091 -0.0228 51.1866
#
#
#
# Elastic Compliance Matrix: (Units=1/GPa)
#
#
# Indices 1 2 3 4 5 6 
#
# 1 0.011841 -0.004793 -0.001920 -0.000040 0.001473 -0.001049
# 2 -0.004793 0.021468 -0.011417 -0.001511 -0.004453 0.002927
# 3 -0.001920 -0.011417 0.019850 0.003872 -0.002791 -0.003456
# 4 -0.000040 -0.001511 0.003872 0.024329 -0.000888 -0.006576
# 5 0.001473 -0.004453 -0.002791 -0.000888 0.028100 0.000238
# 6 -0.001049 0.002927 -0.003456 -0.006576 0.000238 0.021779
#
#
# Mechanical properties :
#
#
# Convention : Reuss Voigt Hill
#
# Bulk Modulus (GPa) = 59.17767 64.66994 61.92381
# Shear Modulus (GPa) = 29.54065 37.46731 33.50398
#
# Velocity S-wave (km/s) = 3.63207 4.09044 3.86805
# Velocity P-wave (km/s) = 6.63446 7.15462 6.89944
#
# Compressibility (1/GPa) = 0.01689827
#
# Stress axis : x y z
#
# Youngs Moduli (GPa) = 84.45522 46.58088 50.37874
#
# Poissons Ratio (x) = 0.22325 0.09673
# Poissons Ratio (y) = 0.40478 0.57518
# Poissons Ratio (z) = 0.16216 0.53182
#
# Static dielectric constant tensor:
#      x y z
#    x 1.868950 -0.031370 -0.011360 
#    y -0.031370 1.832510 0.017070 
#    z -0.011360 0.017070 1.788680 
# 
# From -- ./inp_files/24386.got.cif
#   From: 2010.05.17/outbox.cif.g08.bks.cpg/sg2_13_cif.got.tgz:24386.got - 2010.06.03 11:33:40.
