data_PCOD9057044
_publ_section_title
;
Structure prediction by ZEFSAII (Michael W. Deem and Ramdas Pophale) SiO2 
 PCOD9057044
Probable space group: P -1
;
_chemical_formula_sum "Si O2"
_cell_formula_units_Z 12
_cell_length_a 11.837216
_cell_length_b 12.172346
_cell_length_c 9.057638
_cell_angle_alpha 59.597416
_cell_angle_beta 49.548840
_cell_angle_gamma 103.271893
_cell_volume 451.134191
_symmetry_space_group_name_H-M "P -1"
_symmetry_group_IT_number 2
_symmetry_cell_setting 'triclinic'
loop_
_space_group_symop_operation_xyz
x,y,z
-x,-y,-z
loop_
_atom_site_type_symbol
_atom_site_label
_atom_site_fract_x
_atom_site_fract_y
_atom_site_fract_z
Si Si1 0.767975 0.063843 0.835126
Si Si2 0.518509 0.456933 0.351680
Si Si3 0.231948 0.216718 0.466127
Si Si4 0.116119 0.698613 0.166481
Si Si5 0.872046 0.473265 0.984148
Si Si6 0.478547 0.286879 0.957574
O O1 0.959632 0.088125 0.720392
O O2 0.681798 0.073832 0.051682
O O3 0.935551 0.292175 0.441495
O O4 0.562765 0.852796 0.032731
O O5 0.500000 0.500000 0.500000
O O6 0.267886 0.241439 0.595376
O O7 0.665207 0.687839 0.996186
O O8 0.664803 0.428398 0.253795
O O9 0.500000 0.500000 0.000000
O O10 0.324282 0.156594 0.336324
O O11 0.817569 0.554561 0.492169
O O12 0.000000 0.500000 0.500000
O O13 0.224617 0.709091 0.921267
O O14 0.000000 0.500000 0.000000
#
# Coordination Sequence:
#
# PCOD9057044 Si02
#       6
#     2   2   2   2   2   2
#     4  11  21  39  68  97 117 162 217 252 307 365
#     4  11  22  40  66  93 121 164 208 257 315 359
#     4  10  17  36  64  94 118 157 207 264 299 355
#     4  10  21  39  61  90 128 164 201 251 310 375
#     4  11  23  38  60  91 131 165 198 254 315 369
#     4  11  21  39  69  95 120 158 216 261 298 368
#
# _framework density 26.599626000000001
#
# number of rings (size 3 to 8) (size 9 to 14) (size 15 to 20)
#    0.000    1.333    6.667    2.500    0.000    2.667 
#    0.000    2.500    0.000    9.000    0.000    0.000 
#    0.000    0.000    0.000    0.000    0.000    0.000 
#
# Total GULP energy -66954.744757 kJ/mol
# GULP energy per Si atom -5579.562063 kJ/mol
# Density = 2.653908 g / cm^3
# Si number density = 26.599626 Si / 1000 Ang^3
#
#
#
# Elastic Constant Matrix: (Units=GPa)
#
#
# Indices 1 2 3 4 5 6 
#
# 1 161.9691 69.3705 32.5795 22.4931 -14.3325 6.6760
# 2 69.3705 296.9476 56.3810 40.2391 -0.5510 32.1488
# 3 32.5795 56.3810 57.9153 14.4232 0.6894 5.3563
# 4 22.4931 40.2391 14.4232 50.3817 2.1449 3.1543
# 5 -14.3325 -0.5510 0.6894 2.1449 27.5002 13.1581
# 6 6.6760 32.1488 5.3563 3.1543 13.1581 54.7525
#
#
#
# Elastic Compliance Matrix: (Units=1/GPa)
#
#
# Indices 1 2 3 4 5 6 
#
# 1 0.007935 -0.000841 -0.003059 -0.002129 0.004956 -0.001243
# 2 -0.000841 0.004806 -0.003393 -0.002383 0.001137 -0.002524
# 3 -0.003059 -0.003393 0.022841 -0.002412 -0.002459 0.000861
# 4 -0.002129 -0.002383 -0.002412 0.023457 -0.003600 0.001408
# 5 0.004956 0.001137 -0.002459 -0.003600 0.044865 -0.011606
# 6 -0.001243 -0.002524 0.000861 0.001408 -0.011606 0.022521
#
#
# Mechanical properties :
#
#
# Convention : Reuss Voigt Hill
#
# Bulk Modulus (GPa) = 47.62664 92.61044 70.11854
# Shear Modulus (GPa) = 33.78161 50.42695 42.10428
#
# Velocity S-wave (km/s) = 3.56758 4.35878 3.98287
# Velocity P-wave (km/s) = 5.90881 7.76041 6.89703
#
# Compressibility (1/GPa) = 0.02099665
#
# Stress axis : x y z
#
# Youngs Moduli (GPa) = 126.02749 208.05748 43.78085
#
# Poissons Ratio (x) = 0.17489 0.13394
# Poissons Ratio (y) = 0.10594 0.14855
# Poissons Ratio (z) = 0.38555 0.70593
#
# Static dielectric constant tensor:
#      x y z
#    x 1.105840 0.250070 0.899700 
#    y 0.250070 2.153690 -0.125790 
#    z 0.899700 -0.125790 1.479480 
# 
# From -- ./inp_files/159311.got.cif
#   From: 2010.05.17/outbox.cif.g08.bks.cpg/sg2_80_cif.got.tgz:159311.got - 2010.06.03 11:33:40.
