data_PCOD9057433
_publ_section_title
;
Structure prediction by ZEFSAII (Michael W. Deem and Ramdas Pophale) SiO2 
 PCOD9057433
Probable space group: P -1
;
_chemical_formula_sum "Si O2"
_cell_formula_units_Z 14
_cell_length_a 9.918979
_cell_length_b 17.034354
_cell_length_c 4.880442
_cell_angle_alpha 83.061274
_cell_angle_beta 69.195542
_cell_angle_gamma 52.147767
_cell_volume 603.365564
_symmetry_space_group_name_H-M "P -1"
_symmetry_group_IT_number 2
_symmetry_cell_setting 'triclinic'
loop_
_space_group_symop_operation_xyz
x,y,z
-x,-y,-z
loop_
_atom_site_type_symbol
_atom_site_label
_atom_site_fract_x
_atom_site_fract_y
_atom_site_fract_z
Si Si1 0.468265 0.180433 0.332814
Si Si2 0.542745 0.412868 0.804156
Si Si3 0.952333 0.689080 0.416669
Si Si4 0.760270 0.210411 0.083786
Si Si5 0.804908 0.426109 0.238548
Si Si6 0.009039 0.143449 0.459320
Si Si7 0.587094 0.049415 0.796993
O O1 0.254882 0.268207 0.491857
O O2 0.522294 0.088137 0.521057
O O3 0.608966 0.201040 0.303580
O O4 0.510937 0.145099 0.002545
O O5 0.644712 0.314760 0.955355
O O6 0.676811 0.401018 0.477370
O O7 0.345990 0.458763 0.795425
O O8 0.925643 0.357691 0.924078
O O9 0.949232 0.781568 0.487795
O O10 0.055178 0.602193 0.608009
O O11 0.898635 0.134741 0.779258
O O12 0.887808 0.190565 0.254259
O O13 0.500000 0.500000 0.000000
O O14 0.196687 0.035478 0.310257
O O15 0.500000 0.000000 0.000000
#
# Coordination Sequence:
#
# PCOD9057433 Si02
#       7
#     2   2   2   2   2   2   2
#     4  12  28  47  68 101 147 177 224 295 350 398
#     4  11  22  42  70 103 140 175 232 284 334 409
#     4  12  23  43  69 102 134 181 234 282 333 416
#     4  12  28  44  68 105 140 183 221 291 357 394
#     4  11  23  37  70 104 131 175 235 281 328 400
#     4  12  25  42  73  98 134 185 237 276 335 420
#     4  12  26  46  73 103 133 184 238 283 336 407
#
# _framework density 23.203178000000001
#
# number of rings (size 3 to 8) (size 9 to 14) (size 15 to 20)
#    0.000    0.286    4.286    4.714    4.000    3.429 
#    0.000    1.429    0.000    0.000    0.000    0.000 
#    0.000    0.000    0.000    0.000    0.000    0.000 
#
# Total GULP energy -78376.708789 kJ/mol
# GULP energy per Si atom -5598.336342 kJ/mol
# Density = 2.315037 g / cm^3
# Si number density = 23.203178 Si / 1000 Ang^3
#
#
#
# Elastic Constant Matrix: (Units=GPa)
#
#
# Indices 1 2 3 4 5 6 
#
# 1 65.7540 38.7819 48.6102 8.7568 0.1822 -43.8422
# 2 38.7819 107.2274 56.7840 31.8614 -4.1211 -49.7054
# 3 48.6102 56.7840 151.1537 19.4787 14.9069 -23.6559
# 4 8.7568 31.8614 19.4787 42.5756 -8.0655 2.4999
# 5 0.1822 -4.1211 14.9069 -8.0655 38.2510 5.3306
# 6 -43.8422 -49.7054 -23.6559 2.4999 5.3306 40.2330
#
#
#
# Elastic Compliance Matrix: (Units=1/GPa)
#
#
# Indices 1 2 3 4 5 6 
#
# 1 -0.024517 -0.046813 0.004471 0.045990 0.015122 -0.086783
# 2 -0.046813 -0.019905 0.005776 0.028674 0.012414 -0.075633
# 3 0.004471 0.005776 0.008130 -0.011482 -0.007567 0.018504
# 4 0.045990 0.028674 -0.011482 -0.007911 -0.005473 0.080006
# 5 0.015122 0.012414 -0.007567 -0.005473 0.025819 0.024285
# 6 -0.086783 -0.075633 0.018504 0.080006 0.024285 -0.160462
#
#
# Mechanical properties :
#
#
# Convention : Reuss Voigt Hill
#
# Bulk Modulus (GPa) = -9.13887 68.05412 29.45762
# Shear Modulus (GPa) = -35.16475 36.20921 0.52223
#
# Velocity S-wave (km/s) = -3.89718 3.95464 0.47493
# Velocity P-wave (km/s) = 4.91914 7.08841 3.60885
#
# Compressibility (1/GPa) = -0.10942274
#
# Stress axis : x y z
#
# Youngs Moduli (GPa) = -40.78838 -50.23966 123.00401
#
# Poissons Ratio (x) = -2.35186 -0.54996
# Poissons Ratio (y) = -1.90942 -0.71049
# Poissons Ratio (z) = 0.18237 0.29019
#
# Static dielectric constant tensor:
#      x y z
#    x 1.924640 0.027850 -0.002860 
#    y 0.027850 1.883830 -0.014830 
#    z -0.002860 -0.014830 1.848570 
# 
# From -- ./inp_files/50961.got.cif
#   From: 2010.05.17/outbox.cif.g08.bks.cpg/sg2_26_cif.got.tgz:50961.got - 2010.06.03 11:33:40.
