data_PCOD9057078
_publ_section_title
;
Structure prediction by ZEFSAII (Michael W. Deem and Ramdas Pophale) SiO2 
 PCOD9057078
Probable space group: P -1
;
_chemical_formula_sum "Si O2"
_cell_formula_units_Z 16
_cell_length_a 9.334402
_cell_length_b 6.958171
_cell_length_c 11.667412
_cell_angle_alpha 76.264754
_cell_angle_beta 82.809082
_cell_angle_gamma 49.757774
_cell_volume 561.497482
_symmetry_space_group_name_H-M "P -1"
_symmetry_group_IT_number 2
_symmetry_cell_setting 'triclinic'
loop_
_space_group_symop_operation_xyz
x,y,z
-x,-y,-z
loop_
_atom_site_type_symbol
_atom_site_label
_atom_site_fract_x
_atom_site_fract_y
_atom_site_fract_z
Si Si1 0.869978 0.464073 0.889940
Si Si2 0.423649 0.544001 0.645352
Si Si3 0.697672 0.048577 0.079954
Si Si4 0.822383 0.336588 0.141132
Si Si5 0.745073 0.176152 0.828149
Si Si6 0.834392 0.445715 0.479433
Si Si7 0.819147 0.734063 0.639986
Si Si8 0.413040 0.001589 0.670514
O O1 0.753024 0.388675 0.853585
O O2 0.852199 0.665333 0.780191
O O3 0.817852 0.514957 0.022080
O O4 0.086287 0.209467 0.900116
O O5 0.275545 0.557246 0.742880
O O6 0.622136 0.294206 0.710056
O O7 0.328146 0.568242 0.530790
O O8 0.405766 0.790814 0.644556
O O9 0.708710 0.258691 0.102714
O O10 0.583971 0.025043 0.188288
O O11 0.649945 0.117999 0.941974
O O12 0.036526 0.073707 0.170020
O O13 0.854786 0.493961 0.602116
O O14 0.038784 0.233428 0.433806
O O15 0.760371 0.714936 0.391323
O O16 0.598162 0.952332 0.616942
#
# Coordination Sequence:
#
# PCOD9057078 Si02
#       8
#     2   2   2   2   2   2   2   2
#     4   9  15  34  62  93 121 167 208 245 309 378
#     4  11  23  39  67  97 126 161 208 256 316 370
#     4   8  16  31  61  93 127 155 204 256 301 371
#     4   8  18  31  59  97 129 155 204 254 304 376
#     4   9  17  33  59  97 127 160 201 256 306 371
#     4  11  27  46  59  94 131 158 215 271 297 370
#     4  11  23  43  68  84 125 176 206 254 325 360
#     4  11  22  41  69  92 121 167 212 255 311 370
#
# _framework density 28.495232000000001
#
# number of rings (size 3 to 8) (size 9 to 14) (size 15 to 20)
#    0.000    2.250    2.500    1.875    1.750    3.000 
#    0.000    3.750    0.000    0.000    0.000    0.000 
#    0.000    0.000    0.000    0.000    0.000    0.000 
#
# Total GULP energy -89725.070065 kJ/mol
# GULP energy per Si atom -5607.816879 kJ/mol
# Density = 2.843038 g / cm^3
# Si number density = 28.495232 Si / 1000 Ang^3
#
#
#
# Elastic Constant Matrix: (Units=GPa)
#
#
# Indices 1 2 3 4 5 6 
#
# 1 150.5931 39.4337 30.4501 1.8994 19.4421 -6.3161
# 2 39.4337 57.9937 28.4497 -21.9381 9.2508 -16.6822
# 3 30.4501 28.4497 161.0629 -20.1474 -2.3904 -3.7252
# 4 1.8994 -21.9381 -20.1474 24.4924 2.8264 3.3616
# 5 19.4421 9.2508 -2.3904 2.8264 51.0662 10.1280
# 6 -6.3161 -16.6822 -3.7252 3.3616 10.1280 59.1538
#
#
#
# Elastic Compliance Matrix: (Units=1/GPa)
#
#
# Indices 1 2 3 4 5 6 
#
# 1 0.009847 -0.010211 -0.001454 -0.010821 -0.001148 -0.001108
# 2 -0.010211 0.043455 -0.000802 0.038586 -0.008206 0.010326
# 3 -0.001454 -0.000802 0.007299 0.005355 0.000817 -0.000366
# 4 -0.010821 0.038586 0.005355 0.080660 -0.008458 0.006928
# 5 -0.001148 -0.008206 0.000817 -0.008458 0.023177 -0.005873
# 6 -0.001108 0.010326 -0.000366 0.006928 -0.005873 0.020288
#
#
# Mechanical properties :
#
#
# Convention : Reuss Voigt Hill
#
# Bulk Modulus (GPa) = 28.03731 62.92408 45.48070
# Shear Modulus (GPa) = 22.56843 45.03023 33.79933
#
# Velocity S-wave (km/s) = 2.81732 3.97958 3.44777
# Velocity P-wave (km/s) = 4.52147 6.57619 5.64314
#
# Compressibility (1/GPa) = 0.03566676
#
# Stress axis : x y z
#
# Youngs Moduli (GPa) = 101.55807 23.01205 137.00962
#
# Poissons Ratio (x) = 0.23498 0.19924
# Poissons Ratio (y) = 1.03703 0.10983
# Poissons Ratio (z) = 0.14769 0.01845
#
# Static dielectric constant tensor:
#      x y z
#    x 2.200890 0.016480 -0.027530 
#    y 0.016480 2.164160 0.067890 
#    z -0.027530 0.067890 2.248790 
# 
# From -- ./inp_files/381991.got.cif
#   From: 2010.05.17/outbox.cif.g08.bks.cpg/sg2_191_cif.got.tgz:381991.got - 2010.06.03 11:33:40.
