data_PCOD9057675
_publ_section_title
;
Structure prediction by ZEFSAII (Michael W. Deem and Ramdas Pophale) SiO2 
 PCOD9057675
Probable space group: P -1
;
_chemical_formula_sum "Si O2"
_cell_formula_units_Z 16
_cell_length_a 8.988509
_cell_length_b 10.505988
_cell_length_c 14.549916
_cell_angle_alpha 110.494766
_cell_angle_beta 57.179131
_cell_angle_gamma 65.062436
_cell_volume 681.252691
_symmetry_space_group_name_H-M "P -1"
_symmetry_group_IT_number 2
_symmetry_cell_setting 'triclinic'
loop_
_space_group_symop_operation_xyz
x,y,z
-x,-y,-z
loop_
_atom_site_type_symbol
_atom_site_label
_atom_site_fract_x
_atom_site_fract_y
_atom_site_fract_z
Si Si1 0.125265 0.762758 0.542649
Si Si2 0.792420 0.327385 0.240747
Si Si3 0.817052 0.053088 0.288684
Si Si4 0.356358 0.583629 0.971804
Si Si5 0.191637 0.487316 0.873056
Si Si6 0.201571 0.518864 0.291713
Si Si7 0.218849 0.203454 0.202692
Si Si8 0.317258 0.235409 0.591193
O O1 0.450821 0.535287 0.407455
O O2 0.108615 0.924682 0.630391
O O3 0.116219 0.695252 0.429818
O O4 0.861232 0.850725 0.703796
O O5 0.859769 0.140813 0.216879
O O6 0.895576 0.319781 0.103972
O O7 0.956902 0.333756 0.254205
O O8 0.495870 0.198722 0.440410
O O9 0.024563 0.803525 0.144778
O O10 0.413839 0.412627 0.852746
O O11 0.490726 0.629063 0.884693
O O12 0.500000 0.500000 0.000000
O O13 0.300154 0.338186 0.712948
O O14 0.000000 0.500000 0.000000
O O15 0.218707 0.355279 0.282083
O O16 0.983470 0.633585 0.310611
O O17 0.500000 0.000000 0.000000
O O18 0.500000 0.000000 0.500000
#
# Coordination Sequence:
#
# PCOD9057675 Si02
#       8
#     2   2   2   2   2   2   2   2
#     4  11  22  43  68 103 138 185 226 286 353 417
#     4  11  22  46  75  98 140 187 232 287 355 414
#     4  11  23  45  72 105 136 184 236 287 349 425
#     4  12  27  46  70 101 142 184 232 292 351 417
#     4  12  25  48  70  99 139 190 234 286 357 421
#     4  12  22  43  65 101 137 181 230 286 344 420
#     4  11  23  41  67 104 144 179 222 290 350 418
#     4  12  25  46  71 100 138 187 239 289 348 422
#
# _framework density 23.486145
#
# number of rings (size 3 to 8) (size 9 to 14) (size 15 to 20)
#    0.000    0.500    3.750    6.375    0.000    1.500 
#    6.750    2.500    0.000    0.000    0.000    0.000 
#    0.000    0.000    0.000    0.000    0.000    0.000 
#
# Total GULP energy -89206.541534 kJ/mol
# GULP energy per Si atom -5575.408846 kJ/mol
# Density = 2.343269 g / cm^3
# Si number density = 23.486145 Si / 1000 Ang^3
#
#
#
# Elastic Constant Matrix: (Units=GPa)
#
#
# Indices 1 2 3 4 5 6 
#
# 1 130.4162 14.9246 21.6550 -3.4128 5.3219 -8.2116
# 2 14.9246 62.3831 28.4141 -19.5593 -1.3030 9.2496
# 3 21.6550 28.4141 115.2332 -13.5403 -13.0008 0.3288
# 4 -3.4128 -19.5593 -13.5403 39.5650 8.0690 -6.4975
# 5 5.3219 -1.3030 -13.0008 8.0690 48.5427 -14.7471
# 6 -8.2116 9.2496 0.3288 -6.4975 -14.7471 31.3771
#
#
#
# Elastic Compliance Matrix: (Units=1/GPa)
#
#
# Indices 1 2 3 4 5 6 
#
# 1 0.008246 -0.001844 -0.001170 -0.000094 -0.000505 0.002457
# 2 -0.001844 0.022318 -0.004537 0.008989 -0.004052 -0.007057
# 3 -0.001170 -0.004537 0.010521 0.000998 0.003501 0.002773
# 4 -0.000094 0.008989 0.000998 0.031192 -0.004106 0.001845
# 5 -0.000505 -0.004052 0.003501 -0.004106 0.025922 0.012359
# 6 0.002457 -0.007057 0.002773 0.001845 0.012359 0.040755
#
#
# Mechanical properties :
#
#
# Convention : Reuss Voigt Hill
#
# Bulk Modulus (GPa) = 38.48874 48.66885 43.57880
# Shear Modulus (GPa) = 30.72813 40.09954 35.41384
#
# Velocity S-wave (km/s) = 3.62104 4.13652 3.88733
# Velocity P-wave (km/s) = 5.82288 6.60164 6.22446
#
# Compressibility (1/GPa) = 0.02598162
#
# Stress axis : x y z
#
# Youngs Moduli (GPa) = 121.27212 44.80720 95.04760
#
# Poissons Ratio (x) = 0.08264 0.11119
# Poissons Ratio (y) = 0.22367 0.43126
# Poissons Ratio (z) = 0.14187 0.20331
#
# Static dielectric constant tensor:
#      x y z
#    x 1.886900 0.024220 0.025470 
#    y 0.024220 1.981900 -0.032400 
#    z 0.025470 -0.032400 1.872940 
# 
# From -- ./inp_files/500546.got.cif
#   From: 2010.05.17/outbox.cif.g08.bks.cpg/sg2_251_cif.got.tgz:500546.got - 2010.06.03 11:33:40.
