data_PCOD9057951
_publ_section_title
;
Structure prediction by ZEFSAII (Michael W. Deem and Ramdas Pophale) SiO2 
 PCOD9057951
Probable space group: P -1
;
_chemical_formula_sum "Si O2"
_cell_formula_units_Z 12
_cell_length_a 14.713598
_cell_length_b 8.615771
_cell_length_c 9.013161
_cell_angle_alpha 98.213869
_cell_angle_beta 126.017895
_cell_angle_gamma 125.468062
_cell_volume 510.489627
_symmetry_space_group_name_H-M "P -1"
_symmetry_group_IT_number 2
_symmetry_cell_setting 'triclinic'
loop_
_space_group_symop_operation_xyz
x,y,z
-x,-y,-z
loop_
_atom_site_type_symbol
_atom_site_label
_atom_site_fract_x
_atom_site_fract_y
_atom_site_fract_z
Si Si1 0.296273 0.241627 0.857263
Si Si2 0.868058 0.631664 0.271401
Si Si3 0.449964 0.245222 0.265472
Si Si4 0.328094 0.746787 0.686427
Si Si5 0.184246 0.096296 0.234283
Si Si6 0.960740 0.362342 0.789228
O O1 0.260312 0.370744 0.912779
O O2 0.500000 0.500000 0.000000
O O3 0.333814 0.143617 0.989374
O O4 0.094085 0.960610 0.541834
O O5 0.804126 0.515250 0.363619
O O6 0.859010 0.474113 0.129617
O O7 0.568449 0.222566 0.348618
O O8 0.283239 0.094855 0.206288
O O9 0.629461 0.579789 0.495946
O O10 0.194657 0.725551 0.477779
O O11 0.500000 0.000000 0.000000
O O12 0.111647 0.891114 0.259152
O O13 0.000000 0.000000 0.000000
O O14 0.000000 0.500000 0.000000
#
# Coordination Sequence:
#
# PCOD9057951 Si02
#       6
#     2   2   2   2   2   2
#     4  11  22  43  79 108 136 187 256 309 362 429
#     4  11  26  45  75 109 148 191 248 310 365 435
#     4  11  25  44  76 104 141 193 246 309 360 439
#     4  12  28  48  74 110 155 194 245 304 375 441
#     4  11  26  48  73 105 147 189 250 304 369 434
#     4  12  28  47  74 106 151 198 240 299 378 443
#
# _framework density 23.506843
#
# number of rings (size 3 to 8) (size 9 to 14) (size 15 to 20)
#    0.000    0.667    1.667    4.500   11.667    2.000 
#    0.000    0.000    0.000    0.000    0.000    0.000 
#    0.000    0.000    0.000    0.000    0.000    0.000 
#
# Total GULP energy -67013.258485 kJ/mol
# GULP energy per Si atom -5584.438207 kJ/mol
# Density = 2.345334 g / cm^3
# Si number density = 23.506843 Si / 1000 Ang^3
#
#
#
# Elastic Constant Matrix: (Units=GPa)
#
#
# Indices 1 2 3 4 5 6 
#
# 1 171.5221 17.1784 27.7276 -1.2694 20.3271 2.3765
# 2 17.1784 92.8303 16.1601 1.1140 16.3534 1.1442
# 3 27.7276 16.1601 61.3334 8.5893 11.8268 0.2150
# 4 -1.2694 1.1140 8.5893 34.2793 -4.0954 14.7137
# 5 20.3271 16.3534 11.8268 -4.0954 39.8644 -9.3266
# 6 2.3765 1.1442 0.2150 14.7137 -9.3266 34.0159
#
#
#
# Elastic Compliance Matrix: (Units=1/GPa)
#
#
# Indices 1 2 3 4 5 6 
#
# 1 0.006638 -0.000285 -0.002569 0.001328 -0.002785 -0.001776
# 2 -0.000285 0.012022 -0.002217 0.000375 -0.004504 -0.001767
# 3 -0.002569 -0.002217 0.019644 -0.006150 -0.003834 0.001739
# 4 0.001328 0.000375 -0.006150 0.037798 0.001107 -0.016113
# 5 -0.002785 -0.004504 -0.003834 0.001107 0.031606 0.008557
# 6 -0.001776 -0.001767 0.001739 -0.016113 0.008557 0.038887
#
#
# Mechanical properties :
#
#
# Convention : Reuss Voigt Hill
#
# Bulk Modulus (GPa) = 35.50649 49.75755 42.63202
# Shear Modulus (GPa) = 30.09815 39.27325 34.68570
#
# Velocity S-wave (km/s) = 3.58215 4.09187 3.84547
# Velocity P-wave (km/s) = 5.67861 6.59832 6.15566
#
# Compressibility (1/GPa) = 0.02816387
#
# Stress axis : x y z
#
# Youngs Moduli (GPa) = 150.63769 83.18370 50.90602
#
# Poissons Ratio (x) = 0.02368 0.13077
# Poissons Ratio (y) = 0.04288 0.11284
# Poissons Ratio (z) = 0.38697 0.18438
#
# Static dielectric constant tensor:
#      x y z
#    x 1.674830 -0.411960 -0.147240 
#    y -0.411960 1.451220 -0.153810 
#    z -0.147240 -0.153810 1.932250 
# 
# From -- ./inp_files/17769.got.cif
#   From: 2010.05.17/outbox.cif.g08.bks.cpg/sg2_9_cif.got.tgz:17769.got - 2010.06.03 11:33:40.
