data_PCOD9057391
_publ_section_title
;
Structure prediction by ZEFSAII (Michael W. Deem and Ramdas Pophale) SiO2 
 PCOD9057391
Probable space group: P -1
;
_chemical_formula_sum "Si O2"
_cell_formula_units_Z 14
_cell_length_a 15.412195
_cell_length_b 9.130784
_cell_length_c 6.217766
_cell_angle_alpha 50.954364
_cell_angle_beta 95.519022
_cell_angle_gamma 114.717706
_cell_volume 599.706300
_symmetry_space_group_name_H-M "P -1"
_symmetry_group_IT_number 2
_symmetry_cell_setting 'triclinic'
loop_
_space_group_symop_operation_xyz
x,y,z
-x,-y,-z
loop_
_atom_site_type_symbol
_atom_site_label
_atom_site_fract_x
_atom_site_fract_y
_atom_site_fract_z
Si Si1 0.587521 0.651507 0.728523
Si Si2 0.170388 0.240654 0.702270
Si Si3 0.915642 0.714318 0.967374
Si Si4 0.899011 0.094796 0.393172
Si Si5 0.736127 0.981684 0.776593
Si Si6 0.599508 0.992597 0.102854
Si Si7 0.725066 0.430271 0.915468
O O1 0.655243 0.848547 0.708485
O O2 0.649293 0.526355 0.819340
O O3 0.569017 0.759395 0.412537
O O4 0.500000 0.500000 0.000000
O O5 0.221332 0.466864 0.390002
O O6 0.151183 0.063850 0.676048
O O7 0.084872 0.258609 0.802045
O O8 0.232384 0.180607 0.943352
O O9 0.811305 0.535167 0.017002
O O10 0.008021 0.711892 0.872976
O O11 0.928317 0.943939 0.682078
O O12 0.828994 0.135990 0.505705
O O13 0.678778 0.046392 0.879807
O O14 0.660070 0.179161 0.116085
O O15 0.500000 0.000000 0.000000
#
# Coordination Sequence:
#
# PCOD9057391 Si02
#       7
#     2   2   2   2   2   2   2
#     4  12  26  46  71  95 133 177 231 289 346 403
#     4  10  17  36  67  96 134 179 215 278 335 396
#     4   9  18  33  64 102 135 175 222 274 328 405
#     4   9  17  33  62 104 133 172 228 268 334 398
#     4  11  21  42  67  95 140 175 223 287 336 396
#     4  12  29  45  68 103 134 181 232 284 346 408
#     4  11  23  43  66 101 137 173 232 270 344 403
#
# _framework density 23.344760000000001
#
# number of rings (size 3 to 8) (size 9 to 14) (size 15 to 20)
#    0.000    1.429    5.714    1.286    2.000    5.714 
#    0.000    0.714    0.000    4.286    0.000    0.000 
#    0.000    0.000    0.000    0.000    0.000    0.000 
#
# Total GULP energy -78035.153025 kJ/mol
# GULP energy per Si atom -5573.939502 kJ/mol
# Density = 2.329163 g / cm^3
# Si number density = 23.344760 Si / 1000 Ang^3
#
#
#
# Elastic Constant Matrix: (Units=GPa)
#
#
# Indices 1 2 3 4 5 6 
#
# 1 110.0587 36.2727 61.5089 0.3202 -40.0299 -13.4058
# 2 36.2727 175.9089 83.1669 -65.3380 3.5565 76.5668
# 3 61.5089 83.1669 134.6205 -14.2798 -16.7208 21.1261
# 4 0.3202 -65.3380 -14.2798 60.5216 -16.5921 -51.8693
# 5 -40.0299 3.5565 -16.7208 -16.5921 41.3187 18.9210
# 6 -13.4058 76.5668 21.1261 -51.8693 18.9210 111.4286
#
#
#
# Elastic Compliance Matrix: (Units=1/GPa)
#
#
# Indices 1 2 3 4 5 6 
#
# 1 0.019452 -0.001331 -0.006074 0.004913 0.016709 0.003856
# 2 -0.001331 0.015303 -0.006798 0.011711 0.001244 -0.004146
# 3 -0.006074 -0.006798 0.013816 -0.005148 -0.001392 -0.000839
# 4 0.004913 0.011711 -0.005148 0.040047 0.013208 0.009919
# 5 0.016709 0.001244 -0.001392 0.013208 0.045062 -0.000084
# 6 0.003856 -0.004146 -0.000839 0.009919 -0.000084 0.017078
#
#
# Mechanical properties :
#
#
# Convention : Reuss Voigt Hill
#
# Bulk Modulus (GPa) = 49.59263 86.94279 68.26771
# Shear Modulus (GPa) = 26.89825 58.62977 42.76401
#
# Velocity S-wave (km/s) = 3.39812 5.01690 4.28465
# Velocity P-wave (km/s) = 6.05689 8.41919 7.33378
#
# Compressibility (1/GPa) = 0.02016429
#
# Stress axis : x y z
#
# Youngs Moduli (GPa) = 51.40901 65.34810 72.37750
#
# Poissons Ratio (x) = 0.08695 0.43965
# Poissons Ratio (y) = 0.06840 0.49206
# Poissons Ratio (z) = 0.31228 0.44427
#
# Static dielectric constant tensor:
#      x y z
#    x 2.087350 -0.036890 -0.117170 
#    y -0.036890 1.886000 0.010250 
#    z -0.117170 0.010250 1.967070 
# 
# From -- ./inp_files/89690.got.cif
#   From: 2010.05.17/outbox.cif.g08.bks.cpg/sg2_45_cif.got.tgz:89690.got - 2010.06.03 11:33:40.
