data_PCOD9057308
_publ_section_title
;
Structure prediction by ZEFSAII (Michael W. Deem and Ramdas Pophale) SiO2 
 PCOD9057308
Probable space group: P -1
;
_chemical_formula_sum "Si O2"
_cell_formula_units_Z 13
_cell_length_a 9.860671
_cell_length_b 7.493268
_cell_length_c 14.379206
_cell_angle_alpha 104.001013
_cell_angle_beta 152.762125
_cell_angle_gamma 84.334328
_cell_volume 455.333950
_symmetry_space_group_name_H-M "P -1"
_symmetry_group_IT_number 2
_symmetry_cell_setting 'triclinic'
loop_
_space_group_symop_operation_xyz
x,y,z
-x,-y,-z
loop_
_atom_site_type_symbol
_atom_site_label
_atom_site_fract_x
_atom_site_fract_y
_atom_site_fract_z
Si Si1 0.402943 0.190962 0.942048
Si Si2 0.323407 0.407737 0.575199
Si Si3 0.488991 0.789422 0.499698
Si Si4 0.777985 0.213920 0.476964
Si Si5 0.484863 0.825398 0.186580
Si Si6 0.843230 0.690420 0.020094
Si Si7 0.000000 0.000000 0.000000
O O1 0.048210 0.161179 0.691374
O O2 0.411814 0.309860 0.055943
O O3 0.574183 0.272866 0.961693
O O4 0.500000 0.000000 0.000000
O O5 0.300742 0.299451 0.449251
O O6 0.857558 0.430102 0.519222
O O7 0.295201 0.261350 0.624161
O O8 0.670785 0.532591 0.823333
O O9 0.514514 0.806673 0.629947
O O10 0.145662 0.663914 0.251491
O O11 0.500000 0.000000 0.500000
O O12 0.667177 0.048032 0.314699
O O13 0.184327 0.837601 0.059868
O O14 0.931304 0.894368 0.048766
#
# Coordination Sequence:
#
# PCOD9057308 Si02
#       7
#     2   2   2   2   2   2   1
#     4  11  24  47  71 103 141 194 233 296 355 429
#     4  12  24  43  71 105 145 185 234 301 353 420
#     4  11  22  42  67 105 142 184 237 291 356 415
#     4  11  24  45  69 102 146 186 241 288 359 430
#     4  12  25  43  74 102 144 191 234 291 359 417
#     4  11  24  41  71 104 139 184 242 286 353 419
#     4  12  20  42  72 104 134 182 236 284 344 424
#
# _framework density 28.550474999999999
#
# number of rings (size 3 to 8) (size 9 to 14) (size 15 to 20)
#    0.000    0.615    6.154    1.385    0.000    1.231 
#    0.000    3.077    0.000    0.000    0.000    0.000 
#    0.000    0.000    0.000    0.000    0.000    0.000 
#
# Total GULP energy -72621.510381 kJ/mol
# GULP energy per Si atom -5586.270029 kJ/mol
# Density = 2.848549 g / cm^3
# Si number density = 28.550475 Si / 1000 Ang^3
#
#
#
# Elastic Constant Matrix: (Units=GPa)
#
#
# Indices 1 2 3 4 5 6 
#
# 1 193.1115 62.7459 20.1275 -5.4690 -17.8540 -14.2172
# 2 62.7459 186.4938 15.6605 -7.4202 -0.5255 4.5797
# 3 20.1275 15.6605 57.9174 1.5533 -6.2703 -0.7204
# 4 -5.4690 -7.4202 1.5533 39.6822 -4.9095 -7.9310
# 5 -17.8540 -0.5255 -6.2703 -4.9095 46.0577 -7.1290
# 6 -14.2172 4.5797 -0.7204 -7.9310 -7.1290 40.7769
#
#
#
# Elastic Compliance Matrix: (Units=1/GPa)
#
#
# Indices 1 2 3 4 5 6 
#
# 1 0.006580 -0.002107 -0.001391 0.001611 0.003027 0.003349
# 2 -0.002107 0.006217 -0.001098 0.000471 -0.001085 -0.001550
# 3 -0.001391 -0.001098 0.018272 -0.000858 0.001863 0.000120
# 4 0.001611 0.000471 -0.000858 0.027416 0.004458 0.006605
# 5 0.003027 -0.001085 0.001863 0.004458 0.024589 0.006376
# 6 0.003349 -0.001550 0.000120 0.006605 0.006376 0.028267
#
#
# Mechanical properties :
#
#
# Convention : Reuss Voigt Hill
#
# Bulk Modulus (GPa) = 45.70853 70.51007 58.10930
# Shear Modulus (GPa) = 39.11610 47.90262 43.50936
#
# Velocity S-wave (km/s) = 3.70546 4.10057 3.90801
# Velocity P-wave (km/s) = 5.86103 6.86803 6.38441
#
# Compressibility (1/GPa) = 0.02187775
#
# Stress axis : x y z
#
# Youngs Moduli (GPa) = 151.97887 160.85294 54.72712
#
# Poissons Ratio (x) = 0.33885 0.07612
# Poissons Ratio (y) = 0.32016 0.06011
# Poissons Ratio (z) = 0.21138 0.17666
#
# Static dielectric constant tensor:
#      x y z
#    x 2.213350 0.015400 0.009920 
#    y 0.015400 2.174640 -0.056070 
#    z 0.009920 -0.056070 1.979200 
# 
# From -- ./inp_files/491337.got.cif
#   From: 2010.05.17/outbox.cif.g08.bks.cpg/sg2_246_cif.got.tgz:491337.got - 2010.06.03 11:33:40.
