data_PCOD9057927
_publ_section_title
;
Structure prediction by ZEFSAII (Michael W. Deem and Ramdas Pophale) SiO2 
 PCOD9057927
Probable space group: P -1
;
_chemical_formula_sum "Si O2"
_cell_formula_units_Z 12
_cell_length_a 10.295701
_cell_length_b 9.237241
_cell_length_c 9.075221
_cell_angle_alpha 117.668186
_cell_angle_beta 116.967704
_cell_angle_gamma 47.129303
_cell_volume 547.491761
_symmetry_space_group_name_H-M "P -1"
_symmetry_group_IT_number 2
_symmetry_cell_setting 'triclinic'
loop_
_space_group_symop_operation_xyz
x,y,z
-x,-y,-z
loop_
_atom_site_type_symbol
_atom_site_label
_atom_site_fract_x
_atom_site_fract_y
_atom_site_fract_z
Si Si1 0.151121 0.943334 0.929502
Si Si2 0.611713 0.513500 0.194064
Si Si3 0.074886 0.456002 0.684472
Si Si4 0.884685 0.929083 0.342481
Si Si5 0.264506 0.115940 0.273946
Si Si6 0.418117 0.837984 0.492006
O O1 0.233080 0.722341 0.802509
O O2 0.086005 0.087704 0.824586
O O3 0.300951 0.950061 0.096268
O O4 0.000000 0.000000 0.000000
O O5 0.725022 0.598100 0.240972
O O6 0.494953 0.639352 0.337455
O O7 0.500000 0.500000 0.000000
O O8 0.072292 0.280595 0.674168
O O9 0.000000 0.500000 0.500000
O O10 0.924983 0.679380 0.778237
O O11 0.683849 0.112219 0.383057
O O12 0.000000 0.000000 0.500000
O O13 0.414138 0.154953 0.385400
O O14 0.273576 0.021841 0.393553
#
# Coordination Sequence:
#
# PCOD9057927 Si02
#       6
#     2   2   2   2   2   2
#     4  12  26  47  70 104 146 191 239 303 361 422
#     4  12  25  43  78 108 144 192 238 296 365 430
#     4  12  22  45  77 105 140 195 239 290 366 432
#     4  12  28  45  71 107 145 189 249 301 358 432
#     4  11  22  43  75 102 145 186 239 293 362 431
#     4  11  23  44  72 106 139 192 239 295 356 432
#
# _framework density 21.918137999999999
#
# number of rings (size 3 to 8) (size 9 to 14) (size 15 to 20)
#    0.000    0.333    6.667    3.000    0.000    2.000 
#    0.000    0.000    0.000    0.000    0.000    0.000 
#    0.000    0.000    0.000    0.000    0.000    0.000 
#
# Total GULP energy -67021.239035 kJ/mol
# GULP energy per Si atom -5585.103253 kJ/mol
# Density = 2.186825 g / cm^3
# Si number density = 21.918138 Si / 1000 Ang^3
#
#
#
# Elastic Constant Matrix: (Units=GPa)
#
#
# Indices 1 2 3 4 5 6 
#
# 1 96.7897 45.8277 53.8239 -1.5632 -6.2818 9.2525
# 2 45.8277 113.7334 26.9280 20.0719 -15.1970 6.5443
# 3 53.8239 26.9280 133.3508 2.7239 2.4580 11.6262
# 4 -1.5632 20.0719 2.7239 42.5530 -2.3613 -5.6378
# 5 -6.2818 -15.1970 2.4580 -2.3613 45.7448 2.7087
# 6 9.2525 6.5443 11.6262 -5.6378 2.7087 39.2057
#
#
#
# Elastic Compliance Matrix: (Units=1/GPa)
#
#
# Indices 1 2 3 4 5 6 
#
# 1 0.016254 -0.005739 -0.005420 0.003591 0.000850 -0.000813
# 2 -0.005739 0.012766 -0.000027 -0.006303 0.003241 -0.001899
# 3 -0.005420 -0.000027 0.009888 -0.001117 -0.001240 -0.001724
# 4 0.003591 -0.006303 -0.001117 0.027248 -0.000400 0.004482
# 5 0.000850 0.003241 -0.001240 -0.000400 0.023221 -0.002036
# 6 -0.000813 -0.001899 -0.001724 0.004482 -0.002036 0.027312
#
#
# Mechanical properties :
#
#
# Convention : Reuss Voigt Hill
#
# Bulk Modulus (GPa) = 60.47368 66.33701 63.40534
# Shear Modulus (GPa) = 34.58490 39.98698 37.28594
#
# Velocity S-wave (km/s) = 3.97660 4.27591 4.12897
# Velocity P-wave (km/s) = 6.98105 7.39658 7.19182
#
# Compressibility (1/GPa) = 0.01653612
#
# Stress axis : x y z
#
# Youngs Moduli (GPa) = 61.52376 78.33208 101.13409
#
# Poissons Ratio (x) = 0.44959 0.54811
# Poissons Ratio (y) = 0.35312 0.00271
# Poissons Ratio (z) = 0.33344 0.00210
#
# Static dielectric constant tensor:
#      x y z
#    x 1.833930 -0.017980 -0.012270 
#    y -0.017980 1.955720 0.048990 
#    z -0.012270 0.048990 1.842450 
# 
# From -- ./inp_files/154561.got.cif
#   From: 2010.05.17/outbox.cif.g08.bks.cpg/sg2_78_cif.got.tgz:154561.got - 2010.06.03 11:33:40.
