data_PCOD9057957
_publ_section_title
;
Structure prediction by ZEFSAII (Michael W. Deem and Ramdas Pophale) SiO2 
 PCOD9057957
Probable space group: P -1
;
_chemical_formula_sum "Si O2"
_cell_formula_units_Z 16
_cell_length_a 14.488922
_cell_length_b 8.159567
_cell_length_c 12.536260
_cell_angle_alpha 85.210400
_cell_angle_beta 101.825146
_cell_angle_gamma 149.385046
_cell_volume 725.820330
_symmetry_space_group_name_H-M "P -1"
_symmetry_group_IT_number 2
_symmetry_cell_setting 'triclinic'
loop_
_space_group_symop_operation_xyz
x,y,z
-x,-y,-z
loop_
_atom_site_type_symbol
_atom_site_label
_atom_site_fract_x
_atom_site_fract_y
_atom_site_fract_z
Si Si1 0.182608 0.552515 0.765777
Si Si2 0.230583 0.229720 0.303511
Si Si3 0.545096 0.260430 0.486853
Si Si4 0.204075 0.357503 0.068842
Si Si5 0.400042 0.416139 0.694962
Si Si6 0.812269 0.290943 0.014622
Si Si7 0.412781 0.584406 0.904950
Si Si8 0.209090 0.839599 0.571048
O O1 0.319031 0.612181 0.835356
O O2 0.254223 0.761141 0.669255
O O3 0.172151 0.662880 0.856947
O O4 0.973207 0.164262 0.715124
O O5 0.295796 0.427893 0.412704
O O6 0.221809 0.340574 0.196328
O O7 0.399739 0.363499 0.300594
O O8 0.596133 0.402620 0.374113
O O9 0.500000 0.000000 0.500000
O O10 0.353932 0.055427 0.496041
O O11 0.226018 0.583209 0.043914
O O12 0.338058 0.461141 0.014299
O O13 0.000000 0.000000 0.000000
O O14 0.365583 0.382445 0.813916
O O15 0.243087 0.062467 0.626279
O O16 0.635088 0.923481 0.951699
O O17 0.000000 0.500000 0.000000
O O18 0.000000 0.500000 0.500000
#
# Coordination Sequence:
#
# PCOD9057957 Si02
#       8
#     2   2   2   2   2   2   2   2
#     4  11  22  44  64  98 132 181 219 280 331 390
#     4  11  23  44  69  94 139 175 221 279 331 397
#     4  11  25  44  68  97 129 177 221 277 338 394
#     4  11  23  44  66  99 135 178 220 273 336 390
#     4  11  25  43  66 101 130 175 225 274 337 398
#     4  11  25  42  65  98 137 178 224 270 330 406
#     4  11  25  41  69  97 139 175 225 270 333 406
#     4  11  24  43  68  94 131 172 227 279 334 392
#
# _framework density 22.044021000000001
#
# number of rings (size 3 to 8) (size 9 to 14) (size 15 to 20)
#    0.000    1.000    2.500    6.000    8.750    2.500 
#    0.000    2.500    0.000    0.000    0.000    0.000 
#    0.000    0.000    0.000    0.000    0.000    0.000 
#
# Total GULP energy -89502.873857 kJ/mol
# GULP energy per Si atom -5593.929616 kJ/mol
# Density = 2.199385 g / cm^3
# Si number density = 22.044021 Si / 1000 Ang^3
#
#
#
# Elastic Constant Matrix: (Units=GPa)
#
#
# Indices 1 2 3 4 5 6 
#
# 1 62.1474 11.0915 13.0620 12.6938 -15.6487 -1.4584
# 2 11.0915 89.0529 19.1246 21.9897 -3.6190 6.2652
# 3 13.0620 19.1246 63.9936 6.6691 -4.5997 5.7446
# 4 12.6938 21.9897 6.6691 51.0532 -7.4679 6.5389
# 5 -15.6487 -3.6190 -4.5997 -7.4679 41.0311 -2.5736
# 6 -1.4584 6.2652 5.7446 6.5389 -2.5736 37.5834
#
#
#
# Elastic Compliance Matrix: (Units=1/GPa)
#
#
# Indices 1 2 3 4 5 6 
#
# 1 0.019260 -0.000801 -0.003087 -0.003401 0.006459 0.002387
# 2 -0.000801 0.013321 -0.003242 -0.005068 -0.000473 -0.000907
# 3 -0.003087 -0.003242 0.017432 0.000233 0.000392 -0.002258
# 4 -0.003401 -0.005068 0.000233 0.023339 0.002328 -0.003224
# 5 0.006459 -0.000473 0.000392 0.002328 0.027370 0.001739
# 6 0.002387 -0.000907 -0.002258 -0.003224 0.001739 0.027876
#
#
# Mechanical properties :
#
#
# Convention : Reuss Voigt Hill
#
# Bulk Modulus (GPa) = 27.97042 33.52778 30.74910
# Shear Modulus (GPa) = 32.30448 37.39461 34.84955
#
# Velocity S-wave (km/s) = 3.83228 4.12316 3.98038
# Velocity P-wave (km/s) = 5.68311 6.15709 5.92484
#
# Compressibility (1/GPa) = 0.03575206
#
# Stress axis : x y z
#
# Youngs Moduli (GPa) = 51.92145 75.06750 57.36545
#
# Poissons Ratio (x) = 0.06016 0.17710
# Poissons Ratio (y) = 0.04161 0.18598
# Poissons Ratio (z) = 0.16030 0.24337
#
# Static dielectric constant tensor:
#      x y z
#    x 1.816780 -0.016120 0.026970 
#    y -0.016120 1.791140 0.000200 
#    z 0.026970 0.000200 1.766270 
# 
# From -- ./inp_files/447526.got.cif
#   From: 2010.05.17/outbox.cif.g08.bks.cpg/sg2_224_cif.got.tgz:447526.got - 2010.06.03 11:33:40.
