data_PCOD9057725
_publ_section_title
;
Structure prediction by ZEFSAII (Michael W. Deem and Ramdas Pophale) SiO2 
 PCOD9057725
Probable space group: P -1
;
_chemical_formula_sum "Si O2"
_cell_formula_units_Z 14
_cell_length_a 10.209222
_cell_length_b 9.055138
_cell_length_c 23.550670
_cell_angle_alpha 147.937749
_cell_angle_beta 35.147997
_cell_angle_gamma 132.259522
_cell_volume 663.847522
_symmetry_space_group_name_H-M "P -1"
_symmetry_group_IT_number 2
_symmetry_cell_setting 'triclinic'
loop_
_space_group_symop_operation_xyz
x,y,z
-x,-y,-z
loop_
_atom_site_type_symbol
_atom_site_label
_atom_site_fract_x
_atom_site_fract_y
_atom_site_fract_z
Si Si1 0.534183 0.857527 0.881374
Si Si2 0.171349 0.736539 0.795449
Si Si3 0.334746 0.231849 0.970859
Si Si4 0.019070 0.742671 0.616600
Si Si5 0.704021 0.275942 0.373211
Si Si6 0.727821 0.795024 0.352861
Si Si7 0.774161 0.637806 0.157787
O O1 0.790650 0.815288 0.755854
O O2 0.423049 0.570190 0.838296
O O3 0.413472 0.035874 0.931831
O O4 0.500000 0.000000 0.000000
O O5 0.124374 0.715368 0.738301
O O6 0.315126 0.459926 0.674836
O O7 0.302377 0.011883 0.857573
O O8 0.932029 0.695433 0.898205
O O9 0.500000 0.500000 0.000000
O O10 0.000000 0.500000 0.500000
O O11 0.197269 0.675781 0.583330
O O12 0.077771 0.996150 0.636867
O O13 0.500000 0.500000 0.500000
O O14 0.671228 0.943282 0.275015
O O15 0.816611 0.677920 0.222525
O O16 0.500000 0.000000 0.500000
O O17 0.000000 0.500000 0.000000
#
# Coordination Sequence:
#
# PCOD9057725 Si02
#       7
#     2   2   2   2   2   2   2
#     4  12  24  42  67 101 140 174 234 296 350 417
#     4  11  23  44  69 100 143 181 232 294 362 422
#     4  11  25  41  69 105 140 179 233 297 360 419
#     4  11  25  44  69 101 137 181 240 289 349 431
#     4  11  26  46  71  99 143 187 233 292 362 426
#     4  11  22  43  69  95 136 190 230 278 357 435
#     4  11  23  42  69 100 137 188 235 279 351 430
#
# _framework density 21.089179999999999
#
# number of rings (size 3 to 8) (size 9 to 14) (size 15 to 20)
#    0.000    0.857    1.429    6.857    6.000    0.000 
#    0.000    1.429    0.000    0.000    0.000    0.000 
#    0.000    0.000    0.000    0.000    0.000    0.000 
#
# Total GULP energy -77939.748852 kJ/mol
# GULP energy per Si atom -5567.124918 kJ/mol
# Density = 2.104118 g / cm^3
# Si number density = 21.089180 Si / 1000 Ang^3
#
#
#
# Elastic Constant Matrix: (Units=GPa)
#
#
# Indices 1 2 3 4 5 6 
#
# 1 91.9828 17.3987 48.2395 8.9128 4.9478 -11.9566
# 2 17.3987 129.5260 54.1589 13.8415 1.4057 9.1768
# 3 48.2395 54.1589 116.2754 3.8978 -6.7986 4.8582
# 4 8.9128 13.8415 3.8978 46.6657 1.3449 4.0453
# 5 4.9478 1.4057 -6.7986 1.3449 49.4050 1.8118
# 6 -11.9566 9.1768 4.8582 4.0453 1.8118 40.1910
#
#
#
# Elastic Compliance Matrix: (Units=1/GPa)
#
#
# Indices 1 2 3 4 5 6 
#
# 1 0.015679 0.000852 -0.007199 -0.003068 -0.002713 0.005771
# 2 0.000852 0.010046 -0.004953 -0.002603 -0.000940 -0.001137
# 3 -0.007199 -0.004953 0.014126 0.001844 0.002867 -0.003033
# 4 -0.003068 -0.002603 0.001844 0.022877 0.000117 -0.002849
# 5 -0.002713 -0.000940 0.002867 0.000117 0.021000 -0.001897
# 6 0.005771 -0.001137 -0.003033 -0.002849 -0.001897 0.027597
#
#
# Mechanical properties :
#
#
# Convention : Reuss Voigt Hill
#
# Bulk Modulus (GPa) = 57.96241 64.15317 61.05779
# Shear Modulus (GPa) = 35.79745 41.78479 38.79112
#
# Velocity S-wave (km/s) = 4.12446 4.45605 4.29346
# Velocity P-wave (km/s) = 7.08701 7.54726 7.32075
#
# Compressibility (1/GPa) = 0.01725256
#
# Stress axis : x y z
#
# Youngs Moduli (GPa) = 63.77918 99.54285 70.78951
#
# Poissons Ratio (x) = -0.08485 0.50960
# Poissons Ratio (y) = -0.05436 0.35062
# Poissons Ratio (z) = 0.45913 0.49304
#
# Static dielectric constant tensor:
#      x y z
#    x 1.632240 0.041410 -0.086650 
#    y 0.041410 1.715710 -0.017700 
#    z -0.086650 -0.017700 1.832880 
# 
# From -- ./inp_files/466504.got.cif
#   From: 2010.05.17/outbox.cif.g08.bks.cpg/sg2_234_cif.got.tgz:466504.got - 2010.06.03 11:33:40.
