data_PCOD9057609
_publ_section_title
;
Structure prediction by ZEFSAII (Michael W. Deem and Ramdas Pophale) SiO2 
 PCOD9057609
Probable space group: P -1
;
_chemical_formula_sum "Si O2"
_cell_formula_units_Z 13
_cell_length_a 13.045127
_cell_length_b 13.154905
_cell_length_c 6.761675
_cell_angle_alpha 63.676635
_cell_angle_beta 76.888937
_cell_angle_gamma 29.629586
_cell_volume 480.114077
_symmetry_space_group_name_H-M "P -1"
_symmetry_group_IT_number 2
_symmetry_cell_setting 'triclinic'
loop_
_space_group_symop_operation_xyz
x,y,z
-x,-y,-z
loop_
_atom_site_type_symbol
_atom_site_label
_atom_site_fract_x
_atom_site_fract_y
_atom_site_fract_z
Si Si1 0.145882 0.268019 0.960196
Si Si2 0.981662 0.295832 0.391948
Si Si3 0.000000 0.500000 0.500000
Si Si4 0.309352 0.613476 0.693161
Si Si5 0.330261 0.857978 0.880381
Si Si6 0.525378 0.904574 0.767727
Si Si7 0.914568 0.013843 0.829278
O O1 0.084581 0.241087 0.187321
O O2 0.288164 0.225541 0.056940
O O3 0.921347 0.508762 0.735187
O O4 0.288161 0.146800 0.789346
O O5 0.958892 0.420057 0.447002
O O6 0.752383 0.445302 0.340681
O O7 0.158461 0.035904 0.625233
O O8 0.536202 0.381529 0.914011
O O9 0.268053 0.750485 0.431983
O O10 0.120244 0.803182 0.777705
O O11 0.184477 0.007930 0.015807
O O12 0.507052 0.789135 0.835915
O O13 0.500000 0.000000 0.500000
O O14 0.000000 0.000000 0.000000
#
# Coordination Sequence:
#
# PCOD9057609 Si02
#       7
#     2   2   1   2   2   2   2
#     4  11  23  41  66  95 150 199 246 308 362 439
#     4  12  25  47  70 112 153 202 254 309 378 454
#     4  12  24  42  68 100 152 200 246 308 358 444
#     4  11  27  48  80 109 147 200 249 315 393 449
#     4  12  24  49  74 109 153 192 252 314 377 451
#     4  11  22  43  65 102 144 197 252 300 368 452
#     4  11  25  53  77 111 148 188 256 322 384 459
#
# _framework density 27.076899999999998
#
# number of rings (size 3 to 8) (size 9 to 14) (size 15 to 20)
#    0.000    0.615    4.615    2.769    0.000    1.846 
#    5.538    0.000    0.000    0.000    0.000    0.000 
#    0.000    0.000    0.000    0.000    0.000    0.000 
#
# Total GULP energy -72459.256575 kJ/mol
# GULP energy per Si atom -5573.788967 kJ/mol
# Density = 2.701527 g / cm^3
# Si number density = 27.076900 Si / 1000 Ang^3
#
#
#
# Elastic Constant Matrix: (Units=GPa)
#
#
# Indices 1 2 3 4 5 6 
#
# 1 98.5019 -5.8665 50.2233 14.9486 1.0399 -8.7850
# 2 -5.8665 68.5820 61.7619 -13.1907 6.9084 1.0651
# 3 50.2233 61.7619 302.7881 1.5033 -16.2578 -14.8679
# 4 14.9486 -13.1907 1.5033 56.2623 -10.2458 12.2227
# 5 1.0399 6.9084 -16.2578 -10.2458 57.3748 11.1494
# 6 -8.7850 1.0651 -14.8679 12.2227 11.1494 41.6154
#
#
#
# Elastic Compliance Matrix: (Units=1/GPa)
#
#
# Indices 1 2 3 4 5 6 
#
# 1 0.012596 0.002937 -0.002643 -0.003836 -0.002694 0.003488
# 2 0.002937 0.020349 -0.004910 0.004079 -0.002755 -0.002115
# 3 -0.002643 -0.004910 0.004887 -0.000475 0.001748 0.000985
# 4 -0.003836 0.004079 -0.000475 0.022717 0.005282 -0.009171
# 5 -0.002694 -0.002755 0.001748 0.005282 0.020598 -0.006944
# 6 0.003488 -0.002115 0.000985 -0.009171 -0.006944 0.029726
#
#
# Mechanical properties :
#
#
# Convention : Reuss Voigt Hill
#
# Bulk Modulus (GPa) = 34.96459 75.78991 55.37725
# Shear Modulus (GPa) = 38.56916 55.30071 46.93494
#
# Velocity S-wave (km/s) = 3.77826 4.52415 4.16792
# Velocity P-wave (km/s) = 5.65462 7.43922 6.60745
#
# Compressibility (1/GPa) = 0.02860036
#
# Stress axis : x y z
#
# Youngs Moduli (GPa) = 79.39008 49.14271 204.62288
#
# Poissons Ratio (x) = -0.14432 0.54074
# Poissons Ratio (y) = -0.23314 1.00467
# Poissons Ratio (z) = 0.20980 0.24128
#
# Static dielectric constant tensor:
#      x y z
#    x 2.360740 0.281900 -0.149330 
#    y 0.281900 2.041700 0.252670 
#    z -0.149330 0.252670 1.784310 
# 
# From -- ./inp_files/96793.got.cif
#   From: 2010.05.17/outbox.cif.g08.bks.cpg/sg2_49_cif.got.tgz:96793.got - 2010.06.03 11:33:40.
