data_PCOD9057667
_publ_section_title
;
Structure prediction by ZEFSAII (Michael W. Deem and Ramdas Pophale) SiO2 
 PCOD9057667
Probable space group: P -1
;
_chemical_formula_sum "Si O2"
_cell_formula_units_Z 14
_cell_length_a 8.858146
_cell_length_b 14.864770
_cell_length_c 6.719840
_cell_angle_alpha 110.016087
_cell_angle_beta 52.771532
_cell_angle_gamma 95.296244
_cell_volume 654.135483
_symmetry_space_group_name_H-M "P -1"
_symmetry_group_IT_number 2
_symmetry_cell_setting 'triclinic'
loop_
_space_group_symop_operation_xyz
x,y,z
-x,-y,-z
loop_
_atom_site_type_symbol
_atom_site_label
_atom_site_fract_x
_atom_site_fract_y
_atom_site_fract_z
Si Si1 0.865180 0.256873 0.276704
Si Si2 0.278281 0.263178 0.111316
Si Si3 0.221503 0.598685 0.885015
Si Si4 0.431818 0.613817 0.110010
Si Si5 0.908193 0.547929 0.402492
Si Si6 0.493946 0.943769 0.166774
Si Si7 0.213591 0.951630 0.734081
O O1 0.852936 0.304674 0.105525
O O2 0.750796 0.334969 0.580817
O O3 0.772190 0.159940 0.295875
O O4 0.088538 0.234680 0.140799
O O5 0.399485 0.325388 0.921383
O O6 0.416824 0.169255 0.005030
O O7 0.197214 0.344047 0.396857
O O8 0.233176 0.516891 0.641519
O O9 0.387701 0.622234 0.915756
O O10 0.080278 0.559273 0.125321
O O11 0.500000 0.500000 0.000000
O O12 0.000000 0.500000 0.500000
O O13 0.286683 0.953361 0.448154
O O14 0.639175 0.992387 0.225521
O O15 0.500000 0.000000 0.000000
O O16 0.000000 0.000000 0.000000
#
# Coordination Sequence:
#
# PCOD9057667 Si02
#       7
#     2   2   2   2   2   2   2
#     4  12  25  46  70 104 141 185 238 291 360 427
#     4  12  24  46  71  99 148 185 227 307 351 412
#     4  11  24  42  70  99 139 191 238 277 358 425
#     4  12  27  45  68 104 152 185 234 296 346 428
#     4  11  22  43  68 100 140 185 238 287 342 421
#     4  11  27  49  72 109 141 184 246 300 366 442
#     4  11  25  49  75 102 143 184 234 307 366 421
#
# _framework density 21.402296
#
# number of rings (size 3 to 8) (size 9 to 14) (size 15 to 20)
#    0.000    0.571    5.714    1.714    4.000    4.000 
#    0.000    0.000    0.000    0.000    0.000    0.000 
#    0.000    0.000    0.000    0.000    0.000    0.000 
#
# Total GULP energy -78154.838355 kJ/mol
# GULP energy per Si atom -5582.488454 kJ/mol
# Density = 2.135358 g / cm^3
# Si number density = 21.402296 Si / 1000 Ang^3
#
#
#
# Elastic Constant Matrix: (Units=GPa)
#
#
# Indices 1 2 3 4 5 6 
#
# 1 48.8510 12.2764 43.3219 2.8418 -10.6011 -0.7436
# 2 12.2764 155.9044 58.4580 9.2745 -0.2675 -7.9536
# 3 43.3219 58.4580 119.8813 0.0036 -8.0555 -24.6773
# 4 2.8418 9.2745 0.0036 41.1742 2.3800 0.5662
# 5 -10.6011 -0.2675 -8.0555 2.3800 35.9071 -3.0525
# 6 -0.7436 -7.9536 -24.6773 0.5662 -3.0525 41.2866
#
#
#
# Elastic Compliance Matrix: (Units=1/GPa)
#
#
# Indices 1 2 3 4 5 6 
#
# 1 0.034376 0.002668 -0.014765 -0.003247 0.006462 -0.007170
# 2 0.002668 0.008239 -0.005323 -0.001999 -0.000344 -0.001544
# 3 -0.014765 -0.005323 0.018282 0.002062 0.000385 0.009636
# 4 -0.003247 -0.001999 0.002062 0.025081 -0.002149 0.000286
# 5 0.006462 -0.000344 0.000385 -0.002149 0.030200 0.002543
# 6 -0.007170 -0.001544 0.009636 0.000286 0.002543 0.029738
#
#
# Mechanical properties :
#
#
# Convention : Reuss Voigt Hill
#
# Bulk Modulus (GPa) = 38.37629 61.41657 49.89643
# Shear Modulus (GPa) = 26.39313 37.71228 32.05270
#
# Velocity S-wave (km/s) = 3.51549 4.20225 3.87412
# Velocity P-wave (km/s) = 5.86925 7.23214 6.58604
#
# Compressibility (1/GPa) = 0.02605775
#
# Stress axis : x y z
#
# Youngs Moduli (GPa) = 29.09009 121.36671 54.69765
#
# Poissons Ratio (x) = -0.32380 0.80761
# Poissons Ratio (y) = -0.07761 0.29115
# Poissons Ratio (z) = 0.42952 0.64602
#
# Static dielectric constant tensor:
#      x y z
#    x 1.831710 0.044190 -0.026820 
#    y 0.044190 1.760430 -0.004360 
#    z -0.026820 -0.004360 1.852560 
# 
# From -- ./inp_files/39598.got.cif
#   From: 2010.05.17/outbox.cif.g08.bks.cpg/sg2_20_cif.got.tgz:39598.got - 2010.06.03 11:33:40.
