data_PCOD9057151
_publ_section_title
;
Structure prediction by ZEFSAII (Michael W. Deem and Ramdas Pophale) SiO2 
 PCOD9057151
Probable space group: P -1
;
_chemical_formula_sum "Si O2"
_cell_formula_units_Z 12
_cell_length_a 7.763472
_cell_length_b 9.712727
_cell_length_c 9.671291
_cell_angle_alpha 60.151026
_cell_angle_beta 105.948515
_cell_angle_gamma 131.416211
_cell_volume 472.671877
_symmetry_space_group_name_H-M "P -1"
_symmetry_group_IT_number 2
_symmetry_cell_setting 'triclinic'
loop_
_space_group_symop_operation_xyz
x,y,z
-x,-y,-z
loop_
_atom_site_type_symbol
_atom_site_label
_atom_site_fract_x
_atom_site_fract_y
_atom_site_fract_z
Si Si1 0.305580 0.293488 0.879762
Si Si2 0.244753 0.427005 0.524995
Si Si3 0.266163 0.966964 0.419164
Si Si4 0.201993 0.907768 0.905847
Si Si5 0.714220 0.200498 0.762360
Si Si6 0.752809 0.690070 0.811303
O O1 0.229628 0.385086 0.707392
O O2 0.583712 0.456194 0.847742
O O3 0.206712 0.076798 0.905304
O O4 0.264097 0.298770 0.030015
O O5 0.500000 0.500000 0.500000
O O6 0.242854 0.610817 0.397449
O O7 0.004707 0.223491 0.507886
O O8 0.253237 0.923479 0.274870
O O9 0.500000 0.000000 0.500000
O O10 0.307954 0.177752 0.340601
O O11 0.018881 0.803147 0.796892
O O12 0.449935 0.036575 0.829924
O O13 0.155187 0.749231 0.089785
#
# Coordination Sequence:
#
# PCOD9057151 Si02
#       6
#     2   2   2   2   2   2
#     4  11  22  41  71  94 127 177 229 266 327 403
#     4  12  24  44  70  96 135 182 221 273 336 399
#     4  12  25  42  66 103 141 171 223 283 334 394
#     4  11  22  45  69  94 136 177 221 279 330 401
#     4  11  24  42  67  99 134 175 222 278 340 387
#     4  11  23  42  71  97 129 182 225 269 338 403
#
# _framework density 25.387588999999998
#
# number of rings (size 3 to 8) (size 9 to 14) (size 15 to 20)
#    0.000    0.667    5.000    3.000    0.000    4.000 
#    0.000    5.000    0.000    0.000    0.000    0.000 
#    0.000    0.000    0.000    0.000    0.000    0.000 
#
# Total GULP energy -67073.149964 kJ/mol
# GULP energy per Si atom -5589.429164 kJ/mol
# Density = 2.532981 g / cm^3
# Si number density = 25.387589 Si / 1000 Ang^3
#
#
#
# Elastic Constant Matrix: (Units=GPa)
#
#
# Indices 1 2 3 4 5 6 
#
# 1 67.8412 23.4943 20.5098 2.5748 4.2287 30.5064
# 2 23.4943 130.5628 23.5094 4.7633 5.2122 40.3993
# 3 20.5098 23.5094 133.4298 0.5143 17.3280 -2.4550
# 4 2.5748 4.7633 0.5143 36.0885 -2.7630 6.8780
# 5 4.2287 5.2122 17.3280 -2.7630 42.6280 10.1258
# 6 30.5064 40.3993 -2.4550 6.8780 10.1258 49.3950
#
#
#
# Elastic Compliance Matrix: (Units=1/GPa)
#
#
# Indices 1 2 3 4 5 6 
#
# 1 0.022692 0.001647 -0.004532 0.001638 0.003419 -0.016516
# 2 0.001647 0.011055 -0.002682 0.000673 0.002168 -0.010730
# 3 -0.004532 -0.002682 0.009395 -0.001065 -0.004670 0.006566
# 4 0.001638 0.000673 -0.001065 0.029012 0.003587 -0.006389
# 5 0.003419 0.002168 -0.004670 0.003587 0.027417 -0.010237
# 6 -0.016516 -0.010730 0.006566 -0.006389 -0.010237 0.042535
#
#
# Mechanical properties :
#
#
# Convention : Reuss Voigt Hill
#
# Bulk Modulus (GPa) = 31.24430 51.87340 41.55885
# Shear Modulus (GPa) = 30.50452 43.24365 36.87408
#
# Velocity S-wave (km/s) = 3.47010 4.13163 3.81523
# Velocity P-wave (km/s) = 5.32814 6.57552 5.98442
#
# Compressibility (1/GPa) = 0.03200583
#
# Stress axis : x y z
#
# Youngs Moduli (GPa) = 44.06936 90.45781 106.43610
#
# Poissons Ratio (x) = -0.14898 0.48241
# Poissons Ratio (y) = -0.07258 0.28551
# Poissons Ratio (z) = 0.19974 0.24265
#
# Static dielectric constant tensor:
#      x y z
#    x 2.120810 0.120380 -0.022920 
#    y 0.120380 1.994750 0.017650 
#    z -0.022920 0.017650 2.032020 
# 
# From -- ./inp_files/332974.got.cif
#   From: 2010.05.17/outbox.cif.g08.bks.cpg/sg2_167_cif.got.tgz:332974.got - 2010.06.03 11:33:40.
