data_PCOD9057302
_publ_section_title
;
Structure prediction by ZEFSAII (Michael W. Deem and Ramdas Pophale) SiO2 
 PCOD9057302
Probable space group: P -1
;
_chemical_formula_sum "Si O2"
_cell_formula_units_Z 14
_cell_length_a 10.299916
_cell_length_b 9.523911
_cell_length_c 8.319193
_cell_angle_alpha 99.067830
_cell_angle_beta 50.651856
_cell_angle_gamma 103.142835
_cell_volume 614.449163
_symmetry_space_group_name_H-M "P -1"
_symmetry_group_IT_number 2
_symmetry_cell_setting 'triclinic'
loop_
_space_group_symop_operation_xyz
x,y,z
-x,-y,-z
loop_
_atom_site_type_symbol
_atom_site_label
_atom_site_fract_x
_atom_site_fract_y
_atom_site_fract_z
Si Si1 0.376933 0.872201 0.655979
Si Si2 0.902341 0.052604 0.926374
Si Si3 0.092942 0.330495 0.691734
Si Si4 0.180628 0.209681 0.271891
Si Si5 0.134579 0.653521 0.571099
Si Si6 0.581116 0.652541 0.399063
Si Si7 0.470319 0.653706 0.120973
O O1 0.232577 0.774817 0.639557
O O2 0.499883 0.763338 0.591428
O O3 0.500000 0.000000 0.500000
O O4 0.289161 0.956109 0.870298
O O5 0.939277 0.217941 0.863614
O O6 0.907109 0.944428 0.755978
O O7 0.000000 0.000000 0.000000
O O8 0.165961 0.242051 0.476345
O O9 0.102538 0.493457 0.648101
O O10 0.220585 0.336957 0.741416
O O11 0.051688 0.311963 0.318542
O O12 0.380289 0.240595 0.071349
O O13 0.266622 0.658976 0.313380
O O14 0.500000 0.500000 0.500000
O O15 0.530516 0.669214 0.260265
O O16 0.500000 0.500000 0.000000
#
# Coordination Sequence:
#
# PCOD9057302 Si02
#       7
#     2   2   2   2   2   2   2
#     4  11  23  44  69 101 136 183 237 282 353 419
#     4  12  25  46  70  99 135 189 230 291 358 417
#     4  12  25  45  67 105 141 179 237 294 349 417
#     4  12  25  47  71 101 148 184 237 291 348 425
#     4  11  24  45  72 106 141 186 234 293 349 414
#     4  11  22  42  67 100 140 177 235 295 338 414
#     4  11  22  42  71 100 138 182 230 281 359 404
#
# _framework density 22.784632999999999
#
# number of rings (size 3 to 8) (size 9 to 14) (size 15 to 20)
#    0.000    0.571    5.714    4.286    0.000    1.714 
#    2.571    0.714    0.000    0.000    0.000    0.000 
#    0.000    0.000    0.000    0.000    0.000    0.000 
#
# Total GULP energy -77979.774239 kJ/mol
# GULP energy per Si atom -5569.983874 kJ/mol
# Density = 2.273277 g / cm^3
# Si number density = 22.784633 Si / 1000 Ang^3
#
#
#
# Elastic Constant Matrix: (Units=GPa)
#
#
# Indices 1 2 3 4 5 6 
#
# 1 36.2437 19.7517 -2.5709 -3.2433 -1.0709 5.0135
# 2 19.7517 111.6975 16.6828 1.3723 -14.6336 8.8942
# 3 -2.5709 16.6828 87.0503 -9.4592 -10.5554 -10.5756
# 4 -3.2433 1.3723 -9.4592 45.8521 5.8349 -3.3623
# 5 -1.0709 -14.6336 -10.5554 5.8349 30.8263 9.1576
# 6 5.0135 8.8942 -10.5756 -3.3623 9.1576 29.4771
#
#
#
# Elastic Compliance Matrix: (Units=1/GPa)
#
#
# Indices 1 2 3 4 5 6 
#
# 1 0.031437 -0.005807 0.001956 0.002735 -0.000822 -0.002325
# 2 -0.005807 0.011748 -0.002603 -0.002585 0.006718 -0.005873
# 3 0.001956 -0.002603 0.013160 0.003156 0.001209 0.005159
# 4 0.002735 -0.002585 0.003156 0.024003 -0.006432 0.006183
# 5 -0.000822 0.006718 0.001209 -0.006432 0.041733 -0.015152
# 6 -0.002325 -0.005873 0.005159 0.006183 -0.015152 0.043355
#
#
# Mechanical properties :
#
#
# Convention : Reuss Voigt Hill
#
# Bulk Modulus (GPa) = 23.02140 33.63541 28.32840
# Shear Modulus (GPa) = 25.93056 34.63963 30.28510
#
# Velocity S-wave (km/s) = 3.37719 3.90334 3.64976
# Velocity P-wave (km/s) = 5.03320 5.92530 5.49737
#
# Compressibility (1/GPa) = 0.04343785
#
# Stress axis : x y z
#
# Youngs Moduli (GPa) = 31.80993 85.12163 75.98559
#
# Poissons Ratio (x) = 0.49433 -0.14866
# Poissons Ratio (y) = 0.18473 0.19777
# Poissons Ratio (z) = -0.06224 0.22155
#
# Static dielectric constant tensor:
#      x y z
#    x 2.203890 0.139780 -0.297190 
#    y 0.139780 2.208670 -0.311980 
#    z -0.297190 -0.311980 2.242090 
# 
# From -- ./inp_files/218239.got.cif
#   From: 2010.05.17/outbox.cif.g08.bks.cpg/sg2_110_cif.got.tgz:218239.got - 2010.06.03 11:33:40.
