data_PCOD9057709
_publ_section_title
;
Structure prediction by ZEFSAII (Michael W. Deem and Ramdas Pophale) SiO2 
 PCOD9057709
Probable space group: P -1
;
_chemical_formula_sum "Si O2"
_cell_formula_units_Z 14
_cell_length_a 14.299818
_cell_length_b 20.738952
_cell_length_c 12.030961
_cell_angle_alpha 151.165655
_cell_angle_beta 40.692092
_cell_angle_gamma 157.826042
_cell_volume 621.296660
_symmetry_space_group_name_H-M "P -1"
_symmetry_group_IT_number 2
_symmetry_cell_setting 'triclinic'
loop_
_space_group_symop_operation_xyz
x,y,z
-x,-y,-z
loop_
_atom_site_type_symbol
_atom_site_label
_atom_site_fract_x
_atom_site_fract_y
_atom_site_fract_z
Si Si1 0.590877 0.630582 0.499461
Si Si2 0.608356 0.280838 0.750767
Si Si3 0.251928 0.905229 0.696327
Si Si4 0.791984 0.927223 0.377889
Si Si5 0.146221 0.822727 0.111273
Si Si6 0.818740 0.771134 0.903438
Si Si7 0.501792 0.129167 0.045498
O O1 0.500000 0.500000 0.500000
O O2 0.450361 0.454276 0.256477
O O3 0.489600 0.704306 0.700686
O O4 0.895617 0.839257 0.543305
O O5 0.752247 0.249844 0.572963
O O6 0.416460 0.145976 0.614439
O O7 0.411407 0.116950 0.783728
O O8 0.838528 0.566811 0.985551
O O9 0.974082 0.753232 0.739280
O O10 0.407982 0.029787 0.856870
O O11 0.758423 0.968370 0.594320
O O12 0.769807 0.783000 0.091972
O O13 0.282433 0.920279 0.016785
O O14 0.252908 0.775149 0.008724
O O15 0.000000 0.000000 0.000000
#
# Coordination Sequence:
#
# PCOD9057709 Si02
#       7
#     2   2   2   2   2   2   2
#     4  12  24  43  74 100 138 180 223 289 342 396
#     4  11  24  43  70 103 136 173 234 284 340 396
#     4  11  22  43  69 103 134 175 231 287 332 405
#     4  12  24  42  68 101 137 177 231 278 335 414
#     4  11  27  47  69  97 142 187 224 281 338 412
#     4  12  22  40  66 102 137 173 222 277 348 401
#     4  11  25  49  69  99 138 184 233 273 346 412
#
# _framework density 22.533521
#
# number of rings (size 3 to 8) (size 9 to 14) (size 15 to 20)
#    0.000    0.571    5.714    1.714    2.000    2.857 
#    2.571    1.429    0.000    0.000    0.000    0.000 
#    0.000    0.000    0.000    0.000    0.000    0.000 
#
# Total GULP energy -77953.831311 kJ/mol
# GULP energy per Si atom -5568.130808 kJ/mol
# Density = 2.248223 g / cm^3
# Si number density = 22.533521 Si / 1000 Ang^3
#
#
#
# Elastic Constant Matrix: (Units=GPa)
#
#
# Indices 1 2 3 4 5 6 
#
# 1 259.6015 127.2579 24.0675 -28.6490 53.4834 23.4300
# 2 127.2579 105.6634 46.3229 -49.0033 34.7040 31.2809
# 3 24.0675 46.3229 84.3871 4.6154 23.5018 9.1958
# 4 -28.6490 -49.0033 4.6154 33.0565 10.5591 4.2129
# 5 53.4834 34.7040 23.5018 10.5591 66.4217 -12.9572
# 6 23.4300 31.2809 9.1958 4.2129 -12.9572 38.8250
#
#
#
# Elastic Compliance Matrix: (Units=1/GPa)
#
#
# Indices 1 2 3 4 5 6 
#
# 1 0.007820 -0.002028 0.001563 0.007088 -0.008280 -0.006988
# 2 -0.002028 -0.012060 0.002541 -0.027075 0.014899 0.018249
# 3 0.001563 0.002541 0.013754 0.008026 -0.010822 -0.010731
# 4 0.007088 -0.027075 0.008026 -0.011136 0.011398 0.020648
# 5 -0.008280 0.014899 -0.010822 0.011398 0.015881 -0.000381
# 6 -0.006988 0.018249 -0.010731 0.020648 -0.000381 0.015444
#
#
# Mechanical properties :
#
#
# Convention : Reuss Voigt Hill
#
# Bulk Modulus (GPa) = 73.17617 93.88319 83.52968
# Shear Modulus (GPa) = 166.07457 44.46089 105.26773
#
# Velocity S-wave (km/s) = 8.59425 4.44678 6.84233
# Velocity P-wave (km/s) = 11.44667 8.25345 9.97862
#
# Compressibility (1/GPa) = 0.01366565
#
# Stress axis : x y z
#
# Youngs Moduli (GPa) = 127.87432 -82.91982 72.70800
#
# Poissons Ratio (x) = -0.16819 -0.11363
# Poissons Ratio (y) = 0.25938 -0.18478
# Poissons Ratio (z) = -0.19985 0.21073
#
# Static dielectric constant tensor:
#      x y z
#    x 1.750950 0.031610 -0.041740 
#    y 0.031610 1.794480 -0.032020 
#    z -0.041740 -0.032020 1.902040 
# 
# From -- ./inp_files/263271.got.cif
#   From: 2010.05.17/outbox.cif.g08.bks.cpg/sg2_132_cif.got.tgz:263271.got - 2010.06.03 11:33:40.
