data_PCOD9058088
_publ_section_title
;
Structure prediction by ZEFSAII (Michael W. Deem and Ramdas Pophale) SiO2 
 PCOD9058088
Probable space group: P -1
;
_chemical_formula_sum "Si O2"
_cell_formula_units_Z 14
_cell_length_a 16.563764
_cell_length_b 7.880737
_cell_length_c 10.745505
_cell_angle_alpha 57.523626
_cell_angle_beta 140.571128
_cell_angle_gamma 96.358868
_cell_volume 618.865407
_symmetry_space_group_name_H-M "P -1"
_symmetry_group_IT_number 2
_symmetry_cell_setting 'triclinic'
loop_
_space_group_symop_operation_xyz
x,y,z
-x,-y,-z
loop_
_atom_site_type_symbol
_atom_site_label
_atom_site_fract_x
_atom_site_fract_y
_atom_site_fract_z
Si Si1 0.640974 0.670591 0.730355
Si Si2 0.202484 0.510809 0.761396
Si Si3 0.168720 0.818546 0.966654
Si Si4 0.861497 0.781911 0.365074
Si Si5 0.700431 0.053394 0.713210
Si Si6 0.330148 0.735705 0.667307
Si Si7 0.897568 0.748917 0.697985
O O1 0.701719 0.469238 0.775836
O O2 0.457655 0.844680 0.439836
O O3 0.728135 0.807893 0.783629
O O4 0.681221 0.553789 0.962281
O O5 0.232259 0.278376 0.814504
O O6 0.216640 0.669370 0.613427
O O7 0.036370 0.636718 0.578564
O O8 0.181490 0.951976 0.048413
O O9 0.012772 0.832215 0.775100
O O10 0.191018 0.941794 0.824924
O O11 0.859295 0.702313 0.533190
O O12 0.677776 0.226125 0.504664
O O13 0.259402 0.009916 0.529111
O O14 0.500000 0.500000 0.000000
O O15 0.000000 0.500000 0.000000
#
# Coordination Sequence:
#
# PCOD9058088 Si02
#       7
#     2   2   2   2   2   2   2
#     4  11  22  45  69  98 140 178 240 288 346 420
#     4  11  22  44  70  99 136 185 230 289 355 419
#     4  12  23  44  73 100 131 189 238 289 348 417
#     4  11  24  43  73 102 131 181 244 289 346 418
#     4  11  26  42  67 104 141 184 232 290 351 424
#     4  12  26  45  67 101 147 188 224 291 364 414
#     4  12  27  45  70 104 140 182 237 297 347 416
#
# _framework density 22.622045
#
# number of rings (size 3 to 8) (size 9 to 14) (size 15 to 20)
#    0.000    0.571    5.714    2.571    2.000    0.571 
#    0.000    0.714    0.000    0.000    0.000    0.000 
#    0.000    0.000    0.000    0.000    0.000    0.000 
#
# Total GULP energy -78159.732465 kJ/mol
# GULP energy per Si atom -5582.838033 kJ/mol
# Density = 2.257056 g / cm^3
# Si number density = 22.622045 Si / 1000 Ang^3
#
#
#
# Elastic Constant Matrix: (Units=GPa)
#
#
# Indices 1 2 3 4 5 6 
#
# 1 70.2607 14.8433 22.9238 -8.6396 -20.3566 -12.6521
# 2 14.8433 82.7995 19.7146 -14.3666 -8.1705 -5.1405
# 3 22.9238 19.7146 84.2072 -16.5385 -13.0883 -16.5793
# 4 -8.6396 -14.3666 -16.5385 39.2224 -1.5062 -3.8957
# 5 -20.3566 -8.1705 -13.0883 -1.5062 44.0594 -6.6086
# 6 -12.6521 -5.1405 -16.5793 -3.8957 -6.6086 21.7592
#
#
#
# Elastic Compliance Matrix: (Units=1/GPa)
#
#
# Indices 1 2 3 4 5 6 
#
# 1 0.022407 -0.000405 0.001665 0.008004 0.014030 0.019896
# 2 -0.000405 0.013789 -0.000824 0.005145 0.002932 0.004206
# 3 0.001665 -0.000824 0.019171 0.010529 0.009703 0.020212
# 4 0.008004 0.005145 0.010529 0.036480 0.012667 0.024270
# 5 0.014030 0.002932 0.009703 0.012667 0.037524 0.029908
# 6 0.019896 0.004206 0.020212 0.024270 0.029908 0.087349
#
#
# Mechanical properties :
#
#
# Convention : Reuss Voigt Hill
#
# Bulk Modulus (GPa) = 17.78123 39.13675 28.45899
# Shear Modulus (GPa) = 21.31351 32.99391 27.15371
#
# Velocity S-wave (km/s) = 3.07279 3.82315 3.46832
# Velocity P-wave (km/s) = 4.52400 6.06849 5.35225
#
# Compressibility (1/GPa) = 0.05623907
#
# Stress axis : x y z
#
# Youngs Moduli (GPa) = 44.62929 72.52039 52.16323
#
# Poissons Ratio (x) = 0.02935 -0.08684
# Poissons Ratio (y) = 0.01806 0.04297
# Poissons Ratio (z) = -0.07430 0.05974
#
# Static dielectric constant tensor:
#      x y z
#    x 1.847230 -0.011620 0.003950 
#    y -0.011620 1.855530 -0.062310 
#    z 0.003950 -0.062310 1.890830 
# 
# From -- ./inp_files/388731.got.cif
#   From: 2010.05.17/outbox.cif.g08.bks.cpg/sg2_195_cif.got.tgz:388731.got - 2010.06.03 11:33:40.
