data_PCOD9058798
_publ_section_title
;
Structure prediction by ZEFSAII (Michael W. Deem and Ramdas Pophale) SiO2 
 PCOD9058798
Probable space group: P -1
;
_chemical_formula_sum "Si O2"
_cell_formula_units_Z 16
_cell_length_a 4.948829
_cell_length_b 18.807783
_cell_length_c 7.735176
_cell_angle_alpha 92.411110
_cell_angle_beta 95.356771
_cell_angle_gamma 129.064509
_cell_volume 551.803123
_symmetry_space_group_name_H-M "P -1"
_symmetry_group_IT_number 2
_symmetry_cell_setting 'triclinic'
loop_
_space_group_symop_operation_xyz
x,y,z
-x,-y,-z
loop_
_atom_site_type_symbol
_atom_site_label
_atom_site_fract_x
_atom_site_fract_y
_atom_site_fract_z
Si Si1 0.516767 0.077978 0.354736
Si Si2 0.731079 0.881605 0.326624
Si Si3 0.680170 0.363984 0.996687
Si Si4 0.520274 0.721526 0.483209
Si Si5 0.480273 0.191015 0.150508
Si Si6 0.741260 0.998511 0.147225
Si Si7 0.635727 0.436978 0.367618
Si Si8 0.776524 0.596642 0.224332
O O1 0.475477 0.118910 0.524677
O O2 0.704880 0.161447 0.233273
O O3 0.717682 0.037982 0.333778
O O4 0.106497 0.980876 0.308091
O O5 0.766253 0.806013 0.372951
O O6 0.542518 0.889583 0.156369
O O7 0.561576 0.262539 0.017163
O O8 0.683823 0.403544 0.185672
O O9 0.059301 0.418178 0.933830
O O10 0.426796 0.368491 0.856994
O O11 0.528250 0.761797 0.671790
O O12 0.596140 0.652165 0.530447
O O13 0.137831 0.666636 0.363359
O O14 0.118409 0.085925 0.105959
O O15 0.500000 0.000000 0.000000
O O16 0.000000 0.500000 0.500000
O O17 0.541944 0.501353 0.310611
#
# Coordination Sequence:
#
# PCOD9058798 Si02
#       8
#     2   2   2   2   2   2   2   2
#     4   9  19  38  59  81 121 167 210 267 311 391
#     4   9  19  37  59  83 120 162 219 256 322 376
#     4  11  24  42  69 101 134 171 213 270 323 384
#     4   9  20  42  63  90 125 169 216 266 320 392
#     4   9  22  41  57  90 126 169 214 264 323 385
#     4  11  23  34  58  90 125 165 211 268 332 381
#     4   9  20  44  69  97 133 173 216 261 326 390
#     4  11  24  43  69  98 133 170 214 272 327 385
#
# _framework density 28.995851999999999
#
# number of rings (size 3 to 8) (size 9 to 14) (size 15 to 20)
#    0.000    2.250    0.000    1.875    3.500    3.000 
#    4.500   13.750    0.000    0.000    0.000    0.000 
#    0.000    0.000    0.000    0.000    0.000    0.000 
#
# Total GULP energy -89345.672534 kJ/mol
# GULP energy per Si atom -5584.104533 kJ/mol
# Density = 2.892986 g / cm^3
# Si number density = 28.995852 Si / 1000 Ang^3
#
#
#
# Elastic Constant Matrix: (Units=GPa)
#
#
# Indices 1 2 3 4 5 6 
#
# 1 104.3535 42.1173 21.7539 -29.6764 -4.8690 -20.4235
# 2 42.1173 232.7542 74.0247 -78.4880 29.1157 -38.7557
# 3 21.7539 74.0247 166.1928 -45.8946 6.6168 -9.4184
# 4 -29.6764 -78.4880 -45.8946 87.7442 -14.4562 18.4223
# 5 -4.8690 29.1157 6.6168 -14.4562 44.4094 -4.3123
# 6 -20.4235 -38.7557 -9.4184 18.4223 -4.3123 41.5535
#
#
#
# Elastic Compliance Matrix: (Units=1/GPa)
#
#
# Indices 1 2 3 4 5 6 
#
# 1 0.011689 -0.000819 -0.000308 0.002733 0.003145 0.004027
# 2 -0.000819 0.007419 -0.001710 0.004140 -0.002964 0.003987
# 3 -0.000308 -0.001710 0.007450 0.002622 0.000720 -0.001145
# 4 0.002733 0.004140 0.002622 0.018305 0.002958 -0.002010
# 5 0.003145 -0.002964 0.000720 0.002958 0.025691 0.000299
# 6 0.004027 0.003987 -0.001145 -0.002010 0.000299 0.030425
#
#
# Mechanical properties :
#
#
# Convention : Reuss Voigt Hill
#
# Bulk Modulus (GPa) = 47.88213 86.56581 67.22397
# Shear Modulus (GPa) = 44.00893 59.10173 51.55533
#
# Velocity S-wave (km/s) = 3.90008 4.51963 4.22124
# Velocity P-wave (km/s) = 6.06878 7.56012 6.85513
#
# Compressibility (1/GPa) = 0.02088462
#
# Stress axis : x y z
#
# Youngs Moduli (GPa) = 85.54740 134.78961 134.23600
#
# Poissons Ratio (x) = 0.11035 0.04131
# Poissons Ratio (y) = 0.07003 0.22958
# Poissons Ratio (z) = 0.02633 0.23053
#
# Static dielectric constant tensor:
#      x y z
#    x 2.034270 0.343050 0.309080 
#    y 0.343050 2.124430 0.151690 
#    z 0.309080 0.151690 2.698700 
# 
# From -- ./inp_files/137631.got.cif
#   From: 2010.05.17/outbox.cif.g08.bks.cpg/sg2_69_cif.got.tgz:137631.got - 2010.06.03 11:33:40.
