data_PCOD9058052
_publ_section_title
;
Structure prediction by ZEFSAII (Michael W. Deem and Ramdas Pophale) SiO2 
 PCOD9058052
Probable space group: P -1
;
_chemical_formula_sum "Si O2"
_cell_formula_units_Z 14
_cell_length_a 8.558836
_cell_length_b 14.742846
_cell_length_c 13.923440
_cell_angle_alpha 151.143653
_cell_angle_beta 104.198853
_cell_angle_gamma 94.590226
_cell_volume 638.213221
_symmetry_space_group_name_H-M "P -1"
_symmetry_group_IT_number 2
_symmetry_cell_setting 'triclinic'
loop_
_space_group_symop_operation_xyz
x,y,z
-x,-y,-z
loop_
_atom_site_type_symbol
_atom_site_label
_atom_site_fract_x
_atom_site_fract_y
_atom_site_fract_z
Si Si1 0.838344 0.372651 0.115793
Si Si2 0.698263 0.587580 0.173119
Si Si3 0.333115 0.076228 0.424088
Si Si4 0.003940 0.725514 0.188134
Si Si5 0.773493 0.267016 0.219395
Si Si6 0.509330 0.717072 0.659565
Si Si7 0.733174 0.405063 0.686693
O O1 0.703948 0.383466 0.026914
O O2 0.754114 0.343095 0.181136
O O3 0.081020 0.583255 0.321397
O O4 0.805120 0.128498 0.864947
O O5 0.695961 0.722451 0.389253
O O6 0.900663 0.748790 0.285263
O O7 0.500000 0.500000 0.000000
O O8 0.567025 0.195708 0.542129
O O9 0.232811 0.946297 0.391047
O O10 0.851615 0.638083 0.991458
O O11 0.000000 0.500000 0.000000
O O12 0.631675 0.260459 0.270960
O O13 0.000000 0.500000 0.500000
O O14 0.717962 0.002601 0.956725
O O15 0.500000 0.500000 0.500000
O O16 0.406124 0.633327 0.460068
#
# Coordination Sequence:
#
# PCOD9058052 Si02
#       7
#     2   2   2   2   2   2   2
#     4  11  25  46  67 100 141 178 233 286 343 422
#     4  12  25  43  68 102 134 181 233 280 343 414
#     4  11  24  43  67  95 140 176 227 287 345 403
#     4  11  23  44  66  98 136 180 229 279 344 413
#     4  11  24  47  73 104 140 189 232 289 362 421
#     4  11  26  45  71 109 141 181 238 293 355 422
#     4  11  22  44  69  97 140 183 227 287 347 409
#
# _framework density 21.936243999999999
#
# number of rings (size 3 to 8) (size 9 to 14) (size 15 to 20)
#    0.000    0.857    7.143    0.429    2.000    2.857 
#    7.714    0.000    0.000    0.000    0.000    0.000 
#    0.000    0.000    0.000    0.000    0.000    0.000 
#
# Total GULP energy -77936.991706 kJ/mol
# GULP energy per Si atom -5566.927979 kJ/mol
# Density = 2.188632 g / cm^3
# Si number density = 21.936244 Si / 1000 Ang^3
#
#
#
# Elastic Constant Matrix: (Units=GPa)
#
#
# Indices 1 2 3 4 5 6 
#
# 1 59.9664 31.5408 33.8069 10.2234 3.5860 12.6631
# 2 31.5408 108.5528 47.7995 -5.2824 3.7199 4.1652
# 3 33.8069 47.7995 106.2611 7.2740 6.0761 -8.6686
# 4 10.2234 -5.2824 7.2740 40.4036 12.7479 0.9095
# 5 3.5860 3.7199 6.0761 12.7479 38.5678 5.1956
# 6 12.6631 4.1652 -8.6686 0.9095 5.1956 42.7526
#
#
#
# Elastic Compliance Matrix: (Units=1/GPa)
#
#
# Indices 1 2 3 4 5 6 
#
# 1 0.025505 -0.004656 -0.006411 -0.006465 0.002377 -0.008552
# 2 -0.004656 0.012848 -0.004562 0.004122 -0.001353 -0.000721
# 3 -0.006411 -0.004562 0.014111 -0.001152 -0.001536 0.005416
# 4 -0.006465 0.004122 -0.001152 0.030197 -0.009843 0.001834
# 5 0.002377 -0.001353 -0.001536 -0.009843 0.029914 -0.004310
# 6 -0.008552 -0.000721 0.005416 0.001834 -0.004310 0.027577
#
#
# Mechanical properties :
#
#
# Convention : Reuss Voigt Hill
#
# Bulk Modulus (GPa) = 47.15428 55.67496 51.41462
# Shear Modulus (GPa) = 28.01456 35.12035 31.56745
#
# Velocity S-wave (km/s) = 3.57752 4.00561 3.79760
# Velocity P-wave (km/s) = 6.21350 6.84315 6.53591
#
# Compressibility (1/GPa) = 0.02120698
#
# Stress axis : x y z
#
# Youngs Moduli (GPa) = 39.20760 77.83157 70.86594
#
# Poissons Ratio (x) = 0.36235 0.45434
# Poissons Ratio (y) = 0.18253 0.32329
# Poissons Ratio (z) = 0.25137 0.35507
#
# Static dielectric constant tensor:
#      x y z
#    x 1.819810 0.024930 0.026910 
#    y 0.024930 1.831300 0.027200 
#    z 0.026910 0.027200 1.901450 
# 
# From -- ./inp_files/505911.got.cif
#   From: 2010.05.17/outbox.cif.g08.bks.cpg/sg2_253_cif.got.tgz:505911.got - 2010.06.03 11:33:40.
