data_PCOD9058875
_publ_section_title
;
Structure prediction by ZEFSAII (Michael W. Deem and Ramdas Pophale) SiO2 
 PCOD9058875
Probable space group: P -1
;
_chemical_formula_sum "Si O2"
_cell_formula_units_Z 16
_cell_length_a 11.496260
_cell_length_b 11.771583
_cell_length_c 5.128884
_cell_angle_alpha 78.690081
_cell_angle_beta 78.284503
_cell_angle_gamma 82.774642
_cell_volume 663.754927
_symmetry_space_group_name_H-M "P -1"
_symmetry_group_IT_number 2
_symmetry_cell_setting 'triclinic'
loop_
_space_group_symop_operation_xyz
x,y,z
-x,-y,-z
loop_
_atom_site_type_symbol
_atom_site_label
_atom_site_fract_x
_atom_site_fract_y
_atom_site_fract_z
Si Si1 0.487530 0.365078 0.147221
Si Si2 0.963825 0.177407 0.085545
Si Si3 0.205044 0.090427 0.861285
Si Si4 0.719932 0.265709 0.859496
Si Si5 0.189696 0.513565 0.478525
Si Si6 0.336331 0.322540 0.743802
Si Si7 0.044318 0.396110 0.218437
Si Si8 0.784915 0.060904 0.556764
O O1 0.427712 0.351742 0.460639
O O2 0.500000 0.500000 0.000000
O O3 0.612353 0.285990 0.101651
O O4 0.403514 0.316120 0.987867
O O5 0.038244 0.276031 0.131800
O O6 0.908801 0.106692 0.377368
O O7 0.844883 0.230632 0.966827
O O8 0.061723 0.115371 0.874434
O O9 0.273341 0.205917 0.768590
O O10 0.257981 0.000032 0.658611
O O11 0.208289 0.033074 0.172271
O O12 0.721642 0.392924 0.675561
O O13 0.711535 0.171016 0.678539
O O14 0.238215 0.434117 0.729557
O O15 0.066096 0.592793 0.534616
O O16 0.160351 0.421936 0.312262
O O17 0.000000 0.500000 0.000000
#
# Coordination Sequence:
#
# PCOD9058875 Si02
#       8
#     2   2   2   2   2   2   2   2
#     4  12  29  51  80 111 153 198 253 309 373 450
#     4  12  26  43  78 110 159 194 249 311 372 461
#     4  12  29  49  77 110 153 197 255 302 382 437
#     4  12  27  47  76 113 147 199 254 306 380 441
#     4  11  25  41  70 110 156 192 243 303 388 450
#     4  12  29  51  78 111 150 203 248 316 370 446
#     4  11  23  38  64 111 157 190 232 300 384 463
#     4  12  27  49  75 111 150 203 249 311 366 452
#
# _framework density 24.10528
#
# number of rings (size 3 to 8) (size 9 to 14) (size 15 to 20)
#    0.000    0.250    5.000    2.625   12.250    0.000 
#    0.000    3.750    0.000    0.000    0.000    0.000 
#    0.000    0.000    0.000    0.000    0.000    0.000 
#
# Total GULP energy -89556.647910 kJ/mol
# GULP energy per Si atom -5597.290494 kJ/mol
# Density = 2.405042 g / cm^3
# Si number density = 24.105280 Si / 1000 Ang^3
#
#
#
# Elastic Constant Matrix: (Units=GPa)
#
#
# Indices 1 2 3 4 5 6 
#
# 1 58.6441 24.1648 14.0053 8.4364 -12.2671 -11.4040
# 2 24.1648 110.7479 26.6891 -1.9934 -20.6802 8.2930
# 3 14.0053 26.6891 106.9869 0.8467 -9.7182 -5.4249
# 4 8.4364 -1.9934 0.8467 50.3172 -4.5896 -7.5665
# 5 -12.2671 -20.6802 -9.7182 -4.5896 44.7257 4.1130
# 6 -11.4040 8.2930 -5.4249 -7.5665 4.1130 26.5209
#
#
#
# Elastic Compliance Matrix: (Units=1/GPa)
#
#
# Indices 1 2 3 4 5 6 
#
# 1 0.022025 -0.004900 -0.000924 -0.002172 0.002449 0.009814
# 2 -0.004900 0.011998 -0.002303 0.000713 0.004403 -0.006809
# 3 -0.000924 -0.002303 0.010226 0.000317 0.000716 0.002394
# 4 -0.002172 0.000713 0.000317 0.021107 0.001537 0.004691
# 5 0.002449 0.004403 0.000716 0.001537 0.025722 -0.003728
# 6 0.009814 -0.006809 0.002394 0.004691 -0.003728 0.046462
#
#
# Mechanical properties :
#
#
# Convention : Reuss Voigt Hill
#
# Bulk Modulus (GPa) = 35.71763 45.12190 40.41977
# Shear Modulus (GPa) = 30.65132 38.41407 34.53270
#
# Velocity S-wave (km/s) = 3.56976 3.99632 3.78905
# Velocity P-wave (km/s) = 5.64274 6.32877 5.99558
#
# Compressibility (1/GPa) = 0.02799738
#
# Stress axis : x y z
#
# Youngs Moduli (GPa) = 45.40308 83.34389 97.78775
#
# Poissons Ratio (x) = 0.40837 0.09031
# Poissons Ratio (y) = 0.22247 0.22518
# Poissons Ratio (z) = 0.04193 0.19192
#
# Static dielectric constant tensor:
#      x y z
#    x 1.946790 -0.013380 -0.044470 
#    y -0.013380 1.925970 0.023100 
#    z -0.044470 0.023100 1.957370 
# 
# From -- ./inp_files/66239.got.cif
#   From: 2010.05.17/outbox.cif.g08.bks.cpg/sg2_34_cif.got.tgz:66239.got - 2010.06.03 11:33:40.
