data_PCOD9058522
_publ_section_title
;
Structure prediction by ZEFSAII (Michael W. Deem and Ramdas Pophale) SiO2 
 PCOD9058522
Probable space group: P -1
;
_chemical_formula_sum "Si O2"
_cell_formula_units_Z 14
_cell_length_a 17.514967
_cell_length_b 9.555826
_cell_length_c 9.368087
_cell_angle_alpha 45.803984
_cell_angle_beta 61.162258
_cell_angle_gamma 97.390224
_cell_volume 662.151757
_symmetry_space_group_name_H-M "P -1"
_symmetry_group_IT_number 2
_symmetry_cell_setting 'triclinic'
loop_
_space_group_symop_operation_xyz
x,y,z
-x,-y,-z
loop_
_atom_site_type_symbol
_atom_site_label
_atom_site_fract_x
_atom_site_fract_y
_atom_site_fract_z
Si Si1 0.148377 0.704082 0.500124
Si Si2 0.882245 0.697012 0.402174
Si Si3 0.552261 0.179092 0.469283
Si Si4 0.235427 0.523833 0.725549
Si Si5 0.384804 0.676648 0.200298
Si Si6 0.021890 0.887743 0.430452
Si Si7 0.564827 0.643703 0.185192
O O1 0.136273 0.544471 0.485809
O O2 0.140385 0.541242 0.755982
O O3 0.044990 0.705091 0.586823
O O4 0.290597 0.035701 0.150549
O O5 0.749888 0.595047 0.564711
O O6 0.916770 0.732242 0.511269
O O7 0.000000 0.000000 0.000000
O O8 0.689806 0.329095 0.298544
O O9 0.566538 0.434120 0.261106
O O10 0.500000 0.000000 0.500000
O O11 0.452334 0.950650 0.846271
O O12 0.339480 0.684195 0.389172
O O13 0.157309 0.192932 0.026424
O O14 0.479263 0.653273 0.163923
O O15 0.000000 0.000000 0.500000
O O16 0.500000 0.500000 0.500000
#
# Coordination Sequence:
#
# PCOD9058522 Si02
#       7
#     2   2   2   2   2   2   2
#     4  11  23  43  75  92 133 183 229 278 333 399
#     4  11  24  45  67  99 136 177 232 276 319 411
#     4  12  26  42  66 105 142 171 223 288 343 398
#     4  11  22  46  68  97 137 178 226 277 335 409
#     4  11  23  43  72  98 135 181 224 279 332 405
#     4  12  26  46  69  97 140 180 225 283 341 399
#     4  12  22  41  74 103 130 181 229 272 346 405
#
# _framework density 21.143189
#
# number of rings (size 3 to 8) (size 9 to 14) (size 15 to 20)
#    0.000    0.571    7.143    2.571    2.000    1.143 
#    5.143    0.000    0.000    0.000    0.000    0.000 
#    0.000    0.000    0.000    0.000    0.000    0.000 
#
# Total GULP energy -78260.714280 kJ/mol
# GULP energy per Si atom -5590.051020 kJ/mol
# Density = 2.109507 g / cm^3
# Si number density = 21.143189 Si / 1000 Ang^3
#
#
#
# Elastic Constant Matrix: (Units=GPa)
#
#
# Indices 1 2 3 4 5 6 
#
# 1 188.3889 79.8508 12.9084 -11.0262 3.0713 18.6510
# 2 79.8508 159.1425 12.9431 -19.5568 2.3923 18.7907
# 3 12.9084 12.9431 56.9654 -16.2819 3.6911 -0.3416
# 4 -11.0262 -19.5568 -16.2819 31.4208 1.8044 -2.6955
# 5 3.0713 2.3923 3.6911 1.8044 28.9692 -17.2794
# 6 18.6510 18.7907 -0.3416 -2.6955 -17.2794 39.8877
#
#
#
# Elastic Compliance Matrix: (Units=1/GPa)
#
#
# Indices 1 2 3 4 5 6 
#
# 1 0.006966 -0.003087 -0.000761 0.000013 -0.001977 -0.002665
# 2 -0.003087 0.008831 0.000089 0.004309 -0.002870 -0.003668
# 3 -0.000761 0.000089 0.021033 0.010862 -0.003439 -0.000262
# 4 0.000013 0.004309 0.010862 0.040312 -0.005106 -0.001431
# 5 -0.001977 -0.002870 -0.003439 -0.005106 0.049698 0.023431
# 6 -0.002665 -0.003668 -0.000262 -0.001431 0.023431 0.038096
#
#
# Mechanical properties :
#
#
# Convention : Reuss Voigt Hill
#
# Bulk Modulus (GPa) = 34.11734 68.43350 51.27542
# Shear Modulus (GPa) = 27.43857 39.97516 33.70686
#
# Velocity S-wave (km/s) = 3.60634 4.35292 3.99710
# Velocity P-wave (km/s) = 5.78898 7.59611 6.75326
#
# Compressibility (1/GPa) = 0.02931061
#
# Stress axis : x y z
#
# Youngs Moduli (GPa) = 143.56098 113.23389 47.54499
#
# Poissons Ratio (x) = 0.34957 0.03618
# Poissons Ratio (y) = 0.44320 -0.00422
# Poissons Ratio (z) = 0.10925 -0.01004
#
# Static dielectric constant tensor:
#      x y z
#    x 1.793750 -0.002510 -0.018870 
#    y -0.002510 1.747090 0.007550 
#    z -0.018870 0.007550 1.824870 
# 
# From -- ./inp_files/203525.got.cif
#   From: 2010.05.17/outbox.cif.g08.bks.cpg/sg2_102_cif.got.tgz:203525.got - 2010.06.03 11:33:40.
