data_PCOD9058374
_publ_section_title
;
Structure prediction by ZEFSAII (Michael W. Deem and Ramdas Pophale) SiO2 
 PCOD9058374
Probable space group: P -1
;
_chemical_formula_sum "Si O2"
_cell_formula_units_Z 14
_cell_length_a 11.961058
_cell_length_b 10.014525
_cell_length_c 13.723258
_cell_angle_alpha 53.672136
_cell_angle_beta 30.053597
_cell_angle_gamma 48.933438
_cell_volume 619.451242
_symmetry_space_group_name_H-M "P -1"
_symmetry_group_IT_number 2
_symmetry_cell_setting 'triclinic'
loop_
_space_group_symop_operation_xyz
x,y,z
-x,-y,-z
loop_
_atom_site_type_symbol
_atom_site_label
_atom_site_fract_x
_atom_site_fract_y
_atom_site_fract_z
Si Si1 0.874778 0.406591 0.207737
Si Si2 0.821485 0.057898 0.942299
Si Si3 0.395746 0.310922 0.282128
Si Si4 0.124260 0.802662 0.530315
Si Si5 0.116883 0.706173 0.365081
Si Si6 0.589451 0.789386 0.300537
Si Si7 0.656804 0.168263 0.346221
O O1 0.718817 0.580378 0.311217
O O2 0.741727 0.310207 0.280207
O O3 0.000000 0.500000 0.000000
O O4 0.257036 0.111674 0.911956
O O5 0.830466 0.131750 0.795298
O O6 0.620894 0.212965 0.085313
O O7 0.997861 0.734014 0.742668
O O8 0.097274 0.990257 0.799313
O O9 0.286384 0.524531 0.266120
O O10 0.495952 0.255132 0.338829
O O11 0.162295 0.261990 0.455425
O O12 0.161394 0.687908 0.454464
O O13 0.370124 0.798514 0.393649
O O14 0.000000 0.000000 0.500000
O O15 0.495870 0.884402 0.432893
#
# Coordination Sequence:
#
# PCOD9058374 Si02
#       7
#     2   2   2   2   2   2   2
#     4  11  22  45  71 104 132 175 228 279 342 408
#     4  12  24  42  66 103 135 175 237 279 334 406
#     4  11  25  46  67  95 134 190 228 278 337 400
#     4  11  23  44  71 101 140 177 219 282 348 400
#     4  11  25  47  66  95 142 182 226 279 339 409
#     4  11  24  43  70 101 136 177 224 283 350 402
#     4  11  23  44  70  98 136 175 224 287 339 399
#
# _framework density 22.600646999999999
#
# number of rings (size 3 to 8) (size 9 to 14) (size 15 to 20)
#    0.000    0.857    1.429    7.714    0.000    4.000 
#   12.857    0.000    0.000    0.000    0.000    0.000 
#    0.000    0.000    0.000    0.000    0.000    0.000 
#
# Total GULP energy -78230.679230 kJ/mol
# GULP energy per Si atom -5587.905659 kJ/mol
# Density = 2.254921 g / cm^3
# Si number density = 22.600647 Si / 1000 Ang^3
#
#
#
# Elastic Constant Matrix: (Units=GPa)
#
#
# Indices 1 2 3 4 5 6 
#
# 1 99.9023 20.4429 49.2847 -13.8519 15.9638 -24.8650
# 2 20.4429 126.2684 54.1187 -3.8340 5.2690 -14.1675
# 3 49.2847 54.1187 141.7152 -9.1210 9.4199 -13.2390
# 4 -13.8519 -3.8340 -9.1210 61.4284 -8.5499 2.3838
# 5 15.9638 5.2690 9.4199 -8.5499 26.7072 -0.6398
# 6 -24.8650 -14.1675 -13.2390 2.3838 -0.6398 37.8994
#
#
#
# Elastic Compliance Matrix: (Units=1/GPa)
#
#
# Indices 1 2 3 4 5 6 
#
# 1 0.015506 0.000632 -0.004242 0.001568 -0.007187 0.008708
# 2 0.000632 0.009714 -0.003608 -0.000029 -0.000964 0.002771
# 3 -0.004242 -0.003608 0.009873 0.000289 -0.000159 -0.000704
# 4 0.001568 -0.000029 0.000289 0.017297 0.004506 0.000107
# 5 -0.007187 -0.000964 -0.000159 0.004506 0.043316 -0.004683
# 6 0.008708 0.002771 -0.000704 0.000107 -0.004683 0.032803
#
#
# Mechanical properties :
#
#
# Convention : Reuss Voigt Hill
#
# Bulk Modulus (GPa) = 48.40953 68.39760 58.40356
# Shear Modulus (GPa) = 33.37097 41.47630 37.42363
#
# Velocity S-wave (km/s) = 3.84676 4.28855 4.07365
# Velocity P-wave (km/s) = 6.41842 7.40618 6.92992
#
# Compressibility (1/GPa) = 0.02065709
#
# Stress axis : x y z
#
# Youngs Moduli (GPa) = 64.49025 102.94266 101.28566
#
# Poissons Ratio (x) = -0.06508 0.42965
# Poissons Ratio (y) = -0.04077 0.36548
# Poissons Ratio (z) = 0.27357 0.37146
#
# Static dielectric constant tensor:
#      x y z
#    x 1.806950 0.009370 0.042410 
#    y 0.009370 1.917170 0.010180 
#    z 0.042410 0.010180 1.953500 
# 
# From -- ./inp_files/423389.got.cif
#   From: 2010.05.17/outbox.cif.g08.bks.cpg/sg2_212_cif.got.tgz:423389.got - 2010.06.03 11:33:40.
