data_PCOD9058347
_publ_section_title
;
Structure prediction by ZEFSAII (Michael W. Deem and Ramdas Pophale) SiO2 
 PCOD9058347
Probable space group: P -1
;
_chemical_formula_sum "Si O2"
_cell_formula_units_Z 16
_cell_length_a 9.055610
_cell_length_b 8.479394
_cell_length_c 14.303320
_cell_angle_alpha 68.456980
_cell_angle_beta 92.743459
_cell_angle_gamma 49.663739
_cell_volume 712.758893
_symmetry_space_group_name_H-M "P -1"
_symmetry_group_IT_number 2
_symmetry_cell_setting 'triclinic'
loop_
_space_group_symop_operation_xyz
x,y,z
-x,-y,-z
loop_
_atom_site_type_symbol
_atom_site_label
_atom_site_fract_x
_atom_site_fract_y
_atom_site_fract_z
Si Si1 0.009293 0.180329 0.003860
Si Si2 0.579866 0.619812 0.659889
Si Si3 0.841831 0.994862 0.546856
Si Si4 0.589093 0.614745 0.967867
Si Si5 0.724601 0.742508 0.095466
Si Si6 0.730751 0.020263 0.259492
Si Si7 0.999668 0.501582 0.338288
Si Si8 0.127895 0.936243 0.251750
O O1 0.101191 0.085280 0.131838
O O2 0.133394 0.220465 0.944929
O O3 0.774406 0.443792 0.937109
O O4 0.000000 0.000000 0.000000
O O5 0.402507 0.783764 0.538423
O O6 0.782762 0.579194 0.666860
O O7 0.686472 0.346969 0.711552
O O8 0.430740 0.781569 0.709951
O O9 0.842734 0.009817 0.656381
O O10 0.927389 0.741411 0.573134
O O11 0.000000 0.000000 0.500000
O O12 0.410638 0.880777 0.860176
O O13 0.500000 0.500000 0.000000
O O14 0.704347 0.585148 0.070274
O O15 0.833385 0.607153 0.225727
O O16 0.500000 0.000000 0.000000
O O17 0.861421 0.742251 0.346362
O O18 0.910795 0.007509 0.240546
#
# Coordination Sequence:
#
# PCOD9058347 Si02
#       8
#     2   2   2   2   2   2   2   2
#     4  12  24  43  72 107 150 199 239 300 371 446
#     4  11  25  48  74 102 145 192 248 306 370 437
#     4  12  26  50  76 108 140 192 250 315 378 430
#     4  12  23  40  69 100 145 192 242 299 364 442
#     4  12  25  45  68 108 149 191 246 295 368 452
#     4  11  22  45  70 106 142 195 240 297 375 439
#     4  11  26  48  72 103 150 189 247 308 365 454
#     4  11  24  46  74 107 149 186 248 305 365 446
#
# _framework density 22.447982
#
# number of rings (size 3 to 8) (size 9 to 14) (size 15 to 20)
#    0.000    0.500    3.750    5.625    0.000    2.500 
#    4.500    0.000    0.000    0.000    0.000    0.000 
#    0.000    0.000    0.000    0.000    0.000    0.000 
#
# Total GULP energy -89315.499016 kJ/mol
# GULP energy per Si atom -5582.218689 kJ/mol
# Density = 2.239689 g / cm^3
# Si number density = 22.447982 Si / 1000 Ang^3
#
#
#
# Elastic Constant Matrix: (Units=GPa)
#
#
# Indices 1 2 3 4 5 6 
#
# 1 45.5511 3.4210 -11.2024 -8.9046 10.8410 -10.8327
# 2 3.4210 108.5465 25.4879 -19.2175 3.6701 -19.8609
# 3 -11.2024 25.4879 106.1487 -5.6762 21.9383 -2.4326
# 4 -8.9046 -19.2175 -5.6762 57.5789 3.1933 5.7250
# 5 10.8410 3.6701 21.9383 3.1933 43.8931 -7.6725
# 6 -10.8327 -19.8609 -2.4326 5.7250 -7.6725 35.1420
#
#
#
# Elastic Compliance Matrix: (Units=1/GPa)
#
#
# Indices 1 2 3 4 5 6 
#
# 1 0.027650 0.000232 0.005036 0.004694 -0.008595 0.006362
# 2 0.000232 0.011429 -0.002667 0.002913 0.001180 0.006129
# 3 0.005036 -0.002667 0.012185 0.001598 -0.007400 -0.000988
# 4 0.004694 0.002913 0.001598 0.019511 -0.003760 -0.000796
# 5 -0.008595 0.001180 -0.007400 -0.003760 0.029579 0.004576
# 6 0.006362 0.006129 -0.000988 -0.000796 0.004576 0.034941
#
#
# Mechanical properties :
#
#
# Convention : Reuss Voigt Hill
#
# Bulk Modulus (GPa) = 17.71033 32.85103 25.28068
# Shear Modulus (GPa) = 33.57595 43.49214 38.53405
#
# Velocity S-wave (km/s) = 3.87165 4.40644 4.14767
# Velocity P-wave (km/s) = 5.28137 6.36828 5.85012
#
# Compressibility (1/GPa) = 0.05646423
#
# Stress axis : x y z
#
# Youngs Moduli (GPa) = 36.16577 87.49759 82.06917
#
# Poissons Ratio (x) = -0.02028 -0.41327
# Poissons Ratio (y) = -0.00838 0.21891
# Poissons Ratio (z) = -0.18212 0.23339
#
# Static dielectric constant tensor:
#      x y z
#    x 1.744850 0.022910 0.009040 
#    y 0.022910 1.927070 0.069280 
#    z 0.009040 0.069280 1.849760 
# 
# From -- ./inp_files/494673.got.cif
#   From: 2010.05.17/outbox.cif.g08.bks.cpg/sg2_248_cif.got.tgz:494673.got - 2010.06.03 11:33:40.
