data_PCOD9058154
_publ_section_title
;
Structure prediction by ZEFSAII (Michael W. Deem and Ramdas Pophale) SiO2 
 PCOD9058154
Probable space group: P -1
;
_chemical_formula_sum "Si O2"
_cell_formula_units_Z 16
_cell_length_a 8.591401
_cell_length_b 8.272174
_cell_length_c 11.573439
_cell_angle_alpha 80.852185
_cell_angle_beta 52.257500
_cell_angle_gamma 78.022092
_cell_volume 635.719251
_symmetry_space_group_name_H-M "P -1"
_symmetry_group_IT_number 2
_symmetry_cell_setting 'triclinic'
loop_
_space_group_symop_operation_xyz
x,y,z
-x,-y,-z
loop_
_atom_site_type_symbol
_atom_site_label
_atom_site_fract_x
_atom_site_fract_y
_atom_site_fract_z
Si Si1 0.817611 0.198665 0.516509
Si Si2 0.883250 0.210249 0.736197
Si Si3 0.378515 0.199612 0.686060
Si Si4 0.527889 0.804224 0.983411
Si Si5 0.145659 0.935010 0.737980
Si Si6 0.762876 0.586187 0.465165
Si Si7 0.433171 0.695721 0.784375
Si Si8 0.792936 0.611732 0.052672
O O1 0.923643 0.141262 0.594992
O O2 0.599545 0.146041 0.632751
O O3 0.872977 0.153795 0.364983
O O4 0.800585 0.397081 0.505138
O O5 0.026754 0.349570 0.662548
O O6 0.652563 0.264127 0.857781
O O7 0.947244 0.067201 0.818487
O O8 0.358832 0.369055 0.602742
O O9 0.241433 0.242326 0.853938
O O10 0.306437 0.063830 0.651693
O O11 0.494674 0.766702 0.869454
O O12 0.736105 0.705728 0.947260
O O13 0.500000 0.000000 0.000000
O O14 0.238390 0.807224 0.806046
O O15 0.622480 0.683381 0.614900
O O16 0.366398 0.515663 0.846574
O O17 0.000000 0.500000 0.000000
#
# Coordination Sequence:
#
# PCOD9058154 Si02
#       8
#     2   2   2   2   2   2   2   2
#     4  12  21  44  71 107 148 192 244 308 372 430
#     4  11  27  45  73 107 150 194 247 308 367 447
#     4  11  22  44  72 105 148 188 250 299 374 432
#     4  12  29  53  77 107 154 198 245 307 375 445
#     4  11  26  41  72 109 148 197 244 305 369 439
#     4  11  24  45  75 107 144 195 246 314 367 441
#     4  12  26  48  75 109 150 196 253 303 372 440
#     4  12  28  50  79 111 146 200 251 307 366 448
#
# _framework density 25.168344000000001
#
# number of rings (size 3 to 8) (size 9 to 14) (size 15 to 20)
#    0.000    0.500    3.750    3.375    7.000    1.500 
#    2.250    0.000    0.000    0.000    0.000    0.000 
#    0.000    0.000    0.000    0.000    0.000    0.000 
#
# Total GULP energy -89504.940200 kJ/mol
# GULP energy per Si atom -5594.058762 kJ/mol
# Density = 2.511106 g / cm^3
# Si number density = 25.168344 Si / 1000 Ang^3
#
#
#
# Elastic Constant Matrix: (Units=GPa)
#
#
# Indices 1 2 3 4 5 6 
#
# 1 132.1591 49.1538 36.8304 -4.3949 25.2978 -20.1898
# 2 49.1538 90.3225 20.9828 -14.4564 7.8616 -11.2741
# 3 36.8304 20.9828 68.4049 1.1152 6.6366 6.5620
# 4 -4.3949 -14.4564 1.1152 29.7911 4.7571 8.1271
# 5 25.2978 7.8616 6.6366 4.7571 59.9151 -5.6254
# 6 -20.1898 -11.2741 6.5620 8.1271 -5.6254 45.4544
#
#
#
# Elastic Compliance Matrix: (Units=1/GPa)
#
#
# Indices 1 2 3 4 5 6 
#
# 1 0.012076 -0.004647 -0.005184 -0.001027 -0.003390 0.004724
# 2 -0.004647 0.015345 -0.002374 0.006651 -0.000235 0.000866
# 3 -0.005184 -0.002374 0.018671 -0.001151 0.000019 -0.005379
# 4 -0.001027 0.006651 -0.001151 0.038987 -0.003980 -0.006104
# 5 -0.003390 -0.000235 0.000019 -0.003980 0.018602 0.001447
# 6 0.004724 0.000866 -0.005379 -0.006104 0.001447 0.026360
#
#
# Mechanical properties :
#
#
# Convention : Reuss Voigt Hill
#
# Bulk Modulus (GPa) = 46.12016 56.09115 51.10566
# Shear Modulus (GPa) = 30.92566 39.29344 35.10955
#
# Velocity S-wave (km/s) = 3.50916 3.95552 3.73901
# Velocity P-wave (km/s) = 5.89774 6.57239 6.24418
#
# Compressibility (1/GPa) = 0.02168249
#
# Stress axis : x y z
#
# Youngs Moduli (GPa) = 82.80773 65.16806 53.55904
#
# Poissons Ratio (x) = 0.30285 0.27765
# Poissons Ratio (y) = 0.38483 0.12712
# Poissons Ratio (z) = 0.42928 0.15468
#
# Static dielectric constant tensor:
#      x y z
#    x 2.003960 -0.033690 0.005030 
#    y -0.033690 2.009300 -0.017290 
#    z 0.005030 -0.017290 1.989550 
# 
# From -- ./inp_files/381875.got.cif
#   From: 2010.05.17/outbox.cif.g08.bks.cpg/sg2_191_cif.got.tgz:381875.got - 2010.06.03 11:33:40.
