data_PCOD9058624
_publ_section_title
;
Structure prediction by ZEFSAII (Michael W. Deem and Ramdas Pophale) SiO2 
 PCOD9058624
Probable space group: P -1
;
_chemical_formula_sum "Si O2"
_cell_formula_units_Z 16
_cell_length_a 9.842801
_cell_length_b 8.954231
_cell_length_c 8.967984
_cell_angle_alpha 105.981115
_cell_angle_beta 112.456199
_cell_angle_gamma 58.012930
_cell_volume 616.858997
_symmetry_space_group_name_H-M "P -1"
_symmetry_group_IT_number 2
_symmetry_cell_setting 'triclinic'
loop_
_space_group_symop_operation_xyz
x,y,z
-x,-y,-z
loop_
_atom_site_type_symbol
_atom_site_label
_atom_site_fract_x
_atom_site_fract_y
_atom_site_fract_z
Si Si1 0.474961 0.693099 0.534592
Si Si2 0.632246 0.872371 0.201472
Si Si3 0.227372 0.347876 0.538054
Si Si4 0.132911 0.899427 0.299746
Si Si5 0.549339 0.228087 0.135932
Si Si6 0.145682 0.703457 0.746660
Si Si7 0.013929 0.673188 0.011261
Si Si8 0.727564 0.913928 0.772919
O O1 0.500000 0.500000 0.500000
O O2 0.584741 0.697655 0.445312
O O3 0.278917 0.831697 0.466974
O O4 0.545781 0.700770 0.728888
O O5 0.776118 0.745793 0.335969
O O6 0.653336 0.018743 0.159035
O O7 0.470558 0.990810 0.270348
O O8 0.573416 0.759233 0.043406
O O9 0.138866 0.556577 0.593590
O O10 0.197535 0.240214 0.363437
O O11 0.221234 0.936927 0.204856
O O12 0.085093 0.749410 0.191381
O O13 0.975729 0.095232 0.306190
O O14 0.670018 0.311499 0.180998
O O15 0.107166 0.668272 0.891601
O O16 0.825247 0.819689 0.935069
O O17 0.000000 0.500000 0.000000
#
# Coordination Sequence:
#
# PCOD9058624 Si02
#       8
#     2   2   2   2   2   2   2   2
#     4  12  25  45  73 110 150 192 242 302 371 436
#     4  11  23  41  72 107 145 195 246 308 361 436
#     4  12  25  44  74 112 149 195 246 304 362 434
#     4  11  25  47  76 101 148 200 238 299 372 436
#     4  11  24  42  68 109 150 190 246 303 372 431
#     4  11  26  47  68 109 148 193 249 302 362 443
#     4  11  27  47  77 105 146 199 245 303 369 443
#     4  11  22  46  75 104 148 194 252 293 369 433
#
# _framework density 25.937856
#
# number of rings (size 3 to 8) (size 9 to 14) (size 15 to 20)
#    0.000    0.750    3.750    4.125    1.750    7.000 
#    0.000    1.250    0.000    0.000    0.000    0.000 
#    0.000    0.000    0.000    0.000    0.000    0.000 
#
# Total GULP energy -89482.655361 kJ/mol
# GULP energy per Si atom -5592.665960 kJ/mol
# Density = 2.587882 g / cm^3
# Si number density = 25.937856 Si / 1000 Ang^3
#
#
#
# Elastic Constant Matrix: (Units=GPa)
#
#
# Indices 1 2 3 4 5 6 
#
# 1 72.1820 37.0914 9.1765 7.4209 -4.3681 11.7245
# 2 37.0914 81.0380 21.7265 21.5006 -10.0138 8.4169
# 3 9.1765 21.7265 105.3559 28.0579 -5.9934 -13.0343
# 4 7.4209 21.5006 28.0579 50.4166 3.2292 2.3211
# 5 -4.3681 -10.0138 -5.9934 3.2292 36.8908 10.4684
# 6 11.7245 8.4169 -13.0343 2.3211 10.4684 43.8040
#
#
#
# Elastic Compliance Matrix: (Units=1/GPa)
#
#
# Indices 1 2 3 4 5 6 
#
# 1 0.018716 -0.008194 -0.000711 0.001260 0.000880 -0.003924
# 2 -0.008194 0.019150 -0.001624 -0.006265 0.005339 -0.002914
# 3 -0.000711 -0.001624 0.012105 -0.006185 0.000778 0.004246
# 4 0.001260 -0.006265 -0.006185 0.026109 -0.004476 -0.001287
# 5 0.000880 0.005339 0.000778 -0.004476 0.031543 -0.008331
# 6 -0.003924 -0.002914 0.004246 -0.001287 -0.008331 0.027762
#
#
# Mechanical properties :
#
#
# Convention : Reuss Voigt Hill
#
# Bulk Modulus (GPa) = 34.58569 43.84052 39.21310
# Shear Modulus (GPa) = 30.10607 38.92771 34.51689
#
# Velocity S-wave (km/s) = 3.41060 3.87823 3.65191
# Velocity P-wave (km/s) = 5.37332 6.08219 5.73871
#
# Compressibility (1/GPa) = 0.02891370
#
# Stress axis : x y z
#
# Youngs Moduli (GPa) = 53.43124 52.21922 82.60928
#
# Poissons Ratio (x) = 0.42786 0.05876
# Poissons Ratio (y) = 0.43779 0.13414
# Poissons Ratio (z) = 0.03801 0.08479
#
# Static dielectric constant tensor:
#      x y z
#    x 2.107890 -0.032050 0.026390 
#    y -0.032050 2.062200 0.035990 
#    z 0.026390 0.035990 2.045040 
# 
# From -- ./inp_files/245225.got.cif
#   From: 2010.05.17/outbox.cif.g08.bks.cpg/sg2_123_cif.got.tgz:245225.got - 2010.06.03 11:33:40.
