data_PCOD9058812
_publ_section_title
;
Structure prediction by ZEFSAII (Michael W. Deem and Ramdas Pophale) SiO2 
 PCOD9058812
Probable space group: P -1
;
_chemical_formula_sum "Si O2"
_cell_formula_units_Z 14
_cell_length_a 13.923754
_cell_length_b 21.802800
_cell_length_c 5.415122
_cell_angle_alpha 118.873114
_cell_angle_beta 64.856579
_cell_angle_gamma 159.022080
_cell_volume 513.599193
_symmetry_space_group_name_H-M "P -1"
_symmetry_group_IT_number 2
_symmetry_cell_setting 'triclinic'
loop_
_space_group_symop_operation_xyz
x,y,z
-x,-y,-z
loop_
_atom_site_type_symbol
_atom_site_label
_atom_site_fract_x
_atom_site_fract_y
_atom_site_fract_z
Si Si1 0.016647 0.573235 0.312769
Si Si2 0.164028 0.773343 0.146383
Si Si3 0.638188 0.406375 0.725881
Si Si4 0.729949 0.640606 0.801046
Si Si5 0.310675 0.011416 0.035201
Si Si6 0.386382 0.066756 0.543262
Si Si7 0.553574 0.654270 0.697784
O O1 0.030732 0.652255 0.288819
O O2 0.297733 0.745562 0.475301
O O3 0.000000 0.500000 0.000000
O O4 0.773617 0.423148 0.476132
O O5 0.553356 0.100398 0.952662
O O6 0.258631 0.910350 0.365755
O O7 0.924600 0.619844 0.905217
O O8 0.449650 0.321218 0.538472
O O9 0.504526 0.323937 0.981523
O O10 0.758413 0.728911 0.776864
O O11 0.663776 0.540176 0.481963
O O12 0.500000 0.500000 0.000000
O O13 0.017585 0.801441 0.915361
O O14 0.277345 0.037643 0.365614
O O15 0.358431 0.081391 0.869177
#
# Coordination Sequence:
#
# PCOD9058812 Si02
#       7
#     2   2   2   2   2   2   2
#     4  11  25  43  64  99 138 175 217 264 324 401
#     4  11  23  39  65  98 131 168 213 263 342 391
#     4  12  22  40  63  90 133 171 211 263 321 397
#     4  11  24  38  59  91 137 172 217 272 327 385
#     4  11  23  36  59  91 131 168 207 263 322 390
#     4  11  24  38  63  98 130 170 211 262 334 396
#     4  11  24  36  57  90 128 176 212 261 327 379
#
# _framework density 27.258611999999999
#
# number of rings (size 3 to 8) (size 9 to 14) (size 15 to 20)
#    0.000    0.857    4.286    3.857    8.000    0.571 
#    0.000    0.000    0.000    0.000    0.000   14.000 
#    0.000    0.000    0.000    0.000    0.000    0.000 
#
# Total GULP energy -77993.886261 kJ/mol
# GULP energy per Si atom -5570.991876 kJ/mol
# Density = 2.719657 g / cm^3
# Si number density = 27.258612 Si / 1000 Ang^3
#
#
#
# Elastic Constant Matrix: (Units=GPa)
#
#
# Indices 1 2 3 4 5 6 
#
# 1 80.0525 35.2902 34.7990 -10.1926 19.0362 -21.8039
# 2 35.2902 66.7030 21.2181 -13.7766 7.6097 -19.1309
# 3 34.7990 21.2181 200.0660 -40.5350 25.7032 -14.3744
# 4 -10.1926 -13.7766 -40.5350 44.6891 -1.9391 2.5017
# 5 19.0362 7.6097 25.7032 -1.9391 56.9316 -3.7247
# 6 -21.8039 -19.1309 -14.3744 2.5017 -3.7247 31.3901
#
#
#
# Elastic Compliance Matrix: (Units=1/GPa)
#
#
# Indices 1 2 3 4 5 6 
#
# 1 0.019471 -0.006953 -0.001432 0.000355 -0.004394 0.008081
# 2 -0.006953 0.021997 0.000556 0.005224 -0.000139 0.008398
# 3 -0.001432 0.000556 0.006790 0.005806 -0.002351 0.001712
# 4 0.000355 0.005224 0.005806 0.029041 -0.002219 0.003511
# 5 -0.004394 -0.000139 -0.002351 -0.002219 0.019929 -0.001672
# 6 0.008081 0.008398 0.001712 0.003511 -0.001672 0.042895
#
#
# Mechanical properties :
#
#
# Convention : Reuss Voigt Hill
#
# Bulk Modulus (GPa) = 30.67598 58.82624 44.75111
# Shear Modulus (GPa) = 30.00340 43.63645 36.81993
#
# Velocity S-wave (km/s) = 3.32127 4.00538 3.67926
# Velocity P-wave (km/s) = 5.09764 6.55884 5.87385
#
# Compressibility (1/GPa) = 0.03259879
#
# Stress axis : x y z
#
# Youngs Moduli (GPa) = 51.35892 45.46055 147.28009
#
# Poissons Ratio (x) = 0.31610 0.21094
# Poissons Ratio (y) = 0.35712 -0.08191
# Poissons Ratio (z) = 0.07356 -0.02528
#
# Static dielectric constant tensor:
#      x y z
#    x 2.312100 0.073090 0.043620 
#    y 0.073090 2.225540 -0.064260 
#    z 0.043620 -0.064260 2.223470 
# 
# From -- ./inp_files/113079.got.cif
#   From: 2010.05.17/outbox.cif.g08.bks.cpg/sg2_57_cif.got.tgz:113079.got - 2010.06.03 11:33:40.
