data_PCOD9058110
_publ_section_title
;
Structure prediction by ZEFSAII (Michael W. Deem and Ramdas Pophale) SiO2 
 PCOD9058110
Probable space group: P -1
;
_chemical_formula_sum "Si O2"
_cell_formula_units_Z 16
_cell_length_a 10.895042
_cell_length_b 12.021133
_cell_length_c 6.649563
_cell_angle_alpha 127.010673
_cell_angle_beta 83.950402
_cell_angle_gamma 104.020156
_cell_volume 673.796056
_symmetry_space_group_name_H-M "P -1"
_symmetry_group_IT_number 2
_symmetry_cell_setting 'triclinic'
loop_
_space_group_symop_operation_xyz
x,y,z
-x,-y,-z
loop_
_atom_site_type_symbol
_atom_site_label
_atom_site_fract_x
_atom_site_fract_y
_atom_site_fract_z
Si Si1 0.051355 0.088779 0.388680
Si Si2 0.759617 0.378945 0.912058
Si Si3 0.942019 0.366918 0.218392
Si Si4 0.352208 0.951521 0.525180
Si Si5 0.823734 0.093488 0.145415
Si Si6 0.376480 0.446252 0.592064
Si Si7 0.210873 0.387068 0.174009
Si Si8 0.292507 0.221738 0.653014
O O1 0.154715 0.226472 0.593417
O O2 0.931846 0.119944 0.327676
O O3 0.000000 0.000000 0.500000
O O4 0.129424 0.010235 0.134502
O O5 0.705011 0.212675 0.698352
O O6 0.784862 0.471105 0.804179
O O7 0.884321 0.401963 0.056046
O O8 0.656214 0.441771 0.122020
O O9 0.832497 0.245754 0.205091
O O10 0.000000 0.500000 0.500000
O O11 0.065559 0.299758 0.100619
O O12 0.307083 0.967026 0.780327
O O13 0.500000 0.000000 0.500000
O O14 0.294199 0.059879 0.518050
O O15 0.500000 0.500000 0.500000
O O16 0.261785 0.415360 0.419112
O O17 0.388164 0.307768 0.568991
O O18 0.300585 0.301145 0.949907
#
# Coordination Sequence:
#
# PCOD9058110 Si02
#       8
#     2   2   2   2   2   2   2   2
#     4  11  22  44  71 105 141 182 242 307 365 435
#     4  11  27  48  71 109 150 193 241 308 372 438
#     4  12  23  43  73 108 144 185 238 306 380 442
#     4  12  29  48  72 105 154 204 247 305 369 441
#     4  11  26  41  70 105 146 190 243 302 371 436
#     4  11  27  47  76 102 143 197 252 303 359 440
#     4  11  25  46  75 108 144 186 245 304 380 445
#     4  11  26  44  73 104 140 189 248 301 370 436
#
# _framework density 23.746058000000001
#
# number of rings (size 3 to 8) (size 9 to 14) (size 15 to 20)
#    0.000    0.750    2.500    3.375   10.500    1.000 
#    0.000    1.875    0.000    0.000    0.000    0.000 
#    0.000    0.000    0.000    0.000    0.000    0.000 
#
# Total GULP energy -89567.314939 kJ/mol
# GULP energy per Si atom -5597.957184 kJ/mol
# Density = 2.369201 g / cm^3
# Si number density = 23.746058 Si / 1000 Ang^3
#
#
#
# Elastic Constant Matrix: (Units=GPa)
#
#
# Indices 1 2 3 4 5 6 
#
# 1 79.5179 16.8175 12.4992 -12.3338 -17.4493 21.5293
# 2 16.8175 150.1950 34.3263 -14.3774 -10.8479 10.7159
# 3 12.4992 34.3263 93.6981 -7.6494 -11.0921 5.8397
# 4 -12.3338 -14.3774 -7.6494 35.8418 10.6061 -5.6829
# 5 -17.4493 -10.8479 -11.0921 10.6061 27.1749 -17.1952
# 6 21.5293 10.7159 5.8397 -5.6829 -17.1952 40.7474
#
#
#
# Elastic Compliance Matrix: (Units=1/GPa)
#
#
# Indices 1 2 3 4 5 6 
#
# 1 0.015860 -0.000586 -0.000734 0.002681 0.005051 -0.005615
# 2 -0.000586 0.007565 -0.002436 0.002094 0.000239 -0.000938
# 3 -0.000734 -0.002436 0.012101 0.000326 0.004025 0.001038
# 4 0.002681 0.002094 0.000326 0.032790 -0.011580 -0.002327
# 5 0.005051 0.000239 0.004025 -0.011580 0.058916 0.019939
# 6 -0.005615 -0.000938 0.001038 -0.002327 0.019939 0.035696
#
#
# Mechanical properties :
#
#
# Convention : Reuss Voigt Hill
#
# Bulk Modulus (GPa) = 35.69638 50.07746 42.88692
# Shear Modulus (GPa) = 27.81221 38.07070 32.94145
#
# Velocity S-wave (km/s) = 3.42604 4.00840 3.72861
# Velocity P-wave (km/s) = 5.54216 6.52361 6.05281
#
# Compressibility (1/GPa) = 0.02801404
#
# Stress axis : x y z
#
# Youngs Moduli (GPa) = 63.05360 132.19047 82.63610
#
# Poissons Ratio (x) = 0.07746 0.06068
# Poissons Ratio (y) = 0.03695 0.20127
# Poissons Ratio (z) = 0.04630 0.32196
#
# Static dielectric constant tensor:
#      x y z
#    x 1.957060 -0.005200 -0.030420 
#    y -0.005200 1.898920 -0.001610 
#    z -0.030420 -0.001610 1.946570 
# 
# From -- ./inp_files/72322.got.cif
#   From: 2010.05.17/outbox.cif.g08.bks.cpg/sg2_37_cif.got.tgz:72322.got - 2010.06.03 11:33:40.
