data_PCOD9058142
_publ_section_title
;
Structure prediction by ZEFSAII (Michael W. Deem and Ramdas Pophale) SiO2 
 PCOD9058142
Probable space group: P -1
;
_chemical_formula_sum "Si O2"
_cell_formula_units_Z 12
_cell_length_a 8.740896
_cell_length_b 9.617697
_cell_length_c 12.176317
_cell_angle_alpha 67.939425
_cell_angle_beta 38.188357
_cell_angle_gamma 76.280855
_cell_volume 583.507684
_symmetry_space_group_name_H-M "P -1"
_symmetry_group_IT_number 2
_symmetry_cell_setting 'triclinic'
loop_
_space_group_symop_operation_xyz
x,y,z
-x,-y,-z
loop_
_atom_site_type_symbol
_atom_site_label
_atom_site_fract_x
_atom_site_fract_y
_atom_site_fract_z
Si Si1 0.611898 0.166627 0.416764
Si Si2 0.027229 0.333313 0.991276
Si Si3 0.923818 0.165389 0.469805
Si Si4 0.206423 0.393150 0.626254
Si Si5 0.435333 0.643949 0.285083
Si Si6 0.728635 0.533745 0.778746
O O1 0.782130 0.169375 0.430677
O O2 0.379983 0.265870 0.531670
O O3 0.500000 0.000000 0.500000
O O4 0.789843 0.230882 0.198170
O O5 0.089674 0.349756 0.823381
O O6 0.283698 0.288042 0.910118
O O7 0.000000 0.500000 0.000000
O O8 0.736395 0.221391 0.650508
O O9 0.152802 0.296493 0.313150
O O10 0.000000 0.000000 0.500000
O O11 0.378957 0.551042 0.458525
O O12 0.954873 0.428721 0.694705
O O13 0.373051 0.513035 0.269922
O O14 0.500000 0.500000 0.000000
#
# Coordination Sequence:
#
# PCOD9058142 Si02
#       6
#     2   2   2   2   2   2
#     4  12  28  44  68 103 141 178 225 285 347 397
#     4  12  22  42  74  99 130 176 232 283 333 405
#     4  11  25  45  68  97 142 179 220 284 343 399
#     4  11  23  43  70  99 136 174 232 280 331 399
#     4  11  22  44  72 102 135 178 232 282 334 408
#     4  11  25  43  71 103 132 182 233 273 340 410
#
# _framework density 20.565280999999999
#
# number of rings (size 3 to 8) (size 9 to 14) (size 15 to 20)
#    0.000    0.667    3.333    6.500    4.667    0.667 
#    3.000    1.667    0.000    0.000    0.000    0.000 
#    0.000    0.000    0.000    0.000    0.000    0.000 
#
# Total GULP energy -66969.880715 kJ/mol
# GULP energy per Si atom -5580.823393 kJ/mol
# Density = 2.051847 g / cm^3
# Si number density = 20.565281 Si / 1000 Ang^3
#
#
#
# Elastic Constant Matrix: (Units=GPa)
#
#
# Indices 1 2 3 4 5 6 
#
# 1 56.7630 26.4330 26.5696 -4.9203 16.2533 3.4379
# 2 26.4330 162.9568 66.3122 -2.5989 -0.7115 -11.9331
# 3 26.5696 66.3122 177.9777 9.7760 -7.6992 0.3003
# 4 -4.9203 -2.5989 9.7760 30.4978 1.6514 -9.1880
# 5 16.2533 -0.7115 -7.6992 1.6514 25.8946 6.3111
# 6 3.4379 -11.9331 0.3003 -9.1880 6.3111 39.8379
#
#
#
# Elastic Compliance Matrix: (Units=1/GPa)
#
#
# Indices 1 2 3 4 5 6 
#
# 1 0.026682 -0.002441 -0.004278 0.006976 -0.018923 0.001605
# 2 -0.002441 0.007883 -0.002688 0.002056 0.000074 0.003055
# 3 -0.004278 -0.002688 0.007758 -0.004455 0.005797 -0.002440
# 4 0.006976 0.002056 -0.004455 0.039368 -0.010799 0.010838
# 5 -0.018923 0.000074 0.005797 -0.010799 0.055258 -0.009633
# 6 0.001605 0.003055 -0.002440 0.010838 -0.009633 0.029922
#
#
# Mechanical properties :
#
#
# Convention : Reuss Voigt Hill
#
# Bulk Modulus (GPa) = 42.53524 70.70302 56.61913
# Shear Modulus (GPa) = 25.83690 37.80490 31.82090
#
# Velocity S-wave (km/s) = 3.54833 4.29218 3.93786
# Velocity P-wave (km/s) = 6.12499 7.68233 6.94743
#
# Compressibility (1/GPa) = 0.02350992
#
# Stress axis : x y z
#
# Youngs Moduli (GPa) = 37.47817 126.85563 128.89327
#
# Poissons Ratio (x) = 0.30964 0.55145
# Poissons Ratio (y) = 0.09148 0.34641
# Poissons Ratio (z) = 0.16034 0.34093
#
# Static dielectric constant tensor:
#      x y z
#    x 1.937330 -0.008320 -0.004440 
#    y -0.008320 1.697160 0.022290 
#    z -0.004440 0.022290 1.714540 
# 
# From -- ./inp_files/149745.got.cif
#   From: 2010.05.17/outbox.cif.g08.bks.cpg/sg2_75_cif.got.tgz:149745.got - 2010.06.03 11:33:40.
