data_PCOD9058691
_publ_section_title
;
Structure prediction by ZEFSAII (Michael W. Deem and Ramdas Pophale) SiO2 
 PCOD9058691
Probable space group: P -1
;
_chemical_formula_sum "Si O2"
_cell_formula_units_Z 16
_cell_length_a 13.954357
_cell_length_b 13.008810
_cell_length_c 9.728987
_cell_angle_alpha 71.959226
_cell_angle_beta 97.474686
_cell_angle_gamma 36.569753
_cell_volume 743.930948
_symmetry_space_group_name_H-M "P -1"
_symmetry_group_IT_number 2
_symmetry_cell_setting 'triclinic'
loop_
_space_group_symop_operation_xyz
x,y,z
-x,-y,-z
loop_
_atom_site_type_symbol
_atom_site_label
_atom_site_fract_x
_atom_site_fract_y
_atom_site_fract_z
Si Si1 0.986777 0.772647 0.659321
Si Si2 0.641359 0.629433 0.332236
Si Si3 0.744309 0.771830 0.313036
Si Si4 0.755229 0.467348 0.719153
Si Si5 0.394771 0.993560 0.533230
Si Si6 0.266936 0.866795 0.776910
Si Si7 0.785194 0.917161 0.075614
Si Si8 0.226971 0.673717 0.960171
O O1 0.192102 0.548468 0.689677
O O2 0.072128 0.744852 0.822922
O O3 0.841676 0.810852 0.643368
O O4 0.834318 0.003053 0.443201
O O5 0.646664 0.751253 0.317926
O O6 0.710784 0.496339 0.537013
O O7 0.398994 0.846907 0.150397
O O8 0.723307 0.857135 0.131522
O O9 0.000000 0.500000 0.500000
O O10 0.640185 0.951860 0.334651
O O11 0.560096 0.733963 0.632050
O O12 0.974207 0.317279 0.838904
O O13 0.782658 0.335412 0.874528
O O14 0.500000 0.000000 0.500000
O O15 0.179150 0.841905 0.830257
O O16 0.208118 0.019007 0.810397
O O17 0.525594 0.598379 0.925261
#
# Coordination Sequence:
#
# PCOD9058691 Si02
#       8
#     2   2   2   2   2   2   2   2
#     4  12  23  46  71  98 135 178 227 273 333 409
#     4  12  25  42  69  97 133 184 223 266 333 409
#     4  12  20  43  66  96 134 181 218 268 332 400
#     4  12  25  44  63  97 141 170 216 289 327 390
#     4  12  23  40  69  96 141 176 214 274 336 387
#     4  11  22  47  70  97 135 176 227 283 331 404
#     4  12  24  43  68  97 134 180 223 270 338 404
#     4  11  26  42  73 100 130 177 231 280 342 387
#
# _framework density 21.507372
#
# number of rings (size 3 to 8) (size 9 to 14) (size 15 to 20)
#    0.000    0.250    8.750    0.750    1.750    0.500 
#    0.000    1.875    0.000    0.000    0.000    0.000 
#    0.000    0.000    0.000    0.000    0.000    0.000 
#
# Total GULP energy -89427.632132 kJ/mol
# GULP energy per Si atom -5589.227008 kJ/mol
# Density = 2.145842 g / cm^3
# Si number density = 21.507372 Si / 1000 Ang^3
#
#
#
# Elastic Constant Matrix: (Units=GPa)
#
#
# Indices 1 2 3 4 5 6 
#
# 1 72.8996 2.8331 23.1707 20.3504 -8.5046 -18.0318
# 2 2.8331 71.8390 14.6132 -4.8946 2.8040 -16.1853
# 3 23.1707 14.6132 120.3448 6.7142 5.2315 -18.6552
# 4 20.3504 -4.8946 6.7142 27.3759 -6.8857 -3.0912
# 5 -8.5046 2.8040 5.2315 -6.8857 23.9972 -4.8832
# 6 -18.0318 -16.1853 -18.6552 -3.0912 -4.8832 26.9190
#
#
#
# Elastic Compliance Matrix: (Units=1/GPa)
#
#
# Indices 1 2 3 4 5 6 
#
# 1 0.022088 0.001645 -0.001859 -0.012151 0.007497 0.014461
# 2 0.001645 0.016786 -0.000897 0.003854 0.002247 0.011423
# 3 -0.001859 -0.000897 0.009609 -0.001170 -0.002097 0.004360
# 4 -0.012151 0.003854 -0.001170 0.049073 0.009736 0.000768
# 5 0.007497 0.002247 -0.002097 0.009736 0.050406 0.015181
# 6 0.014461 0.011423 0.004360 0.000768 0.015181 0.059567
#
#
# Mechanical properties :
#
#
# Convention : Reuss Voigt Hill
#
# Bulk Modulus (GPa) = 21.61671 38.47970 30.04821
# Shear Modulus (GPa) = 22.20539 30.62284 26.41411
#
# Velocity S-wave (km/s) = 3.21667 3.77746 3.50829
# Velocity P-wave (km/s) = 4.88555 6.07913 5.51473
#
# Compressibility (1/GPa) = 0.04626051
#
# Stress axis : x y z
#
# Youngs Moduli (GPa) = 45.27346 59.57321 104.07427
#
# Poissons Ratio (x) = -0.09797 0.19345
# Poissons Ratio (y) = -0.07446 0.09334
# Poissons Ratio (z) = 0.08415 0.05343
#
# Static dielectric constant tensor:
#      x y z
#    x 1.789430 -0.029070 -0.016310 
#    y -0.029070 1.781840 0.003750 
#    z -0.016310 0.003750 1.785800 
# 
# From -- ./inp_files/314901.got.cif
#   From: 2010.05.17/outbox.cif.g08.bks.cpg/sg2_158_cif.got.tgz:314901.got - 2010.06.03 11:33:40.
