data_PCOD9058200
_publ_section_title
;
Structure prediction by ZEFSAII (Michael W. Deem and Ramdas Pophale) SiO2 
 PCOD9058200
Probable space group: P -1
;
_chemical_formula_sum "Si O2"
_cell_formula_units_Z 16
_cell_length_a 20.802174
_cell_length_b 7.897098
_cell_length_c 6.014621
_cell_angle_alpha 63.840461
_cell_angle_beta 51.754500
_cell_angle_gamma 72.262494
_cell_volume 695.799166
_symmetry_space_group_name_H-M "P -1"
_symmetry_group_IT_number 2
_symmetry_cell_setting 'triclinic'
loop_
_space_group_symop_operation_xyz
x,y,z
-x,-y,-z
loop_
_atom_site_type_symbol
_atom_site_label
_atom_site_fract_x
_atom_site_fract_y
_atom_site_fract_z
Si Si1 0.228270 0.934975 0.887755
Si Si2 0.252088 0.562932 0.349501
Si Si3 0.094619 0.938215 0.819718
Si Si4 0.350556 0.390819 0.899361
Si Si5 0.342235 0.741377 0.429798
Si Si6 0.089637 0.516321 0.898280
Si Si7 0.458607 0.011002 0.830239
Si Si8 0.815060 0.760985 0.845756
O O1 0.140040 0.930352 0.963138
O O2 0.299030 0.912021 0.564399
O O3 0.242407 0.746360 0.110052
O O4 0.228408 0.118617 0.931544
O O5 0.272236 0.637994 0.506330
O O6 0.164630 0.468647 0.595537
O O7 0.330962 0.438922 0.170113
O O8 0.098160 0.732576 0.822442
O O9 0.144496 0.085720 0.484802
O O10 0.000000 0.000000 0.000000
O O11 0.379873 0.579188 0.604943
O O12 0.408168 0.210814 0.830381
O O13 0.258030 0.347868 0.045265
O O14 0.400950 0.833035 0.074639
O O15 0.112764 0.378605 0.133250
O O16 0.000000 0.500000 0.000000
O O17 0.500000 0.000000 0.500000
O O18 0.500000 0.000000 0.000000
#
# Coordination Sequence:
#
# PCOD9058200 Si02
#       8
#     2   2   2   2   2   2   2   2
#     4  11  22  44  73  98 141 189 253 304 371 443
#     4  11  23  47  74 105 144 198 254 306 368 443
#     4  12  27  44  62  98 145 197 248 316 382 440
#     4  11  27  46  80 109 146 200 251 309 371 473
#     4  11  25  49  78 107 150 194 249 308 368 468
#     4  12  26  43  67 107 148 193 254 318 374 434
#     4  12  32  52  81 122 159 199 247 317 398 468
#     4  12  26  45  74 104 141 201 253 308 380 450
#
# _framework density 22.995141
#
# number of rings (size 3 to 8) (size 9 to 14) (size 15 to 20)
#    0.000    0.500    3.750    3.000   14.000    2.500 
#    0.000    0.000    0.000    0.000    0.000    0.000 
#    0.000    0.000    0.000    0.000    0.000    0.000 
#
# Total GULP energy -89467.188908 kJ/mol
# GULP energy per Si atom -5591.699307 kJ/mol
# Density = 2.294280 g / cm^3
# Si number density = 22.995141 Si / 1000 Ang^3
#
#
#
# Elastic Constant Matrix: (Units=GPa)
#
#
# Indices 1 2 3 4 5 6 
#
# 1 54.8098 2.4371 10.2317 0.4517 5.1607 -11.0809
# 2 2.4371 118.2949 40.1605 4.0986 0.6304 -15.0346
# 3 10.2317 40.1605 107.3578 3.9847 1.4873 0.2582
# 4 0.4517 4.0986 3.9847 40.3171 2.4126 2.3555
# 5 5.1607 0.6304 1.4873 2.4126 24.5046 -5.8532
# 6 -11.0809 -15.0346 0.2582 2.3555 -5.8532 34.3290
#
#
#
# Elastic Compliance Matrix: (Units=1/GPa)
#
#
# Indices 1 2 3 4 5 6 
#
# 1 0.020224 0.001264 -0.002368 -0.000362 -0.002513 0.006696
# 2 0.001264 0.010502 -0.004037 -0.001056 0.001077 0.005294
# 3 -0.002368 -0.004037 0.011084 -0.000461 -0.000669 -0.002699
# 4 -0.000362 -0.001056 -0.000461 0.025307 -0.003036 -0.002830
# 5 -0.002513 0.001077 -0.000669 -0.003036 0.043387 0.007271
# 6 0.006696 0.005294 -0.002699 -0.002830 0.007271 0.035064
#
#
# Mechanical properties :
#
#
# Convention : Reuss Voigt Hill
#
# Bulk Modulus (GPa) = 31.71924 42.90234 37.31079
# Shear Modulus (GPa) = 30.05546 35.00570 32.53058
#
# Velocity S-wave (km/s) = 3.61922 3.90591 3.76529
# Velocity P-wave (km/s) = 5.59364 6.24813 5.92992
#
# Compressibility (1/GPa) = 0.03152660
#
# Stress axis : x y z
#
# Youngs Moduli (GPa) = 49.44596 95.22193 90.22386
#
# Poissons Ratio (x) = -0.12039 0.21367
# Poissons Ratio (y) = -0.06251 0.36427
# Poissons Ratio (z) = 0.11710 0.38445
#
# Static dielectric constant tensor:
#      x y z
#    x 1.926230 0.022320 0.025690 
#    y 0.022320 1.893980 0.033070 
#    z 0.025690 0.033070 1.941500 
# 
# From -- ./inp_files/116572.got.cif
#   From: 2010.05.17/outbox.cif.g08.bks.cpg/sg2_59_cif.got.tgz:116572.got - 2010.06.03 11:33:40.
