data_PCOD9058837
_publ_section_title
;
Structure prediction by ZEFSAII (Michael W. Deem and Ramdas Pophale) SiO2 
 PCOD9058837
Probable space group: P -1
;
_chemical_formula_sum "Si O2"
_cell_formula_units_Z 16
_cell_length_a 14.260667
_cell_length_b 10.911359
_cell_length_c 13.934477
_cell_angle_alpha 159.073148
_cell_angle_beta 118.817940
_cell_angle_gamma 62.533038
_cell_volume 678.116002
_symmetry_space_group_name_H-M "P -1"
_symmetry_group_IT_number 2
_symmetry_cell_setting 'triclinic'
loop_
_space_group_symop_operation_xyz
x,y,z
-x,-y,-z
loop_
_atom_site_type_symbol
_atom_site_label
_atom_site_fract_x
_atom_site_fract_y
_atom_site_fract_z
Si Si1 0.812708 0.632001 0.793310
Si Si2 0.438963 0.563568 0.916357
Si Si3 0.656856 0.701875 0.036063
Si Si4 0.623968 0.079121 0.116842
Si Si5 0.939226 0.187282 0.193905
Si Si6 0.777379 0.736867 0.453325
Si Si7 0.716599 0.785177 0.659945
Si Si8 0.217167 0.901345 0.458787
O O1 0.795720 0.633667 0.670965
O O2 0.838957 0.301007 0.629905
O O3 0.698811 0.797840 0.893940
O O4 0.903700 0.912357 0.054049
O O5 0.536959 0.584954 0.907396
O O6 0.371871 0.924089 0.144780
O O7 0.500000 0.500000 0.000000
O O8 0.348290 0.287658 0.652588
O O9 0.656885 0.038380 0.214838
O O10 0.712775 0.818499 0.246657
O O11 0.718072 0.398215 0.786971
O O12 0.650303 0.445615 0.355610
O O13 0.500000 0.000000 0.000000
O O14 0.830944 0.364307 0.226382
O O15 0.000000 0.500000 0.500000
O O16 0.000000 0.000000 0.000000
O O17 0.776807 0.906954 0.682663
O O18 0.837994 0.902717 0.515244
#
# Coordination Sequence:
#
# PCOD9058837 Si02
#       8
#     2   2   2   2   2   2   2   2
#     4  11  24  47  70 107 142 191 241 309 361 440
#     4  12  25  38  63 101 155 197 246 287 354 439
#     4  11  24  40  60 104 146 203 230 280 337 434
#     4  11  23  37  64 102 145 195 242 290 348 434
#     4  12  28  50  81 107 136 183 255 319 372 424
#     4  12  26  45  71 107 141 195 240 309 365 434
#     4  12  22  40  70  97 149 199 254 285 354 426
#     4  11  26  44  71 101 154 185 236 289 368 429
#
# _framework density 23.594781999999999
#
# number of rings (size 3 to 8) (size 9 to 14) (size 15 to 20)
#    0.000    0.500    5.000    3.000    5.250    2.000 
#    0.000    1.250    0.000    0.000    0.000    0.000 
#    0.000    0.000    0.000    0.000    0.000    0.000 
#
# Total GULP energy -89383.592568 kJ/mol
# GULP energy per Si atom -5586.474535 kJ/mol
# Density = 2.354108 g / cm^3
# Si number density = 23.594782 Si / 1000 Ang^3
#
#
#
# Elastic Constant Matrix: (Units=GPa)
#
#
# Indices 1 2 3 4 5 6 
#
# 1 67.7802 11.5952 11.1267 -6.6180 8.4248 11.1232
# 2 11.5952 116.8882 5.8993 -4.0816 18.1729 43.7573
# 3 11.1267 5.8993 74.1679 -10.0335 5.2799 3.8056
# 4 -6.6180 -4.0816 -10.0335 42.1268 6.6356 1.7648
# 5 8.4248 18.1729 5.2799 6.6356 36.0055 2.1803
# 6 11.1232 43.7573 3.8056 1.7648 2.1803 31.4850
#
#
#
# Elastic Compliance Matrix: (Units=1/GPa)
#
#
# Indices 1 2 3 4 5 6 
#
# 1 0.017176 0.003154 -0.001378 0.003971 -0.005528 -0.010125
# 2 0.003154 0.021705 0.000969 0.005865 -0.011041 -0.030961
# 3 -0.001378 0.000969 0.014475 0.003884 -0.002846 -0.002630
# 4 0.003971 0.005865 0.003884 0.027716 -0.008903 -0.010961
# 5 -0.005528 -0.011041 -0.002846 -0.008903 0.035749 0.015665
# 6 -0.010125 -0.030961 -0.002630 -0.010961 0.015665 0.078214
#
#
# Mechanical properties :
#
#
# Convention : Reuss Voigt Hill
#
# Bulk Modulus (GPa) = 16.99336 35.11985 26.05661
# Shear Modulus (GPa) = 23.90492 37.27115 30.58804
#
# Velocity S-wave (km/s) = 3.18645 3.97877 3.60445
# Velocity P-wave (km/s) = 4.55584 6.00204 5.32823
#
# Compressibility (1/GPa) = 0.05884652
#
# Stress axis : x y z
#
# Youngs Moduli (GPa) = 58.21931 46.07237 69.08261
#
# Poissons Ratio (x) = -0.14530 0.09516
# Poissons Ratio (y) = -0.18361 -0.06691
# Poissons Ratio (z) = 0.08020 -0.04462
#
# Static dielectric constant tensor:
#      x y z
#    x 1.935220 -0.010860 0.041100 
#    y -0.010860 2.059860 -0.043690 
#    z 0.041100 -0.043690 1.964320 
# 
# From -- ./inp_files/532829.got.cif
#   From: 2010.05.17/outbox.cif.g08.bks.cpg/sg2_267_cif.got.tgz:532829.got - 2010.06.03 11:33:40.
