data_PCOD9058321
_publ_section_title
;
Structure prediction by ZEFSAII (Michael W. Deem and Ramdas Pophale) SiO2 
 PCOD9058321
Probable space group: P -1
;
_chemical_formula_sum "Si O2"
_cell_formula_units_Z 14
_cell_length_a 15.635556
_cell_length_b 15.416896
_cell_length_c 5.376034
_cell_angle_alpha 48.506368
_cell_angle_beta 43.011677
_cell_angle_gamma 36.826210
_cell_volume 520.320380
_symmetry_space_group_name_H-M "P -1"
_symmetry_group_IT_number 2
_symmetry_cell_setting 'triclinic'
loop_
_space_group_symop_operation_xyz
x,y,z
-x,-y,-z
loop_
_atom_site_type_symbol
_atom_site_label
_atom_site_fract_x
_atom_site_fract_y
_atom_site_fract_z
Si Si1 0.097964 0.342013 0.723939
Si Si2 0.023522 0.801570 0.032845
Si Si3 0.639211 0.346905 0.869816
Si Si4 0.707283 0.186925 0.550730
Si Si5 0.174936 0.559106 0.558204
Si Si6 0.623813 0.777018 0.346533
Si Si7 0.294792 0.012741 0.373664
O O1 0.075229 0.228542 0.874509
O O2 0.282177 0.270428 0.501008
O O3 0.000000 0.500000 0.500000
O O4 0.998993 0.387222 0.104502
O O5 0.151951 0.641534 0.194567
O O6 0.884260 0.916972 0.301238
O O7 0.120567 0.861255 0.642666
O O8 0.600630 0.305136 0.771908
O O9 0.771950 0.370624 0.497936
O O10 0.500000 0.500000 0.000000
O O11 0.689843 0.240029 0.200497
O O12 0.679385 0.067481 0.792622
O O13 0.301813 0.383128 0.620853
O O14 0.435705 0.892086 0.488683
O O15 0.685552 0.860667 0.930534
#
# Coordination Sequence:
#
# PCOD9058321 Si02
#       7
#     2   2   2   2   2   2   2
#     4  12  22  40  75 107 141 190 258 316 372 441
#     4  11  23  44  73 108 146 200 258 311 372 450
#     4  11  24  45  77 109 148 195 255 323 382 440
#     4  11  25  47  73 110 153 202 254 309 380 465
#     4  11  22  45  69 105 145 188 262 314 367 444
#     4  11  24  43  71 104 152 196 248 317 381 451
#     4  11  25  46  68 108 160 201 242 306 389 466
#
# _framework density 26.906502
#
# number of rings (size 3 to 8) (size 9 to 14) (size 15 to 20)
#    0.000    0.857    4.286    3.000    0.000    1.714 
#    0.000    5.714    0.000    0.000    0.000    0.000 
#    0.000    0.000    0.000    0.000    0.000    0.000 
#
# Total GULP energy -78254.596453 kJ/mol
# GULP energy per Si atom -5589.614032 kJ/mol
# Density = 2.684526 g / cm^3
# Si number density = 26.906502 Si / 1000 Ang^3
#
#
#
# Elastic Constant Matrix: (Units=GPa)
#
#
# Indices 1 2 3 4 5 6 
#
# 1 124.0170 38.9152 21.1731 -14.1593 -10.9115 7.9915
# 2 38.9152 126.9866 27.1847 -21.5388 12.5416 -22.0086
# 3 21.1731 27.1847 69.7618 -7.0646 0.3032 -3.5279
# 4 -14.1593 -21.5388 -7.0646 39.8602 -2.2616 11.7834
# 5 -10.9115 12.5416 0.3032 -2.2616 35.9566 3.6813
# 6 7.9915 -22.0086 -3.5279 11.7834 3.6813 49.4165
#
#
#
# Elastic Compliance Matrix: (Units=1/GPa)
#
#
# Indices 1 2 3 4 5 6 
#
# 1 0.010620 -0.003661 -0.001734 0.003143 0.005184 -0.004607
# 2 -0.003661 0.011491 -0.002818 0.002528 -0.005480 0.005314
# 3 -0.001734 -0.002818 0.016030 0.000733 0.000371 -0.000033
# 4 0.003143 0.002528 0.000733 0.029810 0.002620 -0.006634
# 5 0.005184 -0.005480 0.000371 0.002620 0.032099 -0.006269
# 6 -0.004607 0.005314 -0.000033 -0.006634 -0.006269 0.025394
#
#
# Mechanical properties :
#
#
# Convention : Reuss Voigt Hill
#
# Bulk Modulus (GPa) = 46.05080 55.03458 50.54269
# Shear Modulus (GPa) = 33.53277 40.61283 37.07280
#
# Velocity S-wave (km/s) = 3.53409 3.88932 3.71595
# Velocity P-wave (km/s) = 5.81423 6.37711 6.10216
#
# Compressibility (1/GPa) = 0.02171515
#
# Stress axis : x y z
#
# Youngs Moduli (GPa) = 94.16274 87.02542 62.38330
#
# Poissons Ratio (x) = 0.31856 0.10817
# Poissons Ratio (y) = 0.34469 0.17581
# Poissons Ratio (z) = 0.16328 0.24526
#
# Static dielectric constant tensor:
#      x y z
#    x 2.144220 0.012300 0.027400 
#    y 0.012300 2.177810 0.007360 
#    z 0.027400 0.007360 2.269190 
# 
# From -- ./inp_files/97461.got.cif
#   From: 2010.05.17/outbox.cif.g08.bks.cpg/sg2_49_cif.got.tgz:97461.got - 2010.06.03 11:33:40.
