data_PCOD9058574
_publ_section_title
;
Structure prediction by ZEFSAII (Michael W. Deem and Ramdas Pophale) SiO2 
 PCOD9058574
Probable space group: P -1
;
_chemical_formula_sum "Si O2"
_cell_formula_units_Z 14
_cell_length_a 14.540686
_cell_length_b 8.197781
_cell_length_c 15.033438
_cell_angle_alpha 35.989696
_cell_angle_beta 29.016743
_cell_angle_gamma 39.116031
_cell_volume 495.915177
_symmetry_space_group_name_H-M "P -1"
_symmetry_group_IT_number 2
_symmetry_cell_setting 'triclinic'
loop_
_space_group_symop_operation_xyz
x,y,z
-x,-y,-z
loop_
_atom_site_type_symbol
_atom_site_label
_atom_site_fract_x
_atom_site_fract_y
_atom_site_fract_z
Si Si1 0.921516 0.724666 0.712123
Si Si2 0.678591 0.540819 0.714217
Si Si3 0.291057 0.493603 0.612067
Si Si4 0.500000 0.000000 0.000000
Si Si5 0.948684 0.275016 0.742845
Si Si6 0.000000 0.000000 0.000000
Si Si7 0.566642 0.296375 0.307107
Si Si8 0.514552 0.049742 0.748773
O O1 0.881281 0.572991 0.722602
O O2 0.100144 0.494325 0.712987
O O3 0.732715 0.828532 0.884450
O O4 0.000000 0.000000 0.500000
O O5 0.814174 0.285409 0.766827
O O6 0.562599 0.472025 0.756325
O O7 0.832065 0.715537 0.471797
O O8 0.536614 0.757570 0.803458
O O9 0.482314 0.417869 0.419342
O O10 0.337516 0.277721 0.749579
O O11 0.297175 0.814360 0.490918
O O12 0.514556 0.003806 0.873900
O O13 0.944368 0.049220 0.920543
O O14 0.219583 0.799349 0.871284
O O15 0.500000 0.000000 0.500000
#
# Coordination Sequence:
#
# PCOD9058574 Si02
#       8
#     2   2   2   1   2   1   2   2
#     4  12  24  47  75 104 143 194 236 295 363 426
#     4  11  22  46  72 104 145 190 236 296 363 429
#     4  11  23  44  74 100 141 199 229 296 368 422
#     4  12  26  44  70 106 144 182 242 300 342 436
#     4  11  24  43  76 106 142 191 241 298 358 431
#     4  12  26  42  70 114 140 186 244 298 350 426
#     4  12  23  45  74 103 148 187 239 299 361 426
#     4  11  24  43  70 107 143 182 247 292 356 433
#
# _framework density 28.230633000000001
#
# number of rings (size 3 to 8) (size 9 to 14) (size 15 to 20)
#    0.000    0.571    7.143    0.000    2.000    1.143 
#    0.000    7.143    0.000    0.000    0.000    0.000 
#    0.000    0.000    0.000    0.000    0.000    0.000 
#
# Total GULP energy -78090.957736 kJ/mol
# GULP energy per Si atom -5577.925553 kJ/mol
# Density = 2.816638 g / cm^3
# Si number density = 28.230633 Si / 1000 Ang^3
#
#
#
# Elastic Constant Matrix: (Units=GPa)
#
#
# Indices 1 2 3 4 5 6 
#
# 1 218.2493 36.5328 47.1760 5.4963 29.5694 -44.1684
# 2 36.5328 99.4784 37.9839 31.0472 21.8926 -28.4725
# 3 47.1760 37.9839 137.5029 24.7856 14.9033 -19.7794
# 4 5.4963 31.0472 24.7856 68.1331 -10.6480 7.6218
# 5 29.5694 21.8926 14.9033 -10.6480 58.5526 -5.5846
# 6 -44.1684 -28.4725 -19.7794 7.6218 -5.5846 64.6366
#
#
#
# Elastic Compliance Matrix: (Units=1/GPa)
#
#
# Indices 1 2 3 4 5 6 
#
# 1 0.005908 0.000173 -0.001089 -0.000976 -0.002598 0.003671
# 2 0.000173 0.017205 -0.001214 -0.009408 -0.007177 0.007815
# 3 -0.001089 -0.001214 0.008957 -0.003067 -0.001673 0.001679
# 4 -0.000976 -0.009408 -0.003067 0.022285 0.008112 -0.007677
# 5 -0.002598 -0.007177 -0.001673 0.008112 0.022550 -0.004457
# 6 0.003671 0.007815 0.001679 -0.007677 -0.004457 0.022456
#
#
# Mechanical properties :
#
#
# Convention : Reuss Voigt Hill
#
# Bulk Modulus (GPa) = 35.95856 77.62401 56.79128
# Shear Modulus (GPa) = 44.29041 60.50033 52.39537
#
# Velocity S-wave (km/s) = 3.96520 4.63436 4.31278
# Velocity P-wave (km/s) = 5.80766 7.49616 6.70527
#
# Compressibility (1/GPa) = 0.02780979
#
# Stress axis : x y z
#
# Youngs Moduli (GPa) = 169.26712 58.12303 111.63997
#
# Poissons Ratio (x) = -0.01008 0.12160
# Poissons Ratio (y) = -0.02935 0.13556
# Poissons Ratio (z) = 0.18437 0.07058
#
# Static dielectric constant tensor:
#      x y z
#    x 2.148930 0.005140 -0.072390 
#    y 0.005140 2.348560 -0.196930 
#    z -0.072390 -0.196930 2.257240 
# 
# From -- ./inp_files/316070.got.cif
#   From: 2010.05.17/outbox.cif.g08.bks.cpg/sg2_159_cif.got.tgz:316070.got - 2010.06.03 11:33:40.
