data_PCOD9058510
_publ_section_title
;
Structure prediction by ZEFSAII (Michael W. Deem and Ramdas Pophale) SiO2 
 PCOD9058510
Probable space group: P -1
;
_chemical_formula_sum "Si O2"
_cell_formula_units_Z 16
_cell_length_a 14.661029
_cell_length_b 26.614754
_cell_length_c 16.877464
_cell_angle_alpha 19.518303
_cell_angle_beta 161.235592
_cell_angle_gamma 158.963423
_cell_volume 654.495630
_symmetry_space_group_name_H-M "P -1"
_symmetry_group_IT_number 2
_symmetry_cell_setting 'triclinic'
loop_
_space_group_symop_operation_xyz
x,y,z
-x,-y,-z
loop_
_atom_site_type_symbol
_atom_site_label
_atom_site_fract_x
_atom_site_fract_y
_atom_site_fract_z
Si Si1 0.640748 0.592289 0.609802
Si Si2 0.306224 0.992495 0.058106
Si Si3 0.917439 0.370279 0.808471
Si Si4 0.011243 0.894323 0.816278
Si Si5 0.668466 0.279304 0.430076
Si Si6 0.214088 0.901227 0.355013
Si Si7 0.361455 0.284098 0.755636
Si Si8 0.987173 0.179946 0.292783
O O1 0.597000 0.408340 0.825221
O O2 0.618809 0.656802 0.407188
O O3 0.924489 0.696984 0.742189
O O4 0.354510 0.596728 0.419749
O O5 0.627334 0.067845 0.164812
O O6 0.173380 0.806567 0.252433
O O7 0.374409 0.108556 0.016697
O O8 0.068199 0.998779 0.788419
O O9 0.147618 0.533362 0.715261
O O10 0.069251 0.292511 0.115894
O O11 0.808089 0.223832 0.872766
O O12 0.660439 0.772231 0.721484
O O13 0.112453 0.037645 0.621927
O O14 0.661994 0.182891 0.486820
O O15 0.973569 0.754152 0.427396
O O16 0.500000 0.000000 0.500000
O O17 0.000000 0.000000 0.000000
#
# Coordination Sequence:
#
# PCOD9058510 Si02
#       8
#     2   2   2   2   2   2   2   2
#     4  11  25  42  68 101 139 178 231 297 361 432
#     4  11  23  45  71  99 137 183 235 289 364 441
#     4  12  25  46  66 105 139 181 240 297 363 438
#     4  11  25  46  73  94 139 188 240 301 358 434
#     4  11  26  44  67 105 140 184 241 296 369 434
#     4  12  26  43  76 107 145 199 247 301 368 450
#     4  11  22  46  66 102 142 179 236 295 366 434
#     4  11  24  43  70 102 133 184 237 294 362 437
#
# _framework density 24.446304999999999
#
# number of rings (size 3 to 8) (size 9 to 14) (size 15 to 20)
#    0.000    0.750    5.000    1.500    1.750    7.000 
#    0.000    0.000    0.000    0.000    0.000    0.000 
#    0.000    0.000    0.000    0.000    0.000    0.000 
#
# Total GULP energy -89245.586350 kJ/mol
# GULP energy per Si atom -5577.849147 kJ/mol
# Density = 2.439066 g / cm^3
# Si number density = 24.446305 Si / 1000 Ang^3
#
#
#
# Elastic Constant Matrix: (Units=GPa)
#
#
# Indices 1 2 3 4 5 6 
#
# 1 113.3456 40.9878 25.3817 -10.8279 8.2801 12.6185
# 2 40.9878 111.6521 33.9675 -24.1138 -19.6757 7.6559
# 3 25.3817 33.9675 64.1398 -27.4900 -4.6136 4.2929
# 4 -10.8279 -24.1138 -27.4900 41.9210 3.3330 2.4364
# 5 8.2801 -19.6757 -4.6136 3.3330 36.2968 -6.6346
# 6 12.6185 7.6559 4.2929 2.4364 -6.6346 51.1885
#
#
#
# Elastic Compliance Matrix: (Units=1/GPa)
#
#
# Indices 1 2 3 4 5 6 
#
# 1 0.011730 -0.004456 -0.002860 -0.000783 -0.005878 -0.002710
# 2 -0.004456 0.013814 -0.003280 0.004022 0.007740 0.000119
# 3 -0.002860 -0.003280 0.024317 0.013365 0.000479 -0.001418
# 4 -0.000783 0.004022 0.013365 0.034891 0.000277 -0.003154
# 5 -0.005878 0.007740 0.000479 0.000277 0.033971 0.004641
# 6 -0.002710 0.000119 -0.001418 -0.003154 0.004641 0.021056
#
#
# Mechanical properties :
#
#
# Convention : Reuss Voigt Hill
#
# Bulk Modulus (GPa) = 34.87754 54.42349 44.65052
# Shear Modulus (GPa) = 29.32058 38.46796 33.89427
#
# Velocity S-wave (km/s) = 3.46697 3.97113 3.72758
# Velocity P-wave (km/s) = 5.50677 6.58310 6.06885
#
# Compressibility (1/GPa) = 0.02867175
#
# Stress axis : x y z
#
# Youngs Moduli (GPa) = 85.24851 72.38781 41.12313
#
# Poissons Ratio (x) = 0.32253 0.11760
# Poissons Ratio (y) = 0.37983 0.13489
# Poissons Ratio (z) = 0.24378 0.23744
#
# Static dielectric constant tensor:
#      x y z
#    x 1.984090 -0.015260 0.011810 
#    y -0.015260 1.948340 -0.038650 
#    z 0.011810 -0.038650 2.060210 
# 
# From -- ./inp_files/574527.got.cif
#   From: 2010.05.17/outbox.cif.g08.bks.cpg/sg2_288_cif.got.tgz:574527.got - 2010.06.03 11:33:40.
