data_PCOD9058680
_publ_section_title
;
Structure prediction by ZEFSAII (Michael W. Deem and Ramdas Pophale) SiO2 
 PCOD9058680
Probable space group: P -1
;
_chemical_formula_sum "Si O2"
_cell_formula_units_Z 14
_cell_length_a 8.563495
_cell_length_b 5.578726
_cell_length_c 11.535846
_cell_angle_alpha 90.744135
_cell_angle_beta 95.397386
_cell_angle_gamma 85.280532
_cell_volume 546.795133
_symmetry_space_group_name_H-M "P -1"
_symmetry_group_IT_number 2
_symmetry_cell_setting 'triclinic'
loop_
_space_group_symop_operation_xyz
x,y,z
-x,-y,-z
loop_
_atom_site_type_symbol
_atom_site_label
_atom_site_fract_x
_atom_site_fract_y
_atom_site_fract_z
Si Si1 0.967357 0.720566 0.793538
Si Si2 0.715408 0.114037 0.824429
Si Si3 0.630048 0.926785 0.124888
Si Si4 0.243278 0.579689 0.966898
Si Si5 0.125035 0.555964 0.412464
Si Si6 0.662259 0.103865 0.545310
Si Si7 0.142576 0.054121 0.654614
O O1 0.845602 0.618003 0.694541
O O2 0.074092 0.570036 0.892563
O O3 0.869743 0.934584 0.855105
O O4 0.091413 0.810439 0.707656
O O5 0.554675 0.029666 0.865419
O O6 0.681856 0.115644 0.684786
O O7 0.748199 0.358997 0.895774
O O8 0.663965 0.675312 0.056568
O O9 0.719562 0.871093 0.252820
O O10 0.693924 0.173210 0.081561
O O11 0.288028 0.627193 0.479464
O O12 0.000000 0.500000 0.500000
O O13 0.016424 0.775411 0.346552
O O14 0.500000 0.000000 0.500000
O O15 0.794730 0.960457 0.472519
#
# Coordination Sequence:
#
# PCOD9058680 Si02
#       7
#     2   2   2   2   2   2   2
#     4  11  24  45  74 111 144 196 256 313 374 464
#     4  12  25  46  72 111 151 194 252 322 381 455
#     4  11  25  48  76 105 155 202 251 317 389 458
#     4  11  26  49  77 108 151 206 253 315 389 463
#     4  12  23  42  75 103 146 203 251 305 387 459
#     4  12  25  44  71 109 154 194 252 323 378 460
#     4  11  22  47  69 102 151 196 247 309 388 452
#
# _framework density 25.603739999999998
#
# number of rings (size 3 to 8) (size 9 to 14) (size 15 to 20)
#    0.000    0.571    5.714    2.571    0.000    2.286 
#    0.000    4.286    0.000    0.000    0.000    0.000 
#    0.000    0.000    0.000    0.000    0.000    0.000 
#
# Total GULP energy -78189.904183 kJ/mol
# GULP energy per Si atom -5584.993156 kJ/mol
# Density = 2.554546 g / cm^3
# Si number density = 25.603740 Si / 1000 Ang^3
#
#
#
# Elastic Constant Matrix: (Units=GPa)
#
#
# Indices 1 2 3 4 5 6 
#
# 1 135.9394 29.2671 35.0711 6.0901 2.5731 16.7066
# 2 29.2671 90.1006 53.9466 14.6762 -15.7312 2.2233
# 3 35.0711 53.9466 157.6335 15.1457 5.3543 2.0802
# 4 6.0901 14.6762 15.1457 47.1752 1.9234 0.2471
# 5 2.5731 -15.7312 5.3543 1.9234 47.9693 8.7633
# 6 16.7066 2.2233 2.0802 0.2471 8.7633 37.5336
#
#
#
# Elastic Compliance Matrix: (Units=1/GPa)
#
#
# Indices 1 2 3 4 5 6 
#
# 1 0.008535 -0.002062 -0.001128 -0.000065 -0.000361 -0.003530
# 2 -0.002062 0.016534 -0.005066 -0.003508 0.006471 -0.001268
# 3 -0.001128 -0.005066 0.008494 -0.000901 -0.002689 0.000965
# 4 -0.000065 -0.003508 -0.000901 0.022668 -0.002069 0.000620
# 5 -0.000361 0.006471 -0.002689 -0.002069 0.024424 -0.005762
# 6 -0.003530 -0.001268 0.000965 0.000620 -0.005762 0.029577
#
#
# Mechanical properties :
#
#
# Convention : Reuss Voigt Hill
#
# Bulk Modulus (GPa) = 58.64883 68.91589 63.78236
# Shear Modulus (GPa) = 37.75698 44.22820 40.99259
#
# Velocity S-wave (km/s) = 3.84430 4.16072 4.00564
# Velocity P-wave (km/s) = 6.53154 7.07509 6.80874
#
# Compressibility (1/GPa) = 0.01705064
#
# Stress axis : x y z
#
# Youngs Moduli (GPa) = 117.16818 60.48133 117.73685
#
# Poissons Ratio (x) = 0.12473 0.13281
# Poissons Ratio (y) = 0.24163 0.59640
# Poissons Ratio (z) = 0.13217 0.30637
#
# Static dielectric constant tensor:
#      x y z
#    x 2.027880 0.185170 -0.017470 
#    y 0.185170 2.314840 -0.067620 
#    z -0.017470 -0.067620 2.076290 
# 
# From -- ./inp_files/135843.got.cif
#   From: 2010.05.17/outbox.cif.g08.bks.cpg/sg2_68_cif.got.tgz:135843.got - 2010.06.03 11:33:40.
