data_PCOD9058029
_publ_section_title
;
Structure prediction by ZEFSAII (Michael W. Deem and Ramdas Pophale) SiO2 
 PCOD9058029
Probable space group: P -1
;
_chemical_formula_sum "Si O2"
_cell_formula_units_Z 16
_cell_length_a 18.342784
_cell_length_b 9.380095
_cell_length_c 8.928274
_cell_angle_alpha 105.413942
_cell_angle_beta 37.978616
_cell_angle_gamma 124.678254
_cell_volume 724.958893
_symmetry_space_group_name_H-M "P -1"
_symmetry_group_IT_number 2
_symmetry_cell_setting 'triclinic'
loop_
_space_group_symop_operation_xyz
x,y,z
-x,-y,-z
loop_
_atom_site_type_symbol
_atom_site_label
_atom_site_fract_x
_atom_site_fract_y
_atom_site_fract_z
Si Si1 0.946130 0.223064 0.398708
Si Si2 0.564574 0.641820 0.202853
Si Si3 0.366895 0.231847 0.554793
Si Si4 0.938380 0.594164 0.035223
Si Si5 0.346819 0.927409 0.300509
Si Si6 0.676092 0.392664 0.590587
Si Si7 0.961210 0.024042 0.871069
Si Si8 0.134955 0.273265 0.384701
O O1 0.776994 0.148445 0.649296
O O2 0.044104 0.289786 0.407517
O O3 0.941590 0.050995 0.294070
O O4 0.024469 0.383294 0.192077
O O5 0.465370 0.425860 0.357989
O O6 0.566156 0.741326 0.379419
O O7 0.485055 0.661758 0.197571
O O8 0.732543 0.722821 0.905860
O O9 0.358822 0.082594 0.423434
O O10 0.198511 0.148474 0.853098
O O11 0.764197 0.474401 0.315416
O O12 0.005439 0.797256 0.049157
O O13 0.000000 0.500000 0.000000
O O14 0.313065 0.766904 0.420744
O O15 0.500000 0.000000 0.000000
O O16 0.768642 0.553245 0.609330
O O17 0.007369 0.101516 0.647005
#
# Coordination Sequence:
#
# PCOD9058029 Si02
#       8
#     2   2   2   2   2   2   2   2
#     4  12  24  43  74 103 143 184 238 299 342 429
#     4  11  25  44  73 102 143 184 239 299 355 420
#     4  11  24  46  72 107 137 187 241 290 359 425
#     4  11  22  44  69 103 139 186 239 289 359 421
#     4  12  28  46  69 103 148 190 231 287 367 424
#     4  11  25  45  67 103 144 191 229 291 355 428
#     4  11  23  42  73 107 138 181 242 297 348 415
#     4  11  26  43  74 110 142 182 243 293 361 413
#
# _framework density 22.070215999999999
#
# number of rings (size 3 to 8) (size 9 to 14) (size 15 to 20)
#    0.000    0.750    3.750    2.625    7.000    1.000 
#    0.000    0.000    0.000    0.000    0.000    0.000 
#    0.000    0.000    0.000    0.000    0.000    0.000 
#
# Total GULP energy -89302.589972 kJ/mol
# GULP energy per Si atom -5581.411873 kJ/mol
# Density = 2.201998 g / cm^3
# Si number density = 22.070216 Si / 1000 Ang^3
#
#
#
# Elastic Constant Matrix: (Units=GPa)
#
#
# Indices 1 2 3 4 5 6 
#
# 1 176.1855 16.9656 50.7112 -2.6791 -9.1185 -0.3745
# 2 16.9656 27.2628 1.0903 -7.7995 -3.3744 1.1069
# 3 50.7112 1.0903 141.7677 -11.6967 -13.8591 2.9052
# 4 -2.6791 -7.7995 -11.6967 29.5595 -0.1472 4.7332
# 5 -9.1185 -3.3744 -13.8591 -0.1472 41.4599 -4.4563
# 6 -0.3745 1.1069 2.9052 4.7332 -4.4563 26.3100
#
#
#
# Elastic Compliance Matrix: (Units=1/GPa)
#
#
# Indices 1 2 3 4 5 6 
#
# 1 0.006851 -0.004660 -0.002544 -0.001766 0.000374 0.000955
# 2 -0.004660 0.043691 0.002774 0.012860 0.003074 -0.004004
# 3 -0.002544 0.002774 0.008545 0.004124 0.002383 -0.001435
# 4 -0.001766 0.012860 0.004124 0.039981 0.001320 -0.007991
# 5 0.000374 0.003074 0.002383 0.001320 0.025653 0.003720
# 6 0.000955 -0.004004 -0.001435 -0.007991 0.003720 0.040416
#
#
# Mechanical properties :
#
#
# Convention : Reuss Voigt Hill
#
# Bulk Modulus (GPa) = 19.90874 53.63888 36.77381
# Shear Modulus (GPa) = 26.21386 37.89581 32.05483
#
# Velocity S-wave (km/s) = 3.45011 4.14823 3.81517
# Velocity P-wave (km/s) = 4.99112 6.87752 6.00881
#
# Compressibility (1/GPa) = 0.05022920
#
# Stress axis : x y z
#
# Youngs Moduli (GPa) = 145.96051 22.88815 117.02747
#
# Poissons Ratio (x) = 0.10665 0.29768
# Poissons Ratio (y) = 0.68011 -0.32467
# Poissons Ratio (z) = 0.37127 -0.06350
#
# Static dielectric constant tensor:
#      x y z
#    x 1.834090 0.054910 -0.023720 
#    y 0.054910 1.814070 0.002710 
#    z -0.023720 0.002710 1.795390 
# 
# From -- ./inp_files/329107.got.cif
#   From: 2010.05.17/outbox.cif.g08.bks.cpg/sg2_165_cif.got.tgz:329107.got - 2010.06.03 11:33:40.
