data_PCOD9058121
_publ_section_title
;
Structure prediction by ZEFSAII (Michael W. Deem and Ramdas Pophale) SiO2 
 PCOD9058121
Probable space group: P -1
;
_chemical_formula_sum "Si O2"
_cell_formula_units_Z 14
_cell_length_a 15.078211
_cell_length_b 9.725671
_cell_length_c 5.404691
_cell_angle_alpha 66.437950
_cell_angle_beta 88.098211
_cell_angle_gamma 58.751741
_cell_volume 605.565353
_symmetry_space_group_name_H-M "P -1"
_symmetry_group_IT_number 2
_symmetry_cell_setting 'triclinic'
loop_
_space_group_symop_operation_xyz
x,y,z
-x,-y,-z
loop_
_atom_site_type_symbol
_atom_site_label
_atom_site_fract_x
_atom_site_fract_y
_atom_site_fract_z
Si Si1 0.243506 0.394459 0.568103
Si Si2 0.388561 0.053347 0.089987
Si Si3 0.959558 0.117068 0.164423
Si Si4 0.248739 0.640152 0.733953
Si Si5 0.582666 0.301342 0.518735
Si Si6 0.414847 0.292129 0.261307
Si Si7 0.960699 0.456351 0.790355
O O1 0.190141 0.576294 0.603719
O O2 0.352552 0.360514 0.476213
O O3 0.166368 0.425193 0.329478
O O4 0.283434 0.217618 0.852341
O O5 0.400458 0.133025 0.291249
O O6 0.391185 0.872467 0.205051
O O7 0.500000 0.000000 0.000000
O O8 0.832192 0.237281 0.133580
O O9 0.992221 0.256964 0.997178
O O10 0.000000 0.000000 0.500000
O O11 0.000000 0.000000 0.000000
O O12 0.306201 0.723401 0.535969
O O13 0.346510 0.452613 0.963566
O O14 0.500000 0.500000 0.500000
O O15 0.525281 0.274481 0.306891
O O16 0.000000 0.500000 0.500000
O O17 0.000000 0.500000 0.000000
#
# Coordination Sequence:
#
# PCOD9058121 Si02
#       7
#     2   2   2   2   2   2   2
#     4  11  23  46  75  99 143 198 245 307 384 442
#     4  11  24  42  67 105 147 195 247 304 366 451
#     4  12  27  50  78 110 155 199 250 325 403 456
#     4  11  24  44  73 105 145 200 249 309 380 462
#     4  12  23  43  70 111 150 195 248 299 370 468
#     4  11  22  44  71  96 148 196 239 297 374 442
#     4  12  27  51  80 110 144 196 268 327 380 459
#
# _framework density 23.11889
#
# number of rings (size 3 to 8) (size 9 to 14) (size 15 to 20)
#    0.000    0.571    4.286    4.286    2.000    1.143 
#    2.571    1.429    0.000    0.000    0.000    0.000 
#    0.000    0.000    0.000    0.000    0.000    0.000 
#
# Total GULP energy -78153.294099 kJ/mol
# GULP energy per Si atom -5582.378150 kJ/mol
# Density = 2.306627 g / cm^3
# Si number density = 23.118890 Si / 1000 Ang^3
#
#
#
# Elastic Constant Matrix: (Units=GPa)
#
#
# Indices 1 2 3 4 5 6 
#
# 1 103.7209 62.7183 50.4189 -3.1201 -10.5438 17.7512
# 2 62.7183 162.0928 62.6671 4.8445 -15.6976 25.8613
# 3 50.4189 62.6671 149.5262 -9.4225 -1.1034 22.6325
# 4 -3.1201 4.8445 -9.4225 43.3208 4.6055 -13.8162
# 5 -10.5438 -15.6976 -1.1034 4.6055 61.5965 -0.2150
# 6 17.7512 25.8613 22.6325 -13.8162 -0.2150 36.5187
#
#
#
# Elastic Compliance Matrix: (Units=1/GPa)
#
#
# Indices 1 2 3 4 5 6 
#
# 1 0.013777 -0.003777 -0.002698 -0.000070 0.001344 -0.002368
# 2 -0.003777 0.009571 -0.002204 -0.003607 0.002006 -0.004929
# 3 -0.002698 -0.002204 0.008926 0.001419 -0.000977 -0.002128
# 4 -0.000070 -0.003607 0.001419 0.028026 -0.002958 0.012295
# 5 0.001344 0.002006 -0.000977 -0.002958 0.017171 -0.002486
# 6 -0.002368 -0.004929 -0.002128 0.012295 -0.002486 0.037981
#
#
# Mechanical properties :
#
#
# Convention : Reuss Voigt Hill
#
# Bulk Modulus (GPa) = 67.05013 85.21648 76.13330
# Shear Modulus (GPa) = 36.28887 44.25625 40.27256
#
# Velocity S-wave (km/s) = 3.96620 4.38001 4.17823
# Velocity P-wave (km/s) = 7.07386 7.90692 7.50196
#
# Compressibility (1/GPa) = 0.01491421
#
# Stress axis : x y z
#
# Youngs Moduli (GPa) = 72.58545 104.47732 112.03496
#
# Poissons Ratio (x) = 0.39464 0.30232
# Poissons Ratio (y) = 0.27418 0.24695
# Poissons Ratio (z) = 0.19587 0.23029
#
# Static dielectric constant tensor:
#      x y z
#    x 2.350540 -0.017210 -0.505030 
#    y -0.017210 2.037530 0.084060 
#    z -0.505030 0.084060 2.533250 
# 
# From -- ./inp_files/38936.got.cif
#   From: 2010.05.17/outbox.cif.g08.bks.cpg/sg2_20_cif.got.tgz:38936.got - 2010.06.03 11:33:40.
