data_PCOD9058609
_publ_section_title
;
Structure prediction by ZEFSAII (Michael W. Deem and Ramdas Pophale) SiO2 
 PCOD9058609
Probable space group: P -1
;
_chemical_formula_sum "Si O2"
_cell_formula_units_Z 16
_cell_length_a 11.922472
_cell_length_b 16.709855
_cell_length_c 8.234902
_cell_angle_alpha 58.841316
_cell_angle_beta 49.797880
_cell_angle_gamma 31.646207
_cell_volume 655.318256
_symmetry_space_group_name_H-M "P -1"
_symmetry_group_IT_number 2
_symmetry_cell_setting 'triclinic'
loop_
_space_group_symop_operation_xyz
x,y,z
-x,-y,-z
loop_
_atom_site_type_symbol
_atom_site_label
_atom_site_fract_x
_atom_site_fract_y
_atom_site_fract_z
Si Si1 0.421034 0.867142 0.954098
Si Si2 0.937101 0.817536 0.882894
Si Si3 0.345200 0.166497 0.527915
Si Si4 0.098471 0.346516 0.091618
Si Si5 0.155666 0.603695 0.399677
Si Si6 0.338563 0.734718 0.716429
Si Si7 0.830291 0.191044 0.842726
Si Si8 0.285553 0.961123 0.445450
O O1 0.568237 0.799279 0.719441
O O2 0.620990 0.784618 0.990220
O O3 0.295304 0.829448 0.117777
O O4 0.229173 0.048010 0.967009
O O5 0.939360 0.706820 0.962812
O O6 0.205299 0.716522 0.773730
O O7 0.827690 0.920718 0.714418
O O8 0.457211 0.136388 0.627223
O O9 0.061420 0.294450 0.634811
O O10 0.500000 0.000000 0.500000
O O11 0.965848 0.365788 0.349728
O O12 0.000000 0.500000 0.000000
O O13 0.382885 0.423803 0.344324
O O14 0.256379 0.658661 0.254748
O O15 0.299739 0.843943 0.524210
O O16 0.208242 0.814307 0.927752
O O17 0.102780 0.061947 0.662285
#
# Coordination Sequence:
#
# PCOD9058609 Si02
#       8
#     2   2   2   2   2   2   2   2
#     4  11  25  46  75 107 141 191 252 299 354 438
#     4  12  26  46  74 109 144 191 248 294 362 441
#     4  11  22  46  74 100 149 194 239 302 359 429
#     4  11  27  50  70 106 150 196 235 302 375 431
#     4  11  27  47  73 108 146 197 244 301 368 428
#     4  12  27  44  74 114 148 190 242 303 368 433
#     4  12  23  49  74 107 146 189 249 302 361 425
#     4  12  23  44  75 106 146 192 243 299 359 428
#
# _framework density 24.415617000000001
#
# number of rings (size 3 to 8) (size 9 to 14) (size 15 to 20)
#    0.000    0.500    5.000    3.000    3.500    1.000 
#    0.000    0.000    0.000    0.000    0.000    0.000 
#    0.000    0.000    0.000    0.000    0.000    0.000 
#
# Total GULP energy -89609.230184 kJ/mol
# GULP energy per Si atom -5600.576887 kJ/mol
# Density = 2.436005 g / cm^3
# Si number density = 24.415617 Si / 1000 Ang^3
#
#
#
# Elastic Constant Matrix: (Units=GPa)
#
#
# Indices 1 2 3 4 5 6 
#
# 1 153.2877 24.9496 31.2687 6.8295 -19.0374 -4.1409
# 2 24.9496 112.1409 15.1163 10.0744 -8.1305 -6.1340
# 3 31.2687 15.1163 95.8116 1.7267 2.5753 6.0677
# 4 6.8295 10.0744 1.7267 39.0903 3.8821 -16.5286
# 5 -19.0374 -8.1305 2.5753 3.8821 34.0214 -6.0100
# 6 -4.1409 -6.1340 6.0677 -16.5286 -6.0100 41.2090
#
#
#
# Elastic Compliance Matrix: (Units=1/GPa)
#
#
# Indices 1 2 3 4 5 6 
#
# 1 0.007871 -0.000897 -0.002624 -0.000921 0.004735 0.001365
# 2 -0.000897 0.009711 -0.001332 -0.002070 0.002344 0.001063
# 3 -0.002624 -0.001332 0.011783 -0.000638 -0.003120 -0.002908
# 4 -0.000921 -0.002070 -0.000638 0.031631 -0.002447 0.012024
# 5 0.004735 0.002344 -0.003120 -0.002447 0.034049 0.005268
# 6 0.001365 0.001063 -0.002908 0.012024 0.005268 0.030581
#
#
# Mechanical properties :
#
#
# Convention : Reuss Voigt Hill
#
# Bulk Modulus (GPa) = 50.87009 55.98995 53.43002
# Shear Modulus (GPa) = 35.23960 42.19118 38.71539
#
# Velocity S-wave (km/s) = 3.80323 4.16148 3.98638
# Velocity P-wave (km/s) = 6.33769 6.78766 6.56653
#
# Compressibility (1/GPa) = 0.01965792
#
# Stress axis : x y z
#
# Youngs Moduli (GPa) = 127.04973 102.98108 84.86534
#
# Poissons Ratio (x) = 0.09234 0.22272
# Poissons Ratio (y) = 0.11392 0.11307
# Poissons Ratio (z) = 0.33342 0.13721
#
# Static dielectric constant tensor:
#      x y z
#    x 1.947500 0.019120 0.009960 
#    y 0.019120 1.899550 -0.009390 
#    z 0.009960 -0.009390 2.010480 
# 
# From -- ./inp_files/243326.got.cif
#   From: 2010.05.17/outbox.cif.g08.bks.cpg/sg2_122_cif.got.tgz:243326.got - 2010.06.03 11:33:40.
