data_PCOD9058034
_publ_section_title
;
Structure prediction by ZEFSAII (Michael W. Deem and Ramdas Pophale) SiO2 
 PCOD9058034
Probable space group: P -1
;
_chemical_formula_sum "Si O2"
_cell_formula_units_Z 16
_cell_length_a 14.457356
_cell_length_b 15.181267
_cell_length_c 5.300241
_cell_angle_alpha 101.320243
_cell_angle_beta 54.385754
_cell_angle_gamma 128.387733
_cell_volume 715.893262
_symmetry_space_group_name_H-M "P -1"
_symmetry_group_IT_number 2
_symmetry_cell_setting 'triclinic'
loop_
_space_group_symop_operation_xyz
x,y,z
-x,-y,-z
loop_
_atom_site_type_symbol
_atom_site_label
_atom_site_fract_x
_atom_site_fract_y
_atom_site_fract_z
Si Si1 0.164753 0.622797 0.861772
Si Si2 0.831780 0.611723 0.732369
Si Si3 0.667576 0.810707 0.640610
Si Si4 0.399224 0.629641 0.251275
Si Si5 0.067272 0.186190 0.628770
Si Si6 0.408686 0.380291 0.723167
Si Si7 0.869326 0.078627 0.387291
Si Si8 0.852258 0.272385 0.544007
O O1 0.296063 0.616735 0.626970
O O2 0.194931 0.703027 0.621321
O O3 0.175993 0.681879 0.138205
O O4 0.000000 0.500000 0.000000
O O5 0.720297 0.474089 0.802183
O O6 0.885876 0.685788 0.425694
O O7 0.970728 0.649675 0.688073
O O8 0.748494 0.653609 0.009522
O O9 0.791961 0.809105 0.572586
O O10 0.609868 0.721214 0.452685
O O11 0.748615 0.940456 0.495455
O O12 0.522655 0.756156 0.009003
O O13 0.499743 0.597295 0.162613
O O14 0.970028 0.113666 0.495777
O O15 0.968855 0.127220 0.003374
O O16 0.500000 0.500000 0.500000
O O17 0.800012 0.143177 0.565406
#
# Coordination Sequence:
#
# PCOD9058034 Si02
#       8
#     2   2   2   2   2   2   2   2
#     4  12  27  46  74 101 138 182 238 296 343 409
#     4  11  22  44  69 107 139 181 224 295 354 422
#     4  12  25  43  65 103 144 188 231 279 350 425
#     4  12  27  42  67 105 144 184 231 283 362 417
#     4  11  23  43  70 104 142 186 231 280 347 416
#     4  12  25  40  69 102 151 183 222 282 361 428
#     4  11  26  44  74  99 142 187 238 284 340 417
#     4  11  25  47  71 103 134 180 242 291 346 398
#
# _framework density 22.349699999999999
#
# number of rings (size 3 to 8) (size 9 to 14) (size 15 to 20)
#    0.000    0.500    3.750    5.250    5.250    0.000 
#    0.000    1.250    0.000    0.000    0.000    0.000 
#    0.000    0.000    0.000    0.000    0.000    0.000 
#
# Total GULP energy -89520.022578 kJ/mol
# GULP energy per Si atom -5595.001411 kJ/mol
# Density = 2.229883 g / cm^3
# Si number density = 22.349700 Si / 1000 Ang^3
#
#
#
# Elastic Constant Matrix: (Units=GPa)
#
#
# Indices 1 2 3 4 5 6 
#
# 1 53.6821 15.2618 15.9898 -1.6035 12.2076 -0.1239
# 2 15.2618 132.6243 52.7693 -17.8093 2.9598 -5.4685
# 3 15.9898 52.7693 147.3425 -1.3603 -1.8341 2.6446
# 4 -1.6035 -17.8093 -1.3603 42.2317 -5.8593 3.2375
# 5 12.2076 2.9598 -1.8341 -5.8593 35.4412 3.2506
# 6 -0.1239 -5.4685 2.6446 3.2375 3.2506 16.0343
#
#
#
# Elastic Compliance Matrix: (Units=1/GPa)
#
#
# Indices 1 2 3 4 5 6 
#
# 1 0.021360 -0.001623 -0.001873 -0.001127 -0.007661 0.001701
# 2 -0.001623 0.009665 -0.003309 0.003655 -0.000100 0.003112
# 3 -0.001873 -0.003309 0.008233 -0.000797 0.001458 -0.002635
# 4 -0.001127 0.003655 -0.000797 0.026196 0.004822 -0.004898
# 5 -0.007661 -0.000100 0.001458 0.004822 0.032459 -0.007888
# 6 0.001701 0.003112 -0.002635 -0.004898 -0.007888 0.066463
#
#
# Mechanical properties :
#
#
# Convention : Reuss Voigt Hill
#
# Bulk Modulus (GPa) = 38.98842 55.74341 47.36591
# Shear Modulus (GPa) = 26.80462 35.38331 31.09397
#
# Velocity S-wave (km/s) = 3.46689 3.98322 3.73399
# Velocity P-wave (km/s) = 5.78864 6.79340 6.31105
#
# Compressibility (1/GPa) = 0.02564864
#
# Stress axis : x y z
#
# Youngs Moduli (GPa) = 46.81661 103.47022 121.45985
#
# Poissons Ratio (x) = 0.16793 0.22750
# Poissons Ratio (y) = 0.07598 0.40185
# Poissons Ratio (z) = 0.08769 0.34233
#
# Static dielectric constant tensor:
#      x y z
#    x 1.847270 -0.012640 0.028460 
#    y -0.012640 1.847260 0.009910 
#    z 0.028460 0.009910 1.897190 
# 
# From -- ./inp_files/98221.got.cif
#   From: 2010.05.17/outbox.cif.g08.bks.cpg/sg2_50_cif.got.tgz:98221.got - 2010.06.03 11:33:40.
