data_PCOD9058789
_publ_section_title
;
Structure prediction by ZEFSAII (Michael W. Deem and Ramdas Pophale) SiO2 
 PCOD9058789
Probable space group: P -1
;
_chemical_formula_sum "Si O2"
_cell_formula_units_Z 14
_cell_length_a 7.617383
_cell_length_b 11.673068
_cell_length_c 18.207706
_cell_angle_alpha 28.758797
_cell_angle_beta 137.639567
_cell_angle_gamma 125.178021
_cell_volume 511.859040
_symmetry_space_group_name_H-M "P -1"
_symmetry_group_IT_number 2
_symmetry_cell_setting 'triclinic'
loop_
_space_group_symop_operation_xyz
x,y,z
-x,-y,-z
loop_
_atom_site_type_symbol
_atom_site_label
_atom_site_fract_x
_atom_site_fract_y
_atom_site_fract_z
Si Si1 0.748162 0.169561 0.867742
Si Si2 0.703452 0.551851 0.927496
Si Si3 0.867781 0.713928 0.236242
Si Si4 0.165885 0.931118 0.331171
Si Si5 0.763098 0.754180 0.419444
Si Si6 0.591363 0.522988 0.738139
Si Si7 0.778816 0.172217 0.285779
O O1 0.498358 0.294891 0.671999
O O2 0.795158 0.365686 0.831881
O O3 0.663916 0.941795 0.010363
O O4 0.000000 0.000000 0.000000
O O5 0.852471 0.336332 0.149145
O O6 0.655483 0.494253 0.860131
O O7 0.415849 0.644371 0.824474
O O8 0.167124 0.213540 0.165297
O O9 0.678806 0.580323 0.299384
O O10 0.070380 0.823136 0.287539
O O11 0.041221 0.505564 0.354120
O O12 0.468853 0.801945 0.521792
O O13 0.954253 0.873481 0.358011
O O14 0.651063 0.966034 0.323693
O O15 0.000000 0.000000 0.500000
#
# Coordination Sequence:
#
# PCOD9058789 Si02
#       7
#     2   2   2   2   2   2   2
#     4  12  27  44  74 114 152 203 254 314 383 452
#     4  11  27  48  77 113 153 202 259 312 380 461
#     4  11  23  45  76 107 151 203 254 308 381 448
#     4  11  23  46  77 116 151 199 258 314 376 455
#     4  11  24  49  76 107 156 198 252 319 384 449
#     4  11  22  50  77 111 159 204 253 312 380 463
#     4  11  26  51  75 108 158 203 250 318 391 453
#
# _framework density 27.351279999999999
#
# number of rings (size 3 to 8) (size 9 to 14) (size 15 to 20)
#    0.000    0.857    2.857    4.286    4.000    3.429 
#    2.571    0.000    0.000    0.000    0.000    0.000 
#    0.000    0.000    0.000    0.000    0.000    0.000 
#
# Total GULP energy -78402.328720 kJ/mol
# GULP energy per Si atom -5600.166337 kJ/mol
# Density = 2.728903 g / cm^3
# Si number density = 27.351280 Si / 1000 Ang^3
#
#
#
# Elastic Constant Matrix: (Units=GPa)
#
#
# Indices 1 2 3 4 5 6 
#
# 1 114.5452 44.0008 38.9652 -3.2548 0.5763 -23.2124
# 2 44.0008 175.5098 51.3884 -9.2962 -9.9067 -21.4786
# 3 38.9652 51.3884 204.3733 -6.3114 -13.1475 -17.6760
# 4 -3.2548 -9.2962 -6.3114 33.3742 -12.8278 4.6227
# 5 0.5763 -9.9067 -13.1475 -12.8278 37.9459 -14.3247
# 6 -23.2124 -21.4786 -17.6760 4.6227 -14.3247 46.6249
#
#
#
# Elastic Compliance Matrix: (Units=1/GPa)
#
#
# Indices 1 2 3 4 5 6 
#
# 1 0.010668 -0.001785 -0.001189 -0.000062 0.000527 0.004206
# 2 -0.001785 0.007093 -0.000888 0.002594 0.003532 0.002870
# 3 -0.001189 -0.000888 0.005762 0.001637 0.003079 0.001967
# 4 -0.000062 0.002594 0.001637 0.036187 0.014477 0.002645
# 5 0.000527 0.003532 0.003079 0.014477 0.038280 0.013382
# 6 0.004206 0.002870 0.001967 0.002645 0.013382 0.029459
#
#
# Mechanical properties :
#
#
# Convention : Reuss Voigt Hill
#
# Bulk Modulus (GPa) = 63.29594 84.79300 74.04447
# Shear Modulus (GPa) = 35.60248 47.59394 41.59821
#
# Velocity S-wave (km/s) = 3.61179 4.17597 3.90409
# Velocity P-wave (km/s) = 6.37067 7.37024 6.88861
#
# Compressibility (1/GPa) = 0.01579880
#
# Stress axis : x y z
#
# Youngs Moduli (GPa) = 93.73420 140.98186 173.56073
#
# Poissons Ratio (x) = 0.25168 0.20643
# Poissons Ratio (y) = 0.16733 0.15406
# Poissons Ratio (z) = 0.11149 0.12514
#
# Static dielectric constant tensor:
#      x y z
#    x 2.302280 -0.049580 -0.044240 
#    y -0.049580 2.151730 -0.005190 
#    z -0.044240 -0.005190 2.152130 
# 
# From -- ./inp_files/204587.got.cif
#   From: 2010.05.17/outbox.cif.g08.bks.cpg/sg2_103_cif.got.tgz:204587.got - 2010.06.03 11:33:40.
