data_PCOD9058970
_publ_section_title
;
Structure prediction by ZEFSAII (Michael W. Deem and Ramdas Pophale) SiO2 
 PCOD9058970
Probable space group: P -1
;
_chemical_formula_sum "Si O2"
_cell_formula_units_Z 16
_cell_length_a 5.655884
_cell_length_b 10.324330
_cell_length_c 11.290510
_cell_angle_alpha 93.381721
_cell_angle_beta 89.801834
_cell_angle_gamma 98.787604
_cell_volume 650.405210
_symmetry_space_group_name_H-M "P -1"
_symmetry_group_IT_number 2
_symmetry_cell_setting 'triclinic'
loop_
_space_group_symop_operation_xyz
x,y,z
-x,-y,-z
loop_
_atom_site_type_symbol
_atom_site_label
_atom_site_fract_x
_atom_site_fract_y
_atom_site_fract_z
Si Si1 0.206355 0.726047 0.203315
Si Si2 0.553533 0.521088 0.812555
Si Si3 0.342842 0.581990 0.584080
Si Si4 0.001248 0.326141 0.565756
Si Si5 0.262367 0.041813 0.940166
Si Si6 0.808043 0.659506 0.030379
Si Si7 0.472126 0.021696 0.708662
Si Si8 0.237922 0.105482 0.478157
O O1 0.343164 0.608304 0.239098
O O2 0.017824 0.738579 0.308681
O O3 0.361538 0.866600 0.212439
O O4 0.078787 0.685075 0.077986
O O5 0.464322 0.604008 0.711616
O O6 0.335455 0.454051 0.892309
O O7 0.751969 0.608207 0.896125
O O8 0.500000 0.500000 0.500000
O O9 0.244501 0.689131 0.508978
O O10 0.103362 0.476222 0.601596
O O11 0.172567 0.250470 0.484949
O O12 0.284381 0.201133 0.945685
O O13 0.264879 0.980782 0.803234
O O14 0.500000 0.000000 0.000000
O O15 0.000000 0.000000 0.000000
O O16 0.389928 0.088982 0.594447
O O17 0.629933 0.922298 0.644523
O O18 0.000000 0.000000 0.500000
#
# Coordination Sequence:
#
# PCOD9058970 Si02
#       8
#     2   2   2   2   2   2   2   2
#     4  12  20  42  75 102 141 192 249 306 380 450
#     4  11  23  43  71 106 138 187 252 310 370 439
#     4  11  23  42  65 101 148 189 233 296 389 458
#     4  11  23  39  67 106 144 192 233 304 379 461
#     4  12  28  52  76 108 152 209 254 312 396 468
#     4  11  25  45  73 102 139 188 259 314 362 448
#     4  11  25  44  75 108 142 196 254 316 378 463
#     4  11  24  43  73 112 142 186 254 314 373 447
#
# _framework density 24.600048999999999
#
# number of rings (size 3 to 8) (size 9 to 14) (size 15 to 20)
#    0.000    0.750    5.000    2.625    1.750    0.000 
#    4.500    0.000    0.000    0.000    0.000    0.000 
#    0.000    0.000    0.000    0.000    0.000    0.000 
#
# Total GULP energy -89446.603333 kJ/mol
# GULP energy per Si atom -5590.412708 kJ/mol
# Density = 2.454406 g / cm^3
# Si number density = 24.600049 Si / 1000 Ang^3
#
#
#
# Elastic Constant Matrix: (Units=GPa)
#
#
# Indices 1 2 3 4 5 6 
#
# 1 87.4922 15.6383 54.8360 2.7510 7.3603 -6.3730
# 2 15.6383 58.3234 35.0870 4.1957 7.5533 -1.2905
# 3 54.8360 35.0870 164.0463 7.7511 3.9305 2.0777
# 4 2.7510 4.1957 7.7511 31.9263 -2.2166 -5.0383
# 5 7.3603 7.5533 3.9305 -2.2166 58.2492 2.7380
# 6 -6.3730 -1.2905 2.0777 -5.0383 2.7380 47.0406
#
#
#
# Elastic Compliance Matrix: (Units=1/GPa)
#
#
# Indices 1 2 3 4 5 6 
#
# 1 0.014880 -0.000874 -0.004791 0.000255 -0.001543 0.002321
# 2 -0.000874 0.020157 -0.003890 -0.001703 -0.002332 0.000560
# 3 -0.004791 -0.003890 0.008596 -0.001332 0.000541 -0.001310
# 4 0.000255 -0.001703 -0.001332 0.032485 0.001353 0.003447
# 5 -0.001543 -0.002332 0.000541 0.001353 0.017736 -0.001184
# 6 0.002321 0.000560 -0.001310 0.003447 -0.001184 0.022084
#
#
# Mechanical properties :
#
#
# Convention : Reuss Voigt Hill
#
# Bulk Modulus (GPa) = 40.78010 57.88716 49.33363
# Shear Modulus (GPa) = 34.91068 41.06325 37.98696
#
# Velocity S-wave (km/s) = 3.77122 4.09006 3.93387
# Velocity P-wave (km/s) = 5.96457 6.77401 6.38213
#
# Compressibility (1/GPa) = 0.02452176
#
# Stress axis : x y z
#
# Youngs Moduli (GPa) = 67.20584 49.61007 116.33377
#
# Poissons Ratio (x) = 0.04338 0.55739
# Poissons Ratio (y) = 0.05877 0.45251
# Poissons Ratio (z) = 0.32200 0.19297
#
# Static dielectric constant tensor:
#      x y z
#    x 2.079000 0.040360 -0.048460 
#    y 0.040360 2.006930 -0.030960 
#    z -0.048460 -0.030960 1.979250 
# 
# From -- ./inp_files/363197.got.cif
#   From: 2010.05.17/outbox.cif.g08.bks.cpg/sg2_182_cif.got.tgz:363197.got - 2010.06.03 11:33:40.
