data_PCOD9058492
_publ_section_title
;
Structure prediction by ZEFSAII (Michael W. Deem and Ramdas Pophale) SiO2 
 PCOD9058492
Probable space group: P -1
;
_chemical_formula_sum "Si O2"
_cell_formula_units_Z 13
_cell_length_a 9.596982
_cell_length_b 11.826631
_cell_length_c 5.618567
_cell_angle_alpha 74.702718
_cell_angle_beta 52.399616
_cell_angle_gamma 69.790134
_cell_volume 472.931736
_symmetry_space_group_name_H-M "P -1"
_symmetry_group_IT_number 2
_symmetry_cell_setting 'triclinic'
loop_
_space_group_symop_operation_xyz
x,y,z
-x,-y,-z
loop_
_atom_site_type_symbol
_atom_site_label
_atom_site_fract_x
_atom_site_fract_y
_atom_site_fract_z
Si Si1 0.960894 0.310088 0.820372
Si Si2 0.303364 0.927923 0.282744
Si Si3 0.286980 0.506958 0.687814
Si Si4 0.500000 0.000000 0.500000
Si Si5 0.063772 0.073033 0.106062
Si Si6 0.651550 0.310193 0.836681
Si Si7 0.671429 0.707327 0.545885
O O1 0.842995 0.430302 0.999229
O O2 0.058094 0.207337 0.961686
O O3 0.810571 0.252067 0.886638
O O4 0.141240 0.314713 0.486398
O O5 0.375338 0.990084 0.391498
O O6 0.405710 0.791177 0.207526
O O7 0.102230 0.912430 0.549566
O O8 0.265029 0.006623 0.031108
O O9 0.500000 0.500000 0.500000
O O10 0.251097 0.602395 0.455326
O O11 0.268565 0.376736 0.701621
O O12 0.565052 0.845972 0.538632
O O13 0.000000 0.000000 0.000000
O O14 0.469853 0.359885 0.144049
#
# Coordination Sequence:
#
# PCOD9058492 Si02
#       7
#     2   2   2   1   2   2   2
#     4  12  26  49  80 117 157 205 266 324 399 472
#     4  11  25  45  76 113 160 211 261 327 394 473
#     4  12  26  54  79 109 158 214 260 325 398 472
#     4  12  28  52  70 122 166 204 262 332 400 466
#     4  11  22  45  77 110 156 207 267 318 395 474
#     4  12  26  52  80 113 156 210 259 330 398 467
#     4  12  29  49  78 118 159 203 269 328 389 479
#
# _framework density 27.488109000000001
#
# number of rings (size 3 to 8) (size 9 to 14) (size 15 to 20)
#    0.000    0.308    4.615    3.692    4.308    1.231 
#    8.308    0.000    0.000    0.000    0.000    0.000 
#    0.000    0.000    0.000    0.000    0.000    0.000 
#
# Total GULP energy -72525.164409 kJ/mol
# GULP energy per Si atom -5578.858801 kJ/mol
# Density = 2.742555 g / cm^3
# Si number density = 27.488109 Si / 1000 Ang^3
#
#
#
# Elastic Constant Matrix: (Units=GPa)
#
#
# Indices 1 2 3 4 5 6 
#
# 1 142.4463 48.3855 31.1578 8.6248 -18.4947 6.9586
# 2 48.3855 176.5995 25.3089 9.5710 23.7107 23.7199
# 3 31.1578 25.3089 52.3585 6.7009 -14.4828 -1.8164
# 4 8.6248 9.5710 6.7009 41.1436 6.9530 -2.3105
# 5 -18.4947 23.7107 -14.4828 6.9530 55.9438 14.5617
# 6 6.9586 23.7199 -1.8164 -2.3105 14.5617 52.7515
#
#
#
# Elastic Compliance Matrix: (Units=1/GPa)
#
#
# Indices 1 2 3 4 5 6 
#
# 1 0.009130 -0.002279 -0.003147 -0.001579 0.003727 -0.001386
# 2 -0.002279 0.007681 -0.003634 -0.000090 -0.004400 -0.002068
# 3 -0.003147 -0.003634 0.025267 -0.003807 0.007324 0.000731
# 4 -0.001579 -0.000090 -0.003807 0.026357 -0.005469 0.002782
# 5 0.003727 -0.004400 0.007324 -0.005469 0.024950 -0.005388
# 6 -0.001386 -0.002068 0.000731 0.002782 -0.005388 0.021703
#
#
# Mechanical properties :
#
#
# Convention : Reuss Voigt Hill
#
# Bulk Modulus (GPa) = 41.73967 64.56763 53.15365
# Shear Modulus (GPa) = 35.41224 47.73791 41.57507
#
# Velocity S-wave (km/s) = 3.59315 4.17186 3.89327
# Velocity P-wave (km/s) = 5.69490 6.83712 6.29198
#
# Compressibility (1/GPa) = 0.02395803
#
# Stress axis : x y z
#
# Youngs Moduli (GPa) = 109.53242 130.18856 39.57797
#
# Poissons Ratio (x) = 0.29672 0.12453
# Poissons Ratio (y) = 0.24964 0.14383
# Poissons Ratio (z) = 0.34465 0.47312
#
# Static dielectric constant tensor:
#      x y z
#    x 2.268570 -0.163780 0.290070 
#    y -0.163780 2.435670 -0.349980 
#    z 0.290070 -0.349980 1.586530 
# 
# From -- ./inp_files/26642.got.cif
#   From: 2010.05.17/outbox.cif.g08.bks.cpg/sg2_14_cif.got.tgz:26642.got - 2010.06.03 11:33:40.
