data_PCOD9058945
_publ_section_title
;
Structure prediction by ZEFSAII (Michael W. Deem and Ramdas Pophale) SiO2 
 PCOD9058945
Probable space group: P -1
;
_chemical_formula_sum "Si O2"
_cell_formula_units_Z 15
_cell_length_a 8.513181
_cell_length_b 9.135490
_cell_length_c 10.794892
_cell_angle_alpha 91.736077
_cell_angle_beta 86.756423
_cell_angle_gamma 134.579791
_cell_volume 596.972762
_symmetry_space_group_name_H-M "P -1"
_symmetry_group_IT_number 2
_symmetry_cell_setting 'triclinic'
loop_
_space_group_symop_operation_xyz
x,y,z
-x,-y,-z
loop_
_atom_site_type_symbol
_atom_site_label
_atom_site_fract_x
_atom_site_fract_y
_atom_site_fract_z
Si Si1 0.559040 0.365704 0.530432
Si Si2 0.118638 0.104278 0.687484
Si Si3 0.873380 0.649095 0.728945
Si Si4 0.107932 0.573060 0.859155
Si Si5 0.500000 0.000000 0.500000
Si Si6 0.423255 0.341618 0.893788
Si Si7 0.848520 0.180548 0.693500
Si Si8 0.423738 0.099673 0.070729
O O1 0.500000 0.500000 0.500000
O O2 0.335109 0.179782 0.614371
O O3 0.790563 0.534489 0.597696
O O4 0.565691 0.218556 0.448658
O O5 0.227437 0.252140 0.807023
O O6 0.995902 0.152506 0.621023
O O7 0.944254 0.863372 0.716907
O O8 0.072921 0.706793 0.798287
O O9 0.650970 0.470997 0.812030
O O10 0.990827 0.396321 0.759209
O O11 0.356438 0.689296 0.874720
O O12 0.000000 0.500000 0.000000
O O13 0.328188 0.869243 0.392481
O O14 0.500000 0.500000 0.000000
O O15 0.340219 0.145408 0.965384
O O16 0.737656 0.031086 0.813102
O O17 0.500000 0.000000 0.000000
#
# Coordination Sequence:
#
# PCOD9058945 Si02
#       8
#     2   2   2   2   1   2   2   2
#     4  11  27  54  78 109 152 197 260 330 375 458
#     4  11  27  46  75 107 149 201 251 317 399 453
#     4  11  23  44  69 105 146 192 249 308 386 454
#     4  12  23  42  71 107 149 196 247 309 382 451
#     4  12  28  52  82 108 152 202 264 316 390 454
#     4  11  23  39  65 104 149 195 242 309 380 460
#     4  12  27  48  70 112 149 199 260 313 380 460
#     4  12  24  40  70 106 150 194 248 312 370 454
#
# _framework density 25.126774999999999
#
# number of rings (size 3 to 8) (size 9 to 14) (size 15 to 20)
#    0.000    0.533    4.000    3.200    3.733    6.400 
#    0.000    2.000    0.000    0.000    0.000    0.000 
#    0.000    0.000    0.000    0.000    0.000    0.000 
#
# Total GULP energy -83594.613659 kJ/mol
# GULP energy per Si atom -5572.974244 kJ/mol
# Density = 2.506959 g / cm^3
# Si number density = 25.126775 Si / 1000 Ang^3
#
#
#
# Elastic Constant Matrix: (Units=GPa)
#
#
# Indices 1 2 3 4 5 6 
#
# 1 61.8640 12.8423 20.2728 -4.9206 18.2447 -4.6109
# 2 12.8423 97.6492 34.4548 26.1532 16.9619 -10.9174
# 3 20.2728 34.4548 54.8031 7.8547 24.0490 5.3360
# 4 -4.9206 26.1532 7.8547 53.2284 1.8296 -0.6659
# 5 18.2447 16.9619 24.0490 1.8296 26.9536 -5.9546
# 6 -4.6109 -10.9174 5.3360 -0.6659 -5.9546 49.1442
#
#
#
# Elastic Compliance Matrix: (Units=1/GPa)
#
#
# Indices 1 2 3 4 5 6 
#
# 1 0.020839 -0.000423 -0.003094 0.002983 -0.011084 0.000895
# 2 -0.000423 0.015759 -0.009297 -0.006357 0.000066 0.004392
# 3 -0.003094 -0.009297 0.039098 -0.000613 -0.029139 -0.010140
# 4 0.002983 -0.006357 -0.000613 0.022239 0.000874 -0.000659
# 5 -0.011084 0.000066 -0.029139 0.000874 0.072929 0.010987
# 6 0.000895 0.004392 -0.010140 -0.000659 0.010987 0.023831
#
#
# Mechanical properties :
#
#
# Convention : Reuss Voigt Hill
#
# Bulk Modulus (GPa) = 19.97170 38.82844 29.40007
# Shear Modulus (GPa) = 21.09603 35.64832 28.37218
#
# Velocity S-wave (km/s) = 2.90070 3.77070 3.36394
# Velocity P-wave (km/s) = 4.38000 5.86891 5.17825
#
# Compressibility (1/GPa) = 0.05007085
#
# Stress axis : x y z
#
# Youngs Moduli (GPa) = 47.98724 63.45595 25.57646
#
# Poissons Ratio (x) = 0.02681 0.07912
# Poissons Ratio (y) = 0.02028 0.23778
# Poissons Ratio (z) = 0.14845 0.58993
#
# Static dielectric constant tensor:
#      x y z
#    x 2.291990 -0.118290 -0.459930 
#    y -0.118290 1.940770 -0.035760 
#    z -0.459930 -0.035760 2.648860 
# 
# From -- ./inp_files/382362.got.cif
#   From: 2010.05.17/outbox.cif.g08.bks.cpg/sg2_192_cif.got.tgz:382362.got - 2010.06.03 11:33:40.
