data_PCOD9058249
_publ_section_title
;
Structure prediction by ZEFSAII (Michael W. Deem and Ramdas Pophale) SiO2 
 PCOD9058249
Probable space group: P -1
;
_chemical_formula_sum "Si O2"
_cell_formula_units_Z 14
_cell_length_a 17.207158
_cell_length_b 6.045280
_cell_length_c 14.625812
_cell_angle_alpha 120.392845
_cell_angle_beta 27.111762
_cell_angle_gamma 125.039323
_cell_volume 567.630351
_symmetry_space_group_name_H-M "P -1"
_symmetry_group_IT_number 2
_symmetry_cell_setting 'triclinic'
loop_
_space_group_symop_operation_xyz
x,y,z
-x,-y,-z
loop_
_atom_site_type_symbol
_atom_site_label
_atom_site_fract_x
_atom_site_fract_y
_atom_site_fract_z
Si Si1 0.628252 0.716257 0.685841
Si Si2 0.051564 0.433816 0.533019
Si Si3 0.066768 0.991732 0.686686
Si Si4 0.636399 0.845926 0.088396
Si Si5 0.081825 0.276168 0.914330
Si Si6 0.568085 0.349293 0.315698
Si Si7 0.711113 0.961700 0.827733
O O1 0.504859 0.442038 0.803506
O O2 0.537011 0.689107 0.676569
O O3 0.624242 0.937666 0.812338
O O4 0.838774 0.809890 0.454230
O O5 0.126060 0.722959 0.563849
O O6 0.188167 0.265824 0.339989
O O7 0.000000 0.500000 0.500000
O O8 0.866163 0.248302 0.732190
O O9 0.136426 0.151953 0.739506
O O10 0.849655 0.892565 0.888702
O O11 0.585220 0.054644 0.253798
O O12 0.620028 0.903068 0.009668
O O13 0.229213 0.456678 0.866702
O O14 0.000000 0.500000 0.000000
O O15 0.000000 0.000000 0.000000
O O16 0.500000 0.500000 0.500000
#
# Coordination Sequence:
#
# PCOD9058249 Si02
#       7
#     2   2   2   2   2   2   2
#     4  12  28  49  75 117 156 208 260 333 407 483
#     4  11  22  44  76 114 153 200 267 318 396 494
#     4  12  25  51  79 112 158 213 262 338 412 485
#     4  12  28  48  77 115 157 204 272 327 403 504
#     4  12  28  52  85 118 158 219 282 342 417 490
#     4  12  29  52  73 114 155 204 277 341 398 490
#     4  11  25  45  76 114 161 207 258 333 407 492
#
# _framework density 24.663941000000001
#
# number of rings (size 3 to 8) (size 9 to 14) (size 15 to 20)
#    0.000    0.286    5.714    2.143    6.000    3.429 
#    0.000    0.000    0.000    0.000    0.000    0.000 
#    0.000    0.000    0.000    0.000    0.000    0.000 
#
# Total GULP energy -78150.668029 kJ/mol
# GULP energy per Si atom -5582.190574 kJ/mol
# Density = 2.460780 g / cm^3
# Si number density = 24.663941 Si / 1000 Ang^3
#
#
#
# Elastic Constant Matrix: (Units=GPa)
#
#
# Indices 1 2 3 4 5 6 
#
# 1 112.8888 25.2969 41.7902 0.9334 4.1727 13.7357
# 2 25.2969 95.2181 67.9523 -8.8777 -5.7267 19.4167
# 3 41.7902 67.9523 124.0329 -13.1117 32.3382 -6.7999
# 4 0.9334 -8.8777 -13.1117 57.1853 13.7689 8.9050
# 5 4.1727 -5.7267 32.3382 13.7689 42.4434 -2.9785
# 6 13.7357 19.4167 -6.7999 8.9050 -2.9785 48.8794
#
#
#
# Elastic Compliance Matrix: (Units=1/GPa)
#
#
# Indices 1 2 3 4 5 6 
#
# 1 0.011347 0.003798 -0.007872 -0.001976 0.005679 -0.005086
# 2 0.003798 0.033800 -0.027984 -0.005023 0.026023 -0.015886
# 3 -0.007872 -0.027984 0.036473 0.009805 -0.032947 0.014608
# 4 -0.001976 -0.005023 0.009805 0.022898 -0.015466 -0.001200
# 5 0.005679 0.026023 -0.032947 -0.015466 0.055912 -0.010292
# 6 -0.005086 -0.015886 0.014608 -0.001200 -0.010292 0.029822
#
#
# Mechanical properties :
#
#
# Convention : Reuss Voigt Hill
#
# Bulk Modulus (GPa) = 57.13028 66.91319 62.02174
# Shear Modulus (GPa) = 19.21576 42.84164 31.02870
#
# Velocity S-wave (km/s) = 2.79427 4.17227 3.55076
# Velocity P-wave (km/s) = 5.79865 7.09925 6.48166
#
# Compressibility (1/GPa) = 0.01750385
#
# Stress axis : x y z
#
# Youngs Moduli (GPa) = 88.13179 29.58554 27.41736
#
# Poissons Ratio (x) = -0.11236 0.21583
# Poissons Ratio (y) = -0.33470 0.76725
# Poissons Ratio (z) = 0.69376 0.82792
#
# Static dielectric constant tensor:
#      x y z
#    x 2.073640 -0.061390 -0.127530 
#    y -0.061390 1.961740 0.016020 
#    z -0.127530 0.016020 2.065720 
# 
# From -- ./inp_files/536439.got.cif
#   From: 2010.05.17/outbox.cif.g08.bks.cpg/sg2_269_cif.got.tgz:536439.got - 2010.06.03 11:33:40.
