data_PCOD9058013
_publ_section_title
;
Structure prediction by ZEFSAII (Michael W. Deem and Ramdas Pophale) SiO2 
 PCOD9058013
Probable space group: P -1
;
_chemical_formula_sum "Si O2"
_cell_formula_units_Z 16
_cell_length_a 9.934975
_cell_length_b 13.801247
_cell_length_c 9.392390
_cell_angle_alpha 51.388951
_cell_angle_beta 68.391275
_cell_angle_gamma 52.287504
_cell_volume 795.898737
_symmetry_space_group_name_H-M "P -1"
_symmetry_group_IT_number 2
_symmetry_cell_setting 'triclinic'
loop_
_space_group_symop_operation_xyz
x,y,z
-x,-y,-z
loop_
_atom_site_type_symbol
_atom_site_label
_atom_site_fract_x
_atom_site_fract_y
_atom_site_fract_z
Si Si1 0.232682 0.333523 0.973695
Si Si2 0.130787 0.849007 0.508593
Si Si3 0.694448 0.892936 0.064365
Si Si4 0.835812 0.098426 0.881691
Si Si5 0.175058 0.350490 0.520037
Si Si6 0.011334 0.353277 0.301253
Si Si7 0.548771 0.337126 0.955894
Si Si8 0.516364 0.342332 0.299362
O O1 0.139842 0.359582 0.135573
O O2 0.223563 0.206626 0.015358
O O3 0.140116 0.478903 0.781150
O O4 0.417802 0.303019 0.962268
O O5 0.133589 0.868967 0.319784
O O6 0.063762 0.738312 0.650940
O O7 0.321744 0.778099 0.562253
O O8 0.000000 0.000000 0.500000
O O9 0.741817 0.774216 0.278215
O O10 0.500000 0.000000 0.000000
O O11 0.755612 0.999491 0.985869
O O12 0.720723 0.242306 0.887795
O O13 0.000000 0.000000 0.000000
O O14 0.331930 0.368131 0.390561
O O15 0.000000 0.500000 0.500000
O O16 0.109746 0.296193 0.463254
O O17 0.491083 0.505796 0.815302
O O18 0.554985 0.302145 0.153559
#
# Coordination Sequence:
#
# PCOD9058013 Si02
#       8
#     2   2   2   2   2   2   2   2
#     4  11  22  44  69 100 136 181 229 279 350 409
#     4  12  26  47  70 102 141 183 235 285 350 418
#     4  12  25  44  68  98 140 179 227 282 348 413
#     4  12  27  44  70 101 138 185 226 287 353 413
#     4  12  26  44  70 108 136 178 237 290 344 411
#     4  11  24  43  71 100 135 180 228 287 341 414
#     4  11  24  45  70 101 142 179 232 282 352 411
#     4  11  26  45  72 102 139 184 233 292 340 417
#
# _framework density 20.103059999999999
#
# number of rings (size 3 to 8) (size 9 to 14) (size 15 to 20)
#    0.000    0.500    5.000    3.000    3.500    0.500 
#    0.000    1.875    0.000    0.000    0.000    0.000 
#    0.000    0.000    0.000    0.000    0.000    0.000 
#
# Total GULP energy -89358.747163 kJ/mol
# GULP energy per Si atom -5584.921698 kJ/mol
# Density = 2.005730 g / cm^3
# Si number density = 20.103060 Si / 1000 Ang^3
#
#
#
# Elastic Constant Matrix: (Units=GPa)
#
#
# Indices 1 2 3 4 5 6 
#
# 1 112.8911 25.1447 16.7212 -3.5046 19.7815 -11.3546
# 2 25.1447 111.6060 17.7629 -0.6453 15.5530 -9.5167
# 3 16.7212 17.7629 73.4958 1.5402 22.6448 -20.5190
# 4 -3.5046 -0.6453 1.5402 29.7691 2.8753 -1.9267
# 5 19.7815 15.5530 22.6448 2.8753 41.5305 -5.8002
# 6 -11.3546 -9.5167 -20.5190 -1.9267 -5.8002 36.6499
#
#
#
# Elastic Compliance Matrix: (Units=1/GPa)
#
#
# Indices 1 2 3 4 5 6 
#
# 1 0.010191 -0.001520 -0.000153 0.001701 -0.004022 0.002130
# 2 -0.001520 0.009886 -0.001016 0.000385 -0.002285 0.001186
# 3 -0.000153 -0.001016 0.019081 0.000398 -0.008719 0.009012
# 4 0.001701 0.000385 0.000398 0.034231 -0.003243 0.002136
# 5 -0.004022 -0.002285 -0.008719 -0.003243 0.031564 -0.001896
# 6 0.002130 0.001186 0.009012 0.002136 -0.001896 0.033111
#
#
# Mechanical properties :
#
#
# Convention : Reuss Voigt Hill
#
# Bulk Modulus (GPa) = 29.60382 46.36116 37.98249
# Shear Modulus (GPa) = 32.31996 37.48085 34.90040
#
# Velocity S-wave (km/s) = 4.01398 4.32259 4.17114
# Velocity P-wave (km/s) = 6.02003 6.93000 6.49098
#
# Compressibility (1/GPa) = 0.03377943
#
# Stress axis : x y z
#
# Youngs Moduli (GPa) = 98.12560 101.15242 52.40794
#
# Poissons Ratio (x) = 0.15373 0.00803
# Poissons Ratio (y) = 0.14913 0.05327
# Poissons Ratio (z) = 0.01503 0.10282
#
# Static dielectric constant tensor:
#      x y z
#    x 1.693460 -0.014500 -0.008240 
#    y -0.014500 1.806070 -0.031920 
#    z -0.008240 -0.031920 1.728550 
# 
# From -- ./inp_files/185045.got.cif
#   From: 2010.05.17/outbox.cif.g08.bks.cpg/sg2_93_cif.got.tgz:185045.got - 2010.06.03 11:33:40.
