data_PCOD9058047
_publ_section_title
;
Structure prediction by ZEFSAII (Michael W. Deem and Ramdas Pophale) SiO2 
 PCOD9058047
Probable space group: P -1
;
_chemical_formula_sum "Si O2"
_cell_formula_units_Z 16
_cell_length_a 11.687611
_cell_length_b 9.536809
_cell_length_c 16.100029
_cell_angle_alpha 56.009418
_cell_angle_beta 63.390607
_cell_angle_gamma 110.492958
_cell_volume 780.045516
_symmetry_space_group_name_H-M "P -1"
_symmetry_group_IT_number 2
_symmetry_cell_setting 'triclinic'
loop_
_space_group_symop_operation_xyz
x,y,z
-x,-y,-z
loop_
_atom_site_type_symbol
_atom_site_label
_atom_site_fract_x
_atom_site_fract_y
_atom_site_fract_z
Si Si1 0.185070 0.720241 0.493667
Si Si2 0.008842 0.818243 0.320820
Si Si3 0.476729 0.617913 0.070995
Si Si4 0.968377 0.653582 0.996395
Si Si5 0.408691 0.639243 0.906944
Si Si6 0.698514 0.332081 0.355173
Si Si7 0.108794 0.266393 0.428166
Si Si8 0.724902 0.704962 0.314254
O O1 0.214760 0.666494 0.591258
O O2 0.090048 0.474149 0.547867
O O3 0.020681 0.700072 0.558683
O O4 0.418013 0.031041 0.280726
O O5 0.938383 0.822477 0.430242
O O6 0.893407 0.795627 0.292143
O O7 0.265400 0.074553 0.131289
O O8 0.469503 0.406603 0.138268
O O9 0.355923 0.543790 0.219391
O O10 0.359637 0.573794 0.042785
O O11 0.800464 0.562573 0.016542
O O12 0.861706 0.508933 0.167569
O O13 0.167197 0.995977 0.836280
O O14 0.000000 0.500000 0.000000
O O15 0.669654 0.501510 0.330681
O O16 0.500000 0.000000 0.500000
O O17 0.000000 0.000000 0.500000
O O18 0.500000 0.500000 0.500000
#
# Coordination Sequence:
#
# PCOD9058047 Si02
#       8
#     2   2   2   2   2   2   2   2
#     4  11  24  44  66  97 140 179 223 292 349 407
#     4  11  25  47  67  98 145 176 225 293 350 405
#     4  11  23  43  70 103 132 185 227 277 350 410
#     4  12  26  43  71 103 140 186 233 289 353 423
#     4  11  22  44  69  96 144 175 223 289 347 407
#     4  11  24  45  69  98 137 182 236 288 352 411
#     4  12  24  40  71 102 130 180 231 276 346 421
#     4  11  26  47  69 100 138 185 234 294 351 418
#
# _framework density 20.511624000000001
#
# number of rings (size 3 to 8) (size 9 to 14) (size 15 to 20)
#    0.000    0.750    5.000    2.250    3.500    2.500 
#    4.500    0.000    0.000    0.000    0.000    0.000 
#    0.000    0.000    0.000    0.000    0.000    0.000 
#
# Total GULP energy -89301.306378 kJ/mol
# GULP energy per Si atom -5581.331649 kJ/mol
# Density = 2.046494 g / cm^3
# Si number density = 20.511624 Si / 1000 Ang^3
#
#
#
# Elastic Constant Matrix: (Units=GPa)
#
#
# Indices 1 2 3 4 5 6 
#
# 1 39.9752 6.4566 7.2507 -3.2957 11.4867 -2.7904
# 2 6.4566 141.3362 63.3939 -8.9800 4.1437 -25.9565
# 3 7.2507 63.3939 161.2439 -15.9862 2.1050 -6.5008
# 4 -3.2957 -8.9800 -15.9862 45.4093 -6.7651 5.0125
# 5 11.4867 4.1437 2.1050 -6.7651 26.8002 -1.1914
# 6 -2.7904 -25.9565 -6.5008 5.0125 -1.1914 36.3535
#
#
#
# Elastic Compliance Matrix: (Units=1/GPa)
#
#
# Indices 1 2 3 4 5 6 
#
# 1 0.028839 -0.000251 -0.001008 -0.000302 -0.012252 0.001494
# 2 -0.000251 0.009906 -0.003631 -0.000178 -0.000899 0.006399
# 3 -0.001008 -0.003631 0.007825 0.002267 0.000882 -0.001554
# 4 -0.000302 -0.000178 0.002267 0.023957 0.005899 -0.002855
# 5 -0.012252 -0.000899 0.000882 0.005899 0.044088 -0.000793
# 6 0.001494 0.006399 -0.001554 -0.002855 -0.000793 0.032281
#
#
# Mechanical properties :
#
#
# Convention : Reuss Voigt Hill
#
# Bulk Modulus (GPa) = 27.18123 55.19528 41.18826
# Shear Modulus (GPa) = 29.59647 39.40954 34.50301
#
# Velocity S-wave (km/s) = 3.80269 4.38805 4.10581
# Velocity P-wave (km/s) = 5.70622 7.25541 6.52694
#
# Compressibility (1/GPa) = 0.03679009
#
# Stress axis : x y z
#
# Youngs Moduli (GPa) = 34.67538 100.95149 127.79159
#
# Poissons Ratio (x) = 0.02533 0.12880
# Poissons Ratio (y) = 0.00870 0.46403
# Poissons Ratio (z) = 0.03495 0.36657
#
# Static dielectric constant tensor:
#      x y z
#    x 1.793890 -0.131560 0.062360 
#    y -0.131560 2.023690 -0.132240 
#    z 0.062360 -0.132240 1.785130 
# 
# From -- ./inp_files/245873.got.cif
#   From: 2010.05.17/outbox.cif.g08.bks.cpg/sg2_123_cif.got.tgz:245873.got - 2010.06.03 11:33:40.
