data_PCOD9058560
_publ_section_title
;
Structure prediction by ZEFSAII (Michael W. Deem and Ramdas Pophale) SiO2 
 PCOD9058560
Probable space group: P -1
;
_chemical_formula_sum "Si O2"
_cell_formula_units_Z 11
_cell_length_a 12.198426
_cell_length_b 8.228724
_cell_length_c 12.023955
_cell_angle_alpha 114.282058
_cell_angle_beta 34.798057
_cell_angle_gamma 90.196525
_cell_volume 481.077616
_symmetry_space_group_name_H-M "P -1"
_symmetry_group_IT_number 2
_symmetry_cell_setting 'triclinic'
loop_
_space_group_symop_operation_xyz
x,y,z
-x,-y,-z
loop_
_atom_site_type_symbol
_atom_site_label
_atom_site_fract_x
_atom_site_fract_y
_atom_site_fract_z
Si Si1 0.368642 0.272586 0.202534
Si Si2 0.123320 0.235844 0.801693
Si Si3 0.000000 0.000000 0.500000
Si Si4 0.816668 0.099019 0.916313
Si Si5 0.337764 0.084042 0.819956
Si Si6 0.179862 0.504338 0.198650
O O1 0.364203 0.363457 0.110121
O O2 0.090401 0.412623 0.517471
O O3 0.535435 0.280439 0.152673
O O4 0.500000 0.000000 0.000000
O O5 0.232719 0.103251 0.791262
O O6 0.933051 0.204337 0.903603
O O7 0.362104 0.117219 0.488210
O O8 0.000000 0.500000 0.000000
O O9 0.982114 0.936101 0.627215
O O10 0.872583 0.261713 0.720428
O O11 0.791139 0.960300 0.991689
O O12 0.282656 0.322345 0.962604
#
# Coordination Sequence:
#
# PCOD9058560 Si02
#       6
#     2   2   1   2   2   2
#     4  11  22  46  71 108 151 199 244 307 376 451
#     4  11  28  53  75 111 146 197 263 314 375 449
#     4  12  26  44  70 120 150 194 246 302 378 454
#     4  12  26  46  79 111 148 200 251 300 387 443
#     4  11  26  52  78 102 157 197 249 323 368 443
#     4  11  24  46  72 109 155 197 248 306 378 450
#
# _framework density 22.865334000000001
#
# number of rings (size 3 to 8) (size 9 to 14) (size 15 to 20)
#    0.000    0.727    3.636    2.727    7.636    1.455 
#   16.364    0.000    0.000    0.000    0.000    0.000 
#    0.000    0.000    0.000    0.000    0.000    0.000 
#
# Total GULP energy -61364.808854 kJ/mol
# GULP energy per Si atom -5578.618987 kJ/mol
# Density = 2.281329 g / cm^3
# Si number density = 22.865334 Si / 1000 Ang^3
#
#
#
# Elastic Constant Matrix: (Units=GPa)
#
#
# Indices 1 2 3 4 5 6 
#
# 1 154.7721 54.1062 29.8971 -1.3640 -15.0231 17.8724
# 2 54.1062 129.6934 46.4249 0.4448 8.1937 12.6730
# 3 29.8971 46.4249 113.8936 7.5760 20.5478 25.2631
# 4 -1.3640 0.4448 7.5760 38.9542 0.8711 15.8207
# 5 -15.0231 8.1937 20.5478 0.8711 34.1754 -4.9195
# 6 17.8724 12.6730 25.2631 15.8207 -4.9195 42.0484
#
#
#
# Elastic Compliance Matrix: (Units=1/GPa)
#
#
# Indices 1 2 3 4 5 6 
#
# 1 0.008591 -0.003182 -0.001652 0.001156 0.005285 -0.001517
# 2 -0.003182 0.010253 -0.002875 0.000578 -0.002213 -0.000486
# 3 -0.001652 -0.002875 0.013879 0.000820 -0.009583 -0.008200
# 4 0.001156 0.000578 0.000820 0.030940 -0.002802 -0.013127
# 5 0.005285 -0.002213 -0.009583 -0.002802 0.039363 0.009837
# 6 -0.001517 -0.000486 -0.008200 -0.013127 0.009837 0.035590
#
#
# Mechanical properties :
#
#
# Convention : Reuss Voigt Hill
#
# Bulk Modulus (GPa) = 57.79121 73.24617 65.51869
# Shear Modulus (GPa) = 31.28879 40.89768 36.09323
#
# Velocity S-wave (km/s) = 3.70319 4.23381 3.97736
# Velocity P-wave (km/s) = 6.60411 7.48355 7.05754
#
# Compressibility (1/GPa) = 0.01730367
#
# Stress axis : x y z
#
# Youngs Moduli (GPa) = 116.40036 97.53580 72.05307
#
# Poissons Ratio (x) = 0.31040 0.11903
# Poissons Ratio (y) = 0.37043 0.20715
# Poissons Ratio (z) = 0.19228 0.28042
#
# Static dielectric constant tensor:
#      x y z
#    x 1.733590 0.144320 -0.005700 
#    y 0.144320 1.643410 -0.086990 
#    z -0.005700 -0.086990 1.847870 
# 
# From -- ./inp_files/63389.got.cif
#   From: 2010.05.17/outbox.cif.g08.bks.cpg/sg2_32_cif.got.tgz:63389.got - 2010.06.03 11:33:40.
