data_PCOD9058996
_publ_section_title
;
Structure prediction by ZEFSAII (Michael W. Deem and Ramdas Pophale) SiO2 
 PCOD9058996
Probable space group: P -1
;
_chemical_formula_sum "Si O2"
_cell_formula_units_Z 16
_cell_length_a 13.039136
_cell_length_b 5.577543
_cell_length_c 26.748446
_cell_angle_alpha 53.701243
_cell_angle_beta 151.552467
_cell_angle_gamma 116.757170
_cell_volume 734.203329
_symmetry_space_group_name_H-M "P -1"
_symmetry_group_IT_number 2
_symmetry_cell_setting 'triclinic'
loop_
_space_group_symop_operation_xyz
x,y,z
-x,-y,-z
loop_
_atom_site_type_symbol
_atom_site_label
_atom_site_fract_x
_atom_site_fract_y
_atom_site_fract_z
Si Si1 0.143079 0.939117 0.228572
Si Si2 0.904421 0.504497 0.075058
Si Si3 0.709404 0.635456 0.227135
Si Si4 0.707993 0.239037 0.118694
Si Si5 0.473186 0.957111 0.552216
Si Si6 0.031924 0.415242 0.312238
Si Si7 0.619689 0.320286 0.730418
Si Si8 0.521523 0.031214 0.193396
O O1 0.320054 0.879962 0.267896
O O2 0.051202 0.658296 0.246676
O O3 0.295207 0.002573 0.331453
O O4 0.953134 0.212548 0.095380
O O5 0.848268 0.325464 0.122255
O O6 0.137469 0.611171 0.161539
O O7 0.710865 0.785224 0.949510
O O8 0.949318 0.556685 0.313085
O O9 0.626075 0.320053 0.221559
O O10 0.620066 0.923290 0.117356
O O11 0.645079 0.787863 0.235247
O O12 0.855274 0.240032 0.231838
O O13 0.500000 0.500000 0.000000
O O14 0.459178 0.623350 0.606420
O O15 0.500000 0.000000 0.500000
O O16 0.263298 0.201588 0.446527
O O17 0.524805 0.159354 0.754908
#
# Coordination Sequence:
#
# PCOD9058996 Si02
#       8
#     2   2   2   2   2   2   2   2
#     4  11  23  39  72 110 139 179 234 305 368 424
#     4  11  23  41  70 106 141 187 240 297 368 415
#     4  12  27  46  69 103 145 196 240 285 354 426
#     4  12  23  42  71 109 145 182 238 299 351 426
#     4  11  24  43  72 111 140 179 237 309 372 413
#     4  12  23  42  72 108 143 179 242 303 366 414
#     4  11  26  46  68 103 145 185 245 296 362 432
#     4  12  29  47  69 100 154 200 237 285 354 443
#
# _framework density 21.792328000000001
#
# number of rings (size 3 to 8) (size 9 to 14) (size 15 to 20)
#    0.000    0.500    6.250    1.500    7.000    1.500 
#    0.000    1.250    0.000    0.000    0.000    0.000 
#    0.000    0.000    0.000    0.000    0.000    0.000 
#
# Total GULP energy -89135.402563 kJ/mol
# GULP energy per Si atom -5570.962660 kJ/mol
# Density = 2.174273 g / cm^3
# Si number density = 21.792328 Si / 1000 Ang^3
#
#
#
# Elastic Constant Matrix: (Units=GPa)
#
#
# Indices 1 2 3 4 5 6 
#
# 1 135.2547 72.0304 75.5108 -41.2282 6.3615 10.4979
# 2 72.0304 39.3670 -10.1650 -10.3171 -15.2281 5.4873
# 3 75.5108 -10.1650 23.1593 -11.6615 13.4780 -8.7358
# 4 -41.2282 -10.3171 -11.6615 29.0025 -5.2352 3.4941
# 5 6.3615 -15.2281 13.4780 -5.2352 37.9731 -14.5048
# 6 10.4979 5.4873 -8.7358 3.4941 -14.5048 36.9065
#
#
#
# Elastic Compliance Matrix: (Units=1/GPa)
#
#
# Indices 1 2 3 4 5 6 
#
# 1 -0.001724 0.007292 0.011624 0.004671 0.000455 0.001894
# 2 0.007292 0.014109 -0.021499 0.009451 0.011167 -0.005767
# 3 0.011624 -0.021499 0.006797 0.009751 -0.013434 -0.004704
# 4 0.004671 0.009451 0.009751 0.049716 0.005225 -0.003079
# 5 0.000455 0.011167 -0.013434 0.005225 0.040168 0.010322
# 6 0.001894 -0.005767 -0.004704 -0.003079 0.010322 0.030649
#
#
# Mechanical properties :
#
#
# Convention : Reuss Voigt Hill
#
# Bulk Modulus (GPa) = 71.34903 52.50371 61.92637
# Shear Modulus (GPa) = 33.43324 24.80340 29.11832
#
# Velocity S-wave (km/s) = 3.92110 3.37734 3.65934
# Velocity P-wave (km/s) = 7.30148 6.27325 6.80681
#
# Compressibility (1/GPa) = 0.01401561
#
# Stress axis : x y z
#
# Youngs Moduli (GPa) = -579.99911 70.87897 147.12864
#
# Poissons Ratio (x) = -0.51686 -1.71021
# Poissons Ratio (y) = 4.22946 3.16310
# Poissons Ratio (z) = 6.74186 1.52382
#
# Static dielectric constant tensor:
#      x y z
#    x 1.888100 -0.101200 0.024150 
#    y -0.101200 1.971120 0.017790 
#    z 0.024150 0.017790 1.762260 
# 
# From -- ./inp_files/370275.got.cif
#   From: 2010.05.17/outbox.cif.g08.bks.cpg/sg2_186_cif.got.tgz:370275.got - 2010.06.03 11:33:40.
