data_PCOD9058836
_publ_section_title
;
Structure prediction by ZEFSAII (Michael W. Deem and Ramdas Pophale) SiO2 
 PCOD9058836
Probable space group: P -1
;
_chemical_formula_sum "Si O2"
_cell_formula_units_Z 14
_cell_length_a 19.628955
_cell_length_b 21.719939
_cell_length_c 12.047555
_cell_angle_alpha 23.391859
_cell_angle_beta 155.457058
_cell_angle_gamma 161.072694
_cell_volume 626.233879
_symmetry_space_group_name_H-M "P -1"
_symmetry_group_IT_number 2
_symmetry_cell_setting 'triclinic'
loop_
_space_group_symop_operation_xyz
x,y,z
-x,-y,-z
loop_
_atom_site_type_symbol
_atom_site_label
_atom_site_fract_x
_atom_site_fract_y
_atom_site_fract_z
Si Si1 0.831533 0.203629 0.605337
Si Si2 0.304730 0.322347 0.618855
Si Si3 0.217053 0.462593 0.063131
Si Si4 0.433019 0.037964 0.604792
Si Si5 0.019632 0.160645 0.679678
Si Si6 0.708139 0.516606 0.269738
Si Si7 0.763896 0.027883 0.031892
O O1 0.736018 0.098735 0.755805
O O2 0.091552 0.320537 0.788998
O O3 0.691733 0.035784 0.577383
O O4 0.818106 0.379106 0.275132
O O5 0.263133 0.456320 0.271589
O O6 0.562402 0.457564 0.804413
O O7 0.150405 0.201997 0.694585
O O8 0.250540 0.158380 0.716695
O O9 0.998639 0.231797 0.087342
O O10 0.606624 0.286424 0.469674
O O11 0.570891 0.967151 0.926350
O O12 0.226604 0.933300 0.553810
O O13 0.159867 0.380908 0.588401
O O14 0.000000 0.000000 0.000000
O O15 0.500000 0.500000 0.000000
#
# Coordination Sequence:
#
# PCOD9058836 Si02
#       7
#     2   2   2   2   2   2   2
#     4  11  24  39  68 103 133 171 224 281 328 388
#     4  11  26  46  68  96 140 178 219 275 331 404
#     4  11  25  44  68  99 135 179 221 269 340 393
#     4  11  23  40  62  99 134 167 215 281 334 381
#     4  11  24  41  66  97 133 173 223 272 331 389
#     4  11  23  37  63  97 138 168 217 277 334 390
#     4  12  24  40  73 100 131 171 229 279 326 392
#
# _framework density 22.355865000000001
#
# number of rings (size 3 to 8) (size 9 to 14) (size 15 to 20)
#    0.000    0.857    4.286    3.000    4.000    0.000 
#    0.000    3.571    0.000    0.000    0.000    0.000 
#    0.000    0.000    0.000    0.000    0.000    0.000 
#
# Total GULP energy -78287.844243 kJ/mol
# GULP energy per Si atom -5591.988874 kJ/mol
# Density = 2.230498 g / cm^3
# Si number density = 22.355865 Si / 1000 Ang^3
#
#
#
# Elastic Constant Matrix: (Units=GPa)
#
#
# Indices 1 2 3 4 5 6 
#
# 1 78.2543 33.5315 18.2038 7.1791 18.8809 28.9176
# 2 33.5315 126.9468 6.0908 -4.7426 15.2969 -18.2833
# 3 18.2038 6.0908 78.5455 -5.1761 2.6607 8.4706
# 4 7.1791 -4.7426 -5.1761 16.1623 5.9552 1.4734
# 5 18.8809 15.2969 2.6607 5.9552 24.5702 1.0461
# 6 28.9176 -18.2833 8.4706 1.4734 1.0461 44.5648
#
#
#
# Elastic Compliance Matrix: (Units=1/GPa)
#
#
# Indices 1 2 3 4 5 6 
#
# 1 0.030379 -0.009852 -0.004138 -0.010816 -0.013192 -0.022301
# 2 -0.009852 0.012738 0.000735 0.008412 -0.002958 0.011271
# 3 -0.004138 0.000735 0.014080 0.006714 -0.000434 0.000098
# 4 -0.010816 0.008412 0.006714 0.076753 -0.016555 0.007045
# 5 -0.013192 -0.002958 -0.000434 -0.016555 0.056455 0.006651
# 6 -0.022301 0.011271 0.000098 0.007045 0.006651 0.041126
#
#
# Mechanical properties :
#
#
# Convention : Reuss Voigt Hill
#
# Bulk Modulus (GPa) = 32.58701 44.37764 38.48233
# Shear Modulus (GPa) = 18.63792 32.12083 25.37937
#
# Velocity S-wave (km/s) = 2.89051 3.79462 3.37299
# Velocity P-wave (km/s) = 5.07427 6.25240 5.69389
#
# Compressibility (1/GPa) = 0.03068708
#
# Stress axis : x y z
#
# Youngs Moduli (GPa) = 32.91745 78.50335 71.02278
#
# Poissons Ratio (x) = 0.77342 0.29387
# Poissons Ratio (y) = 0.32431 -0.05217
# Poissons Ratio (z) = 0.13620 -0.05767
#
# Static dielectric constant tensor:
#      x y z
#    x 1.852340 0.011610 0.039120 
#    y 0.011610 1.839220 0.011910 
#    z 0.039120 0.011910 1.850030 
# 
# From -- ./inp_files/467062.got.cif
#   From: 2010.05.17/outbox.cif.g08.bks.cpg/sg2_234_cif.got.tgz:467062.got - 2010.06.03 11:33:40.
