data_PCOD9058590
_publ_section_title
;
Structure prediction by ZEFSAII (Michael W. Deem and Ramdas Pophale) SiO2 
 PCOD9058590
Probable space group: P -1
;
_chemical_formula_sum "Si O2"
_cell_formula_units_Z 12
_cell_length_a 11.348744
_cell_length_b 14.767466
_cell_length_c 11.764610
_cell_angle_alpha 27.822545
_cell_angle_beta 36.980031
_cell_angle_gamma 55.264890
_cell_volume 483.496329
_symmetry_space_group_name_H-M "P -1"
_symmetry_group_IT_number 2
_symmetry_cell_setting 'triclinic'
loop_
_space_group_symop_operation_xyz
x,y,z
-x,-y,-z
loop_
_atom_site_type_symbol
_atom_site_label
_atom_site_fract_x
_atom_site_fract_y
_atom_site_fract_z
Si Si1 0.881303 0.949036 0.482190
Si Si2 0.284673 0.396373 0.698297
Si Si3 0.354488 0.130255 0.467743
Si Si4 0.845931 0.261068 0.505658
Si Si5 0.412831 0.890096 0.360467
Si Si6 0.574368 0.622704 0.646721
O O1 0.672442 0.946552 0.707140
O O2 0.848332 0.993880 0.326636
O O3 0.922687 0.740908 0.684316
O O4 0.104703 0.145716 0.146596
O O5 0.500000 0.500000 0.500000
O O6 0.152936 0.532654 0.664956
O O7 0.345529 0.390299 0.527224
O O8 0.282024 0.188560 0.579538
O O9 0.500000 0.000000 0.500000
O O10 0.496703 0.380077 0.027946
O O11 0.729618 0.228081 0.509683
O O12 0.670242 0.045952 0.952075
O O13 0.394299 0.708771 0.666157
#
# Coordination Sequence:
#
# PCOD9058590 Si02
#       6
#     2   2   2   2   2   2
#     4  12  26  44  73 109 138 196 243 284 361 425
#     4  12  25  45  73 108 149 184 234 298 362 427
#     4  11  26  47  74 102 144 192 244 297 348 421
#     4  11  24  44  69 107 149 187 229 294 362 422
#     4  11  22  46  73 103 149 183 234 300 353 428
#     4  11  24  47  74 101 144 189 236 295 356 417
#
# _framework density 24.819215
#
# number of rings (size 3 to 8) (size 9 to 14) (size 15 to 20)
#    0.000    0.667    5.000    2.500    2.333    2.667 
#    0.000    1.667    0.000    0.000    0.000    0.000 
#    0.000    0.000    0.000    0.000    0.000    0.000 
#
# Total GULP energy -67138.216697 kJ/mol
# GULP energy per Si atom -5594.851391 kJ/mol
# Density = 2.476273 g / cm^3
# Si number density = 24.819215 Si / 1000 Ang^3
#
#
#
# Elastic Constant Matrix: (Units=GPa)
#
#
# Indices 1 2 3 4 5 6 
#
# 1 102.5090 45.1277 30.1662 -15.4886 4.6719 5.5341
# 2 45.1277 222.0379 34.6591 -13.3468 8.4967 -6.2816
# 3 30.1662 34.6591 71.6580 -14.3898 4.7088 -7.4829
# 4 -15.4886 -13.3468 -14.3898 37.4756 -0.7895 11.0932
# 5 4.6719 8.4967 4.7088 -0.7895 37.3320 -9.0192
# 6 5.5341 -6.2816 -7.4829 11.0932 -9.0192 62.3522
#
#
#
# Elastic Compliance Matrix: (Units=1/GPa)
#
#
# Indices 1 2 3 4 5 6 
#
# 1 0.012405 -0.001724 -0.003817 0.003786 -0.001223 -0.002583
# 2 -0.001724 0.005165 -0.001615 0.000400 -0.000672 0.000311
# 3 -0.003817 -0.001615 0.017370 0.004083 -0.000921 0.001401
# 4 0.003786 0.000400 0.004083 0.031605 -0.001785 -0.005687
# 5 -0.001223 -0.000672 -0.000921 -0.001785 0.028217 0.004329
# 6 -0.002583 0.000311 0.001401 -0.005687 0.004329 0.018105
#
#
# Mechanical properties :
#
#
# Convention : Reuss Voigt Hill
#
# Bulk Modulus (GPa) = 48.48149 68.45677 58.46913
# Shear Modulus (GPa) = 37.29806 46.51541 41.90673
#
# Velocity S-wave (km/s) = 3.88079 4.33386 4.11357
# Velocity P-wave (km/s) = 6.29738 7.25846 6.79493
#
# Compressibility (1/GPa) = 0.02062643
#
# Stress axis : x y z
#
# Youngs Moduli (GPa) = 80.61383 193.61569 57.57019
#
# Poissons Ratio (x) = 0.33380 0.21977
# Poissons Ratio (y) = 0.13898 0.09299
# Poissons Ratio (z) = 0.30773 0.31274
#
# Static dielectric constant tensor:
#      x y z
#    x 1.981240 0.038780 -0.000650 
#    y 0.038780 1.972910 -0.012360 
#    z -0.000650 -0.012360 2.030600 
# 
# From -- ./inp_files/432204.got.cif
#   From: 2010.05.17/outbox.cif.g08.bks.cpg/sg2_217_cif.got.tgz:432204.got - 2010.06.03 11:33:40.
