data_PCOD9058141
_publ_section_title
;
Structure prediction by ZEFSAII (Michael W. Deem and Ramdas Pophale) SiO2 
 PCOD9058141
Probable space group: P -1
;
_chemical_formula_sum "Si O2"
_cell_formula_units_Z 16
_cell_length_a 8.721297
_cell_length_b 16.042719
_cell_length_c 18.762268
_cell_angle_alpha 33.496761
_cell_angle_beta 135.835652
_cell_angle_gamma 148.487603
_cell_volume 757.056047
_symmetry_space_group_name_H-M "P -1"
_symmetry_group_IT_number 2
_symmetry_cell_setting 'triclinic'
loop_
_space_group_symop_operation_xyz
x,y,z
-x,-y,-z
loop_
_atom_site_type_symbol
_atom_site_label
_atom_site_fract_x
_atom_site_fract_y
_atom_site_fract_z
Si Si1 0.137211 0.780496 0.194129
Si Si2 0.145443 0.731952 0.393476
Si Si3 0.498476 0.667207 0.409384
Si Si4 0.580013 0.203268 0.957635
Si Si5 0.546859 0.485776 0.835148
Si Si6 0.802073 0.675769 0.935955
Si Si7 0.669487 0.795523 0.537813
Si Si8 0.143497 0.114530 0.753402
O O1 0.184690 0.827611 0.261185
O O2 0.212134 0.636138 0.316453
O O3 0.797856 0.664317 0.150943
O O4 0.363912 0.980520 0.080372
O O5 0.456970 0.838067 0.456412
O O6 0.000000 0.500000 0.500000
O O7 0.953172 0.758468 0.355756
O O8 0.500000 0.500000 0.500000
O O9 0.576027 0.709716 0.487531
O O10 0.750782 0.861883 0.308582
O O11 0.618498 0.353709 0.921276
O O12 0.401959 0.190492 0.840370
O O13 0.893069 0.278707 0.982928
O O14 0.735470 0.620573 0.869662
O O15 0.604373 0.630415 0.687566
O O16 0.500000 0.500000 0.000000
O O17 0.878492 0.879073 0.841896
O O18 0.000000 0.000000 0.500000
#
# Coordination Sequence:
#
# PCOD9058141 Si02
#       8
#     2   2   2   2   2   2   2   2
#     4  11  23  42  73  99 133 179 240 280 331 417
#     4  11  22  44  72 102 133 183 238 282 330 420
#     4  11  24  42  73 100 136 176 232 286 347 395
#     4  12  25  47  73  98 134 191 236 274 345 421
#     4  12  25  46  71 101 139 184 233 282 344 413
#     4  12  29  45  65 105 147 175 224 288 354 407
#     4  11  25  46  68 100 140 182 230 275 344 417
#     4  12  24  46  70 103 140 178 230 292 345 398
#
# _framework density 21.134499999999999
#
# number of rings (size 3 to 8) (size 9 to 14) (size 15 to 20)
#    0.000    0.500    3.750    4.875    5.250    1.000 
#    2.250    1.250    0.000    0.000    0.000    0.000 
#    0.000    0.000    0.000    0.000    0.000    0.000 
#
# Total GULP energy -89439.386780 kJ/mol
# GULP energy per Si atom -5589.961674 kJ/mol
# Density = 2.108640 g / cm^3
# Si number density = 21.134500 Si / 1000 Ang^3
#
#
#
# Elastic Constant Matrix: (Units=GPa)
#
#
# Indices 1 2 3 4 5 6 
#
# 1 119.9312 42.3240 51.2864 0.4869 8.1021 10.9874
# 2 42.3240 116.3466 46.1342 -4.6490 9.3628 18.5372
# 3 51.2864 46.1342 88.5588 6.2923 4.2867 6.3345
# 4 0.4869 -4.6490 6.2923 24.8278 0.1697 -6.4997
# 5 8.1021 9.3628 4.2867 0.1697 45.1623 -1.1575
# 6 10.9874 18.5372 6.3345 -6.4997 -1.1575 48.8994
#
#
#
# Elastic Compliance Matrix: (Units=1/GPa)
#
#
# Indices 1 2 3 4 5 6 
#
# 1 0.011556 -0.001609 -0.005754 0.000628 -0.001226 -0.001187
# 2 -0.001609 0.012009 -0.005206 0.002777 -0.001799 -0.003190
# 3 -0.005754 -0.005206 0.017668 -0.005267 0.000462 0.000289
# 4 0.000628 0.002777 -0.005267 0.043500 -0.000217 0.005265
# 5 -0.001226 -0.001799 0.000462 -0.000217 0.022728 0.001407
# 6 -0.001187 -0.003190 0.000289 0.005265 0.001407 0.022622
#
#
# Mechanical properties :
#
#
# Convention : Reuss Voigt Hill
#
# Bulk Modulus (GPa) = 62.13833 67.14730 64.64281
# Shear Modulus (GPa) = 31.13611 36.11736 33.62674
#
# Velocity S-wave (km/s) = 3.84244 4.13840 3.99317
# Velocity P-wave (km/s) = 7.01078 7.39429 7.20509
#
# Compressibility (1/GPa) = 0.01609313
#
# Stress axis : x y z
#
# Youngs Moduli (GPa) = 86.53744 83.27353 56.60061
#
# Poissons Ratio (x) = 0.13400 0.32570
# Poissons Ratio (y) = 0.13925 0.29466
# Poissons Ratio (z) = 0.49796 0.43352
#
# Static dielectric constant tensor:
#      x y z
#    x 1.807720 0.041640 -0.019810 
#    y 0.041640 1.756130 -0.009220 
#    z -0.019810 -0.009220 1.786730 
# 
# From -- ./inp_files/591220.got.cif
#   From: 2010.05.17/outbox.cif.g08.bks.cpg/sg2_296_cif.got.tgz:591220.got - 2010.06.03 11:33:40.
