data_PCOD9058295
_publ_section_title
;
Structure prediction by ZEFSAII (Michael W. Deem and Ramdas Pophale) SiO2 
 PCOD9058295
Probable space group: P -1
;
_chemical_formula_sum "Si O2"
_cell_formula_units_Z 14
_cell_length_a 13.212481
_cell_length_b 5.078925
_cell_length_c 12.211282
_cell_angle_alpha 116.329664
_cell_angle_beta 53.810707
_cell_angle_gamma 99.345927
_cell_volume 587.102575
_symmetry_space_group_name_H-M "P -1"
_symmetry_group_IT_number 2
_symmetry_cell_setting 'triclinic'
loop_
_space_group_symop_operation_xyz
x,y,z
-x,-y,-z
loop_
_atom_site_type_symbol
_atom_site_label
_atom_site_fract_x
_atom_site_fract_y
_atom_site_fract_z
Si Si1 0.390533 0.320147 0.571509
Si Si2 0.887158 0.818575 0.508049
Si Si3 0.103826 0.444688 0.759105
Si Si4 0.267928 0.565361 0.309797
Si Si5 0.246709 0.358148 0.037821
Si Si6 0.088931 0.816777 0.052970
Si Si7 0.484145 0.278005 0.731716
O O1 0.500000 0.500000 0.500000
O O2 0.251969 0.429968 0.639425
O O3 0.386579 0.374481 0.713835
O O4 0.435322 0.998468 0.433158
O O5 0.944440 0.576478 0.337134
O O6 0.819329 0.646735 0.612563
O O7 0.786249 0.087803 0.575852
O O8 0.000000 0.000000 0.500000
O O9 0.051326 0.165330 0.800778
O O10 0.075549 0.693281 0.915770
O O11 0.263980 0.504425 0.171530
O O12 0.411349 0.522035 0.258177
O O13 0.173074 0.586402 0.038919
O O14 0.160812 0.098141 0.055276
O O15 0.388177 0.229588 0.881317
#
# Coordination Sequence:
#
# PCOD9058295 Si02
#       7
#     2   2   2   2   2   2   2
#     4  11  22  45  68 102 142 179 236 291 346 417
#     4  12  26  46  72 103 142 186 232 289 347 419
#     4  11  23  46  73 102 143 178 240 288 356 410
#     4  12  26  45  70 104 141 187 236 280 352 415
#     4  12  25  49  69 104 146 182 236 285 349 418
#     4  11  27  45  73 106 136 187 230 295 350 415
#     4  11  25  41  71 102 138 187 232 288 350 410
#
# _framework density 23.845918999999999
#
# number of rings (size 3 to 8) (size 9 to 14) (size 15 to 20)
#    0.000    0.571    2.857    5.143    0.000    5.714 
#    5.143    2.857    0.000    0.000    0.000    0.000 
#    0.000    0.000    0.000    0.000    0.000    0.000 
#
# Total GULP energy -78207.692543 kJ/mol
# GULP energy per Si atom -5586.263753 kJ/mol
# Density = 2.379164 g / cm^3
# Si number density = 23.845919 Si / 1000 Ang^3
#
#
#
# Elastic Constant Matrix: (Units=GPa)
#
#
# Indices 1 2 3 4 5 6 
#
# 1 109.9622 40.9448 41.3150 6.9151 20.4620 32.5333
# 2 40.9448 126.8709 43.2785 -10.6491 7.4696 13.2420
# 3 41.3150 43.2785 147.7939 -14.2344 18.1248 22.3662
# 4 6.9151 -10.6491 -14.2344 27.5300 17.6884 -3.5989
# 5 20.4620 7.4696 18.1248 17.6884 42.8951 5.4517
# 6 32.5333 13.2420 22.3662 -3.5989 5.4517 42.6546
#
#
#
# Elastic Compliance Matrix: (Units=1/GPa)
#
#
# Indices 1 2 3 4 5 6 
#
# 1 0.014617 -0.003460 -0.002034 -0.006114 -0.001808 -0.009293
# 2 -0.003460 0.009910 -0.001346 0.005292 -0.001809 0.000946
# 3 -0.002034 -0.001346 0.009569 0.008763 -0.006260 -0.001509
# 4 -0.006114 0.005292 0.008763 0.064132 -0.029114 0.007558
# 5 -0.001808 -0.001809 -0.006260 -0.029114 0.039430 -0.002272
# 6 -0.009293 0.000946 -0.001509 0.007558 -0.002272 0.031957
#
#
# Mechanical properties :
#
#
# Convention : Reuss Voigt Hill
#
# Bulk Modulus (GPa) = 48.98289 70.63373 59.80831
# Shear Modulus (GPa) = 26.30181 39.88852 33.09516
#
# Velocity S-wave (km/s) = 3.32473 4.09438 3.72946
# Velocity P-wave (km/s) = 5.94344 7.21367 6.60914
#
# Compressibility (1/GPa) = 0.02041529
#
# Stress axis : x y z
#
# Youngs Moduli (GPa) = 68.41374 100.90836 104.50426
#
# Poissons Ratio (x) = 0.34919 0.21252
# Poissons Ratio (y) = 0.23674 0.14069
# Poissons Ratio (z) = 0.13913 0.13585
#
# Static dielectric constant tensor:
#      x y z
#    x 1.994040 -0.068580 0.215440 
#    y -0.068580 1.962060 0.223790 
#    z 0.215440 0.223790 1.136380 
# 
# From -- ./inp_files/71724.got.cif
#   From: 2010.05.17/outbox.cif.g08.bks.cpg/sg2_36_cif.got.tgz:71724.got - 2010.06.03 11:33:40.
