data_PCOD9058669
_publ_section_title
;
Structure prediction by ZEFSAII (Michael W. Deem and Ramdas Pophale) SiO2 
 PCOD9058669
Probable space group: P -1
;
_chemical_formula_sum "Si O2"
_cell_formula_units_Z 16
_cell_length_a 14.113130
_cell_length_b 16.074066
_cell_length_c 21.061194
_cell_angle_alpha 153.695977
_cell_angle_beta 24.189777
_cell_angle_gamma 137.983448
_cell_volume 790.548688
_symmetry_space_group_name_H-M "P -1"
_symmetry_group_IT_number 2
_symmetry_cell_setting 'triclinic'
loop_
_space_group_symop_operation_xyz
x,y,z
-x,-y,-z
loop_
_atom_site_type_symbol
_atom_site_label
_atom_site_fract_x
_atom_site_fract_y
_atom_site_fract_z
Si Si1 0.728243 0.027880 0.161142
Si Si2 0.157128 0.803857 0.438029
Si Si3 0.853457 0.904436 0.241149
Si Si4 0.607026 0.007322 0.869822
Si Si5 0.700625 0.552905 0.706812
Si Si6 0.466945 0.800846 0.470618
Si Si7 0.600831 0.258716 0.263371
Si Si8 0.349374 0.374214 0.073430
O O1 0.539556 0.132362 0.406700
O O2 0.659449 0.154713 0.225455
O O3 0.750053 0.801149 0.978760
O O4 0.000000 0.000000 0.000000
O O5 0.406600 0.724164 0.187852
O O6 0.903782 0.954420 0.660635
O O7 0.194939 0.916555 0.554776
O O8 0.143641 0.589376 0.319615
O O9 0.737803 0.754074 0.239903
O O10 0.713549 0.006306 0.330693
O O11 0.147298 0.807204 0.978342
O O12 0.577286 0.831390 0.724876
O O13 0.500000 0.000000 0.000000
O O14 0.437712 0.230271 0.096135
O O15 0.642201 0.373190 0.586687
O O16 0.000000 0.500000 0.500000
O O17 0.578786 0.577155 0.867807
O O18 0.500000 0.500000 0.500000
#
# Coordination Sequence:
#
# PCOD9058669 Si02
#       8
#     2   2   2   2   2   2   2   2
#     4  12  24  43  68 103 136 176 233 284 334 408
#     4  11  24  43  73 100 141 178 230 285 344 410
#     4  11  22  47  67 103 142 175 229 282 346 408
#     4  12  26  44  70  98 137 182 227 283 349 404
#     4  12  24  45  70 102 136 181 235 281 337 409
#     4  11  24  40  75 101 133 184 225 283 342 405
#     4  12  28  46  66 102 143 179 224 288 347 409
#     4  11  24  44  70 102 135 182 233 282 336 408
#
# _framework density 20.239108000000002
#
# number of rings (size 3 to 8) (size 9 to 14) (size 15 to 20)
#    0.000    0.500    6.250    2.250    3.500    1.500 
#    2.250    1.250    0.000    0.000    0.000    0.000 
#    0.000    0.000    0.000    0.000    0.000    0.000 
#
# Total GULP energy -89425.560395 kJ/mol
# GULP energy per Si atom -5589.097525 kJ/mol
# Density = 2.019304 g / cm^3
# Si number density = 20.239108 Si / 1000 Ang^3
#
#
#
# Elastic Constant Matrix: (Units=GPa)
#
#
# Indices 1 2 3 4 5 6 
#
# 1 102.4131 25.3242 29.8101 9.6992 8.3012 -7.3772
# 2 25.3242 104.2891 31.2812 25.2072 -3.2659 -0.6694
# 3 29.8101 31.2812 81.0292 4.0803 6.6324 -11.7267
# 4 9.6992 25.2072 4.0803 40.0480 -4.0839 4.2750
# 5 8.3012 -3.2659 6.6324 -4.0839 41.9873 0.5369
# 6 -7.3772 -0.6694 -11.7267 4.2750 0.5369 34.7574
#
#
#
# Elastic Compliance Matrix: (Units=1/GPa)
#
#
# Indices 1 2 3 4 5 6 
#
# 1 0.011514 -0.001424 -0.003182 -0.001954 -0.002095 0.001615
# 2 -0.001424 0.013012 -0.004336 -0.007203 0.001286 -0.000648
# 3 -0.003182 -0.004336 0.015958 0.001170 -0.002173 0.004515
# 4 -0.001954 -0.007203 0.001170 0.030552 0.002663 -0.003957
# 5 -0.002095 0.001286 -0.002173 0.002663 0.024957 -0.001866
# 6 0.001615 -0.000648 0.004515 -0.003957 -0.001866 0.031140
#
#
# Mechanical properties :
#
#
# Convention : Reuss Voigt Hill
#
# Bulk Modulus (GPa) = 44.24891 51.17362 47.71126
# Shear Modulus (GPa) = 32.77574 36.77961 34.77767
#
# Velocity S-wave (km/s) = 4.02857 4.26755 4.14978
# Velocity P-wave (km/s) = 6.59922 7.04429 6.82539
#
# Compressibility (1/GPa) = 0.02259943
#
# Stress axis : x y z
#
# Youngs Moduli (GPa) = 86.84951 76.85059 62.66400
#
# Poissons Ratio (x) = 0.10946 0.19942
# Poissons Ratio (y) = 0.12370 0.27170
# Poissons Ratio (z) = 0.27639 0.33321
#
# Static dielectric constant tensor:
#      x y z
#    x 1.709700 -0.013410 0.016790 
#    y -0.013410 1.741650 -0.020770 
#    z 0.016790 -0.020770 1.749900 
# 
# From -- ./inp_files/185115.got.cif
#   From: 2010.05.17/outbox.cif.g08.bks.cpg/sg2_93_cif.got.tgz:185115.got - 2010.06.03 11:33:40.
