data_PCOD9058260
_publ_section_title
;
Structure prediction by ZEFSAII (Michael W. Deem and Ramdas Pophale) SiO2 
 PCOD9058260
Probable space group: P -1
;
_chemical_formula_sum "Si O2"
_cell_formula_units_Z 12
_cell_length_a 12.119375
_cell_length_b 7.284867
_cell_length_c 6.647649
_cell_angle_alpha 117.743147
_cell_angle_beta 108.532930
_cell_angle_gamma 54.835533
_cell_volume 423.637345
_symmetry_space_group_name_H-M "P -1"
_symmetry_group_IT_number 2
_symmetry_cell_setting 'triclinic'
loop_
_space_group_symop_operation_xyz
x,y,z
-x,-y,-z
loop_
_atom_site_type_symbol
_atom_site_label
_atom_site_fract_x
_atom_site_fract_y
_atom_site_fract_z
Si Si1 0.097922 0.596442 0.183130
Si Si2 0.162412 0.007298 0.657263
Si Si3 0.622069 0.985180 0.904161
Si Si4 0.382298 0.478879 0.529024
Si Si5 0.664399 0.589954 0.104600
Si Si6 0.202457 0.213530 0.414377
O O1 0.137349 0.430842 0.327700
O O2 0.981012 0.878317 0.258972
O O3 0.216559 0.541546 0.058940
O O4 0.000000 0.500000 0.000000
O O5 0.124937 0.143644 0.491236
O O6 0.239364 0.721168 0.517424
O O7 0.272110 0.044969 0.872437
O O8 0.606090 0.767073 0.677831
O O9 0.695165 0.024468 0.773071
O O10 0.527609 0.799372 0.033036
O O11 0.500000 0.500000 0.500000
O O12 0.385158 0.510475 0.789580
O O13 0.719372 0.715815 0.348131
#
# Coordination Sequence:
#
# PCOD9058260 Si02
#       6
#     2   2   2   2   2   2
#     4  12  25  45  79 113 149 213 255 303 396 461
#     4  12  26  48  82 112 155 205 251 319 389 451
#     4  11  25  49  79 114 152 199 264 315 379 460
#     4  11  26  48  77 120 156 198 259 321 382 450
#     4  11  25  46  77 114 155 204 257 317 381 462
#     4  11  22  44  78 108 149 197 262 307 376 455
#
# _framework density 28.326111999999998
#
# number of rings (size 3 to 8) (size 9 to 14) (size 15 to 20)
#    0.000    0.667    3.333    4.500    0.000   10.000 
#    0.000   11.667    0.000    5.000    0.000    0.000 
#    0.000    0.000    0.000    0.000    0.000    0.000 
#
# Total GULP energy -66889.536016 kJ/mol
# GULP energy per Si atom -5574.128001 kJ/mol
# Density = 2.826164 g / cm^3
# Si number density = 28.326112 Si / 1000 Ang^3
#
#
#
# Elastic Constant Matrix: (Units=GPa)
#
#
# Indices 1 2 3 4 5 6 
#
# 1 197.1903 116.5006 91.6196 2.7624 -29.1878 -30.7674
# 2 116.5006 132.7153 64.4081 -7.6128 -45.9154 -48.8392
# 3 91.6196 64.4081 226.0439 -10.6253 -49.6365 -12.9665
# 4 2.7624 -7.6128 -10.6253 62.8607 -5.1815 -2.9109
# 5 -29.1878 -45.9154 -49.6365 -5.1815 43.9811 15.7222
# 6 -30.7674 -48.8392 -12.9665 -2.9109 15.7222 73.5745
#
#
#
# Elastic Compliance Matrix: (Units=1/GPa)
#
#
# Indices 1 2 3 4 5 6 
#
# 1 0.014087 -0.015467 -0.004041 -0.004202 -0.010800 -0.002946
# 2 -0.015467 0.032227 0.003395 0.007653 0.024312 0.010630
# 3 -0.004041 0.003395 0.007277 0.002591 0.009402 -0.000061
# 4 -0.004202 0.007653 0.002591 0.018348 0.009393 0.002498
# 5 -0.010800 0.024312 0.009402 0.009393 0.051742 0.002594
# 6 -0.002946 0.010630 -0.000061 0.002498 0.002594 0.018950
#
#
# Mechanical properties :
#
#
# Convention : Reuss Voigt Hill
#
# Bulk Modulus (GPa) = 46.80533 122.33402 84.56967
# Shear Modulus (GPa) = 27.47586 54.97801 41.22693
#
# Velocity S-wave (km/s) = 3.11783 4.41034 3.81916
# Velocity P-wave (km/s) = 5.43330 8.31963 7.02627
#
# Compressibility (1/GPa) = 0.02136509
#
# Stress axis : x y z
#
# Youngs Moduli (GPa) = 70.98735 31.03009 137.41057
#
# Poissons Ratio (x) = 0.47994 0.55525
# Poissons Ratio (y) = 1.09795 -0.46645
# Poissons Ratio (z) = 0.28685 -0.10533
#
# Static dielectric constant tensor:
#      x y z
#    x 2.875280 0.150860 0.482780 
#    y 0.150860 2.538830 -0.067690 
#    z 0.482780 -0.067690 3.099010 
# 
# From -- ./inp_files/32655.got.cif
#   From: 2010.05.17/outbox.cif.g08.bks.cpg/sg2_17_cif.got.tgz:32655.got - 2010.06.03 11:33:40.
