data_PCOD9058396
_publ_section_title
;
Structure prediction by ZEFSAII (Michael W. Deem and Ramdas Pophale) SiO2 
 PCOD9058396
Probable space group: P -1
;
_chemical_formula_sum "Si O2"
_cell_formula_units_Z 12
_cell_length_a 19.429394
_cell_length_b 12.450379
_cell_length_c 12.033098
_cell_angle_alpha 146.087994
_cell_angle_beta 17.765008
_cell_angle_gamma 146.012527
_cell_volume 482.441533
_symmetry_space_group_name_H-M "P -1"
_symmetry_group_IT_number 2
_symmetry_cell_setting 'triclinic'
loop_
_space_group_symop_operation_xyz
x,y,z
-x,-y,-z
loop_
_atom_site_type_symbol
_atom_site_label
_atom_site_fract_x
_atom_site_fract_y
_atom_site_fract_z
Si Si1 0.511217 0.689455 0.964826
Si Si2 0.152110 0.850570 0.911464
Si Si3 0.341869 0.313404 0.522196
Si Si4 0.494944 0.881848 0.707386
Si Si5 0.378401 0.265750 0.841445
Si Si6 0.991113 0.296145 0.767818
O O1 0.577697 0.683182 0.726075
O O2 0.345394 0.488432 0.091126
O O3 0.753339 0.693478 0.658635
O O4 0.449778 0.900447 0.245177
O O5 0.387427 0.769825 0.487548
O O6 0.933711 0.703107 0.064835
O O7 0.191710 0.069521 0.990317
O O8 0.073287 0.862754 0.170581
O O9 0.500000 0.500000 0.500000
O O10 0.221814 0.777881 0.050563
O O11 0.382394 0.129746 0.374831
O O12 0.574327 0.751837 0.377823
O O13 0.000000 0.500000 0.000000
#
# Coordination Sequence:
#
# PCOD9058396 Si02
#       6
#     2   2   2   2   2   2
#     4  11  21  36  60  83 114 147 193 235 275 334
#     4   9  20  36  62  80 113 153 185 232 281 334
#     4  11  21  37  60  85 114 151 188 232 285 333
#     4  11  21  35  59  86 114 148 189 232 285 330
#     4  10  20  40  59  81 115 149 189 232 280 335
#     4  10  17  37  61  83 109 151 191 232 277 326
#
# _framework density 24.873481000000002
#
# number of rings (size 3 to 8) (size 9 to 14) (size 15 to 20)
#    0.000    1.667    5.000    2.000    0.000    0.667 
#    0.000    8.333    7.333    0.000    0.000    0.000 
#    0.000    0.000    0.000    0.000    0.000    0.000 
#
# Total GULP energy -67053.229660 kJ/mol
# GULP energy per Si atom -5587.769138 kJ/mol
# Density = 2.481687 g / cm^3
# Si number density = 24.873481 Si / 1000 Ang^3
#
#
#
# Elastic Constant Matrix: (Units=GPa)
#
#
# Indices 1 2 3 4 5 6 
#
# 1 100.5882 26.4742 11.9474 -5.2925 -14.9459 2.4917
# 2 26.4742 177.9517 14.6305 20.2507 -8.1094 -5.0866
# 3 11.9474 14.6305 31.2378 9.2238 2.0003 7.1668
# 4 -5.2925 20.2507 9.2238 33.4049 7.1426 -2.3798
# 5 -14.9459 -8.1094 2.0003 7.1426 28.0118 0.7204
# 6 2.4917 -5.0866 7.1668 -2.3798 0.7204 45.6137
#
#
#
# Elastic Compliance Matrix: (Units=1/GPa)
#
#
# Indices 1 2 3 4 5 6 
#
# 1 0.011909 -0.001436 -0.005136 0.002996 0.005539 0.000065
# 2 -0.001436 0.006572 -0.001623 -0.004198 0.002302 0.000811
# 3 -0.005136 -0.001623 0.039574 -0.010550 -0.003176 -0.006618
# 4 0.002996 -0.004198 -0.010550 0.037935 -0.008617 0.003141
# 5 0.005539 0.002302 -0.003176 -0.008617 0.041762 -0.000656
# 6 0.000065 0.000811 -0.006618 0.003141 -0.000656 0.023224
#
#
# Mechanical properties :
#
#
# Convention : Reuss Voigt Hill
#
# Bulk Modulus (GPa) = 24.00121 46.20911 35.10516
# Shear Modulus (GPa) = 26.14317 38.52110 32.33214
#
# Velocity S-wave (km/s) = 3.24550 3.93960 3.60927
# Velocity P-wave (km/s) = 4.86977 6.26992 5.61367
#
# Compressibility (1/GPa) = 0.04166456
#
# Stress axis : x y z
#
# Youngs Moduli (GPa) = 83.97279 152.15143 25.26921
#
# Poissons Ratio (x) = 0.21849 0.12979
# Poissons Ratio (y) = 0.12058 0.04101
# Poissons Ratio (z) = 0.43131 0.24692
#
# Static dielectric constant tensor:
#      x y z
#    x 1.999220 -0.015930 -0.016620 
#    y -0.015930 2.021100 0.045060 
#    z -0.016620 0.045060 2.028490 
# 
# From -- ./inp_files/57339.got.cif
#   From: 2010.05.17/outbox.cif.g08.bks.cpg/sg2_29_cif.got.tgz:57339.got - 2010.06.03 11:33:40.
