data_PCOD9058604
_publ_section_title
;
Structure prediction by ZEFSAII (Michael W. Deem and Ramdas Pophale) SiO2 
 PCOD9058604
Probable space group: P -1
;
_chemical_formula_sum "Si O2"
_cell_formula_units_Z 16
_cell_length_a 10.915192
_cell_length_b 8.385649
_cell_length_c 9.230833
_cell_angle_alpha 92.512629
_cell_angle_beta 97.834690
_cell_angle_gamma 65.824213
_cell_volume 763.540815
_symmetry_space_group_name_H-M "P -1"
_symmetry_group_IT_number 2
_symmetry_cell_setting 'triclinic'
loop_
_space_group_symop_operation_xyz
x,y,z
-x,-y,-z
loop_
_atom_site_type_symbol
_atom_site_label
_atom_site_fract_x
_atom_site_fract_y
_atom_site_fract_z
Si Si1 0.363360 0.531074 0.061986
Si Si2 0.893511 0.391991 0.661509
Si Si3 0.145060 0.233149 0.209340
Si Si4 0.933547 0.208885 0.969323
Si Si5 0.576795 0.858799 0.882248
Si Si6 0.625646 0.371102 0.601737
Si Si7 0.601416 0.060699 0.428967
Si Si8 0.910076 0.884854 0.504956
O O1 0.221110 0.684269 0.994831
O O2 0.359867 0.340385 0.056597
O O3 0.382802 0.585498 0.229787
O O4 0.500000 0.500000 0.000000
O O5 0.860697 0.586334 0.717620
O O6 0.927526 0.264407 0.802445
O O7 0.758915 0.389782 0.570111
O O8 0.008523 0.304211 0.560026
O O9 0.293335 0.119953 0.163957
O O10 0.107882 0.131770 0.327594
O O11 0.032753 0.277120 0.070112
O O12 0.000000 0.000000 0.000000
O O13 0.475679 0.869312 0.733029
O O14 0.500000 0.000000 0.000000
O O15 0.500000 0.500000 0.500000
O O16 0.625896 0.189244 0.551587
O O17 0.500000 0.000000 0.500000
O O18 0.759185 0.943106 0.415787
O O19 0.000000 0.000000 0.500000
#
# Coordination Sequence:
#
# PCOD9058604 Si02
#       8
#     2   2   2   2   2   2   2   2
#     4  11  27  46  71 108 146 194 251 306 373 442
#     4  11  24  46  70 104 145 194 242 309 364 452
#     4  12  25  48  71 103 150 196 251 300 378 446
#     4  11  26  44  73 101 146 195 243 303 375 438
#     4  12  28  47  72 109 147 195 249 310 370 452
#     4  11  22  46  73  97 150 187 243 303 374 433
#     4  12  26  46  74 106 144 197 245 308 376 441
#     4  12  26  44  73 109 146 185 250 307 371 450
#
# _framework density 20.955003000000001
#
# number of rings (size 3 to 8) (size 9 to 14) (size 15 to 20)
#    0.000    0.500    6.250    1.500    7.000    2.000 
#    0.000    0.000    0.000    0.000    0.000    0.000 
#    0.000    0.000    0.000    0.000    0.000    0.000 
#
# Total GULP energy -89325.573505 kJ/mol
# GULP energy per Si atom -5582.848344 kJ/mol
# Density = 2.090731 g / cm^3
# Si number density = 20.955003 Si / 1000 Ang^3
#
#
#
# Elastic Constant Matrix: (Units=GPa)
#
#
# Indices 1 2 3 4 5 6 
#
# 1 165.2807 63.6842 40.4982 4.5959 5.6174 -27.7337
# 2 63.6842 126.9765 37.0419 16.2435 0.1343 -11.8017
# 3 40.4982 37.0419 58.6873 3.2671 2.8049 -16.6384
# 4 4.5959 16.2435 3.2671 45.0333 -6.2421 2.3556
# 5 5.6174 0.1343 2.8049 -6.2421 50.3620 1.0830
# 6 -27.7337 -11.8017 -16.6384 2.3556 1.0830 50.6425
#
#
#
# Elastic Compliance Matrix: (Units=1/GPa)
#
#
# Indices 1 2 3 4 5 6 
#
# 1 0.008520 -0.003141 -0.003036 0.000218 -0.000809 0.002944
# 2 -0.003141 0.011260 -0.004923 -0.003327 0.000194 -0.000563
# 3 -0.003036 -0.004923 0.023716 -0.000047 -0.001083 0.005007
# 4 0.000218 -0.003327 -0.000047 0.023898 0.002989 -0.001847
# 5 -0.000809 0.000194 -0.001083 0.002989 0.020405 -0.001329
# 6 0.002944 -0.000563 0.005007 -0.001847 -0.001329 0.022987
#
#
# Mechanical properties :
#
#
# Convention : Reuss Voigt Hill
#
# Bulk Modulus (GPa) = 46.95740 70.37700 58.66720
# Shear Modulus (GPa) = 35.69291 43.18890 39.44090
#
# Velocity S-wave (km/s) = 4.13160 4.54478 4.34311
# Velocity P-wave (km/s) = 6.72439 7.82290 7.29436
#
# Compressibility (1/GPa) = 0.02129590
#
# Stress axis : x y z
#
# Youngs Moduli (GPa) = 117.37509 88.80907 42.16609
#
# Poissons Ratio (x) = 0.27893 0.12800
# Poissons Ratio (y) = 0.36865 0.20760
# Poissons Ratio (z) = 0.35631 0.43724
#
# Static dielectric constant tensor:
#      x y z
#    x 2.768110 -0.347170 -0.076410 
#    y -0.347170 1.843500 -0.014130 
#    z -0.076410 -0.014130 1.725550 
# 
# From -- ./inp_files/239161.got.cif
#   From: 2010.05.17/outbox.cif.g08.bks.cpg/sg2_120_cif.got.tgz:239161.got - 2010.06.03 11:33:40.
