data_PCOD9058932
_publ_section_title
;
Structure prediction by ZEFSAII (Michael W. Deem and Ramdas Pophale) SiO2 
 PCOD9058932
Probable space group: P -1
;
_chemical_formula_sum "Si O2"
_cell_formula_units_Z 16
_cell_length_a 6.592749
_cell_length_b 18.365839
_cell_length_c 9.363727
_cell_angle_alpha 52.364732
_cell_angle_beta 102.796843
_cell_angle_gamma 121.213106
_cell_volume 760.299548
_symmetry_space_group_name_H-M "P -1"
_symmetry_group_IT_number 2
_symmetry_cell_setting 'triclinic'
loop_
_space_group_symop_operation_xyz
x,y,z
-x,-y,-z
loop_
_atom_site_type_symbol
_atom_site_label
_atom_site_fract_x
_atom_site_fract_y
_atom_site_fract_z
Si Si1 0.622254 0.876341 0.522970
Si Si2 0.462508 0.286946 0.543279
Si Si3 0.848350 0.239507 0.268257
Si Si4 0.943390 0.383765 0.669057
Si Si5 0.021628 0.886642 0.785946
Si Si6 0.209900 0.259039 0.817610
Si Si7 0.709855 0.376861 0.919392
Si Si8 0.650138 0.563238 0.806937
O O1 0.592147 0.788651 0.508817
O O2 0.355443 0.850368 0.556984
O O3 0.784818 0.875645 0.682339
O O4 0.775817 0.991660 0.339023
O O5 0.700201 0.306526 0.639041
O O6 0.253101 0.238238 0.687306
O O7 0.498766 0.400188 0.360411
O O8 0.889996 0.181615 0.210408
O O9 0.111343 0.324892 0.259992
O O10 0.726255 0.311484 0.131208
O O11 0.907232 0.381371 0.836134
O O12 0.000000 0.500000 0.500000
O O13 0.130204 0.347416 0.700526
O O14 0.963679 0.839766 0.992510
O O15 0.461978 0.311772 0.876004
O O16 0.731475 0.486990 0.835355
O O17 0.500000 0.500000 0.000000
#
# Coordination Sequence:
#
# PCOD9058932 Si02
#       8
#     2   2   2   2   2   2   2   2
#     4  11  25  44  71 100 129 174 229 288 339 387
#     4  11  26  43  63 101 137 173 223 279 330 396
#     4  12  23  42  68 100 134 172 224 279 337 396
#     4  11  24  39  67  90 135 183 218 263 329 400
#     4  11  23  46  73  96 128 178 230 282 340 395
#     4  11  23  46  66  95 139 177 222 274 330 398
#     4  11  23  39  63  97 129 177 218 261 331 402
#     4  12  25  41  66 100 138 178 220 275 336 402
#
# _framework density 21.044338
#
# number of rings (size 3 to 8) (size 9 to 14) (size 15 to 20)
#    0.000    0.750    3.750    3.750    5.250    2.500 
#    0.000    0.625    0.000    0.000    0.000    0.000 
#    0.000    0.000    0.000    0.000    0.000    0.000 
#
# Total GULP energy -89418.630066 kJ/mol
# GULP energy per Si atom -5588.664379 kJ/mol
# Density = 2.099644 g / cm^3
# Si number density = 21.044338 Si / 1000 Ang^3
#
#
#
# Elastic Constant Matrix: (Units=GPa)
#
#
# Indices 1 2 3 4 5 6 
#
# 1 70.7914 2.5849 11.7676 2.6082 -12.0176 5.7265
# 2 2.5849 45.4325 6.1467 -7.5499 -6.9127 9.8985
# 3 11.7676 6.1467 90.7087 -6.9054 -17.4058 5.5202
# 4 2.6082 -7.5499 -6.9054 28.2743 -2.3383 -2.7545
# 5 -12.0176 -6.9127 -17.4058 -2.3383 38.7857 -9.7673
# 6 5.7265 9.8985 5.5202 -2.7545 -9.7673 23.2898
#
#
#
# Elastic Compliance Matrix: (Units=1/GPa)
#
#
# Indices 1 2 3 4 5 6 
#
# 1 0.015166 0.000045 -0.001294 -0.001627 0.003481 -0.002174
# 2 0.000045 0.025385 -0.000232 0.006055 0.002542 -0.008963
# 3 -0.001294 -0.000232 0.012512 0.003577 0.005426 0.000150
# 4 -0.001627 0.006055 0.003577 0.038841 0.005498 0.003879
# 5 0.003481 0.002542 0.005426 0.005498 0.032909 0.011229
# 6 -0.002174 -0.008963 0.000150 0.003879 0.011229 0.052414
#
#
# Mechanical properties :
#
#
# Convention : Reuss Voigt Hill
#
# Bulk Modulus (GPa) = 19.95931 27.54788 23.75359
# Shear Modulus (GPa) = 25.39502 30.49887 27.94694
#
# Velocity S-wave (km/s) = 3.47758 3.81105 3.64813
# Velocity P-wave (km/s) = 5.06259 5.69950 5.39046
#
# Compressibility (1/GPa) = 0.05010194
#
# Stress axis : x y z
#
# Youngs Moduli (GPa) = 65.93602 39.39306 79.92143
#
# Poissons Ratio (x) = -0.00178 0.10343
# Poissons Ratio (y) = -0.00298 0.01853
# Poissons Ratio (z) = 0.08533 0.00913
#
# Static dielectric constant tensor:
#      x y z
#    x 1.782020 0.051300 -0.052270 
#    y 0.051300 1.731010 -0.027120 
#    z -0.052270 -0.027120 1.913010 
# 
# From -- ./inp_files/77735.got.cif
#   From: 2010.05.17/outbox.cif.g08.bks.cpg/sg2_39_cif.got.tgz:77735.got - 2010.06.03 11:33:40.
