data_PCOD9058103
_publ_section_title
;
Structure prediction by ZEFSAII (Michael W. Deem and Ramdas Pophale) SiO2 
 PCOD9058103
Probable space group: P -1
;
_chemical_formula_sum "Si O2"
_cell_formula_units_Z 16
_cell_length_a 17.854244
_cell_length_b 8.898095
_cell_length_c 7.579421
_cell_angle_alpha 84.568256
_cell_angle_beta 120.683762
_cell_angle_gamma 133.550892
_cell_volume 683.794065
_symmetry_space_group_name_H-M "P -1"
_symmetry_group_IT_number 2
_symmetry_cell_setting 'triclinic'
loop_
_space_group_symop_operation_xyz
x,y,z
-x,-y,-z
loop_
_atom_site_type_symbol
_atom_site_label
_atom_site_fract_x
_atom_site_fract_y
_atom_site_fract_z
Si Si1 0.200570 0.136014 0.671485
Si Si2 0.339279 0.483420 0.528616
Si Si3 0.228177 0.668805 0.415567
Si Si4 0.927028 0.864752 0.180805
Si Si5 0.370663 0.034624 0.254551
Si Si6 0.200432 0.775644 0.760644
Si Si7 0.957107 0.591788 0.101673
Si Si8 0.182901 0.041063 0.168470
O O1 0.327913 0.357467 0.696524
O O2 0.184796 0.217487 0.816047
O O3 0.197230 0.952467 0.712745
O O4 0.066175 0.009943 0.422019
O O5 0.260932 0.533887 0.475713
O O6 0.482698 0.717798 0.615787
O O7 0.268683 0.287116 0.321447
O O8 0.212920 0.709685 0.593142
O O9 0.103461 0.529419 0.148253
O O10 0.342837 0.897149 0.409816
O O11 0.886247 0.656020 0.067072
O O12 0.938921 0.028094 0.056315
O O13 0.274119 0.052490 0.163095
O O14 0.321438 0.896309 0.027545
O O15 0.078394 0.565205 0.762316
O O16 0.109190 0.835206 0.238623
#
# Coordination Sequence:
#
# PCOD9058103 Si02
#       8
#     2   2   2   2   2   2   2   2
#     4  11  24  44  72 107 137 184 234 285 354 420
#     4  12  24  47  75 100 139 187 239 287 340 417
#     4  11  25  47  74 105 137 189 232 288 354 417
#     4  11  22  44  71 102 144 175 230 292 353 416
#     4  11  27  49  71 102 142 190 237 285 344 409
#     4  11  26  49  68 107 148 181 230 292 349 417
#     4  11  24  45  73 104 143 184 225 290 362 413
#     4  12  23  47  70 106 139 182 234 292 347 415
#
# _framework density 23.398855999999999
#
# number of rings (size 3 to 8) (size 9 to 14) (size 15 to 20)
#    0.000    0.750    3.750    3.375    0.000    4.500 
#    6.750    0.000    0.000    0.000    0.000    0.000 
#    0.000    0.000    0.000    0.000    0.000    0.000 
#
# Total GULP energy -89409.988268 kJ/mol
# GULP energy per Si atom -5588.124267 kJ/mol
# Density = 2.334560 g / cm^3
# Si number density = 23.398856 Si / 1000 Ang^3
#
#
#
# Elastic Constant Matrix: (Units=GPa)
#
#
# Indices 1 2 3 4 5 6 
#
# 1 130.7339 51.5227 52.8979 -2.3416 -34.8201 -12.9753
# 2 51.5227 177.2108 63.7665 1.3200 -3.8283 9.6441
# 3 52.8979 63.7665 77.5327 -4.9067 -31.1993 8.0830
# 4 -2.3416 1.3200 -4.9067 37.5579 1.2552 5.3221
# 5 -34.8201 -3.8283 -31.1993 1.2552 41.6364 -2.4068
# 6 -12.9753 9.6441 8.0830 5.3221 -2.4068 46.1982
#
#
#
# Elastic Compliance Matrix: (Units=1/GPa)
#
#
# Indices 1 2 3 4 5 6 
#
# 1 0.012881 -0.002238 -0.004533 -0.000720 0.007501 0.005352
# 2 -0.002238 0.009700 -0.009753 -0.001302 -0.008320 -0.001230
# 3 -0.004533 -0.009753 0.032503 0.004287 0.019283 -0.004413
# 4 -0.000720 -0.001302 0.004287 0.027676 0.001437 -0.003794
# 5 0.007501 -0.008320 0.019283 0.001437 0.044082 0.002601
# 6 0.005352 -0.001230 -0.004413 -0.003794 0.002601 0.024751
#
#
# Mechanical properties :
#
#
# Convention : Reuss Voigt Hill
#
# Bulk Modulus (GPa) = 45.37899 80.20575 62.79237
# Shear Modulus (GPa) = 26.04362 39.56452 32.80407
#
# Velocity S-wave (km/s) = 3.33983 4.11648 3.74833
# Velocity P-wave (km/s) = 5.85734 7.54626 6.75479
#
# Compressibility (1/GPa) = 0.02203663
#
# Stress axis : x y z
#
# Youngs Moduli (GPa) = 77.63132 103.09290 30.76674
#
# Poissons Ratio (x) = 0.23071 0.13946
# Poissons Ratio (y) = 0.17373 0.30006
# Poissons Ratio (z) = 0.35190 1.00545
#
# Static dielectric constant tensor:
#      x y z
#    x 1.916160 0.027210 -0.062290 
#    y 0.027210 1.926130 -0.097580 
#    z -0.062290 -0.097580 2.026940 
# 
# From -- ./inp_files/328927.got.cif
#   From: 2010.05.17/outbox.cif.g08.bks.cpg/sg2_165_cif.got.tgz:328927.got - 2010.06.03 11:33:40.
