data_PCOD9058489
_publ_section_title
;
Structure prediction by ZEFSAII (Michael W. Deem and Ramdas Pophale) SiO2 
 PCOD9058489
Probable space group: P -1
;
_chemical_formula_sum "Si O2"
_cell_formula_units_Z 16
_cell_length_a 11.259987
_cell_length_b 6.436919
_cell_length_c 14.709644
_cell_angle_alpha 72.360438
_cell_angle_beta 130.993791
_cell_angle_gamma 83.273458
_cell_volume 688.951925
_symmetry_space_group_name_H-M "P -1"
_symmetry_group_IT_number 2
_symmetry_cell_setting 'triclinic'
loop_
_space_group_symop_operation_xyz
x,y,z
-x,-y,-z
loop_
_atom_site_type_symbol
_atom_site_label
_atom_site_fract_x
_atom_site_fract_y
_atom_site_fract_z
Si Si1 0.509352 0.106191 0.240050
Si Si2 0.693711 0.369597 0.019714
Si Si3 0.125383 0.377779 0.826882
Si Si4 0.626479 0.718546 0.186185
Si Si5 0.782035 0.369808 0.596164
Si Si6 0.606590 0.211647 0.685683
Si Si7 0.156028 0.951633 0.017736
Si Si8 0.831464 0.182711 0.447089
O O1 0.406120 0.372379 0.113673
O O2 0.686807 0.083711 0.376513
O O3 0.558156 0.917165 0.205448
O O4 0.399866 0.043699 0.269817
O O5 0.535870 0.287597 0.952435
O O6 0.844179 0.178667 0.057848
O O7 0.799394 0.424375 0.145914
O O8 0.245319 0.228409 0.823160
O O9 0.923549 0.459692 0.690151
O O10 0.158891 0.200719 0.954074
O O11 0.743878 0.454590 0.324253
O O12 0.732357 0.226563 0.668970
O O13 0.592166 0.590562 0.451969
O O14 0.856410 0.218929 0.561352
O O15 0.679263 0.238396 0.817023
O O16 0.000000 0.000000 0.000000
O O17 0.000000 0.000000 0.500000
#
# Coordination Sequence:
#
# PCOD9058489 Si02
#       8
#     2   2   2   2   2   2   2   2
#     4  11  22  45  76  98 135 197 229 288 364 409
#     4  11  24  44  72 103 138 181 242 283 358 426
#     4  12  26  43  72 107 140 191 229 290 364 411
#     4  11  24  45  70 103 148 181 239 297 346 427
#     4  11  25  45  71 107 143 183 237 300 343 423
#     4  11  22  48  74  96 142 186 235 290 356 411
#     4  12  25  50  70 101 143 184 235 304 348 421
#     4  11  25  43  68 106 146 187 237 289 354 430
#
# _framework density 23.223682
#
# number of rings (size 3 to 8) (size 9 to 14) (size 15 to 20)
#    0.000    0.750    5.000    1.875    1.750    7.000 
#    0.000    0.000    0.000    0.000    0.000    0.000 
#    0.000    0.000    0.000    0.000    0.000    0.000 
#
# Total GULP energy -89416.925979 kJ/mol
# GULP energy per Si atom -5588.557874 kJ/mol
# Density = 2.317082 g / cm^3
# Si number density = 23.223682 Si / 1000 Ang^3
#
#
#
# Elastic Constant Matrix: (Units=GPa)
#
#
# Indices 1 2 3 4 5 6 
#
# 1 120.5268 16.1287 25.4539 6.5134 -4.5382 -3.8806
# 2 16.1287 63.0312 26.1958 7.3117 13.3534 -2.4013
# 3 25.4539 26.1958 102.5180 19.4487 10.0738 1.5353
# 4 6.5134 7.3117 19.4487 39.6605 5.0820 3.2773
# 5 -4.5382 13.3534 10.0738 5.0820 39.5878 -4.2531
# 6 -3.8806 -2.4013 1.5353 3.2773 -4.2531 31.1306
#
#
#
# Elastic Compliance Matrix: (Units=1/GPa)
#
#
# Indices 1 2 3 4 5 6 
#
# 1 0.009132 -0.001924 -0.001915 -0.000639 0.002425 0.001483
# 2 -0.001924 0.019212 -0.003756 -0.000731 -0.005571 0.000743
# 3 -0.001915 -0.003756 0.012253 -0.004732 -0.001554 -0.000847
# 4 -0.000639 -0.000731 -0.004732 0.028378 -0.002614 -0.003247
# 5 0.002425 -0.005571 -0.001554 -0.002614 0.028592 0.004131
# 6 0.001483 0.000743 -0.000847 -0.003247 0.004131 0.033313
#
#
# Mechanical properties :
#
#
# Convention : Reuss Voigt Hill
#
# Bulk Modulus (GPa) = 39.35976 46.84809 43.10393
# Shear Modulus (GPa) = 32.35410 36.62896 34.49153
#
# Velocity S-wave (km/s) = 3.73654 3.97574 3.85799
# Velocity P-wave (km/s) = 5.96662 6.42586 6.20049
#
# Compressibility (1/GPa) = 0.02540666
#
# Stress axis : x y z
#
# Youngs Moduli (GPa) = 109.50044 52.05054 81.61357
#
# Poissons Ratio (x) = 0.10014 0.15629
# Poissons Ratio (y) = 0.21067 0.30657
# Poissons Ratio (z) = 0.20970 0.19552
#
# Static dielectric constant tensor:
#      x y z
#    x 1.857060 0.042570 0.022570 
#    y 0.042570 1.879570 0.011360 
#    z 0.022570 0.011360 1.933600 
# 
# From -- ./inp_files/510903.got.cif
#   From: 2010.05.17/outbox.cif.g08.bks.cpg/sg2_256_cif.got.tgz:510903.got - 2010.06.03 11:33:40.
