data_PCOD9058032
_publ_section_title
;
Structure prediction by ZEFSAII (Michael W. Deem and Ramdas Pophale) SiO2 
 PCOD9058032
Probable space group: P -1
;
_chemical_formula_sum "Si O2"
_cell_formula_units_Z 15
_cell_length_a 11.296687
_cell_length_b 17.713089
_cell_length_c 21.164772
_cell_angle_alpha 160.118565
_cell_angle_beta 30.226118
_cell_angle_gamma 149.194875
_cell_volume 697.936141
_symmetry_space_group_name_H-M "P -1"
_symmetry_group_IT_number 2
_symmetry_cell_setting 'triclinic'
loop_
_space_group_symop_operation_xyz
x,y,z
-x,-y,-z
loop_
_atom_site_type_symbol
_atom_site_label
_atom_site_fract_x
_atom_site_fract_y
_atom_site_fract_z
Si Si1 0.537465 0.164109 0.262513
Si Si2 0.401597 0.917461 0.585691
Si Si3 0.185207 0.329418 0.463462
Si Si4 0.967015 0.454700 0.054248
Si Si5 0.777854 0.905736 0.304258
Si Si6 0.742742 0.064987 0.664309
Si Si7 0.408028 0.278356 0.186611
Si Si8 0.000000 0.500000 0.500000
O O1 0.327772 0.261051 0.403069
O O2 0.763090 0.393663 0.346578
O O3 0.432419 0.051593 0.288910
O O4 0.593056 0.964296 0.036431
O O5 0.548434 0.816991 0.385890
O O6 0.163284 0.738935 0.581318
O O7 0.309082 0.107847 0.738525
O O8 0.594017 0.998168 0.616332
O O9 0.304119 0.254487 0.286599
O O10 0.907972 0.175932 0.471405
O O11 0.022623 0.222433 0.869140
O O12 0.168449 0.660608 0.154934
O O13 0.000000 0.500000 0.000000
O O14 0.687542 0.434345 0.183355
O O15 0.000000 0.000000 0.500000
O O16 0.249912 0.412080 0.325256
#
# Coordination Sequence:
#
# PCOD9058032 Si02
#       8
#     2   2   2   2   2   2   2   1
#     4  11  24  40  72 109 141 190 250 299 365 442
#     4  11  26  45  72 103 144 195 237 297 383 427
#     4  11  22  44  69 105 149 185 240 313 362 434
#     4  12  23  43  75 102 139 187 244 302 366 440
#     4  11  24  47  72 105 143 192 238 304 375 434
#     4  12  24  44  69 106 144 187 249 304 361 443
#     4  12  24  43  72 105 143 197 243 296 377 430
#     4  12  24  46  72 100 154 194 236 302 364 446
#
# _framework density 21.491938999999999
#
# number of rings (size 3 to 8) (size 9 to 14) (size 15 to 20)
#    0.000    0.533    4.000    5.200    0.000    1.600 
#    0.000    5.333    0.000    0.000    0.000    0.000 
#    0.000    0.000    0.000    0.000    0.000    0.000 
#
# Total GULP energy -83623.427714 kJ/mol
# GULP energy per Si atom -5574.895181 kJ/mol
# Density = 2.144302 g / cm^3
# Si number density = 21.491939 Si / 1000 Ang^3
#
#
#
# Elastic Constant Matrix: (Units=GPa)
#
#
# Indices 1 2 3 4 5 6 
#
# 1 132.1142 52.1283 36.9325 3.1136 -6.1086 -2.6549
# 2 52.1283 91.5693 23.9205 11.9261 2.4533 3.7623
# 3 36.9325 23.9205 45.0074 15.4997 -3.3896 -5.5471
# 4 3.1136 11.9261 15.4997 31.6269 4.6452 -2.7070
# 5 -6.1086 2.4533 -3.3896 4.6452 35.0566 -9.4644
# 6 -2.6549 3.7623 -5.5471 -2.7070 -9.4644 27.4446
#
#
#
# Elastic Compliance Matrix: (Units=1/GPa)
#
#
# Indices 1 2 3 4 5 6 
#
# 1 0.012011 -0.005344 -0.008462 0.004884 0.001302 0.001115
# 2 -0.005344 0.015635 -0.003525 -0.003586 -0.003194 -0.004828
# 3 -0.008462 -0.003525 0.038411 -0.016984 0.006936 0.008145
# 4 0.004884 -0.003586 -0.016984 0.041681 -0.006197 -0.000494
# 5 0.001302 -0.003194 0.006936 -0.006197 0.033999 0.013079
# 6 0.001115 -0.004828 0.008145 -0.000494 0.013079 0.043315
#
#
# Mechanical properties :
#
#
# Convention : Reuss Voigt Hill
#
# Bulk Modulus (GPa) = 31.85291 54.96150 43.40721
# Shear Modulus (GPa) = 21.72230 29.20625 25.46427
#
# Velocity S-wave (km/s) = 3.18263 3.69038 3.44587
# Velocity P-wave (km/s) = 5.32527 6.61718 6.00607
#
# Compressibility (1/GPa) = 0.03139430
#
# Stress axis : x y z
#
# Youngs Moduli (GPa) = 83.25822 63.96060 26.03406
#
# Poissons Ratio (x) = 0.34179 0.22031
# Poissons Ratio (y) = 0.44491 0.09178
# Poissons Ratio (z) = 0.70456 0.22547
#
# Static dielectric constant tensor:
#      x y z
#    x 1.811720 -0.005450 0.016010 
#    y -0.005450 1.785160 0.031940 
#    z 0.016010 0.031940 1.811320 
# 
# From -- ./inp_files/596028.got.cif
#   From: 2010.05.17/outbox.cif.g08.bks.cpg/sg2_299_cif.got.tgz:596028.got - 2010.06.03 11:33:40.
