data_PCOD9058228
_publ_section_title
;
Structure prediction by ZEFSAII (Michael W. Deem and Ramdas Pophale) SiO2 
 PCOD9058228
Probable space group: P -1
;
_chemical_formula_sum "Si O2"
_cell_formula_units_Z 14
_cell_length_a 18.247131
_cell_length_b 10.727762
_cell_length_c 9.046816
_cell_angle_alpha 128.431297
_cell_angle_beta 42.715661
_cell_angle_gamma 150.792835
_cell_volume 585.165152
_symmetry_space_group_name_H-M "P -1"
_symmetry_group_IT_number 2
_symmetry_cell_setting 'triclinic'
loop_
_space_group_symop_operation_xyz
x,y,z
-x,-y,-z
loop_
_atom_site_type_symbol
_atom_site_label
_atom_site_fract_x
_atom_site_fract_y
_atom_site_fract_z
Si Si1 0.779752 0.644079 0.630354
Si Si2 0.248537 0.168507 0.919453
Si Si3 0.541721 0.918500 0.157249
Si Si4 0.062552 0.741901 0.212834
Si Si5 0.543751 0.292308 0.483370
Si Si6 0.049998 0.396208 0.061569
Si Si7 0.384342 0.631078 0.882943
O O1 0.624371 0.353851 0.715257
O O2 0.710517 0.575232 0.514010
O O3 0.971195 0.789002 0.456334
O O4 0.777725 0.794196 0.848947
O O5 0.386387 0.185551 0.728185
O O6 0.313198 0.390528 0.890354
O O7 0.078733 0.888261 0.903132
O O8 0.557501 0.116958 0.339743
O O9 0.484021 0.842707 0.016126
O O10 0.732239 0.053524 0.969946
O O11 0.007344 0.531836 0.247728
O O12 0.967993 0.626989 0.108046
O O13 0.508668 0.292512 0.364560
O O14 0.230648 0.557788 0.985138
#
# Coordination Sequence:
#
# PCOD9058228 Si02
#       7
#     2   2   2   2   2   2   2
#     4  11  24  45  70 104 138 178 232 281 336 407
#     4  11  26  43  65 102 142 185 219 276 345 412
#     4  11  24  44  74 104 133 177 231 287 342 396
#     4  11  22  44  75 101 132 177 234 288 333 393
#     4  12  21  44  71  98 139 178 230 281 337 404
#     4  11  22  45  69 101 137 175 231 283 337 402
#     4  11  24  46  67 102 141 176 225 279 349 406
#
# _framework density 23.924869999999999
#
# number of rings (size 3 to 8) (size 9 to 14) (size 15 to 20)
#    0.000    0.857    2.857    4.714    0.000    1.714 
#   12.857    3.571    0.000    0.000    0.000    0.000 
#    0.000    0.000    0.000    0.000    0.000    0.000 
#
# Total GULP energy -78197.123486 kJ/mol
# GULP energy per Si atom -5585.508820 kJ/mol
# Density = 2.387042 g / cm^3
# Si number density = 23.924870 Si / 1000 Ang^3
#
#
#
# Elastic Constant Matrix: (Units=GPa)
#
#
# Indices 1 2 3 4 5 6 
#
# 1 92.8606 43.9853 61.6262 0.1273 -1.3787 18.2469
# 2 43.9853 107.5121 47.0938 -6.0841 -21.0630 4.4049
# 3 61.6262 47.0938 178.8154 10.1946 -28.9663 13.0531
# 4 0.1273 -6.0841 10.1946 20.4977 -2.8654 -5.4414
# 5 -1.3787 -21.0630 -28.9663 -2.8654 38.0287 -7.5174
# 6 18.2469 4.4049 13.0531 -5.4414 -7.5174 46.7349
#
#
#
# Elastic Compliance Matrix: (Units=1/GPa)
#
#
# Indices 1 2 3 4 5 6 
#
# 1 0.018934 -0.006946 -0.005488 -0.002535 -0.008902 -0.006932
# 2 -0.006946 0.014317 -0.000671 0.006782 0.008407 0.003692
# 3 -0.005488 -0.000671 0.008807 -0.003645 0.005917 0.000273
# 4 -0.002535 0.006782 -0.003645 0.055977 0.006883 0.008993
# 5 -0.008902 0.008407 0.005917 0.006883 0.037200 0.007816
# 6 -0.006932 0.003692 0.000273 0.008993 0.007816 0.025984
#
#
# Mechanical properties :
#
#
# Convention : Reuss Voigt Hill
#
# Bulk Modulus (GPa) = 63.09750 76.06652 69.58201
# Shear Modulus (GPa) = 25.94573 36.15113 31.04843
#
# Velocity S-wave (km/s) = 3.29670 3.89141 3.60633
# Velocity P-wave (km/s) = 6.39698 7.21482 6.81818
#
# Compressibility (1/GPa) = 0.01584849
#
# Stress axis : x y z
#
# Youngs Moduli (GPa) = 52.81449 69.84938 113.55158
#
# Poissons Ratio (x) = 0.48518 0.62312
# Poissons Ratio (y) = 0.36685 0.07617
# Poissons Ratio (z) = 0.28982 0.04686
#
# Static dielectric constant tensor:
#      x y z
#    x 1.930280 -0.045850 0.024360 
#    y -0.045850 1.950900 -0.031370 
#    z 0.024360 -0.031370 1.963800 
# 
# From -- ./inp_files/333687.got.cif
#   From: 2010.05.17/outbox.cif.g08.bks.cpg/sg2_167_cif.got.tgz:333687.got - 2010.06.03 11:33:40.
