data_PCOD9058935
_publ_section_title
;
Structure prediction by ZEFSAII (Michael W. Deem and Ramdas Pophale) SiO2 
 PCOD9058935
Probable space group: P -1
;
_chemical_formula_sum "Si O2"
_cell_formula_units_Z 16
_cell_length_a 9.539167
_cell_length_b 14.700284
_cell_length_c 11.523954
_cell_angle_alpha 27.184018
_cell_angle_beta 106.439717
_cell_angle_gamma 95.996019
_cell_volume 666.879731
_symmetry_space_group_name_H-M "P -1"
_symmetry_group_IT_number 2
_symmetry_cell_setting 'triclinic'
loop_
_space_group_symop_operation_xyz
x,y,z
-x,-y,-z
loop_
_atom_site_type_symbol
_atom_site_label
_atom_site_fract_x
_atom_site_fract_y
_atom_site_fract_z
Si Si1 0.393867 0.788077 0.766700
Si Si2 0.037635 0.370507 0.302156
Si Si3 0.106290 0.085986 0.845477
Si Si4 0.098108 0.751401 0.813235
Si Si5 0.374409 0.119271 0.562169
Si Si6 0.648263 0.295710 0.654500
Si Si7 0.392599 0.655395 0.668064
Si Si8 0.395058 0.232525 0.818038
O O1 0.274432 0.736353 0.886632
O O2 0.330527 0.779010 0.632084
O O3 0.383969 0.014205 0.556435
O O4 0.558279 0.598112 0.024288
O O5 0.007796 0.263315 0.533129
O O6 0.205685 0.220285 0.464023
O O7 0.920748 0.359416 0.186728
O O8 0.042163 0.606420 0.052885
O O9 0.237877 0.178338 0.822789
O O10 0.215092 0.871308 0.052224
O O11 0.000000 0.000000 0.000000
O O12 0.000000 0.000000 0.500000
O O13 0.444342 0.304634 0.353897
O O14 0.490738 0.934189 0.878054
O O15 0.686792 0.260764 0.567106
O O16 0.493248 0.243955 0.711791
O O17 0.636585 0.532737 0.407864
#
# Coordination Sequence:
#
# PCOD9058935 Si02
#       8
#     2   2   2   2   2   2   2   2
#     4  11  24  39  64  99 132 177 220 289 354 400
#     4  11  25  42  68  99 134 185 235 280 348 425
#     4  12  27  45  67 101 148 188 223 289 361 418
#     4  11  24  44  68  98 132 181 234 284 341 423
#     4  12  20  41  68 100 130 171 234 287 339 408
#     4  11  23  43  72 101 135 184 232 293 347 418
#     4  11  23  39  63  97 139 168 220 287 355 408
#     4  11  24  41  74 106 129 177 246 284 341 417
#
# _framework density 23.992331
#
# number of rings (size 3 to 8) (size 9 to 14) (size 15 to 20)
#    0.000    0.750    6.250    1.500    1.750    1.500 
#    0.000    1.250    0.000    0.000    0.000    0.000 
#    0.000    0.000    0.000    0.000    0.000    0.000 
#
# Total GULP energy -89375.185253 kJ/mol
# GULP energy per Si atom -5585.949078 kJ/mol
# Density = 2.393772 g / cm^3
# Si number density = 23.992331 Si / 1000 Ang^3
#
#
#
# Elastic Constant Matrix: (Units=GPa)
#
#
# Indices 1 2 3 4 5 6 
#
# 1 101.0027 14.0315 15.6041 2.7658 -23.6864 0.5941
# 2 14.0315 69.2754 30.1621 -9.6282 -10.2153 -10.8139
# 3 15.6041 30.1621 140.5096 -12.6804 -25.5801 -1.8933
# 4 2.7658 -9.6282 -12.6804 45.8845 -5.5083 -4.3656
# 5 -23.6864 -10.2153 -25.5801 -5.5083 32.5304 7.5364
# 6 0.5941 -10.8139 -1.8933 -4.3656 7.5364 24.7316
#
#
#
# Elastic Compliance Matrix: (Units=1/GPa)
#
#
# Indices 1 2 3 4 5 6 
#
# 1 0.012437 -0.002081 0.000813 -0.000164 0.009991 -0.004220
# 2 -0.002081 0.018115 -0.003106 0.003913 0.000475 0.008279
# 3 0.000813 -0.003106 0.009353 0.002595 0.008024 -0.002649
# 4 -0.000164 0.003913 0.002595 0.024509 0.006299 0.004320
# 5 0.009991 0.000475 0.008024 0.006299 0.048578 -0.013109
# 6 -0.004220 0.008279 -0.002649 0.004320 -0.013109 0.048710
#
#
# Mechanical properties :
#
#
# Convention : Reuss Voigt Hill
#
# Bulk Modulus (GPa) = 32.09707 47.82036 39.95871
# Shear Modulus (GPa) = 27.64932 37.36196 32.50564
#
# Velocity S-wave (km/s) = 3.39842 3.95048 3.68480
# Velocity P-wave (km/s) = 5.36713 6.38617 5.89870
#
# Compressibility (1/GPa) = 0.03115550
#
# Stress axis : x y z
#
# Youngs Moduli (GPa) = 80.40792 55.20148 106.91986
#
# Poissons Ratio (x) = 0.11488 -0.08691
# Poissons Ratio (y) = 0.16734 0.33213
# Poissons Ratio (z) = -0.06536 0.17148
#
# Static dielectric constant tensor:
#      x y z
#    x 1.939890 -0.005730 -0.026510 
#    y -0.005730 1.941210 0.035230 
#    z -0.026510 0.035230 1.964110 
# 
# From -- ./inp_files/398196.got.cif
#   From: 2010.05.17/outbox.cif.g08.bks.cpg/sg2_200_cif.got.tgz:398196.got - 2010.06.03 11:33:40.
