data_PCOD9058038
_publ_section_title
;
Structure prediction by ZEFSAII (Michael W. Deem and Ramdas Pophale) SiO2 
 PCOD9058038
Probable space group: P -1
;
_chemical_formula_sum "Si O2"
_cell_formula_units_Z 15
_cell_length_a 11.675088
_cell_length_b 19.170420
_cell_length_c 17.798465
_cell_angle_alpha 157.848634
_cell_angle_beta 30.617586
_cell_angle_gamma 134.014632
_cell_volume 647.599120
_symmetry_space_group_name_H-M "P -1"
_symmetry_group_IT_number 2
_symmetry_cell_setting 'triclinic'
loop_
_space_group_symop_operation_xyz
x,y,z
-x,-y,-z
loop_
_atom_site_type_symbol
_atom_site_label
_atom_site_fract_x
_atom_site_fract_y
_atom_site_fract_z
Si Si1 0.181339 0.758317 0.061061
Si Si2 0.895965 0.554042 0.932003
Si Si3 0.362417 0.737406 0.351032
Si Si4 0.255067 0.730356 0.165041
Si Si5 0.500000 0.000000 0.500000
Si Si6 0.769481 0.729259 0.928359
Si Si7 0.909611 0.772623 0.740314
Si Si8 0.373752 0.196631 0.208791
O O1 0.264445 0.675212 0.016675
O O2 0.036833 0.648883 0.995062
O O3 0.433732 0.716958 0.830179
O O4 0.983342 0.019866 0.440033
O O5 0.094049 0.386353 0.590536
O O6 0.797185 0.428556 0.914270
O O7 0.623138 0.748358 0.240438
O O8 0.158282 0.771640 0.563520
O O9 0.270408 0.926083 0.531679
O O10 0.500000 0.500000 0.000000
O O11 0.525943 0.711995 0.017722
O O12 0.301733 0.148925 0.832185
O O13 0.007975 0.480110 0.557161
O O14 0.835565 0.844794 0.939687
O O15 0.676289 0.886607 0.924917
O O16 0.500000 0.000000 0.000000
#
# Coordination Sequence:
#
# PCOD9058038 Si02
#       8
#     2   2   2   2   1   2   2   2
#     4  11  25  42  66 100 137 182 228 285 339 412
#     4  12  23  41  70  99 131 178 238 282 336 414
#     4  12  23  43  70 101 138 181 226 293 350 402
#     4  11  22  44  69  95 138 181 227 286 347 404
#     4  12  24  40  70 106 128 178 234 276 350 416
#     4  11  23  44  73 101 140 180 232 292 351 414
#     4  11  24  44  71 100 140 189 224 285 362 406
#     4  12  24  43  67  97 141 184 228 281 345 413
#
# _framework density 23.162478
#
# number of rings (size 3 to 8) (size 9 to 14) (size 15 to 20)
#    0.000    0.533    6.667    1.600    0.000    1.600 
#    0.000    1.333    0.000    0.000    0.000    0.000 
#    0.000    0.000    0.000    0.000    0.000    0.000 
#
# Total GULP energy -83835.345576 kJ/mol
# GULP energy per Si atom -5589.023038 kJ/mol
# Density = 2.310976 g / cm^3
# Si number density = 23.162478 Si / 1000 Ang^3
#
#
#
# Elastic Constant Matrix: (Units=GPa)
#
#
# Indices 1 2 3 4 5 6 
#
# 1 120.1978 45.1958 17.0301 -8.7908 10.7687 -16.9845
# 2 45.1958 199.9295 31.2778 -24.8215 16.5501 -16.2244
# 3 17.0301 31.2778 57.0092 -6.6803 9.6937 -9.4467
# 4 -8.7908 -24.8215 -6.6803 40.0289 -2.6264 1.3887
# 5 10.7687 16.5501 9.6937 -2.6264 42.5104 -4.5379
# 6 -16.9845 -16.2244 -9.4467 1.3887 -4.5379 47.2212
#
#
#
# Elastic Compliance Matrix: (Units=1/GPa)
#
#
# Indices 1 2 3 4 5 6 
#
# 1 0.009614 -0.001572 -0.001298 0.000753 -0.001212 0.002520
# 2 -0.001572 0.006265 -0.002245 0.003051 -0.001241 0.000929
# 3 -0.001298 -0.002245 0.020258 0.001417 -0.003065 0.002478
# 4 0.000753 0.003051 0.001417 0.027252 0.000068 0.000808
# 5 -0.001212 -0.001241 -0.003065 0.000068 0.025117 0.000936
# 6 0.002520 0.000929 0.002478 0.000808 0.000936 0.022964
#
#
# Mechanical properties :
#
#
# Convention : Reuss Voigt Hill
#
# Bulk Modulus (GPa) = 38.59815 62.68265 50.64040
# Shear Modulus (GPa) = 38.36186 44.86095 41.61140
#
# Velocity S-wave (km/s) = 4.07407 4.40568 4.24311
# Velocity P-wave (km/s) = 6.23145 7.28017 6.77613
#
# Compressibility (1/GPa) = 0.02590798
#
# Stress axis : x y z
#
# Youngs Moduli (GPa) = 104.01163 159.60680 49.36251
#
# Poissons Ratio (x) = 0.25092 0.06406
# Poissons Ratio (y) = 0.16352 0.11083
# Poissons Ratio (z) = 0.13497 0.35836
#
# Static dielectric constant tensor:
#      x y z
#    x 1.929510 -0.025180 -0.041860 
#    y -0.025180 1.938380 0.050050 
#    z -0.041860 0.050050 1.888190 
# 
# From -- ./inp_files/570763.got.cif
#   From: 2010.05.17/outbox.cif.g08.bks.cpg/sg2_286_cif.got.tgz:570763.got - 2010.06.03 11:33:40.
