data_PCOD9058818
_publ_section_title
;
Structure prediction by ZEFSAII (Michael W. Deem and Ramdas Pophale) SiO2 
 PCOD9058818
Probable space group: P -1
;
_chemical_formula_sum "Si O2"
_cell_formula_units_Z 14
_cell_length_a 11.218308
_cell_length_b 12.803244
_cell_length_c 10.232981
_cell_angle_alpha 143.404481
_cell_angle_beta 139.215599
_cell_angle_gamma 53.152870
_cell_volume 572.232896
_symmetry_space_group_name_H-M "P -1"
_symmetry_group_IT_number 2
_symmetry_cell_setting 'triclinic'
loop_
_space_group_symop_operation_xyz
x,y,z
-x,-y,-z
loop_
_atom_site_type_symbol
_atom_site_label
_atom_site_fract_x
_atom_site_fract_y
_atom_site_fract_z
Si Si1 0.333004 0.321889 0.339667
Si Si2 0.581272 0.017676 0.231933
Si Si3 0.542590 0.341805 0.085800
Si Si4 0.059764 0.031377 0.884684
Si Si5 0.303201 0.911643 0.215962
Si Si6 0.896899 0.206365 0.566793
Si Si7 0.261674 0.430368 0.118222
O O1 0.482157 0.186528 0.380162
O O2 0.327068 0.511186 0.591919
O O3 0.377144 0.351889 0.254305
O O4 0.142981 0.216496 0.090643
O O5 0.796019 0.063379 0.433622
O O6 0.500000 0.000000 0.000000
O O7 0.513685 0.845383 0.080735
O O8 0.352293 0.436170 0.056286
O O9 0.635486 0.283794 0.970641
O O10 0.845894 0.055114 0.761873
O O11 0.101466 0.883152 0.663546
O O12 0.181715 0.981579 0.062762
O O13 0.500000 0.000000 0.500000
O O14 0.781595 0.378744 0.673370
O O15 0.092885 0.296366 0.839219
#
# Coordination Sequence:
#
# PCOD9058818 Si02
#       7
#     2   2   2   2   2   2   2
#     4  12  23  40  66 100 127 174 210 265 337 389
#     4  12  20  38  66  92 132 169 207 260 329 395
#     4  12  23  40  68  95 130 173 218 268 325 392
#     4  11  24  45  67  93 137 174 218 276 325 385
#     4  11  25  45  70  95 124 178 228 271 325 386
#     4  11  23  41  61 102 137 170 213 269 330 394
#     4  11  23  36  66 102 136 166 215 267 327 403
#
# _framework density 24.465564000000001
#
# number of rings (size 3 to 8) (size 9 to 14) (size 15 to 20)
#    0.000    0.571    5.714    3.000    0.000    4.000 
#    0.000    0.714    0.000    0.000    0.000    0.000 
#    0.000    0.000    0.000    0.000    0.000    0.000 
#
# Total GULP energy -78079.214687 kJ/mol
# GULP energy per Si atom -5577.086763 kJ/mol
# Density = 2.440988 g / cm^3
# Si number density = 24.465564 Si / 1000 Ang^3
#
#
#
# Elastic Constant Matrix: (Units=GPa)
#
#
# Indices 1 2 3 4 5 6 
#
# 1 158.8691 37.6993 76.3371 2.1327 2.0575 -42.6559
# 2 37.6993 53.3346 43.2678 18.3706 -1.6526 -19.0126
# 3 76.3371 43.2678 184.4183 19.2285 17.5389 -17.5835
# 4 2.1327 18.3706 19.2285 46.4055 -7.6140 -1.3790
# 5 2.0575 -1.6526 17.5389 -7.6140 54.8776 -2.0043
# 6 -42.6559 -19.0126 -17.5835 -1.3790 -2.0043 45.3419
#
#
#
# Elastic Compliance Matrix: (Units=1/GPa)
#
#
# Indices 1 2 3 4 5 6 
#
# 1 0.010569 -0.002861 -0.003353 0.002459 0.001207 0.007571
# 2 -0.002861 0.030608 -0.004328 -0.009724 0.001364 0.008229
# 3 -0.003353 -0.004328 0.008129 -0.002046 -0.002960 -0.002010
# 4 0.002459 -0.009724 -0.002046 0.026730 0.003920 -0.001571
# 5 0.001207 0.001364 -0.002960 0.003920 0.019765 0.001552
# 6 0.007571 0.008229 -0.002010 -0.001571 0.001552 0.031869
#
#
# Mechanical properties :
#
#
# Convention : Reuss Voigt Hill
#
# Bulk Modulus (GPa) = 35.43414 79.02558 57.22986
# Shear Modulus (GPa) = 31.61349 45.27951 38.44650
#
# Velocity S-wave (km/s) = 3.59857 4.30670 3.96846
# Velocity P-wave (km/s) = 5.63746 7.55652 6.66641
#
# Compressibility (1/GPa) = 0.02822137
#
# Stress axis : x y z
#
# Youngs Moduli (GPa) = 94.62067 32.67108 123.01718
#
# Poissons Ratio (x) = 0.09348 0.41244
# Poissons Ratio (y) = 0.27074 0.53243
# Poissons Ratio (z) = 0.31724 0.14140
#
# Static dielectric constant tensor:
#      x y z
#    x 2.033430 -0.036600 -0.010090 
#    y -0.036600 2.050770 -0.027690 
#    z -0.010090 -0.027690 1.958470 
# 
# From -- ./inp_files/433593.got.cif
#   From: 2010.05.17/outbox.cif.g08.bks.cpg/sg2_217_cif.got.tgz:433593.got - 2010.06.03 11:33:40.
