data_PCOD9058316
_publ_section_title
;
Structure prediction by ZEFSAII (Michael W. Deem and Ramdas Pophale) SiO2 
 PCOD9058316
Probable space group: P -1
;
_chemical_formula_sum "Si O2"
_cell_formula_units_Z 16
_cell_length_a 11.892252
_cell_length_b 14.028830
_cell_length_c 8.859789
_cell_angle_alpha 128.318819
_cell_angle_beta 74.333878
_cell_angle_gamma 66.949106
_cell_volume 751.101639
_symmetry_space_group_name_H-M "P -1"
_symmetry_group_IT_number 2
_symmetry_cell_setting 'triclinic'
loop_
_space_group_symop_operation_xyz
x,y,z
-x,-y,-z
loop_
_atom_site_type_symbol
_atom_site_label
_atom_site_fract_x
_atom_site_fract_y
_atom_site_fract_z
Si Si1 0.347624 0.214706 0.750848
Si Si2 0.343182 0.423082 0.202250
Si Si3 0.074067 0.765765 0.422499
Si Si4 0.519959 0.282186 0.551893
Si Si5 0.307966 0.798339 0.282128
Si Si6 0.079233 0.219358 0.786928
Si Si7 0.746895 0.414996 0.289562
Si Si8 0.166981 0.914101 0.952431
O O1 0.409921 0.255968 0.634926
O O2 0.177180 0.268709 0.830813
O O3 0.500000 0.000000 0.500000
O O4 0.334461 0.303375 0.996084
O O5 0.209188 0.611352 0.343990
O O6 0.293962 0.467387 0.437784
O O7 0.541097 0.315788 0.007290
O O8 0.168056 0.799675 0.326472
O O9 0.014149 0.710503 0.272715
O O10 0.910631 0.948600 0.747918
O O11 0.591195 0.295083 0.686988
O O12 0.391975 0.455772 0.663749
O O13 0.692814 0.122189 0.234692
O O14 0.212510 0.002251 0.522725
O O15 0.936119 0.299993 0.043217
O O16 0.746424 0.276771 0.209533
O O17 0.000000 0.000000 0.000000
#
# Coordination Sequence:
#
# PCOD9058316 Si02
#       8
#     2   2   2   2   2   2   2   2
#     4  11  25  50  75  94 143 197 241 288 344 424
#     4  11  25  43  71 105 140 186 237 294 349 421
#     4  12  25  41  72 108 142 183 238 289 358 426
#     4  11  24  43  72 102 141 188 234 288 353 415
#     4  11  22  45  69 102 141 186 233 286 362 422
#     4  12  25  46  74 100 139 195 241 283 351 425
#     4  12  26  43  71 111 149 179 233 301 359 418
#     4  12  23  44  70 108 151 183 222 298 366 420
#
# _framework density 21.302043000000001
#
# number of rings (size 3 to 8) (size 9 to 14) (size 15 to 20)
#    0.000    0.500    6.250    2.625    1.750    4.500 
#    0.000    2.500    0.000    0.000    0.000    0.000 
#    0.000    0.000    0.000    0.000    0.000    0.000 
#
# Total GULP energy -89607.951895 kJ/mol
# GULP energy per Si atom -5600.496993 kJ/mol
# Density = 2.125356 g / cm^3
# Si number density = 21.302043 Si / 1000 Ang^3
#
#
#
# Elastic Constant Matrix: (Units=GPa)
#
#
# Indices 1 2 3 4 5 6 
#
# 1 107.8803 12.1886 45.0287 -15.4221 -5.3750 5.6013
# 2 12.1886 88.5275 30.7039 6.6864 -1.2052 -14.5577
# 3 45.0287 30.7039 150.8352 -20.6764 -1.6700 4.2738
# 4 -15.4221 6.6864 -20.6764 38.1422 0.8655 -1.3745
# 5 -5.3750 -1.2052 -1.6700 0.8655 29.8616 4.9201
# 6 5.6013 -14.5577 4.2738 -1.3745 4.9201 21.6542
#
#
#
# Elastic Compliance Matrix: (Units=1/GPa)
#
#
# Indices 1 2 3 4 5 6 
#
# 1 0.011256 -0.001534 -0.002463 0.003295 0.002354 -0.003783
# 2 -0.001534 0.014917 -0.003561 -0.004727 -0.001579 0.011187
# 3 -0.002463 -0.003561 0.008770 0.004257 0.000322 -0.003291
# 4 0.003295 -0.004727 0.004257 0.030573 0.000246 -0.002986
# 5 0.002354 -0.001579 0.000322 0.000246 0.035470 -0.009778
# 6 -0.003783 0.011187 -0.003291 -0.002986 -0.009778 0.057362
#
#
# Mechanical properties :
#
#
# Convention : Reuss Voigt Hill
#
# Bulk Modulus (GPa) = 50.43662 58.12060 54.27861
# Shear Modulus (GPa) = 27.76654 35.21970 31.49312
#
# Velocity S-wave (km/s) = 3.61427 4.07055 3.84918
# Velocity P-wave (km/s) = 6.41448 7.03106 6.72984
#
# Compressibility (1/GPa) = 0.01982686
#
# Stress axis : x y z
#
# Youngs Moduli (GPa) = 88.84439 67.03584 114.02288
#
# Poissons Ratio (x) = 0.10286 0.28082
# Poissons Ratio (y) = 0.13632 0.40603
# Poissons Ratio (z) = 0.21881 0.23871
#
# Static dielectric constant tensor:
#      x y z
#    x 1.756330 -0.019130 -0.014950 
#    y -0.019130 1.778030 0.016300 
#    z -0.014950 0.016300 1.784720 
# 
# From -- ./inp_files/274343.got.cif
#   From: 2010.05.17/outbox.cif.g08.bks.cpg/sg2_138_cif.got.tgz:274343.got - 2010.06.03 11:33:40.
