data_PCOD9058910
_publ_section_title
;
Structure prediction by ZEFSAII (Michael W. Deem and Ramdas Pophale) SiO2 
 PCOD9058910
Probable space group: P -1
;
_chemical_formula_sum "Si O2"
_cell_formula_units_Z 16
_cell_length_a 13.393598
_cell_length_b 9.232257
_cell_length_c 9.649576
_cell_angle_alpha 64.301254
_cell_angle_beta 38.328882
_cell_angle_gamma 60.678730
_cell_volume 642.483000
_symmetry_space_group_name_H-M "P -1"
_symmetry_group_IT_number 2
_symmetry_cell_setting 'triclinic'
loop_
_space_group_symop_operation_xyz
x,y,z
-x,-y,-z
loop_
_atom_site_type_symbol
_atom_site_label
_atom_site_fract_x
_atom_site_fract_y
_atom_site_fract_z
Si Si1 0.627228 0.393365 0.719959
Si Si2 0.936503 0.866343 0.715105
Si Si3 0.025497 0.497983 0.176511
Si Si4 0.676901 0.018661 0.759386
Si Si5 0.715149 0.607689 0.304095
Si Si6 0.712488 0.080969 0.102935
Si Si7 0.584255 0.054307 0.549332
Si Si8 0.252221 0.551924 0.145037
O O1 0.690277 0.194069 0.732560
O O2 0.635087 0.483253 0.528434
O O3 0.729201 0.459000 0.703399
O O4 0.430974 0.435704 0.951431
O O5 0.029046 0.675184 0.713716
O O6 0.792300 0.854725 0.769944
O O7 0.000000 0.000000 0.500000
O O8 0.848489 0.951856 0.915054
O O9 0.095810 0.524762 0.239846
O O10 0.864737 0.633378 0.232161
O O11 0.184645 0.471650 0.909664
O O12 0.696990 0.037353 0.567816
O O13 0.500000 0.000000 0.000000
O O14 0.565699 0.773076 0.367001
O O15 0.698121 0.038114 0.297183
O O16 0.523974 0.080401 0.262620
O O17 0.742694 0.260047 0.975829
#
# Coordination Sequence:
#
# PCOD9058910 Si02
#       8
#     2   2   2   2   2   2   2   2
#     4  11  23  38  69  97 139 177 227 292 337 400
#     4  12  25  49  70 100 143 185 230 284 351 421
#     4  11  26  44  70  97 143 187 223 278 355 421
#     4  12  22  42  73 102 133 188 238 284 341 414
#     4  11  23  46  67  98 138 183 228 280 346 422
#     4  11  23  45  70 102 141 180 227 304 337 406
#     4  11  23  43  73 104 139 179 239 287 348 403
#     4  11  23  42  65 105 134 174 236 285 343 403
#
# _framework density 24.903383999999999
#
# number of rings (size 3 to 8) (size 9 to 14) (size 15 to 20)
#    0.000    0.750    5.000    2.250    1.750    2.500 
#    0.000    1.250    0.000    0.000    0.000    0.000 
#    0.000    0.000    0.000    0.000    0.000    0.000 
#
# Total GULP energy -89427.206719 kJ/mol
# GULP energy per Si atom -5589.200420 kJ/mol
# Density = 2.484670 g / cm^3
# Si number density = 24.903384 Si / 1000 Ang^3
#
#
#
# Elastic Constant Matrix: (Units=GPa)
#
#
# Indices 1 2 3 4 5 6 
#
# 1 69.6728 7.4688 -14.3336 20.3621 19.5258 3.3330
# 2 7.4688 102.3746 20.5432 -5.9266 3.9228 -6.7016
# 3 -14.3336 20.5432 133.1687 3.7177 25.2342 5.8353
# 4 20.3621 -5.9266 3.7177 35.9664 10.6867 -4.7118
# 5 19.5258 3.9228 25.2342 10.6867 32.2917 2.0226
# 6 3.3330 -6.7016 5.8353 -4.7118 2.0226 29.8513
#
#
#
# Elastic Compliance Matrix: (Units=1/GPa)
#
#
# Indices 1 2 3 4 5 6 
#
# 1 0.023706 -0.003435 0.006469 -0.010895 -0.015029 -0.005384
# 2 -0.003435 0.010993 -0.002565 0.004209 0.001107 0.003942
# 3 0.006469 -0.002565 0.010918 -0.002288 -0.011184 -0.003036
# 4 -0.010895 0.004209 -0.002288 0.037592 -0.005133 0.008890
# 5 -0.015029 0.001107 -0.011184 -0.005133 0.050367 -0.000110
# 6 -0.005384 0.003942 -0.003036 0.008890 -0.000110 0.036990
#
#
# Mechanical properties :
#
#
# Convention : Reuss Voigt Hill
#
# Bulk Modulus (GPa) = 21.48036 36.95254 29.21645
# Shear Modulus (GPa) = 27.00603 39.05772 33.03188
#
# Velocity S-wave (km/s) = 3.29664 3.96456 3.64593
# Velocity P-wave (km/s) = 4.80985 5.98561 5.42965
#
# Compressibility (1/GPa) = 0.04655416
#
# Stress axis : x y z
#
# Youngs Moduli (GPa) = 42.18407 90.96885 91.59528
#
# Poissons Ratio (x) = 0.31247 -0.59257
# Poissons Ratio (y) = 0.14490 0.23498
# Poissons Ratio (z) = -0.27291 0.23337
#
# Static dielectric constant tensor:
#      x y z
#    x 2.059350 0.105000 -0.067660 
#    y 0.105000 1.915480 0.005860 
#    z -0.067660 0.005860 2.049860 
# 
# From -- ./inp_files/297754.got.cif
#   From: 2010.05.17/outbox.cif.g08.bks.cpg/sg2_149_cif.got.tgz:297754.got - 2010.06.03 11:33:40.
