data_PCOD9058525
_publ_section_title
;
Structure prediction by ZEFSAII (Michael W. Deem and Ramdas Pophale) SiO2 
 PCOD9058525
Probable space group: P -1
;
_chemical_formula_sum "Si O2"
_cell_formula_units_Z 16
_cell_length_a 9.052477
_cell_length_b 15.762933
_cell_length_c 12.188247
_cell_angle_alpha 112.324115
_cell_angle_beta 137.299627
_cell_angle_gamma 38.997641
_cell_volume 663.464174
_symmetry_space_group_name_H-M "P -1"
_symmetry_group_IT_number 2
_symmetry_cell_setting 'triclinic'
loop_
_space_group_symop_operation_xyz
x,y,z
-x,-y,-z
loop_
_atom_site_type_symbol
_atom_site_label
_atom_site_fract_x
_atom_site_fract_y
_atom_site_fract_z
Si Si1 0.699668 0.452817 0.698360
Si Si2 0.395311 0.407904 0.651855
Si Si3 0.161927 0.919114 0.828507
Si Si4 0.674060 0.950092 0.691511
Si Si5 0.168695 0.657052 0.958945
Si Si6 0.341902 0.317943 0.198158
Si Si7 0.644133 0.893390 0.184824
Si Si8 0.819013 0.141288 0.583722
O O1 0.500000 0.500000 0.500000
O O2 0.442480 0.495290 0.672467
O O3 0.058515 0.274130 0.785162
O O4 0.758121 0.541595 0.785063
O O5 0.569279 0.288698 0.593615
O O6 0.000000 0.500000 0.500000
O O7 0.644413 0.327853 0.856167
O O8 0.479273 0.763951 0.860243
O O9 0.000296 0.911305 0.830493
O O10 0.285530 0.974191 0.975046
O O11 0.868931 0.034754 0.630390
O O12 0.869422 0.798248 0.782451
O O13 0.500000 0.000000 0.500000
O O14 0.404889 0.084031 0.700040
O O15 0.973550 0.646485 0.923898
O O16 0.500000 0.500000 0.000000
O O17 0.641054 0.199262 0.396937
O O18 0.786344 0.945651 0.254451
#
# Coordination Sequence:
#
# PCOD9058525 Si02
#       8
#     2   2   2   2   2   2   2   2
#     4  11  25  44  77 108 141 200 245 305 368 447
#     4  11  25  46  74 106 154 197 241 304 372 447
#     4  12  26  42  74 103 144 189 245 308 368 440
#     4  12  28  50  72 109 148 199 249 311 374 441
#     4  12  29  47  74 112 151 196 249 312 376 439
#     4  12  24  47  73 108 149 187 252 301 371 443
#     4  11  24  45  72 101 147 190 246 298 371 447
#     4  11  22  46  69 104 137 201 238 298 372 438
#
# _framework density 24.115846999999999
#
# number of rings (size 3 to 8) (size 9 to 14) (size 15 to 20)
#    0.000    0.500    2.500    6.375    3.500    2.000 
#    0.000    0.000    0.000    0.000    0.000    0.000 
#    0.000    0.000    0.000    0.000    0.000    0.000 
#
# Total GULP energy -89513.288272 kJ/mol
# GULP energy per Si atom -5594.580517 kJ/mol
# Density = 2.406096 g / cm^3
# Si number density = 24.115847 Si / 1000 Ang^3
#
#
#
# Elastic Constant Matrix: (Units=GPa)
#
#
# Indices 1 2 3 4 5 6 
#
# 1 181.7085 47.7445 38.3303 -3.8975 23.0228 -4.9862
# 2 47.7445 74.8657 19.2473 9.4266 16.1541 4.3794
# 3 38.3303 19.2473 118.8432 16.7409 2.8822 7.2004
# 4 -3.8975 9.4266 16.7409 35.6267 -2.3026 -13.6603
# 5 23.0228 16.1541 2.8822 -2.3026 39.2811 -4.5041
# 6 -4.9862 4.3794 7.2004 -13.6603 -4.5041 37.3690
#
#
#
# Elastic Compliance Matrix: (Units=1/GPa)
#
#
# Indices 1 2 3 4 5 6 
#
# 1 0.007663 -0.004629 -0.002519 0.004465 -0.001743 0.003473
# 2 -0.004629 0.019157 0.000191 -0.008716 -0.006478 -0.006867
# 3 -0.002519 0.000191 0.010535 -0.007251 -0.000383 -0.005085
# 4 0.004465 -0.008716 -0.007251 0.041995 0.006152 0.019107
# 5 -0.001743 -0.006478 -0.000383 0.006152 0.030277 0.006499
# 6 0.003473 -0.006867 -0.005085 0.019107 0.006499 0.036776
#
#
# Mechanical properties :
#
#
# Convention : Reuss Voigt Hill
#
# Bulk Modulus (GPa) = 42.65889 65.11796 53.88842
# Shear Modulus (GPa) = 29.73915 40.46170 35.10043
#
# Velocity S-wave (km/s) = 3.51547 4.10055 3.81923
# Velocity P-wave (km/s) = 5.84856 7.03421 6.46860
#
# Compressibility (1/GPa) = 0.02344177
#
# Stress axis : x y z
#
# Youngs Moduli (GPa) = 130.50148 52.20091 94.92406
#
# Poissons Ratio (x) = 0.24161 0.23911
# Poissons Ratio (y) = 0.60403 -0.01816
# Poissons Ratio (z) = 0.32873 -0.00998
#
# Static dielectric constant tensor:
#      x y z
#    x 1.915740 0.023370 0.015730 
#    y 0.023370 1.921180 -0.005610 
#    z 0.015730 -0.005610 1.982240 
# 
# From -- ./inp_files/257172.got.cif
#   From: 2010.05.17/outbox.cif.g08.bks.cpg/sg2_129_cif.got.tgz:257172.got - 2010.06.03 11:33:40.
