data_PCOD9058286
_publ_section_title
;
Structure prediction by ZEFSAII (Michael W. Deem and Ramdas Pophale) SiO2 
 PCOD9058286
Probable space group: P -1
;
_chemical_formula_sum "Si O2"
_cell_formula_units_Z 16
_cell_length_a 18.507716
_cell_length_b 8.399891
_cell_length_c 5.352107
_cell_angle_alpha 101.591152
_cell_angle_beta 103.060560
_cell_angle_gamma 126.065182
_cell_volume 593.345941
_symmetry_space_group_name_H-M "P -1"
_symmetry_group_IT_number 2
_symmetry_cell_setting 'triclinic'
loop_
_space_group_symop_operation_xyz
x,y,z
-x,-y,-z
loop_
_atom_site_type_symbol
_atom_site_label
_atom_site_fract_x
_atom_site_fract_y
_atom_site_fract_z
Si Si1 0.266022 0.734026 0.935913
Si Si2 0.830519 0.794594 0.873761
Si Si3 0.034617 0.647347 0.329375
Si Si4 0.223319 0.948509 0.300611
Si Si5 0.632262 0.316822 0.621004
Si Si6 0.101951 0.270444 0.576936
Si Si7 0.564161 0.940410 0.113080
Si Si8 0.539423 0.696987 0.414341
O O1 0.209711 0.751937 0.106809
O O2 0.332496 0.682098 0.074934
O O3 0.182697 0.526831 0.647707
O O4 0.346635 0.976211 0.971126
O O5 0.719420 0.558254 0.665555
O O6 0.901524 0.831265 0.718335
O O7 0.820607 0.972277 0.881653
O O8 0.859849 0.778565 0.169672
O O9 0.153364 0.843677 0.455240
O O10 0.000000 0.500000 0.500000
O O11 0.987222 0.755715 0.381511
O O12 0.000000 0.500000 0.000000
O O13 0.341767 0.148774 0.478275
O O14 0.625813 0.130503 0.432793
O O15 0.524944 0.244683 0.500793
O O16 0.511284 0.705040 0.106755
O O17 0.500000 0.000000 0.000000
O O18 0.500000 0.500000 0.500000
#
# Coordination Sequence:
#
# PCOD9058286 Si02
#       8
#     2   2   2   2   2   2   2   2
#     4  11  23  43  76 106 139 201 256 312 371 461
#     4  11  26  47  77 112 155 198 249 315 396 459
#     4  12  28  49  81 118 148 195 263 325 376 456
#     4  12  27  48  76 111 154 198 251 325 389 456
#     4  11  22  45  67 103 149 196 256 306 375 467
#     4  11  25  49  77 109 152 197 251 316 383 458
#     4  12  23  39  72 100 137 203 264 303 371 462
#     4  12  25  44  68 107 161 199 247 326 386 456
#
# _framework density 26.965720999999998
#
# number of rings (size 3 to 8) (size 9 to 14) (size 15 to 20)
#    0.000    0.500    6.250    1.875    3.500    3.000 
#    0.000    1.250    0.000    0.000    0.000    0.000 
#    0.000    0.000    0.000    0.000    0.000    0.000 
#
# Total GULP energy -89322.102789 kJ/mol
# GULP energy per Si atom -5582.631424 kJ/mol
# Density = 2.690435 g / cm^3
# Si number density = 26.965721 Si / 1000 Ang^3
#
#
#
# Elastic Constant Matrix: (Units=GPa)
#
#
# Indices 1 2 3 4 5 6 
#
# 1 170.5816 51.1667 46.9161 -12.0562 5.0784 18.9651
# 2 51.1667 174.1143 36.3633 -33.6556 11.6573 24.1486
# 3 46.9161 36.3633 94.1308 -18.2106 -1.4009 7.8960
# 4 -12.0562 -33.6556 -18.2106 47.8921 1.8140 4.5429
# 5 5.0784 11.6573 -1.4009 1.8140 30.7793 -15.6270
# 6 18.9651 24.1486 7.8960 4.5429 -15.6270 57.3454
#
#
#
# Elastic Compliance Matrix: (Units=1/GPa)
#
#
# Indices 1 2 3 4 5 6 
#
# 1 0.007331 -0.001033 -0.003059 0.000238 -0.002063 -0.002149
# 2 -0.001033 0.008636 -0.001300 0.006051 -0.006199 -0.005285
# 3 -0.003059 -0.001300 0.013334 0.003355 0.001312 -0.000185
# 4 0.000238 0.006051 0.003355 0.027445 -0.007506 -0.007308
# 5 -0.002063 -0.006199 0.001312 -0.007506 0.043593 0.015586
# 6 -0.002149 -0.005285 -0.000185 -0.007308 0.015586 0.025226
#
#
# Mechanical properties :
#
#
# Convention : Reuss Voigt Hill
#
# Bulk Modulus (GPa) = 54.00304 78.63543 66.31924
# Shear Modulus (GPa) = 35.08251 47.49540 41.28896
#
# Velocity S-wave (km/s) = 3.61086 4.20137 3.91725
# Velocity P-wave (km/s) = 6.12000 7.26360 6.71619
#
# Compressibility (1/GPa) = 0.01851748
#
# Stress axis : x y z
#
# Youngs Moduli (GPa) = 136.41267 115.79491 74.99481
#
# Poissons Ratio (x) = 0.11964 0.22940
# Poissons Ratio (y) = 0.14095 0.09746
# Poissons Ratio (z) = 0.41728 0.15048
#
# Static dielectric constant tensor:
#      x y z
#    x 2.069970 0.044370 0.067580 
#    y 0.044370 2.192740 -0.065370 
#    z 0.067580 -0.065370 2.626220 
# 
# From -- ./inp_files/106999.got.cif
#   From: 2010.05.17/outbox.cif.g08.bks.cpg/sg2_54_cif.got.tgz:106999.got - 2010.06.03 11:33:40.
