data_PCOD9058172
_publ_section_title
;
Structure prediction by ZEFSAII (Michael W. Deem and Ramdas Pophale) SiO2 
 PCOD9058172
Probable space group: P -1
;
_chemical_formula_sum "Si O2"
_cell_formula_units_Z 12
_cell_length_a 9.387377
_cell_length_b 14.914607
_cell_length_c 8.996788
_cell_angle_alpha 63.545935
_cell_angle_beta 114.277185
_cell_angle_gamma 148.069617
_cell_volume 594.990584
_symmetry_space_group_name_H-M "P -1"
_symmetry_group_IT_number 2
_symmetry_cell_setting 'triclinic'
loop_
_space_group_symop_operation_xyz
x,y,z
-x,-y,-z
loop_
_atom_site_type_symbol
_atom_site_label
_atom_site_fract_x
_atom_site_fract_y
_atom_site_fract_z
Si Si1 0.956516 0.739036 0.112299
Si Si2 0.256290 0.077901 0.116233
Si Si3 0.206024 0.656398 0.354673
Si Si4 0.652417 0.595338 0.786318
Si Si5 0.744852 0.421524 0.877306
Si Si6 0.717945 0.855595 0.572402
O O1 0.657066 0.590688 0.163768
O O2 0.068189 0.685416 0.215010
O O3 0.874741 0.723581 0.919510
O O4 0.180925 0.925282 0.150147
O O5 0.269556 0.108042 0.274939
O O6 0.505051 0.254559 0.002176
O O7 0.000000 0.000000 0.000000
O O8 0.264834 0.618947 0.265504
O O9 0.498218 0.816338 0.438753
O O10 0.000000 0.500000 0.500000
O O11 0.748975 0.544309 0.786740
O O12 0.625174 0.691455 0.636105
O O13 0.000000 0.500000 0.000000
O O14 0.000000 0.000000 0.500000
#
# Coordination Sequence:
#
# PCOD9058172 Si02
#       6
#     2   2   2   2   2   2
#     4  11  23  43  75  99 134 187 232 277 339 416
#     4  12  23  44  73 100 133 183 237 275 331 421
#     4  12  26  45  68 105 143 173 225 296 344 392
#     4  11  22  44  73 100 134 186 233 272 344 419
#     4  12  25  43  74 104 133 183 233 280 337 414
#     4  12  27  44  69 106 144 174 225 296 349 393
#
# _framework density 20.168386000000002
#
# number of rings (size 3 to 8) (size 9 to 14) (size 15 to 20)
#    0.000    0.333    6.667    3.000    0.000    4.667 
#    0.000    0.000    0.000    0.000    0.000    0.000 
#    0.000    0.000    0.000    0.000    0.000    0.000 
#
# Total GULP energy -66941.730890 kJ/mol
# GULP energy per Si atom -5578.477574 kJ/mol
# Density = 2.012248 g / cm^3
# Si number density = 20.168386 Si / 1000 Ang^3
#
#
#
# Elastic Constant Matrix: (Units=GPa)
#
#
# Indices 1 2 3 4 5 6 
#
# 1 120.3688 31.0213 30.0699 6.6750 -4.2170 -7.5730
# 2 31.0213 83.4927 16.5452 1.2841 -15.8301 10.9130
# 3 30.0699 16.5452 69.8055 18.8417 -13.3018 6.9360
# 4 6.6750 1.2841 18.8417 41.0696 4.9347 7.9105
# 5 -4.2170 -15.8301 -13.3018 4.9347 53.2790 1.3295
# 6 -7.5730 10.9130 6.9360 7.9105 1.3295 51.9244
#
#
#
# Elastic Compliance Matrix: (Units=1/GPa)
#
#
# Indices 1 2 3 4 5 6 
#
# 1 0.010434 -0.003692 -0.004150 -0.000069 -0.001373 0.002898
# 2 -0.003692 0.014759 -0.001039 0.000872 0.003846 -0.003733
# 3 -0.004150 -0.001039 0.019871 -0.008674 0.005173 -0.001852
# 4 -0.000069 0.000872 -0.008674 0.029518 -0.004561 -0.003415
# 5 -0.001373 0.003846 0.005173 -0.004561 0.021556 -0.001557
# 6 0.002898 -0.003733 -0.001852 -0.003415 -0.001557 0.021274
#
#
# Mechanical properties :
#
#
# Convention : Reuss Voigt Hill
#
# Bulk Modulus (GPa) = 36.63081 47.65999 42.14540
# Shear Modulus (GPa) = 34.65593 42.32330 38.48961
#
# Velocity S-wave (km/s) = 4.14977 4.58591 4.37328
# Velocity P-wave (km/s) = 6.41582 7.19187 6.81490
#
# Compressibility (1/GPa) = 0.02729943
#
# Stress axis : x y z
#
# Youngs Moduli (GPa) = 95.83737 67.75723 50.32500
#
# Poissons Ratio (x) = 0.25019 0.20887
# Poissons Ratio (y) = 0.35388 0.05230
# Poissons Ratio (z) = 0.39777 0.07041
#
# Static dielectric constant tensor:
#      x y z
#    x 1.443770 0.143180 0.092340 
#    y 0.143180 1.609460 -0.065390 
#    z 0.092340 -0.065390 1.683570 
# 
# From -- ./inp_files/145547.got.cif
#   From: 2010.05.17/outbox.cif.g08.bks.cpg/sg2_73_cif.got.tgz:145547.got - 2010.06.03 11:33:40.
