data_PCOD9058157
_publ_section_title
;
Structure prediction by ZEFSAII (Michael W. Deem and Ramdas Pophale) SiO2 
 PCOD9058157
Probable space group: P -1
;
_chemical_formula_sum "Si O2"
_cell_formula_units_Z 15
_cell_length_a 8.488553
_cell_length_b 14.237445
_cell_length_c 14.997140
_cell_angle_alpha 148.058086
_cell_angle_beta 134.023772
_cell_angle_gamma 47.984244
_cell_volume 674.241722
_symmetry_space_group_name_H-M "P -1"
_symmetry_group_IT_number 2
_symmetry_cell_setting 'triclinic'
loop_
_space_group_symop_operation_xyz
x,y,z
-x,-y,-z
loop_
_atom_site_type_symbol
_atom_site_label
_atom_site_fract_x
_atom_site_fract_y
_atom_site_fract_z
Si Si1 0.700158 0.583105 0.688359
Si Si2 0.244506 0.039797 0.568536
Si Si3 0.468839 0.526502 0.153423
Si Si4 0.964175 0.049595 0.283784
Si Si5 0.146978 0.680119 0.299620
Si Si6 0.050857 0.434312 0.567213
Si Si7 0.500000 0.000000 0.000000
Si Si8 0.648742 0.210261 0.848584
O O1 0.500000 0.500000 0.500000
O O2 0.802894 0.443834 0.694456
O O3 0.897321 0.575899 0.687699
O O4 0.610599 0.782068 0.852028
O O5 0.481541 0.074315 0.660726
O O6 0.094399 0.025895 0.410391
O O7 0.111190 0.214417 0.711563
O O8 0.263484 0.855196 0.482155
O O9 0.259180 0.559514 0.164036
O O10 0.388815 0.647728 0.132993
O O11 0.685122 0.589041 0.329473
O O12 0.571648 0.322934 0.997942
O O13 0.977552 0.246029 0.408652
O O14 0.102375 0.903141 0.151811
O O15 0.713830 0.022573 0.166070
O O16 0.000000 0.500000 0.500000
#
# Coordination Sequence:
#
# PCOD9058157 Si02
#       8
#     2   2   2   2   2   2   1   2
#     4  12  24  50  70 101 148 193 241 303 353 433
#     4  11  22  44  72 107 141 190 233 303 374 438
#     4  11  23  41  68 107 145 186 236 302 363 434
#     4  12  23  47  70 103 143 189 243 298 362 432
#     4  11  23  42  70 105 144 183 239 290 374 432
#     4  12  25  46  75 100 144 197 245 297 365 434
#     4  12  28  46  76 102 146 200 244 296 366 432
#     4  11  23  43  71 104 146 186 238 302 365 431
#
# _framework density 22.247212999999999
#
# number of rings (size 3 to 8) (size 9 to 14) (size 15 to 20)
#    0.000    0.533    5.333    2.800    0.000    1.600 
#    9.600    1.333    0.000    0.000    0.000    0.000 
#    0.000    0.000    0.000    0.000    0.000    0.000 
#
# Total GULP energy -83644.398393 kJ/mol
# GULP energy per Si atom -5576.293226 kJ/mol
# Density = 2.219658 g / cm^3
# Si number density = 22.247213 Si / 1000 Ang^3
#
#
#
# Elastic Constant Matrix: (Units=GPa)
#
#
# Indices 1 2 3 4 5 6 
#
# 1 84.1692 18.8044 10.6709 -3.1991 -22.0904 4.9846
# 2 18.8044 69.3829 31.8869 28.3275 -13.6935 1.4281
# 3 10.6709 31.8869 94.9210 15.2910 -9.8320 3.6014
# 4 -3.1991 28.3275 15.2910 35.4796 -14.7490 0.0765
# 5 -22.0904 -13.6935 -9.8320 -14.7490 36.4455 -1.7195
# 6 4.9846 1.4281 3.6014 0.0765 -1.7195 37.9441
#
#
#
# Elastic Compliance Matrix: (Units=1/GPa)
#
#
# Indices 1 2 3 4 5 6 
#
# 1 0.017530 -0.007354 -0.000184 0.012929 0.012976 -0.001447
# 2 -0.007354 0.026709 -0.005138 -0.021672 -0.004565 0.000285
# 3 -0.000184 -0.005138 0.012565 -0.000944 0.000922 -0.000931
# 4 0.012929 -0.021672 -0.000944 0.056301 0.022228 0.000101
# 5 0.012976 -0.004565 0.000922 0.022228 0.042845 0.000277
# 6 -0.001447 0.000285 -0.000931 0.000101 0.000277 0.026635
#
#
# Mechanical properties :
#
#
# Convention : Reuss Voigt Hill
#
# Bulk Modulus (GPa) = 31.79601 41.24417 36.52009
# Shear Modulus (GPa) = 22.89159 34.44790 28.66975
#
# Velocity S-wave (km/s) = 3.21123 3.93926 3.59373
# Velocity P-wave (km/s) = 5.29835 6.26655 5.80268
#
# Compressibility (1/GPa) = 0.03145048
#
# Stress axis : x y z
#
# Youngs Moduli (GPa) = 57.04503 37.44116 79.58815
#
# Poissons Ratio (x) = 0.27536 0.01464
# Poissons Ratio (y) = 0.41953 0.40893
# Poissons Ratio (z) = 0.01049 0.19237
#
# Static dielectric constant tensor:
#      x y z
#    x 1.828700 -0.023820 -0.039580 
#    y -0.023820 1.753530 0.021430 
#    z -0.039580 0.021430 1.873650 
# 
# From -- ./inp_files/505965.got.cif
#   From: 2010.05.17/outbox.cif.g08.bks.cpg/sg2_253_cif.got.tgz:505965.got - 2010.06.03 11:33:40.
