data_PCOD9058786
_publ_section_title
;
Structure prediction by ZEFSAII (Michael W. Deem and Ramdas Pophale) SiO2 
 PCOD9058786
Probable space group: P -1
;
_chemical_formula_sum "Si O2"
_cell_formula_units_Z 14
_cell_length_a 15.870220
_cell_length_b 7.028018
_cell_length_c 7.391935
_cell_angle_alpha 57.866366
_cell_angle_beta 110.275615
_cell_angle_gamma 124.050061
_cell_volume 577.069801
_symmetry_space_group_name_H-M "P -1"
_symmetry_group_IT_number 2
_symmetry_cell_setting 'triclinic'
loop_
_space_group_symop_operation_xyz
x,y,z
-x,-y,-z
loop_
_atom_site_type_symbol
_atom_site_label
_atom_site_fract_x
_atom_site_fract_y
_atom_site_fract_z
Si Si1 0.438569 0.133580 0.303651
Si Si2 0.191541 0.430527 0.291523
Si Si3 0.790921 0.690868 0.237805
Si Si4 0.587362 0.717882 0.159743
Si Si5 0.154054 0.630460 0.836178
Si Si6 0.706523 0.900953 0.507224
Si Si7 0.990417 0.165832 0.070404
O O1 0.494475 0.433559 0.244704
O O2 0.329471 0.025922 0.373822
O O3 0.500000 0.000000 0.500000
O O4 0.434848 0.124117 0.089119
O O5 0.196549 0.441055 0.504330
O O6 0.272797 0.338006 0.339584
O O7 0.078202 0.218524 0.254462
O O8 0.204717 0.662587 0.056012
O O9 0.681993 0.680664 0.173027
O O10 0.806915 0.544530 0.155372
O O11 0.878698 0.986003 0.151911
O O12 0.621529 0.841735 0.318926
O O13 0.191449 0.876156 0.617745
O O14 0.032885 0.450601 0.871764
O O15 0.000000 0.000000 0.000000
#
# Coordination Sequence:
#
# PCOD9058786 Si02
#       7
#     2   2   2   2   2   2   2
#     4  11  24  42  63  85 115 149 195 238 298 342
#     4   9  20  35  59  83 119 153 190 231 287 331
#     4  10  17  37  63  80 117 159 190 232 289 334
#     4  10  24  40  61  89 114 150 193 243 283 344
#     4   9  20  34  55  86 118 150 193 230 277 338
#     4  11  22  39  61  88 118 149 193 235 290 343
#     4   8  17  34  59  83 118 158 186 231 282 333
#
# _framework density 24.260494999999999
#
# number of rings (size 3 to 8) (size 9 to 14) (size 15 to 20)
#    0.857    1.429    0.000    2.571    0.000    5.143 
#    0.000    5.714    3.143    0.000    0.000    0.000 
#    0.000    0.000    0.000    0.000    0.000    0.000 
#
# Total GULP energy -78208.638916 kJ/mol
# GULP energy per Si atom -5586.331351 kJ/mol
# Density = 2.420528 g / cm^3
# Si number density = 24.260495 Si / 1000 Ang^3
#
#
#
# Elastic Constant Matrix: (Units=GPa)
#
#
# Indices 1 2 3 4 5 6 
#
# 1 74.1519 0.1228 36.6818 -6.7621 -15.0897 1.6152
# 2 0.1228 58.8442 23.3333 -0.9767 -0.5159 14.8316
# 3 36.6818 23.3333 134.7012 10.3781 1.1125 -13.5010
# 4 -6.7621 -0.9767 10.3781 30.7601 8.9186 -6.3421
# 5 -15.0897 -0.5159 1.1125 8.9186 35.2744 -3.3241
# 6 1.6152 14.8316 -13.5010 -6.3421 -3.3241 25.5447
#
#
#
# Elastic Compliance Matrix: (Units=1/GPa)
#
#
# Indices 1 2 3 4 5 6 
#
# 1 0.018557 0.004018 -0.006592 0.003357 0.006860 -0.005265
# 2 0.004018 0.024383 -0.007148 0.000183 0.000552 -0.018072
# 3 -0.006592 -0.007148 0.011691 -0.003151 -0.001577 0.009758
# 4 0.003357 0.000183 -0.003151 0.037792 -0.007411 0.006434
# 5 0.006860 0.000552 -0.001577 -0.007411 0.033301 0.000906
# 6 -0.005265 -0.018072 0.009758 0.006434 0.000906 0.056845
#
#
# Mechanical properties :
#
#
# Convention : Reuss Voigt Hill
#
# Bulk Modulus (GPa) = 28.41974 43.10811 35.76393
# Shear Modulus (GPa) = 23.39264 32.15314 27.77289
#
# Velocity S-wave (km/s) = 3.10857 3.64446 3.38713
# Velocity P-wave (km/s) = 4.96227 5.95960 5.48366
#
# Compressibility (1/GPa) = 0.03518681
#
# Stress axis : x y z
#
# Youngs Moduli (GPa) = 53.88742 41.01266 85.53474
#
# Poissons Ratio (x) = -0.16479 0.56388
# Poissons Ratio (y) = -0.21653 0.61139
# Poissons Ratio (z) = 0.35525 0.29315
#
# Static dielectric constant tensor:
#      x y z
#    x 1.883930 0.016580 -0.032690 
#    y 0.016580 1.953810 -0.038490 
#    z -0.032690 -0.038490 1.930050 
# 
# From -- ./inp_files/341517.got.cif
#   From: 2010.05.17/outbox.cif.g08.bks.cpg/sg2_171_cif.got.tgz:341517.got - 2010.06.03 11:33:40.
