data_PCOD9058869
_publ_section_title
;
Structure prediction by ZEFSAII (Michael W. Deem and Ramdas Pophale) SiO2 
 PCOD9058869
Probable space group: P -1
;
_chemical_formula_sum "Si O2"
_cell_formula_units_Z 16
_cell_length_a 9.330596
_cell_length_b 17.174378
_cell_length_c 13.046783
_cell_angle_alpha 158.580902
_cell_angle_beta 95.291778
_cell_angle_gamma 73.661646
_cell_volume 641.088505
_symmetry_space_group_name_H-M "P -1"
_symmetry_group_IT_number 2
_symmetry_cell_setting 'triclinic'
loop_
_space_group_symop_operation_xyz
x,y,z
-x,-y,-z
loop_
_atom_site_type_symbol
_atom_site_label
_atom_site_fract_x
_atom_site_fract_y
_atom_site_fract_z
Si Si1 0.043520 0.089217 0.007248
Si Si2 0.417898 0.857940 0.036893
Si Si3 0.206920 0.383350 0.316124
Si Si4 0.293182 0.647945 0.910709
Si Si5 0.986448 0.196190 0.524590
Si Si6 0.277221 0.699909 0.211682
Si Si7 0.093950 0.367268 0.572344
Si Si8 0.497317 0.878403 0.456098
O O1 0.175039 0.182648 0.124345
O O2 0.866635 0.359312 0.308487
O O3 0.096104 0.882083 0.668149
O O4 0.000000 0.000000 0.000000
O O5 0.246264 0.061966 0.210737
O O6 0.437465 0.025052 0.330793
O O7 0.595513 0.742285 0.846071
O O8 0.432708 0.612846 0.794243
O O9 0.071413 0.497557 0.349742
O O10 0.201735 0.493731 0.717298
O O11 0.326758 0.654749 0.041102
O O12 0.165538 0.941161 0.236910
O O13 0.903804 0.225773 0.665311
O O14 0.013184 0.401508 0.723407
O O15 0.318697 0.905327 0.504722
O O16 0.386770 0.419815 0.920777
O O17 0.500000 0.000000 0.500000
#
# Coordination Sequence:
#
# PCOD9058869 Si02
#       8
#     2   2   2   2   2   2   2   2
#     4  11  23  45  72 108 132 178 243 287 338 425
#     4  11  25  46  70 104 142 186 226 289 346 409
#     4  11  25  45  78 100 136 186 228 289 357 401
#     4  11  23  44  66 103 146 176 233 286 337 424
#     4  11  24  41  69  97 140 183 231 291 344 401
#     4  11  24  40  64 102 136 190 228 279 348 409
#     4  11  24  45  69 104 142 178 237 286 335 423
#     4  11  23  38  61  95 142 178 234 278 332 423
#
# _framework density 24.957550999999999
#
# number of rings (size 3 to 8) (size 9 to 14) (size 15 to 20)
#    0.000    1.000    5.000    1.125    1.750    1.500 
#    0.000    5.000    0.000    0.000    0.000    0.000 
#    0.000    0.000    0.000    0.000    0.000    0.000 
#
# Total GULP energy -89169.946971 kJ/mol
# GULP energy per Si atom -5573.121686 kJ/mol
# Density = 2.490075 g / cm^3
# Si number density = 24.957551 Si / 1000 Ang^3
#
#
#
# Elastic Constant Matrix: (Units=GPa)
#
#
# Indices 1 2 3 4 5 6 
#
# 1 111.3583 50.5598 24.6201 5.8463 20.1291 28.2565
# 2 50.5598 134.4311 19.8461 35.8521 13.6750 20.5890
# 3 24.6201 19.8461 41.5659 10.9973 25.1663 1.6673
# 4 5.8463 35.8521 10.9973 34.8459 10.6036 9.2682
# 5 20.1291 13.6750 25.1663 10.6036 43.1273 3.6071
# 6 28.2565 20.5890 1.6673 9.2682 3.6071 48.4959
#
#
#
# Elastic Compliance Matrix: (Units=1/GPa)
#
#
# Indices 1 2 3 4 5 6 
#
# 1 0.014739 -0.005264 -0.006243 0.007752 -0.002854 -0.007407
# 2 -0.005264 0.012678 -0.000841 -0.012492 0.002003 -0.000048
# 3 -0.006243 -0.000841 0.041830 -0.006600 -0.020050 0.005309
# 4 0.007752 -0.012492 -0.006600 0.046286 -0.006572 -0.007343
# 5 -0.002854 0.002003 -0.020050 -0.006572 0.037201 -0.000009
# 6 -0.007407 -0.000048 0.005309 -0.007343 -0.000009 0.026178
#
#
# Mechanical properties :
#
#
# Convention : Reuss Voigt Hill
#
# Bulk Modulus (GPa) = 22.44622 53.04526 37.74574
# Shear Modulus (GPa) = 22.88771 38.11576 30.50174
#
# Velocity S-wave (km/s) = 3.03159 3.91221 3.49971
# Velocity P-wave (km/s) = 4.61166 6.45814 5.61137
#
# Compressibility (1/GPa) = 0.04455093
#
# Stress axis : x y z
#
# Youngs Moduli (GPa) = 67.84823 78.87655 23.90630
#
# Poissons Ratio (x) = 0.41524 0.14924
# Poissons Ratio (y) = 0.35718 0.02010
# Poissons Ratio (z) = 0.42355 0.06632
#
# Static dielectric constant tensor:
#      x y z
#    x 2.665070 0.237730 -0.115360 
#    y 0.237730 2.185420 -0.097210 
#    z -0.115360 -0.097210 2.012190 
# 
# From -- ./inp_files/507134.got.cif
#   From: 2010.05.17/outbox.cif.g08.bks.cpg/sg2_254_cif.got.tgz:507134.got - 2010.06.03 11:33:40.
