data_PCOD9058363
_publ_section_title
;
Structure prediction by ZEFSAII (Michael W. Deem and Ramdas Pophale) SiO2 
 PCOD9058363
Probable space group: P -1
;
_chemical_formula_sum "Si O2"
_cell_formula_units_Z 13
_cell_length_a 15.363369
_cell_length_b 13.603746
_cell_length_c 5.643268
_cell_angle_alpha 68.997422
_cell_angle_beta 101.156732
_cell_angle_gamma 151.788161
_cell_volume 500.118717
_symmetry_space_group_name_H-M "P -1"
_symmetry_group_IT_number 2
_symmetry_cell_setting 'triclinic'
loop_
_space_group_symop_operation_xyz
x,y,z
-x,-y,-z
loop_
_atom_site_type_symbol
_atom_site_label
_atom_site_fract_x
_atom_site_fract_y
_atom_site_fract_z
Si Si1 0.962249 0.875343 0.390203
Si Si2 0.450670 0.146017 0.681787
Si Si3 0.724037 0.259792 0.160925
Si Si4 0.304277 0.349345 0.947996
Si Si5 0.099612 0.418802 0.401615
Si Si6 0.000000 0.500000 0.500000
Si Si7 0.488619 0.741183 0.887051
O O1 0.757256 0.678418 0.323754
O O2 0.977850 0.771682 0.565281
O O3 0.000000 0.000000 0.500000
O O4 0.138965 0.089235 0.127407
O O5 0.680479 0.371545 0.597031
O O6 0.401829 0.147190 0.402874
O O7 0.366065 0.939218 0.828307
O O8 0.410197 0.166719 0.884577
O O9 0.594649 0.227139 0.160551
O O10 0.803615 0.306877 0.412613
O O11 0.885287 0.470630 0.877443
O O12 0.320624 0.476497 0.995067
O O13 0.500000 0.500000 0.000000
O O14 0.985470 0.353725 0.607180
#
# Coordination Sequence:
#
# PCOD9058363 Si02
#       7
#     2   2   2   2   2   1   2
#     4  11  24  49  77 100 148 200 249 313 383 445
#     4  11  23  42  74 100 134 194 240 285 365 443
#     4  11  24  41  68 100 140 189 236 289 366 443
#     4  11  26  47  73 110 142 192 255 317 379 445
#     4  11  23  44  65 102 139 191 234 302 363 446
#     4  12  24  40  64  96 154 170 240 286 370 432
#     4  11  22  45  71 100 143 186 242 304 362 444
#
# _framework density 25.993828000000001
#
# number of rings (size 3 to 8) (size 9 to 14) (size 15 to 20)
#    0.000    0.923    3.077    4.615    2.154    3.077 
#    2.769    0.000    0.000    0.000    0.000    0.000 
#    0.000    0.000    0.000    0.000    0.000    0.000 
#
# Total GULP energy -72390.863183 kJ/mol
# GULP energy per Si atom -5568.527937 kJ/mol
# Density = 2.593466 g / cm^3
# Si number density = 25.993828 Si / 1000 Ang^3
#
#
#
# Elastic Constant Matrix: (Units=GPa)
#
#
# Indices 1 2 3 4 5 6 
#
# 1 70.4550 52.7613 -9.3037 -13.6471 12.4250 -12.7423
# 2 52.7613 158.1942 24.3579 15.2300 12.4652 -36.7320
# 3 -9.3037 24.3579 55.1200 -0.7337 9.9871 -10.1303
# 4 -13.6471 15.2300 -0.7337 48.5639 -15.9724 9.6367
# 5 12.4250 12.4652 9.9871 -15.9724 24.8123 -1.9395
# 6 -12.7423 -36.7320 -10.1303 9.6367 -1.9395 69.7100
#
#
#
# Elastic Compliance Matrix: (Units=1/GPa)
#
#
# Indices 1 2 3 4 5 6 
#
# 1 0.026598 -0.011123 0.010444 0.009333 -0.006001 -0.000938
# 2 -0.011123 0.013635 -0.006121 -0.010227 -0.004967 0.005538
# 3 0.010444 -0.006121 0.025022 0.001132 -0.011353 0.001847
# 4 0.009333 -0.010227 0.001132 0.035247 0.022090 -0.007776
# 5 -0.006001 -0.004967 -0.011353 0.022090 0.064073 -0.006635
# 6 -0.000938 0.005538 0.001847 -0.007776 -0.006635 0.018250
#
#
# Mechanical properties :
#
#
# Convention : Reuss Voigt Hill
#
# Bulk Modulus (GPa) = 19.35943 46.60003 32.97973
# Shear Modulus (GPa) = 23.40332 43.01416 33.20874
#
# Velocity S-wave (km/s) = 3.00382 4.07232 3.57818
# Velocity P-wave (km/s) = 4.41526 6.33071 5.45767
#
# Compressibility (1/GPa) = 0.05165443
#
# Stress axis : x y z
#
# Youngs Moduli (GPa) = 37.59620 73.33878 39.96527
#
# Poissons Ratio (x) = 0.81574 -0.41739
# Poissons Ratio (y) = 0.41818 0.24465
# Poissons Ratio (z) = -0.39265 0.44894
#
# Static dielectric constant tensor:
#      x y z
#    x 2.254360 0.003730 -0.349090 
#    y 0.003730 2.091470 0.001820 
#    z -0.349090 0.001820 2.822390 
# 
# From -- ./inp_files/94787.got.cif
#   From: 2010.05.17/outbox.cif.g08.bks.cpg/sg2_48_cif.got.tgz:94787.got - 2010.06.03 11:33:40.
