data_PCOD9058089
_publ_section_title
;
Structure prediction by ZEFSAII (Michael W. Deem and Ramdas Pophale) SiO2 
 PCOD9058089
Probable space group: P -1
;
_chemical_formula_sum "Si O2"
_cell_formula_units_Z 16
_cell_length_a 14.699461
_cell_length_b 14.803959
_cell_length_c 10.980977
_cell_angle_alpha 31.011663
_cell_angle_beta 62.812809
_cell_angle_gamma 41.738745
_cell_volume 693.765142
_symmetry_space_group_name_H-M "P -1"
_symmetry_group_IT_number 2
_symmetry_cell_setting 'triclinic'
loop_
_space_group_symop_operation_xyz
x,y,z
-x,-y,-z
loop_
_atom_site_type_symbol
_atom_site_label
_atom_site_fract_x
_atom_site_fract_y
_atom_site_fract_z
Si Si1 0.350174 0.075103 0.149357
Si Si2 0.190166 0.235645 0.707781
Si Si3 0.498428 0.866717 0.547325
Si Si4 0.298951 0.407308 0.605119
Si Si5 0.816191 0.114863 0.748206
Si Si6 0.332883 0.839397 0.858166
Si Si7 0.315804 0.732002 0.605955
Si Si8 0.174871 0.760133 0.905737
O O1 0.417249 0.051386 0.264473
O O2 0.509056 0.822334 0.263123
O O3 0.266318 0.001917 0.312320
O O4 0.258340 0.347836 0.819474
O O5 0.244998 0.346929 0.602093
O O6 0.000000 0.500000 0.500000
O O7 0.272596 0.065003 0.729025
O O8 0.222685 0.030683 0.017371
O O9 0.394661 0.842759 0.690687
O O10 0.500000 0.000000 0.500000
O O11 0.677866 0.559053 0.776373
O O12 0.224424 0.696569 0.335730
O O13 0.718373 0.294492 0.478076
O O14 0.004857 0.889943 0.864527
O O15 0.192122 0.895231 0.836797
O O16 0.493847 0.536379 0.166646
O O17 0.218178 0.768403 0.732750
#
# Coordination Sequence:
#
# PCOD9058089 Si02
#       8
#     2   2   2   2   2   2   2   2
#     4  11  22  44  70  99 137 173 238 293 330 404
#     4  12  28  46  69 103 140 179 231 284 348 421
#     4  11  23  40  70 103 132 176 233 290 334 396
#     4  11  27  44  68 104 137 179 233 284 343 412
#     4  12  28  45  69  99 145 189 216 286 360 401
#     4  11  23  43  73  98 130 180 236 283 337 402
#     4  11  22  46  71 100 134 181 237 283 338 411
#     4  11  24  45  67 101 138 182 229 281 348 413
#
# _framework density 23.062560999999999
#
# number of rings (size 3 to 8) (size 9 to 14) (size 15 to 20)
#    0.000    0.750    3.750    3.375   10.500    2.000 
#    0.000    0.625    0.000    0.000    0.000    0.000 
#    0.000    0.000    0.000    0.000    0.000    0.000 
#
# Total GULP energy -89549.063615 kJ/mol
# GULP energy per Si atom -5596.816476 kJ/mol
# Density = 2.301007 g / cm^3
# Si number density = 23.062561 Si / 1000 Ang^3
#
#
#
# Elastic Constant Matrix: (Units=GPa)
#
#
# Indices 1 2 3 4 5 6 
#
# 1 93.2253 24.6648 11.0791 1.6519 -9.9141 16.4023
# 2 24.6648 95.8050 27.5187 18.1446 1.8640 11.1032
# 3 11.0791 27.5187 46.8498 18.9194 -5.4191 16.4328
# 4 1.6519 18.1446 18.9194 39.3284 6.2726 -1.3050
# 5 -9.9141 1.8640 -5.4191 6.2726 33.9393 -2.8318
# 6 16.4023 11.1032 16.4328 -1.3050 -2.8318 44.3628
#
#
#
# Elastic Compliance Matrix: (Units=1/GPa)
#
#
# Indices 1 2 3 4 5 6 
#
# 1 0.012516 -0.002998 0.000653 -0.000165 0.003631 -0.003892
# 2 -0.002998 0.013622 -0.006371 -0.002757 -0.002145 -0.000159
# 3 0.000653 -0.006371 0.036927 -0.016612 0.008483 -0.012272
# 4 -0.000165 -0.002757 -0.016612 0.036322 -0.008643 0.007421
# 5 0.003631 -0.002145 0.008483 -0.008643 0.033422 -0.002069
# 6 -0.003892 -0.000159 -0.012272 0.007421 -0.002069 0.028652
#
#
# Mechanical properties :
#
#
# Convention : Reuss Voigt Hill
#
# Bulk Modulus (GPa) = 21.91430 40.26723 31.09076
# Shear Modulus (GPa) = 25.75907 35.03393 30.39650
#
# Velocity S-wave (km/s) = 3.34566 3.90177 3.63437
# Velocity P-wave (km/s) = 4.94443 6.14787 5.57869
#
# Compressibility (1/GPa) = 0.04563231
#
# Stress axis : x y z
#
# Youngs Moduli (GPa) = 79.89669 73.41002 27.08017
#
# Poissons Ratio (x) = 0.22009 -0.01768
# Poissons Ratio (y) = 0.23954 0.17254
# Poissons Ratio (z) = -0.05217 0.46773
#
# Static dielectric constant tensor:
#      x y z
#    x 1.984340 0.035580 -0.120740 
#    y 0.035580 1.869200 0.026270 
#    z -0.120740 0.026270 1.949120 
# 
# From -- ./inp_files/455385.got.cif
#   From: 2010.05.17/outbox.cif.g08.bks.cpg/sg2_228_cif.got.tgz:455385.got - 2010.06.03 11:33:40.
