data_PCOD9058725
_publ_section_title
;
Structure prediction by ZEFSAII (Michael W. Deem and Ramdas Pophale) SiO2 
 PCOD9058725
Probable space group: P -1
;
_chemical_formula_sum "Si O2"
_cell_formula_units_Z 16
_cell_length_a 14.611815
_cell_length_b 8.229530
_cell_length_c 10.691735
_cell_angle_alpha 74.445703
_cell_angle_beta 143.208995
_cell_angle_gamma 121.419881
_cell_volume 628.407862
_symmetry_space_group_name_H-M "P -1"
_symmetry_group_IT_number 2
_symmetry_cell_setting 'triclinic'
loop_
_space_group_symop_operation_xyz
x,y,z
-x,-y,-z
loop_
_atom_site_type_symbol
_atom_site_label
_atom_site_fract_x
_atom_site_fract_y
_atom_site_fract_z
Si Si1 0.393678 0.733227 0.678221
Si Si2 0.001073 0.008768 0.209468
Si Si3 0.126763 0.840097 0.748210
Si Si4 0.420153 0.495963 0.160161
Si Si5 0.818184 0.728945 0.859123
Si Si6 0.664379 0.969919 0.309648
Si Si7 0.149677 0.438494 0.672081
Si Si8 0.972776 0.462655 0.830141
O O1 0.515522 0.652101 0.778989
O O2 0.317283 0.615962 0.747948
O O3 0.228737 0.639041 0.419066
O O4 0.432428 0.949343 0.720651
O O5 0.886426 0.022701 0.192292
O O6 0.149514 0.219762 0.261081
O O7 0.137711 0.950945 0.429529
O O8 0.862530 0.911541 0.960766
O O9 0.941763 0.745007 0.485211
O O10 0.099365 0.656117 0.841903
O O11 0.283996 0.939087 0.794973
O O12 0.365872 0.458615 0.254359
O O13 0.553715 0.730282 0.232273
O O14 0.235598 0.419334 0.895363
O O15 0.970967 0.695963 0.085881
O O16 0.000000 0.500000 0.500000
O O17 0.000000 0.500000 0.000000
#
# Coordination Sequence:
#
# PCOD9058725 Si02
#       8
#     2   2   2   2   2   2   2   2
#     4  11  25  46  74 111 157 198 251 309 385 450
#     4  11  24  47  77 108 141 204 260 316 364 451
#     4  11  23  43  79 110 144 194 258 314 376 450
#     4  12  28  48  75 112 158 204 240 316 391 453
#     4  11  25  48  76 105 150 197 261 307 375 448
#     4  12  25  47  73 114 160 194 248 315 389 452
#     4  11  22  47  75 102 148 199 248 308 372 442
#     4  11  22  47  80 108 146 202 263 313 365 448
#
# _framework density 25.461171
#
# number of rings (size 3 to 8) (size 9 to 14) (size 15 to 20)
#    0.000    0.750    3.750    4.500    0.000    3.000 
#    4.500    0.625    0.000    1.500    0.000    0.000 
#    0.000    0.000    0.000    0.000    0.000    0.000 
#
# Total GULP energy -89319.006549 kJ/mol
# GULP energy per Si atom -5582.437909 kJ/mol
# Density = 2.540322 g / cm^3
# Si number density = 25.461171 Si / 1000 Ang^3
#
#
#
# Elastic Constant Matrix: (Units=GPa)
#
#
# Indices 1 2 3 4 5 6 
#
# 1 133.5341 59.3746 43.8299 -5.5471 -20.2026 10.1933
# 2 59.3746 114.3087 40.3401 -1.0240 -2.3139 1.5519
# 3 43.8299 40.3401 125.4554 -11.2381 -18.9398 -6.9090
# 4 -5.5471 -1.0240 -11.2381 47.0586 -0.0984 -6.4779
# 5 -20.2026 -2.3139 -18.9398 -0.0984 41.3237 -7.6002
# 6 10.1933 1.5519 -6.9090 -6.4779 -7.6002 53.7246
#
#
#
# Elastic Compliance Matrix: (Units=1/GPa)
#
#
# Indices 1 2 3 4 5 6 
#
# 1 0.011026 -0.005038 -0.001646 0.000598 0.004078 -0.001509
# 2 -0.005038 0.012273 -0.002766 -0.001038 -0.003104 -0.000319
# 3 -0.001646 -0.002766 0.010472 0.002623 0.004337 0.002669
# 4 0.000598 -0.001038 0.002623 0.022376 0.002087 0.003247
# 5 0.004078 -0.003104 0.004337 0.002087 0.028784 0.004197
# 6 -0.001509 -0.000319 0.002669 0.003247 0.004197 0.020237
#
#
# Mechanical properties :
#
#
# Convention : Reuss Voigt Hill
#
# Bulk Modulus (GPa) = 67.23968 73.37637 70.30803
# Shear Modulus (GPa) = 38.75233 43.73829 41.24531
#
# Velocity S-wave (km/s) = 3.90554 4.14918 4.02920
# Velocity P-wave (km/s) = 6.84132 7.19971 7.02280
#
# Compressibility (1/GPa) = 0.01487217
#
# Stress axis : x y z
#
# Youngs Moduli (GPa) = 90.69438 81.47862 95.49262
#
# Poissons Ratio (x) = 0.41048 0.15720
# Poissons Ratio (y) = 0.45690 0.26409
# Poissons Ratio (z) = 0.14930 0.22533
#
# Static dielectric constant tensor:
#      x y z
#    x 2.163810 -0.044660 -0.105660 
#    y -0.044660 2.307070 -0.018230 
#    z -0.105660 -0.018230 2.218040 
# 
# From -- ./inp_files/447432.got.cif
#   From: 2010.05.17/outbox.cif.g08.bks.cpg/sg2_224_cif.got.tgz:447432.got - 2010.06.03 11:33:40.
