data_PCOD9058095
_publ_section_title
;
Structure prediction by ZEFSAII (Michael W. Deem and Ramdas Pophale) SiO2 
 PCOD9058095
Probable space group: P -1
;
_chemical_formula_sum "Si O2"
_cell_formula_units_Z 16
_cell_length_a 11.305091
_cell_length_b 14.092040
_cell_length_c 10.970514
_cell_angle_alpha 29.645021
_cell_angle_beta 84.726678
_cell_angle_gamma 65.684466
_cell_volume 636.039927
_symmetry_space_group_name_H-M "P -1"
_symmetry_group_IT_number 2
_symmetry_cell_setting 'triclinic'
loop_
_space_group_symop_operation_xyz
x,y,z
-x,-y,-z
loop_
_atom_site_type_symbol
_atom_site_label
_atom_site_fract_x
_atom_site_fract_y
_atom_site_fract_z
Si Si1 0.157606 0.926319 0.368588
Si Si2 0.884907 0.984598 0.104125
Si Si3 0.185794 0.768536 0.922699
Si Si4 0.347285 0.894912 0.612005
Si Si5 0.345666 0.245477 0.374496
Si Si6 0.614799 0.302868 0.600111
Si Si7 0.921131 0.578909 0.285448
Si Si8 0.452261 0.012738 0.129037
O O1 0.002456 0.975711 0.371042
O O2 0.258888 0.898356 0.501643
O O3 0.273996 0.705097 0.501111
O O4 0.079313 0.205392 0.006667
O O5 0.805830 0.210433 0.957602
O O6 0.750267 0.053725 0.948638
O O7 0.975221 0.705339 0.466360
O O8 0.000000 0.000000 0.000000
O O9 0.319041 0.766351 0.859594
O O10 0.221074 0.523609 0.137020
O O11 0.524581 0.766742 0.697998
O O12 0.276779 0.166001 0.375657
O O13 0.441285 0.037611 0.710110
O O14 0.500000 0.500000 0.500000
O O15 0.535469 0.232101 0.599247
O O16 0.000000 0.500000 0.500000
O O17 0.733284 0.725678 0.133396
O O18 0.500000 0.000000 0.000000
#
# Coordination Sequence:
#
# PCOD9058095 Si02
#       8
#     2   2   2   2   2   2   2   2
#     4  11  24  49  73 110 149 195 254 308 367 455
#     4  12  25  43  69 111 145 190 237 307 377 443
#     4  12  27  45  78 106 151 196 255 311 370 449
#     4  11  26  52  74 108 145 204 257 302 383 436
#     4  11  26  51  75 108 152 190 254 319 367 451
#     4  11  23  43  67 103 150 183 230 300 373 436
#     4  11  22  44  70  99 148 189 234 301 367 442
#     4  11  25  41  72 106 138 191 242 296 382 443
#
# _framework density 25.155653999999998
#
# number of rings (size 3 to 8) (size 9 to 14) (size 15 to 20)
#    0.000    0.750    6.250    1.500    8.750    0.500 
#    2.250    1.250    0.000    0.000    0.000    0.000 
#    0.000    0.000    0.000    0.000    0.000    0.000 
#
# Total GULP energy -89367.410361 kJ/mol
# GULP energy per Si atom -5585.463148 kJ/mol
# Density = 2.509840 g / cm^3
# Si number density = 25.155654 Si / 1000 Ang^3
#
#
#
# Elastic Constant Matrix: (Units=GPa)
#
#
# Indices 1 2 3 4 5 6 
#
# 1 65.0704 26.3155 11.7249 -1.6533 5.3308 13.7484
# 2 26.3155 163.2608 35.8177 -18.8960 2.4414 0.5575
# 3 11.7249 35.8177 58.6232 -25.1370 1.9017 -14.4906
# 4 -1.6533 -18.8960 -25.1370 46.0612 -0.8307 -11.2886
# 5 5.3308 2.4414 1.9017 -0.8307 28.3162 0.3091
# 6 13.7484 0.5575 -14.4906 -11.2886 0.3091 46.2881
#
#
#
# Elastic Compliance Matrix: (Units=1/GPa)
#
#
# Indices 1 2 3 4 5 6 
#
# 1 0.019939 -0.002175 -0.008149 -0.007174 -0.003118 -0.010176
# 2 -0.002175 0.007418 -0.003921 0.000704 0.000059 -0.000499
# 3 -0.008149 -0.003921 0.035102 0.021859 -0.000049 0.018788
# 4 -0.007174 0.000704 0.021859 0.038161 0.000742 0.018267
# 5 -0.003118 0.000059 -0.000049 0.000742 0.035913 0.000851
# 6 -0.010176 -0.000499 0.018788 0.018267 0.000851 0.034963
#
#
# Mechanical properties :
#
#
# Convention : Reuss Voigt Hill
#
# Bulk Modulus (GPa) = 29.43875 48.29674 38.86774
# Shear Modulus (GPa) = 23.66195 38.33953 31.00074
#
# Velocity S-wave (km/s) = 3.07028 3.90820 3.51430
# Velocity P-wave (km/s) = 4.92919 6.29334 5.65257
#
# Compressibility (1/GPa) = 0.03396883
#
# Stress axis : x y z
#
# Youngs Moduli (GPa) = 50.15241 134.80242 28.48847
#
# Poissons Ratio (x) = 0.29320 0.23216
# Poissons Ratio (y) = 0.10908 0.11170
# Poissons Ratio (z) = 0.40871 0.52854
#
# Static dielectric constant tensor:
#      x y z
#    x 2.071580 -0.056120 -0.005150 
#    y -0.056120 2.012580 -0.014360 
#    z -0.005150 -0.014360 2.040480 
# 
# From -- ./inp_files/433666.got.cif
#   From: 2010.05.17/outbox.cif.g08.bks.cpg/sg2_217_cif.got.tgz:433666.got - 2010.06.03 11:33:40.
