data_PCOD9058655
_publ_section_title
;
Structure prediction by ZEFSAII (Michael W. Deem and Ramdas Pophale) SiO2 
 PCOD9058655
Probable space group: P -1
;
_chemical_formula_sum "Si O2"
_cell_formula_units_Z 14
_cell_length_a 11.220236
_cell_length_b 10.008002
_cell_length_c 5.103641
_cell_angle_alpha 87.221451
_cell_angle_beta 85.976001
_cell_angle_gamma 91.589506
_cell_volume 570.734903
_symmetry_space_group_name_H-M "P -1"
_symmetry_group_IT_number 2
_symmetry_cell_setting 'triclinic'
loop_
_space_group_symop_operation_xyz
x,y,z
-x,-y,-z
loop_
_atom_site_type_symbol
_atom_site_label
_atom_site_fract_x
_atom_site_fract_y
_atom_site_fract_z
Si Si1 0.609173 0.028930 0.693182
Si Si2 0.263603 0.236117 0.117456
Si Si3 0.604319 0.354871 0.208516
Si Si4 0.472535 0.260822 0.761175
Si Si5 0.210909 0.743615 0.189947
Si Si6 0.958225 0.645321 0.104238
Si Si7 0.750223 0.538419 0.506457
O O1 0.724628 0.137454 0.665231
O O2 0.528040 0.122952 0.880076
O O3 0.500000 0.000000 0.500000
O O4 0.681698 0.895504 0.749942
O O5 0.298600 0.361292 0.283297
O O6 0.125741 0.266429 0.078659
O O7 0.332422 0.240357 0.827309
O O8 0.773736 0.397487 0.653188
O O9 0.528589 0.362230 0.955267
O O10 0.719129 0.273805 0.095931
O O11 0.529350 0.288957 0.466547
O O12 0.344353 0.506383 0.696409
O O13 0.070387 0.739791 0.158080
O O14 0.871361 0.599433 0.358735
O O15 0.000000 0.500000 0.000000
#
# Coordination Sequence:
#
# PCOD9058655 Si02
#       7
#     2   2   2   2   2   2   2
#     4  11  26  54  80 115 163 214 264 334 405 485
#     4  12  29  46  77 122 158 211 267 332 403 482
#     4  11  22  46  79 117 151 208 265 329 409 471
#     4  11  26  48  77 113 160 209 260 331 401 485
#     4  11  25  52  83 112 157 221 265 331 406 473
#     4  12  26  48  80 116 164 209 270 336 394 480
#     4  12  24  48  77 119 155 207 271 331 399 471
#
# _framework density 24.529779999999999
#
# number of rings (size 3 to 8) (size 9 to 14) (size 15 to 20)
#    0.000    0.571    5.714    1.714    4.000    2.857 
#    0.000    0.714    0.000    0.000    0.000    0.000 
#    0.000    0.000    0.000    0.000    0.000    0.000 
#
# Total GULP energy -78071.492429 kJ/mol
# GULP energy per Si atom -5576.535173 kJ/mol
# Density = 2.447395 g / cm^3
# Si number density = 24.529780 Si / 1000 Ang^3
#
#
#
# Elastic Constant Matrix: (Units=GPa)
#
#
# Indices 1 2 3 4 5 6 
#
# 1 208.4222 72.4725 68.5301 -2.0752 30.1629 5.4411
# 2 72.4725 178.1063 50.6360 -10.5544 26.2088 2.0137
# 3 68.5301 50.6360 136.6686 1.4866 4.0286 4.7864
# 4 -2.0752 -10.5544 1.4866 28.5526 -2.5969 15.6409
# 5 30.1629 26.2088 4.0286 -2.5969 59.6784 -1.4432
# 6 5.4411 2.0137 4.7864 15.6409 -1.4432 44.5309
#
#
#
# Elastic Compliance Matrix: (Units=1/GPa)
#
#
# Indices 1 2 3 4 5 6 
#
# 1 0.006577 -0.001549 -0.002632 0.000134 -0.002474 -0.000578
# 2 -0.001549 0.007289 -0.001854 0.003078 -0.002185 -0.001093
# 3 -0.002632 -0.001854 0.009298 -0.001150 0.001464 -0.000143
# 4 0.000134 0.003078 -0.001150 0.044905 0.000230 -0.015797
# 5 -0.002474 -0.002185 0.001464 0.000230 0.018897 0.000775
# 6 -0.000578 -0.001093 -0.000143 -0.015797 0.000775 0.028165
#
#
# Mechanical properties :
#
#
# Convention : Reuss Voigt Hill
#
# Bulk Modulus (GPa) = 90.15478 100.71935 95.43707
# Shear Modulus (GPa) = 38.19757 48.65627 43.42692
#
# Velocity S-wave (km/s) = 3.95041 4.45855 4.21215
# Velocity P-wave (km/s) = 7.59214 8.22521 7.91501
#
# Compressibility (1/GPa) = 0.01109203
#
# Stress axis : x y z
#
# Youngs Moduli (GPa) = 152.05620 137.20189 107.54831
#
# Poissons Ratio (x) = 0.21256 0.28307
# Poissons Ratio (y) = 0.23557 0.19943
# Poissons Ratio (z) = 0.40021 0.25442
#
# Static dielectric constant tensor:
#      x y z
#    x 2.049490 0.019130 0.053060 
#    y 0.019130 2.113400 -0.087200 
#    z 0.053060 -0.087200 2.100310 
# 
# From -- ./inp_files/63900.got.cif
#   From: 2010.05.17/outbox.cif.g08.bks.cpg/sg2_32_cif.got.tgz:63900.got - 2010.06.03 11:33:40.
