data_PCOD9058709
_publ_section_title
;
Structure prediction by ZEFSAII (Michael W. Deem and Ramdas Pophale) SiO2 
 PCOD9058709
Probable space group: P -1
;
_chemical_formula_sum "Si O2"
_cell_formula_units_Z 12
_cell_length_a 8.427808
_cell_length_b 9.038952
_cell_length_c 11.542935
_cell_angle_alpha 57.707603
_cell_angle_beta 42.314290
_cell_angle_gamma 81.731855
_cell_volume 448.991883
_symmetry_space_group_name_H-M "P -1"
_symmetry_group_IT_number 2
_symmetry_cell_setting 'triclinic'
loop_
_space_group_symop_operation_xyz
x,y,z
-x,-y,-z
loop_
_atom_site_type_symbol
_atom_site_label
_atom_site_fract_x
_atom_site_fract_y
_atom_site_fract_z
Si Si1 0.545948 0.005023 0.224583
Si Si2 0.347448 0.306198 0.586070
Si Si3 0.585117 0.294906 0.893707
Si Si4 0.765506 0.290018 0.189678
Si Si5 0.978730 0.113166 0.318498
Si Si6 0.033877 0.294083 0.536449
O O1 0.694390 0.872962 0.229683
O O2 0.240582 0.878986 0.480381
O O3 0.659560 0.203808 0.158496
O O4 0.577912 0.107636 0.042246
O O5 0.500000 0.500000 0.500000
O O6 0.538453 0.292801 0.390004
O O7 0.122495 0.310219 0.620069
O O8 0.765624 0.524294 0.723619
O O9 0.746121 0.289239 0.693491
O O10 0.285386 0.260781 0.082327
O O11 0.861723 0.135860 0.250359
O O12 0.000000 0.500000 0.000000
O O13 0.961405 0.900832 0.428068
#
# Coordination Sequence:
#
# PCOD9058709 Si02
#       6
#     2   2   2   2   2   2
#     4  11  24  47  73 109 141 182 243 297 348 421
#     4  11  24  45  73 103 140 186 239 291 352 422
#     4  11  27  42  71 107 143 191 230 294 359 424
#     4  11  23  44  75 105 140 186 238 297 352 415
#     4  11  22  47  72  99 148 187 233 293 357 419
#     4  11  24  48  68 103 151 185 235 292 359 422
#
# _framework density 26.726538999999999
#
# number of rings (size 3 to 8) (size 9 to 14) (size 15 to 20)
#    0.000    1.000    3.333    3.000    2.333    6.667 
#    3.000    0.000    0.000    0.000    0.000    0.000 
#    0.000    0.000    0.000    0.000    0.000    0.000 
#
# Total GULP energy -67027.128886 kJ/mol
# GULP energy per Si atom -5585.594074 kJ/mol
# Density = 2.666571 g / cm^3
# Si number density = 26.726539 Si / 1000 Ang^3
#
#
#
# Elastic Constant Matrix: (Units=GPa)
#
#
# Indices 1 2 3 4 5 6 
#
# 1 83.3003 11.8572 36.1603 4.7001 -6.4886 -1.8389
# 2 11.8572 100.3681 25.7561 -24.5717 -4.8122 -3.8848
# 3 36.1603 25.7561 182.7160 -6.6693 -45.4579 -14.4924
# 4 4.7001 -24.5717 -6.6693 29.3502 -2.4638 -2.8986
# 5 -6.4886 -4.8122 -45.4579 -2.4638 39.8664 -2.5040
# 6 -1.8389 -3.8848 -14.4924 -2.8986 -2.5040 41.9167
#
#
#
# Elastic Compliance Matrix: (Units=1/GPa)
#
#
# Indices 1 2 3 4 5 6 
#
# 1 0.013813 -0.002192 -0.003220 -0.005070 -0.002076 -0.001185
# 2 -0.002192 0.013371 -0.000489 0.011749 0.001544 0.001879
# 3 -0.003220 -0.000489 0.009182 0.003441 0.010341 0.003844
# 4 -0.005070 0.011749 0.003441 0.046721 0.007765 0.005751
# 5 -0.002076 0.001544 0.010341 0.007765 0.037606 0.006411
# 6 -0.001185 0.001879 0.003844 0.005751 0.006411 0.026089
#
#
# Mechanical properties :
#
#
# Convention : Reuss Voigt Hill
#
# Bulk Modulus (GPa) = 40.71103 57.10349 48.90726
# Shear Modulus (GPa) = 29.98090 41.73404 35.85747
#
# Velocity S-wave (km/s) = 3.35291 3.95589 3.66682
# Velocity P-wave (km/s) = 5.50044 6.50213 6.02215
#
# Compressibility (1/GPa) = 0.02456337
#
# Stress axis : x y z
#
# Youngs Moduli (GPa) = 72.39619 74.78951 108.90305
#
# Poissons Ratio (x) = 0.16395 0.35069
# Poissons Ratio (y) = 0.15870 0.05326
# Poissons Ratio (z) = 0.23313 0.03658
#
# Static dielectric constant tensor:
#      x y z
#    x 2.274980 0.098220 -0.106940 
#    y 0.098220 2.102330 -0.100590 
#    z -0.106940 -0.100590 2.189170 
# 
# From -- ./inp_files/377850.got.cif
#   From: 2010.05.17/outbox.cif.g08.bks.cpg/sg2_189_cif.got.tgz:377850.got - 2010.06.03 11:33:40.
