data_PCOD9058219
_publ_section_title
;
Structure prediction by ZEFSAII (Michael W. Deem and Ramdas Pophale) SiO2 
 PCOD9058219
Probable space group: P -1
;
_chemical_formula_sum "Si O2"
_cell_formula_units_Z 16
_cell_length_a 11.772004
_cell_length_b 8.602243
_cell_length_c 15.054127
_cell_angle_alpha 127.957585
_cell_angle_beta 69.522920
_cell_angle_gamma 69.690802
_cell_volume 730.248197
_symmetry_space_group_name_H-M "P -1"
_symmetry_group_IT_number 2
_symmetry_cell_setting 'triclinic'
loop_
_space_group_symop_operation_xyz
x,y,z
-x,-y,-z
loop_
_atom_site_type_symbol
_atom_site_label
_atom_site_fract_x
_atom_site_fract_y
_atom_site_fract_z
Si Si1 0.301246 0.344553 0.149090
Si Si2 0.592937 0.579273 0.540236
Si Si3 0.079541 0.345363 0.568746
Si Si4 0.922569 0.301785 0.013580
Si Si5 0.017214 0.859654 0.700412
Si Si6 0.758527 0.773582 0.066906
Si Si7 0.317805 0.726984 0.193155
Si Si8 0.302126 0.310497 0.624698
O O1 0.336502 0.533344 0.193122
O O2 0.117480 0.526422 0.323056
O O3 0.242840 0.328783 0.063468
O O4 0.500000 0.000000 0.000000
O O5 0.500000 0.500000 0.500000
O O6 0.655334 0.622730 0.452060
O O7 0.783385 0.305840 0.444701
O O8 0.447519 0.887716 0.742054
O O9 0.165454 0.304810 0.626458
O O10 0.030826 0.608586 0.623224
O O11 0.245860 0.018363 0.360299
O O12 0.814513 0.556211 0.054911
O O13 0.798373 0.442481 0.184377
O O14 0.101369 0.214425 0.958235
O O15 0.973626 0.028119 0.862881
O O16 0.855121 0.110672 0.765767
O O17 0.500000 0.500000 0.000000
O O18 0.500000 0.000000 0.500000
#
# Coordination Sequence:
#
# PCOD9058219 Si02
#       8
#     2   2   2   2   2   2   2   2
#     4  12  27  49  72 104 140 190 238 298 360 423
#     4  11  24  41  64 107 141 182 224 285 356 428
#     4  11  27  48  66 108 142 185 240 298 350 427
#     4  11  22  44  74 106 140 188 236 293 359 430
#     4  11  25  43  76 100 141 186 235 292 359 424
#     4  11  23  43  71 103 145 182 240 290 360 430
#     4  12  28  49  74  99 136 193 246 295 356 420
#     4  11  24  42  71 100 144 181 232 291 355 418
#
# _framework density 21.910360000000001
#
# number of rings (size 3 to 8) (size 9 to 14) (size 15 to 20)
#    0.000    0.750    5.000    1.500    7.000    4.000 
#    2.250    0.000    0.000    0.000    0.000    0.000 
#    0.000    0.000    0.000    0.000    0.000    0.000 
#
# Total GULP energy -89472.223429 kJ/mol
# GULP energy per Si atom -5592.013964 kJ/mol
# Density = 2.186049 g / cm^3
# Si number density = 21.910360 Si / 1000 Ang^3
#
#
#
# Elastic Constant Matrix: (Units=GPa)
#
#
# Indices 1 2 3 4 5 6 
#
# 1 71.3951 15.8151 24.8999 15.4959 -8.5149 -0.9696
# 2 15.8151 50.3823 11.0523 22.3567 -8.6764 0.6323
# 3 24.8999 11.0523 149.9773 18.7609 1.7495 9.3465
# 4 15.4959 22.3567 18.7609 35.9540 -5.6290 -2.9925
# 5 -8.5149 -8.6764 1.7495 -5.6290 54.4054 6.9283
# 6 -0.9696 0.6323 9.3465 -2.9925 6.9283 45.6942
#
#
#
# Elastic Compliance Matrix: (Units=1/GPa)
#
#
# Indices 1 2 3 4 5 6 
#
# 1 0.016398 -0.002580 -0.002058 -0.004090 0.001764 0.000269
# 2 -0.002580 0.028373 0.000503 -0.016548 0.002652 -0.002036
# 3 -0.002058 0.000503 0.007538 -0.003603 -0.000636 -0.001732
# 4 -0.004090 -0.016548 -0.003603 0.042157 0.000749 0.003526
# 5 0.001764 0.002652 -0.000636 0.000749 0.019532 -0.002781
# 6 0.000269 -0.002036 -0.001732 0.003526 -0.002781 0.022925
#
#
# Mechanical properties :
#
#
# Convention : Reuss Voigt Hill
#
# Bulk Modulus (GPa) = 22.70709 41.69880 32.20295
# Shear Modulus (GPa) = 31.27493 41.87654 36.57573
#
# Velocity S-wave (km/s) = 3.78220 4.37655 4.09018
# Velocity P-wave (km/s) = 5.42766 6.67920 6.08569
#
# Compressibility (1/GPa) = 0.04403911
#
# Stress axis : x y z
#
# Youngs Moduli (GPa) = 60.98424 35.24492 132.65474
#
# Poissons Ratio (x) = 0.09095 0.27299
# Poissons Ratio (y) = 0.15736 -0.06678
# Poissons Ratio (z) = 0.12550 -0.01774
#
# Static dielectric constant tensor:
#      x y z
#    x 1.858960 -0.019390 -0.023950 
#    y -0.019390 1.806210 0.006630 
#    z -0.023950 0.006630 1.781490 
# 
# From -- ./inp_files/307180.got.cif
#   From: 2010.05.17/outbox.cif.g08.bks.cpg/sg2_154_cif.got.tgz:307180.got - 2010.06.03 11:33:40.
