data_PCOD9058860
_publ_section_title
;
Structure prediction by ZEFSAII (Michael W. Deem and Ramdas Pophale) SiO2 
 PCOD9058860
Probable space group: P -1
;
_chemical_formula_sum "Si O2"
_cell_formula_units_Z 16
_cell_length_a 11.426435
_cell_length_b 12.523600
_cell_length_c 13.710964
_cell_angle_alpha 33.866774
_cell_angle_beta 56.081627
_cell_angle_gamma 37.522042
_cell_volume 636.047881
_symmetry_space_group_name_H-M "P -1"
_symmetry_group_IT_number 2
_symmetry_cell_setting 'triclinic'
loop_
_space_group_symop_operation_xyz
x,y,z
-x,-y,-z
loop_
_atom_site_type_symbol
_atom_site_label
_atom_site_fract_x
_atom_site_fract_y
_atom_site_fract_z
Si Si1 0.183917 0.723323 0.721706
Si Si2 0.068168 0.210259 0.052673
Si Si3 0.934671 0.971511 0.151977
Si Si4 0.285147 0.451256 0.478295
Si Si5 0.515359 0.641977 0.967510
Si Si6 0.515934 0.370544 0.691732
Si Si7 0.613144 0.911111 0.614743
Si Si8 0.026267 0.663089 0.627848
O O1 0.027962 0.732673 0.839421
O O2 0.298214 0.536160 0.713394
O O3 0.062526 0.040318 0.522537
O O4 0.369403 0.546993 0.847971
O O5 0.977763 0.108489 0.108145
O O6 0.043489 0.452293 0.844153
O O7 0.311031 0.953907 0.145080
O O8 0.721917 0.080065 0.135231
O O9 0.084240 0.658095 0.351585
O O10 0.000000 0.000000 0.000000
O O11 0.381643 0.567497 0.336615
O O12 0.466789 0.153743 0.576790
O O13 0.205840 0.493976 0.592980
O O14 0.647730 0.680786 0.829975
O O15 0.500000 0.500000 0.000000
O O16 0.500000 0.500000 0.500000
O O17 0.500000 0.000000 0.500000
O O18 0.816198 0.811186 0.560639
#
# Coordination Sequence:
#
# PCOD9058860 Si02
#       8
#     2   2   2   2   2   2   2   2
#     4  12  23  46  72  99 145 178 234 292 340 422
#     4  11  25  46  70 102 134 191 227 287 359 408
#     4  11  23  38  59  95 141 185 235 277 334 413
#     4  11  25  44  67  99 144 182 232 300 349 407
#     4  12  22  39  62  97 140 190 235 268 334 413
#     4  11  26  50  78 102 134 182 235 298 365 415
#     4  12  26  38  64 103 143 194 237 277 340 416
#     4  12  24  44  69  99 145 179 232 289 347 414
#
# _framework density 25.155339000000001
#
# number of rings (size 3 to 8) (size 9 to 14) (size 15 to 20)
#    0.000    0.500    6.250    3.000    7.000    1.500 
#    0.000    1.250    0.000    0.000    0.000    0.000 
#    0.000    0.000    0.000    0.000    0.000    0.000 
#
# Total GULP energy -89162.671467 kJ/mol
# GULP energy per Si atom -5572.666967 kJ/mol
# Density = 2.509808 g / cm^3
# Si number density = 25.155339 Si / 1000 Ang^3
#
#
#
# Elastic Constant Matrix: (Units=GPa)
#
#
# Indices 1 2 3 4 5 6 
#
# 1 20.9696 -16.5369 2.1485 0.8800 -2.9596 -8.3735
# 2 -16.5369 121.3655 10.3752 28.7727 -10.7521 -4.0229
# 3 2.1485 10.3752 108.6269 -0.8776 2.4663 -0.3668
# 4 0.8800 28.7727 -0.8776 45.3033 -11.5867 2.4928
# 5 -2.9596 -10.7521 2.4663 -11.5867 34.3347 10.6994
# 6 -8.3735 -4.0229 -0.3668 2.4928 10.6994 42.2136
#
#
#
# Elastic Compliance Matrix: (Units=1/GPa)
#
#
# Indices 1 2 3 4 5 6 
#
# 1 0.063117 0.011530 -0.002420 -0.008832 0.002003 0.013612
# 2 0.011530 0.011998 -0.001450 -0.007787 0.001106 0.003597
# 3 -0.002420 -0.001450 0.009419 0.000937 -0.000910 -0.000361
# 4 -0.008832 -0.007787 0.000937 0.029820 0.008816 -0.006481
# 5 0.002003 0.001106 -0.000910 0.008816 0.035496 -0.009023
# 6 0.013612 0.003597 -0.000361 -0.006481 -0.009023 0.029398
#
#
# Mechanical properties :
#
#
# Convention : Reuss Voigt Hill
#
# Bulk Modulus (GPa) = 10.01471 26.99282 18.50377
# Shear Modulus (GPa) = 25.35307 41.36866 33.36086
#
# Velocity S-wave (km/s) = 3.17813 4.05968 3.64565
# Velocity P-wave (km/s) = 4.17817 5.72087 5.00927
#
# Compressibility (1/GPa) = 0.09985308
#
# Stress axis : x y z
#
# Youngs Moduli (GPa) = 15.84350 83.34810 106.16613
#
# Poissons Ratio (x) = -0.96097 0.25697
# Poissons Ratio (y) = -0.18267 0.15393
# Poissons Ratio (z) = 0.03835 0.12084
#
# Static dielectric constant tensor:
#      x y z
#    x 1.393230 0.474930 -0.706450 
#    y 0.474930 1.611750 0.429280 
#    z -0.706450 0.429280 1.163650 
# 
# From -- ./inp_files/534100.got.cif
#   From: 2010.05.17/outbox.cif.g08.bks.cpg/sg2_268_cif.got.tgz:534100.got - 2010.06.03 11:33:40.
