data_PCOD9058613
_publ_section_title
;
Structure prediction by ZEFSAII (Michael W. Deem and Ramdas Pophale) SiO2 
 PCOD9058613
Probable space group: P -1
;
_chemical_formula_sum "Si O2"
_cell_formula_units_Z 15
_cell_length_a 15.170359
_cell_length_b 8.674925
_cell_length_c 11.265660
_cell_angle_alpha 91.750961
_cell_angle_beta 45.041863
_cell_angle_gamma 57.402448
_cell_volume 639.917149
_symmetry_space_group_name_H-M "P -1"
_symmetry_group_IT_number 2
_symmetry_cell_setting 'triclinic'
loop_
_space_group_symop_operation_xyz
x,y,z
-x,-y,-z
loop_
_atom_site_type_symbol
_atom_site_label
_atom_site_fract_x
_atom_site_fract_y
_atom_site_fract_z
Si Si1 0.150928 0.957058 0.016218
Si Si2 0.564331 0.084433 0.859883
Si Si3 0.500000 0.500000 0.000000
Si Si4 0.879350 0.548398 0.465957
Si Si5 0.748285 0.694539 0.032903
Si Si6 0.537668 0.765998 0.613590
Si Si7 0.144116 0.636494 0.887282
Si Si8 0.895274 0.211589 0.507793
O O1 0.377921 0.797120 0.814339
O O2 0.158679 0.783801 0.943644
O O3 0.033136 0.179438 0.037712
O O4 0.020284 0.074324 0.263528
O O5 0.401267 0.253357 0.910779
O O6 0.781471 0.807496 0.600477
O O7 0.562484 0.251225 0.927200
O O8 0.500000 0.000000 0.000000
O O9 0.335012 0.622658 0.265617
O O10 0.717322 0.634568 0.529846
O O11 0.894623 0.395140 0.543185
O O12 0.100084 0.355986 0.194560
O O13 0.884169 0.462065 0.986956
O O14 0.600961 0.946528 0.256444
O O15 0.646638 0.602579 0.387395
O O16 0.000000 0.000000 0.500000
#
# Coordination Sequence:
#
# PCOD9058613 Si02
#       8
#     2   2   1   2   2   2   2   2
#     4  11  26  46  69 109 151 194 253 312 378 440
#     4  11  27  48  75 110 147 197 251 318 378 450
#     4  12  30  50  76 112 146 196 260 304 384 456
#     4  11  25  48  73 106 154 193 250 319 375 453
#     4  11  26  45  74 106 148 189 250 303 381 453
#     4  11  22  46  74 104 147 197 243 306 377 441
#     4  11  25  44  71 109 149 200 244 313 375 451
#     4  12  28  45  77 107 145 202 251 315 375 448
#
# _framework density 23.440534
#
# number of rings (size 3 to 8) (size 9 to 14) (size 15 to 20)
#    0.000    0.800    4.000    0.800    7.467    4.800 
#    2.400    0.000    0.000    0.000    0.000    0.000 
#    0.000    0.000    0.000    0.000    0.000    0.000 
#
# Total GULP energy -83662.919446 kJ/mol
# GULP energy per Si atom -5577.527963 kJ/mol
# Density = 2.338718 g / cm^3
# Si number density = 23.440534 Si / 1000 Ang^3
#
#
#
# Elastic Constant Matrix: (Units=GPa)
#
#
# Indices 1 2 3 4 5 6 
#
# 1 87.2359 31.5003 26.7753 9.5150 1.9921 1.3809
# 2 31.5003 148.9258 9.5914 5.1952 6.7660 0.1785
# 3 26.7753 9.5914 107.6314 -1.7764 3.5373 9.8220
# 4 9.5150 5.1952 -1.7764 39.4872 9.5242 9.5763
# 5 1.9921 6.7660 3.5373 9.5242 35.4276 5.9681
# 6 1.3809 0.1785 9.8220 9.5763 5.9681 35.9633
#
#
#
# Elastic Compliance Matrix: (Units=1/GPa)
#
#
# Indices 1 2 3 4 5 6 
#
# 1 0.013810 -0.002614 -0.003403 -0.003639 0.000831 0.001243
# 2 -0.002614 0.007328 0.000010 -0.000098 -0.001278 0.000299
# 3 -0.003403 0.000010 0.010496 0.002291 -0.000937 -0.003191
# 4 -0.003639 -0.000098 0.002291 0.029714 -0.006768 -0.007274
# 5 0.000831 -0.001278 -0.000937 -0.006768 0.030857 -0.003088
# 6 0.001243 0.000299 -0.003191 -0.007274 -0.003088 0.031078
#
#
# Mechanical properties :
#
#
# Convention : Reuss Voigt Hill
#
# Bulk Modulus (GPa) = 50.96794 53.28078 52.12436
# Shear Modulus (GPa) = 35.25147 40.57069 37.91108
#
# Velocity S-wave (km/s) = 3.88218 4.16479 4.02597
# Velocity P-wave (km/s) = 6.47192 6.77546 6.62543
#
# Compressibility (1/GPa) = 0.01962018
#
# Stress axis : x y z
#
# Youngs Moduli (GPa) = 72.41148 136.46026 95.27025
#
# Poissons Ratio (x) = 0.35673 0.32424
# Poissons Ratio (y) = 0.18930 -0.00099
# Poissons Ratio (z) = 0.24644 -0.00141
#
# Static dielectric constant tensor:
#      x y z
#    x 1.907330 -0.013650 -0.008560 
#    y -0.013650 1.907630 0.034510 
#    z -0.008560 0.034510 1.874440 
# 
# From -- ./inp_files/461205.got.cif
#   From: 2010.05.17/outbox.cif.g08.bks.cpg/sg2_231_cif.got.tgz:461205.got - 2010.06.03 11:33:40.
