data_PCOD9058138
_publ_section_title
;
Structure prediction by ZEFSAII (Michael W. Deem and Ramdas Pophale) SiO2 
 PCOD9058138
Probable space group: P -1
;
_chemical_formula_sum "Si O2"
_cell_formula_units_Z 16
_cell_length_a 14.154521
_cell_length_b 14.838295
_cell_length_c 11.369792
_cell_angle_alpha 140.325462
_cell_angle_beta 122.020591
_cell_angle_gamma 29.196027
_cell_volume 662.263172
_symmetry_space_group_name_H-M "P -1"
_symmetry_group_IT_number 2
_symmetry_cell_setting 'triclinic'
loop_
_space_group_symop_operation_xyz
x,y,z
-x,-y,-z
loop_
_atom_site_type_symbol
_atom_site_label
_atom_site_fract_x
_atom_site_fract_y
_atom_site_fract_z
Si Si1 0.291986 0.783286 0.351244
Si Si2 0.528067 0.262759 0.083800
Si Si3 0.554151 0.735860 0.351674
Si Si4 0.917584 0.306696 0.490846
Si Si5 0.329403 0.260160 0.807446
Si Si6 0.973287 0.699408 0.689166
Si Si7 0.564375 0.223850 0.335947
Si Si8 0.890353 0.630797 0.931964
O O1 0.399166 0.516913 0.177013
O O2 0.446917 0.707725 0.292896
O O3 0.286386 0.861729 0.555464
O O4 0.057388 0.046674 0.399854
O O5 0.544047 0.298779 0.264040
O O6 0.390785 0.268681 0.978205
O O7 0.767026 0.968053 0.898795
O O8 0.549307 0.785582 0.261815
O O9 0.804475 0.477346 0.292388
O O10 0.422877 0.000765 0.600885
O O11 0.679095 0.510593 0.507071
O O12 0.881578 0.489566 0.723590
O O13 0.046321 0.214879 0.368159
O O14 0.073045 0.527477 0.882431
O O15 0.000000 0.500000 0.500000
O O16 0.666765 0.957312 0.119620
O O17 0.000000 0.500000 0.000000
#
# Coordination Sequence:
#
# PCOD9058138 Si02
#       8
#     2   2   2   2   2   2   2   2
#     4  12  27  50  70 105 149 190 241 298 360 428
#     4  12  28  46  74 104 147 195 240 294 364 433
#     4  11  22  44  72 100 149 181 233 301 355 421
#     4  12  25  45  77 106 143 189 239 300 363 426
#     4  11  23  42  70 109 139 188 235 294 361 419
#     4  12  24  44  72 109 141 184 240 296 358 427
#     4  12  26  49  70 106 145 191 246 296 355 432
#     4  12  23  42  75 109 144 184 242 300 359 422
#
# _framework density 24.159579000000001
#
# number of rings (size 3 to 8) (size 9 to 14) (size 15 to 20)
#    0.000    0.250    5.000    4.500    0.000    3.000 
#    4.500    0.000    0.000    0.000    0.000    0.000 
#    0.000    0.000    0.000    0.000    0.000    0.000 
#
# Total GULP energy -89689.869845 kJ/mol
# GULP energy per Si atom -5605.616865 kJ/mol
# Density = 2.410459 g / cm^3
# Si number density = 24.159579 Si / 1000 Ang^3
#
#
#
# Elastic Constant Matrix: (Units=GPa)
#
#
# Indices 1 2 3 4 5 6 
#
# 1 64.3241 9.3648 20.7690 14.0964 -15.7451 17.9947
# 2 9.3648 107.7804 11.4132 27.5966 -3.3094 6.1773
# 3 20.7690 11.4132 71.5748 16.4912 -5.3616 4.5087
# 4 14.0964 27.5966 16.4912 47.5772 5.1276 -2.8622
# 5 -15.7451 -3.3094 -5.3616 5.1276 29.7489 3.4579
# 6 17.9947 6.1773 4.5087 -2.8622 3.4579 34.4372
#
#
#
# Elastic Compliance Matrix: (Units=1/GPa)
#
#
# Indices 1 2 3 4 5 6 
#
# 1 0.028424 0.002501 -0.003407 -0.011784 0.018799 -0.017722
# 2 0.002501 0.011561 -0.000059 -0.008186 0.004534 -0.004509
# 3 -0.003407 -0.000059 0.016314 -0.004893 0.002085 -0.000961
# 4 -0.011784 -0.008186 -0.004893 0.033353 -0.015239 0.012569
# 5 0.018799 0.004534 0.002085 -0.015239 0.049059 -0.017102
# 6 -0.017722 -0.004509 -0.000961 0.012569 -0.017102 0.041995
#
#
# Mechanical properties :
#
#
# Convention : Reuss Voigt Hill
#
# Bulk Modulus (GPa) = 18.39328 36.30813 27.35070
# Shear Modulus (GPa) = 24.90552 35.82816 30.36684
#
# Velocity S-wave (km/s) = 3.21421 3.85513 3.54916
# Velocity P-wave (km/s) = 4.62651 5.90568 5.30479
#
# Compressibility (1/GPa) = 0.05436770
#
# Stress axis : x y z
#
# Youngs Moduli (GPa) = 35.18160 86.49983 61.29811
#
# Poissons Ratio (x) = -0.21635 0.20885
# Poissons Ratio (y) = -0.08800 0.00364
# Poissons Ratio (z) = 0.11987 0.00514
#
# Static dielectric constant tensor:
#      x y z
#    x 1.981770 0.024200 -0.038740 
#    y 0.024200 1.919160 -0.029690 
#    z -0.038740 -0.029690 1.895210 
# 
# From -- ./inp_files/455932.got.cif
#   From: 2010.05.17/outbox.cif.g08.bks.cpg/sg2_228_cif.got.tgz:455932.got - 2010.06.03 11:33:40.
