data_PCOD9058905
_publ_section_title
;
Structure prediction by ZEFSAII (Michael W. Deem and Ramdas Pophale) SiO2 
 PCOD9058905
Probable space group: P -1
;
_chemical_formula_sum "Si O2"
_cell_formula_units_Z 14
_cell_length_a 13.946841
_cell_length_b 8.695477
_cell_length_c 21.961435
_cell_angle_alpha 138.415248
_cell_angle_beta 157.343823
_cell_angle_gamma 40.881626
_cell_volume 657.992625
_symmetry_space_group_name_H-M "P -1"
_symmetry_group_IT_number 2
_symmetry_cell_setting 'triclinic'
loop_
_space_group_symop_operation_xyz
x,y,z
-x,-y,-z
loop_
_atom_site_type_symbol
_atom_site_label
_atom_site_fract_x
_atom_site_fract_y
_atom_site_fract_z
Si Si1 0.890669 0.283886 0.022338
Si Si2 0.111093 0.145561 0.490707
Si Si3 0.327492 0.920965 0.698079
Si Si4 0.236067 0.930634 0.848128
Si Si5 0.539003 0.700121 0.627839
Si Si6 0.200310 0.360407 0.027656
Si Si7 0.638894 0.588110 0.194096
O O1 0.154883 0.356571 0.206109
O O2 0.750774 0.434114 0.927074
O O3 0.669958 0.344611 0.960857
O O4 0.000000 0.000000 0.000000
O O5 0.382711 0.951443 0.581448
O O6 0.210239 0.364841 0.641627
O O7 0.937846 0.087976 0.428035
O O8 0.932324 0.128813 0.323646
O O9 0.418494 0.752676 0.641296
O O10 0.549530 0.800874 0.840588
O O11 0.318555 0.200303 0.762302
O O12 0.285690 0.699033 0.853015
O O13 0.500000 0.000000 0.000000
O O14 0.091260 0.171337 0.869167
O O15 0.500000 0.500000 0.500000
O O16 0.000000 0.500000 0.000000
#
# Coordination Sequence:
#
# PCOD9058905 Si02
#       7
#     2   2   2   2   2   2   2
#     4  12  21  42  69 100 132 182 223 270 340 401
#     4  11  23  44  67  98 139 174 228 281 340 394
#     4  11  23  44  69  98 138 181 219 287 339 391
#     4  12  24  42  70 100 130 182 224 283 337 405
#     4  11  23  38  68  96 133 176 224 271 335 401
#     4  12  24  43  66  97 139 172 223 281 340 398
#     4  11  23  42  71  99 136 178 231 274 337 405
#
# _framework density 21.276834999999998
#
# number of rings (size 3 to 8) (size 9 to 14) (size 15 to 20)
#    0.000    0.571    7.143    3.000    0.000    0.571 
#    0.000    4.286    0.000    2.571    0.000    0.000 
#    0.000    0.000    0.000    0.000    0.000    0.000 
#
# Total GULP energy -77956.171548 kJ/mol
# GULP energy per Si atom -5568.297968 kJ/mol
# Density = 2.122841 g / cm^3
# Si number density = 21.276835 Si / 1000 Ang^3
#
#
#
# Elastic Constant Matrix: (Units=GPa)
#
#
# Indices 1 2 3 4 5 6 
#
# 1 64.7286 40.7513 39.4958 12.3956 5.0474 -0.5389
# 2 40.7513 157.4545 34.9615 20.2417 -4.1927 13.7551
# 3 39.4958 34.9615 101.2957 -15.1211 -0.9358 -1.2913
# 4 12.3956 20.2417 -15.1211 33.5047 -6.1962 -9.2491
# 5 5.0474 -4.1927 -0.9358 -6.1962 40.1412 -5.5012
# 6 -0.5389 13.7551 -1.2913 -9.2491 -5.5012 29.6796
#
#
#
# Elastic Compliance Matrix: (Units=1/GPa)
#
#
# Indices 1 2 3 4 5 6 
#
# 1 0.029308 -0.001559 -0.013988 -0.019654 -0.008166 -0.006992
# 2 -0.001559 0.009580 -0.004243 -0.009581 -0.001465 -0.007910
# 3 -0.013988 -0.004243 0.020089 0.020822 0.006405 0.010263
# 4 -0.019654 -0.009581 0.020822 0.062709 0.015389 0.027384
# 5 -0.008166 -0.001465 0.006405 0.015389 0.029837 0.011135
# 6 -0.006992 -0.007910 0.010263 0.027384 0.011135 0.048276
#
#
# Mechanical properties :
#
#
# Convention : Reuss Voigt Hill
#
# Bulk Modulus (GPa) = 51.55475 61.54400 56.54938
# Shear Modulus (GPa) = 20.33795 34.54977 27.44386
#
# Velocity S-wave (km/s) = 3.09507 4.03404 3.59534
# Velocity P-wave (km/s) = 6.08734 7.11942 6.62351
#
# Compressibility (1/GPa) = 0.01939685
#
# Stress axis : x y z
#
# Youngs Moduli (GPa) = 34.11996 104.37893 49.77902
#
# Poissons Ratio (x) = 0.16277 0.69630
# Poissons Ratio (y) = 0.05321 0.21122
# Poissons Ratio (z) = 0.47726 0.44290
#
# Static dielectric constant tensor:
#      x y z
#    x 1.877530 0.128710 -0.042970 
#    y 0.128710 1.879420 0.012600 
#    z -0.042970 0.012600 1.816380 
# 
# From -- ./inp_files/461612.got.cif
#   From: 2010.05.17/outbox.cif.g08.bks.cpg/sg2_231_cif.got.tgz:461612.got - 2010.06.03 11:33:40.
