data_PCOD9058515
_publ_section_title
;
Structure prediction by ZEFSAII (Michael W. Deem and Ramdas Pophale) SiO2 
 PCOD9058515
Probable space group: P -1
;
_chemical_formula_sum "Si O2"
_cell_formula_units_Z 16
_cell_length_a 11.489593
_cell_length_b 11.719498
_cell_length_c 6.130255
_cell_angle_alpha 57.714385
_cell_angle_beta 88.150123
_cell_angle_gamma 76.206306
_cell_volume 673.150069
_symmetry_space_group_name_H-M "P -1"
_symmetry_group_IT_number 2
_symmetry_cell_setting 'triclinic'
loop_
_space_group_symop_operation_xyz
x,y,z
-x,-y,-z
loop_
_atom_site_type_symbol
_atom_site_label
_atom_site_fract_x
_atom_site_fract_y
_atom_site_fract_z
Si Si1 0.901642 0.333576 0.635197
Si Si2 0.720554 0.544708 0.740455
Si Si3 0.795289 0.049340 0.419003
Si Si4 0.484132 0.249268 0.701502
Si Si5 0.428753 0.985220 0.735994
Si Si6 0.929375 0.645520 0.754840
Si Si7 0.315214 0.656919 0.693677
Si Si8 0.027318 0.113215 0.170795
O O1 0.825819 0.424960 0.741130
O O2 0.802204 0.341801 0.445274
O O3 0.014103 0.368788 0.474651
O O4 0.971497 0.185091 0.880005
O O5 0.633517 0.623937 0.471324
O O6 0.789271 0.648445 0.745385
O O7 0.657614 0.475559 0.007335
O O8 0.711556 0.981266 0.351032
O O9 0.724604 0.208776 0.286963
O O10 0.923117 0.039480 0.314411
O O11 0.837138 0.986424 0.721247
O O12 0.585879 0.307411 0.511233
O O13 0.454177 0.112063 0.741477
O O14 0.529461 0.174106 0.006671
O O15 0.500000 0.000000 0.500000
O O16 0.960180 0.766521 0.777215
O O17 0.000000 0.500000 0.000000
#
# Coordination Sequence:
#
# PCOD9058515 Si02
#       8
#     2   2   2   2   2   2   2   2
#     4  12  23  41  67  98 134 180 217 273 341 388
#     4  12  26  44  68 102 139 178 227 275 332 401
#     4  11  22  46  66  96 136 171 220 277 337 392
#     4  11  27  45  72 103 128 181 232 270 342 399
#     4  11  24  48  72  94 136 173 220 291 331 392
#     4  12  22  44  64  96 138 172 220 276 334 399
#     4  12  24  46  68  96 143 178 224 282 325 399
#     4  11  24  41  68  98 132 176 219 276 336 399
#
# _framework density 23.768846
#
# number of rings (size 3 to 8) (size 9 to 14) (size 15 to 20)
#    0.000    0.500    6.250    2.250    0.000    3.000 
#    2.250    0.000    0.000    0.000    0.000    0.000 
#    0.000    0.000    0.000    0.000    0.000    0.000 
#
# Total GULP energy -89249.724256 kJ/mol
# GULP energy per Si atom -5578.107766 kJ/mol
# Density = 2.371475 g / cm^3
# Si number density = 23.768846 Si / 1000 Ang^3
#
#
#
# Elastic Constant Matrix: (Units=GPa)
#
#
# Indices 1 2 3 4 5 6 
#
# 1 116.1769 7.3532 56.4858 -15.9131 -2.2947 13.4940
# 2 7.3532 49.5773 6.3977 -10.6802 -3.7699 14.3832
# 3 56.4858 6.3977 160.5880 -33.7055 1.1042 -6.4157
# 4 -15.9131 -10.6802 -33.7055 33.6979 2.5415 7.8725
# 5 -2.2947 -3.7699 1.1042 2.5415 43.6536 -3.2377
# 6 13.4940 14.3832 -6.4157 7.8725 -3.2377 25.3417
#
#
#
# Elastic Compliance Matrix: (Units=1/GPa)
#
#
# Indices 1 2 3 4 5 6 
#
# 1 0.012245 0.003035 -0.003683 0.005627 -0.000140 -0.010941
# 2 0.003035 0.030297 0.000329 0.016972 -0.000001 -0.024001
# 3 -0.003683 0.000329 0.009069 0.007069 -0.000674 0.001789
# 4 0.005627 0.016972 0.007069 0.051407 -0.003431 -0.027247
# 5 -0.000140 -0.000001 -0.000674 -0.003431 0.023411 0.003961
# 6 -0.010941 -0.024001 0.001789 -0.027247 0.003961 0.068332
#
#
# Mechanical properties :
#
#
# Convention : Reuss Voigt Hill
#
# Bulk Modulus (GPa) = 19.61840 51.86841 35.74341
# Shear Modulus (GPa) = 23.54146 37.61234 30.57690
#
# Velocity S-wave (km/s) = 3.15053 3.98228 3.59057
# Velocity P-wave (km/s) = 4.63748 6.55852 5.67980
#
# Compressibility (1/GPa) = 0.05097255
#
# Stress axis : x y z
#
# Youngs Moduli (GPa) = 81.66570 33.00646 110.26105
#
# Poissons Ratio (x) = -0.10017 0.40611
# Poissons Ratio (y) = -0.24785 -0.03624
# Poissons Ratio (z) = 0.30079 -0.01085
#
# Static dielectric constant tensor:
#      x y z
#    x 1.888600 0.024220 0.165990 
#    y 0.024220 1.975640 -0.000770 
#    z 0.165990 -0.000770 4.947540 
# 
# From -- ./inp_files/68531.got.cif
#   From: 2010.05.17/outbox.cif.g08.bks.cpg/sg2_35_cif.got.tgz:68531.got - 2010.06.03 11:33:40.
