data_PCOD9058426
_publ_section_title
;
Structure prediction by ZEFSAII (Michael W. Deem and Ramdas Pophale) SiO2 
 PCOD9058426
Probable space group: P -1
;
_chemical_formula_sum "Si O2"
_cell_formula_units_Z 16
_cell_length_a 9.825358
_cell_length_b 14.595616
_cell_length_c 12.353368
_cell_angle_alpha 104.712280
_cell_angle_beta 84.912280
_cell_angle_gamma 152.465665
_cell_volume 754.281650
_symmetry_space_group_name_H-M "P -1"
_symmetry_group_IT_number 2
_symmetry_cell_setting 'triclinic'
loop_
_space_group_symop_operation_xyz
x,y,z
-x,-y,-z
loop_
_atom_site_type_symbol
_atom_site_label
_atom_site_fract_x
_atom_site_fract_y
_atom_site_fract_z
Si Si1 0.111720 0.489824 0.406848
Si Si2 0.258929 0.077600 0.804255
Si Si3 0.048377 0.448949 0.155957
Si Si4 0.476886 0.741948 0.938843
Si Si5 0.781364 0.602326 0.028261
Si Si6 0.139233 0.298100 0.441481
Si Si7 0.141967 0.992549 0.214707
Si Si8 0.210002 0.039491 0.473404
O O1 0.954237 0.388365 0.270204
O O2 0.103362 0.383950 0.435089
O O3 0.000000 0.500000 0.500000
O O4 0.464666 0.735334 0.429272
O O5 0.618503 0.292622 0.808571
O O6 0.148333 0.115886 0.798549
O O7 0.270062 0.072488 0.932063
O O8 0.021089 0.864054 0.691176
O O9 0.786101 0.342180 0.077721
O O10 0.099425 0.376141 0.081450
O O11 0.331572 0.553724 0.934695
O O12 0.625466 0.821852 0.834862
O O13 0.044892 0.828859 0.132459
O O14 0.500000 0.500000 0.000000
O O15 0.500000 0.500000 0.500000
O O16 0.952920 0.151603 0.518027
O O17 0.259392 0.061202 0.348820
O O18 0.000000 0.000000 0.500000
#
# Coordination Sequence:
#
# PCOD9058426 Si02
#       8
#     2   2   2   2   2   2   2   2
#     4  12  27  48  72 108 148 191 245 300 362 431
#     4  11  22  45  73 103 144 187 236 297 355 428
#     4  11  24  49  71 101 156 189 231 299 358 433
#     4  11  26  46  68 107 149 185 235 292 365 429
#     4  11  24  42  73 106 139 188 236 293 363 416
#     4  12  26  45  80 104 135 198 246 300 366 423
#     4  12  24  42  73 107 143 181 242 304 346 433
#     4  12  24  49  70 106 144 186 248 299 355 427
#
# _framework density 21.212236000000001
#
# number of rings (size 3 to 8) (size 9 to 14) (size 15 to 20)
#    0.000    0.500    6.250    2.625    1.750    4.000 
#    6.750    0.000    0.000    0.000    0.000    0.000 
#    0.000    0.000    0.000    0.000    0.000    0.000 
#
# Total GULP energy -89468.382364 kJ/mol
# GULP energy per Si atom -5591.773898 kJ/mol
# Density = 2.116396 g / cm^3
# Si number density = 21.212236 Si / 1000 Ang^3
#
#
#
# Elastic Constant Matrix: (Units=GPa)
#
#
# Indices 1 2 3 4 5 6 
#
# 1 126.8709 18.2593 50.2410 3.2290 -2.7194 -12.0528
# 2 18.2593 55.0532 22.2879 -5.2333 0.5010 -15.2920
# 3 50.2410 22.2879 154.2147 -11.0581 1.1159 -14.7171
# 4 3.2290 -5.2333 -11.0581 46.1377 -3.3718 6.5295
# 5 -2.7194 0.5010 1.1159 -3.3718 41.3351 0.0054
# 6 -12.0528 -15.2920 -14.7171 6.5295 0.0054 32.2670
#
#
#
# Elastic Compliance Matrix: (Units=1/GPa)
#
#
# Indices 1 2 3 4 5 6 
#
# 1 0.009459 -0.001671 -0.002795 -0.001737 0.000576 0.001818
# 2 -0.001671 0.021951 -0.001719 0.000930 -0.000255 0.008807
# 3 -0.002795 -0.001719 0.007900 0.001678 -0.000240 0.001405
# 4 -0.001737 0.000930 0.001678 0.023008 0.001707 -0.004099
# 5 0.000576 -0.000255 -0.000240 0.001707 0.024379 -0.000364
# 6 0.001818 0.008807 0.001405 -0.004099 -0.000364 0.037314
#
#
# Mechanical properties :
#
#
# Convention : Reuss Voigt Hill
#
# Bulk Modulus (GPa) = 37.12089 57.52390 47.32239
# Shear Modulus (GPa) = 34.39695 40.30468 37.35082
#
# Velocity S-wave (km/s) = 4.03123 4.36371 4.20076
# Velocity P-wave (km/s) = 6.26143 7.25027 6.77392
#
# Compressibility (1/GPa) = 0.02693901
#
# Stress axis : x y z
#
# Youngs Moduli (GPa) = 105.72336 45.55526 126.58759
#
# Poissons Ratio (x) = 0.07612 0.35384
# Poissons Ratio (y) = 0.17665 0.21763
# Poissons Ratio (z) = 0.29552 0.07832
#
# Static dielectric constant tensor:
#      x y z
#    x 1.725790 0.009030 0.004770 
#    y 0.009030 1.779690 -0.005640 
#    z 0.004770 -0.005640 1.794990 
# 
# From -- ./inp_files/245855.got.cif
#   From: 2010.05.17/outbox.cif.g08.bks.cpg/sg2_123_cif.got.tgz:245855.got - 2010.06.03 11:33:40.
