data_PCOD9058062
_publ_section_title
;
Structure prediction by ZEFSAII (Michael W. Deem and Ramdas Pophale) SiO2 
 PCOD9058062
Probable space group: P -1
;
_chemical_formula_sum "Si O2"
_cell_formula_units_Z 14
_cell_length_a 20.815737
_cell_length_b 11.314720
_cell_length_c 15.075258
_cell_angle_alpha 32.765363
_cell_angle_beta 18.590515
_cell_angle_gamma 33.407947
_cell_volume 597.757432
_symmetry_space_group_name_H-M "P -1"
_symmetry_group_IT_number 2
_symmetry_cell_setting 'triclinic'
loop_
_space_group_symop_operation_xyz
x,y,z
-x,-y,-z
loop_
_atom_site_type_symbol
_atom_site_label
_atom_site_fract_x
_atom_site_fract_y
_atom_site_fract_z
Si Si1 0.765182 0.482261 0.323105
Si Si2 0.794391 0.215346 0.288462
Si Si3 0.605678 0.134680 0.393896
Si Si4 0.113217 0.584422 0.216912
Si Si5 0.792456 0.192872 0.639962
Si Si6 0.178923 0.333876 0.619626
Si Si7 0.393957 0.117983 0.151590
O O1 0.695225 0.416291 0.359107
O O2 0.618763 0.704921 0.412957
O O3 0.771588 0.282727 0.509958
O O4 0.000000 0.500000 0.000000
O O5 0.696061 0.181263 0.343333
O O6 0.773940 0.999474 0.508938
O O7 0.017400 0.263912 0.943979
O O8 0.625942 0.872993 0.514153
O O9 0.756948 0.223395 0.070616
O O10 0.287460 0.365584 0.103429
O O11 0.000000 0.500000 0.500000
O O12 0.941621 0.652341 0.323991
O O13 0.791662 0.418442 0.553794
O O14 0.579761 0.111416 0.983334
O O15 0.000000 0.000000 0.500000
O O16 0.500000 0.000000 0.000000
#
# Coordination Sequence:
#
# PCOD9058062 Si02
#       7
#     2   2   2   2   2   2   2
#     4  12  25  46  73 105 139 191 234 289 350 418
#     4  11  23  44  76 104 136 187 238 284 349 423
#     4  11  24  46  71 106 142 182 242 286 350 428
#     4  11  22  44  70 101 138 184 235 285 352 417
#     4  12  27  47  68 102 147 181 237 289 356 408
#     4  11  25  47  71 105 144 184 230 299 352 424
#     4  12  23  42  70 104 136 183 235 289 343 412
#
# _framework density 23.420871999999999
#
# number of rings (size 3 to 8) (size 9 to 14) (size 15 to 20)
#    0.000    0.571    4.286    4.714    2.000    2.857 
#    0.000    2.857    0.000    0.000    0.000    0.000 
#    0.000    0.000    0.000    0.000    0.000    0.000 
#
# Total GULP energy -78261.231889 kJ/mol
# GULP energy per Si atom -5590.087992 kJ/mol
# Density = 2.336756 g / cm^3
# Si number density = 23.420872 Si / 1000 Ang^3
#
#
#
# Elastic Constant Matrix: (Units=GPa)
#
#
# Indices 1 2 3 4 5 6 
#
# 1 69.2902 39.9320 38.9638 6.3677 1.7945 0.9893
# 2 39.9320 199.0336 34.9611 11.5414 -9.6014 8.7659
# 3 38.9638 34.9611 72.2294 -2.6540 0.2839 5.7482
# 4 6.3677 11.5414 -2.6540 26.7252 2.3676 -2.8712
# 5 1.7945 -9.6014 0.2839 2.3676 39.9936 -2.7967
# 6 0.9893 8.7659 5.7482 -2.8712 -2.7967 32.2921
#
#
#
# Elastic Compliance Matrix: (Units=1/GPa)
#
#
# Indices 1 2 3 4 5 6 
#
# 1 0.022697 -0.002360 -0.011404 -0.005273 -0.001093 0.001412
# 2 -0.002360 0.006073 -0.001657 -0.002516 0.001629 -0.001364
# 3 -0.011404 -0.001657 0.021198 0.005311 -0.000529 -0.002548
# 4 -0.005273 -0.002516 0.005311 0.040873 -0.002593 0.003309
# 5 -0.001093 0.001629 -0.000529 -0.002593 0.025719 0.001682
# 6 0.001412 -0.001364 -0.002548 0.003309 0.001682 0.032188
#
#
# Mechanical properties :
#
#
# Convention : Reuss Voigt Hill
#
# Bulk Modulus (GPa) = 52.27838 63.14079 57.70958
# Shear Modulus (GPa) = 26.88665 34.91527 30.90096
#
# Velocity S-wave (km/s) = 3.39186 3.86525 3.63626
# Velocity P-wave (km/s) = 6.14079 6.85112 6.50566
#
# Compressibility (1/GPa) = 0.01912837
#
# Stress axis : x y z
#
# Youngs Moduli (GPa) = 44.05816 164.65398 47.17343
#
# Poissons Ratio (x) = 0.38855 0.53794
# Poissons Ratio (y) = 0.10397 0.07817
# Poissons Ratio (z) = 0.50242 0.27283
#
# Static dielectric constant tensor:
#      x y z
#    x 1.888510 0.088190 -0.110010 
#    y 0.088190 1.805570 0.106710 
#    z -0.110010 0.106710 1.827580 
# 
# From -- ./inp_files/242974.got.cif
#   From: 2010.05.17/outbox.cif.g08.bks.cpg/sg2_122_cif.got.tgz:242974.got - 2010.06.03 11:33:40.
