data_PCOD9058012
_publ_section_title
;
Structure prediction by ZEFSAII (Michael W. Deem and Ramdas Pophale) SiO2 
 PCOD9058012
Probable space group: P -1
;
_chemical_formula_sum "Si O2"
_cell_formula_units_Z 16
_cell_length_a 11.600537
_cell_length_b 12.305073
_cell_length_c 12.140685
_cell_angle_alpha 104.025027
_cell_angle_beta 122.251730
_cell_angle_gamma 124.535125
_cell_volume 752.374173
_symmetry_space_group_name_H-M "P -1"
_symmetry_group_IT_number 2
_symmetry_cell_setting 'triclinic'
loop_
_space_group_symop_operation_xyz
x,y,z
-x,-y,-z
loop_
_atom_site_type_symbol
_atom_site_label
_atom_site_fract_x
_atom_site_fract_y
_atom_site_fract_z
Si Si1 0.408249 0.050521 0.239569
Si Si2 0.488794 0.857195 0.449948
Si Si3 0.868069 0.964759 0.256964
Si Si4 0.290564 0.400871 0.453832
Si Si5 0.468382 0.680622 0.796197
Si Si6 0.111092 0.913570 0.470066
Si Si7 0.001612 0.604223 0.829597
Si Si8 0.986048 0.584605 0.364401
O O1 0.372160 0.079252 0.348585
O O2 0.377311 0.121628 0.148154
O O3 0.706274 0.219737 0.423606
O O4 0.216136 0.815544 0.061890
O O5 0.632264 0.917308 0.429928
O O6 0.208227 0.607470 0.256086
O O7 0.500000 0.000000 0.500000
O O8 0.087648 0.168756 0.338852
O O9 0.953882 0.907427 0.339322
O O10 0.836609 0.026982 0.359761
O O11 0.614752 0.770617 0.007472
O O12 0.500000 0.500000 0.500000
O O13 0.435605 0.549146 0.672283
O O14 0.142990 0.402175 0.319903
O O15 0.180845 0.524748 0.637275
O O16 0.964736 0.693598 0.328667
O O17 0.114428 0.587899 0.802672
#
# Coordination Sequence:
#
# PCOD9058012 Si02
#       8
#     2   2   2   2   2   2   2   2
#     4  11  24  42  71 109 137 176 233 288 353 407
#     4  11  22  44  68  99 146 177 223 288 338 417
#     4  11  27  46  73  98 141 188 233 285 340 422
#     4  12  25  46  71 102 144 179 229 287 350 413
#     4  12  25  45  73 106 136 179 236 290 352 400
#     4  11  24  50  66 100 146 186 233 279 341 415
#     4  11  24  43  71 106 137 186 227 287 356 400
#     4  11  24  43  72  99 146 178 227 298 335 415
#
# _framework density 21.266013999999998
#
# number of rings (size 3 to 8) (size 9 to 14) (size 15 to 20)
#    0.000    0.750    7.500    1.125    1.750    3.000 
#    2.250    0.000    0.000    0.000    0.000    0.000 
#    0.000    0.000    0.000    0.000    0.000    0.000 
#
# Total GULP energy -89439.011556 kJ/mol
# GULP energy per Si atom -5589.938222 kJ/mol
# Density = 2.121761 g / cm^3
# Si number density = 21.266014 Si / 1000 Ang^3
#
#
#
# Elastic Constant Matrix: (Units=GPa)
#
#
# Indices 1 2 3 4 5 6 
#
# 1 106.5247 16.1948 23.6439 -4.7849 -13.2641 20.8117
# 2 16.1948 90.4388 18.8948 5.7847 2.6062 7.1204
# 3 23.6439 18.8948 108.2839 10.2709 -17.5240 6.9623
# 4 -4.7849 5.7847 10.2709 33.8223 -7.8264 -4.3817
# 5 -13.2641 2.6062 -17.5240 -7.8264 15.6710 -1.6136
# 6 20.8117 7.1204 6.9623 -4.3817 -1.6136 46.3759
#
#
#
# Elastic Compliance Matrix: (Units=1/GPa)
#
#
# Indices 1 2 3 4 5 6 
#
# 1 0.012430 -0.002440 -0.000465 0.004602 0.012265 -0.004272
# 2 -0.002440 0.012682 -0.002741 -0.003994 -0.009352 -0.001143
# 3 -0.000465 -0.002741 0.012043 -0.000268 0.013319 -0.000740
# 4 0.004602 -0.003994 -0.000268 0.036638 0.022850 0.002845
# 5 0.012265 -0.009352 0.013319 0.022850 0.102017 -0.000359
# 6 -0.004272 -0.001143 -0.000740 0.002845 -0.000359 0.024023
#
#
# Mechanical properties :
#
#
# Convention : Reuss Voigt Hill
#
# Bulk Modulus (GPa) = 38.66628 46.96826 42.81727
# Shear Modulus (GPa) = 22.75334 35.60813 29.18074
#
# Velocity S-wave (km/s) = 3.27454 4.09640 3.70831
# Velocity P-wave (km/s) = 5.70250 6.67143 6.20590
#
# Compressibility (1/GPa) = 0.02586233
#
# Stress axis : x y z
#
# Youngs Moduli (GPa) = 80.44868 78.85300 83.03252
#
# Poissons Ratio (x) = 0.19241 0.03864
# Poissons Ratio (y) = 0.19630 0.22761
# Poissons Ratio (z) = 0.03743 0.21615
#
# Static dielectric constant tensor:
#      x y z
#    x 1.758460 -0.006390 0.008460 
#    y -0.006390 1.798910 -0.023320 
#    z 0.008460 -0.023320 1.762540 
# 
# From -- ./inp_files/428431.got.cif
#   From: 2010.05.17/outbox.cif.g08.bks.cpg/sg2_215_cif.got.tgz:428431.got - 2010.06.03 11:33:40.
