data_PCOD9058504
_publ_section_title
;
Structure prediction by ZEFSAII (Michael W. Deem and Ramdas Pophale) SiO2 
 PCOD9058504
Probable space group: P -1
;
_chemical_formula_sum "Si O2"
_cell_formula_units_Z 14
_cell_length_a 10.067967
_cell_length_b 15.466100
_cell_length_c 8.808286
_cell_angle_alpha 113.920302
_cell_angle_beta 61.358875
_cell_angle_gamma 145.651905
_cell_volume 679.038114
_symmetry_space_group_name_H-M "P -1"
_symmetry_group_IT_number 2
_symmetry_cell_setting 'triclinic'
loop_
_space_group_symop_operation_xyz
x,y,z
-x,-y,-z
loop_
_atom_site_type_symbol
_atom_site_label
_atom_site_fract_x
_atom_site_fract_y
_atom_site_fract_z
Si Si1 0.448225 0.096855 0.005672
Si Si2 0.262312 0.808645 0.817510
Si Si3 0.335577 0.187868 0.866874
Si Si4 0.717203 0.354557 0.513357
Si Si5 0.033680 0.082838 0.686550
Si Si6 0.511696 0.432071 0.580183
Si Si7 0.248386 0.355023 0.119529
O O1 0.688133 0.218194 0.067105
O O2 0.406699 0.151479 0.934273
O O3 0.219830 0.997175 0.175939
O O4 0.426955 0.983490 0.860713
O O5 0.335460 0.774239 0.617601
O O6 0.986723 0.710316 0.871197
O O7 0.572486 0.311612 0.715015
O O8 0.132561 0.067775 0.762631
O O9 0.235927 0.235702 0.029878
O O10 0.635870 0.390987 0.457408
O O11 0.000000 0.500000 0.500000
O O12 0.241092 0.266090 0.671477
O O13 0.000000 0.000000 0.500000
O O14 0.500000 0.500000 0.500000
O O15 0.694085 0.573305 0.698153
O O16 0.500000 0.500000 0.000000
#
# Coordination Sequence:
#
# PCOD9058504 Si02
#       7
#     2   2   2   2   2   2   2
#     4  11  24  44  66 100 135 176 230 271 345 400
#     4  11  24  42  67  92 142 175 215 286 339 398
#     4  11  24  41  71  99 127 182 229 274 327 406
#     4  11  22  46  62  95 137 171 216 281 340 389
#     4  11  23  43  70  98 140 174 224 283 331 397
#     4  11  25  42  70 104 128 176 231 275 331 403
#     4  12  21  45  69  93 135 177 226 279 334 396
#
# _framework density 20.617398000000001
#
# number of rings (size 3 to 8) (size 9 to 14) (size 15 to 20)
#    0.000    0.857    5.714    2.143    4.000    0.571 
#    7.714    1.429    0.000    0.000    0.000    0.000 
#    0.000    0.000    0.000    0.000    0.000    0.000 
#
# Total GULP energy -78092.799539 kJ/mol
# GULP energy per Si atom -5578.057110 kJ/mol
# Density = 2.057047 g / cm^3
# Si number density = 20.617398 Si / 1000 Ang^3
#
#
#
# Elastic Constant Matrix: (Units=GPa)
#
#
# Indices 1 2 3 4 5 6 
#
# 1 193.1423 54.6831 63.9939 -1.9189 15.4995 0.8245
# 2 54.6831 63.6098 47.1154 5.3990 10.5529 9.4643
# 3 63.9939 47.1154 96.7078 28.0721 -7.1655 -5.8369
# 4 -1.9189 5.3990 28.0721 37.4168 1.6332 0.1868
# 5 15.4995 10.5529 -7.1655 1.6332 43.8616 2.3251
# 6 0.8245 9.4643 -5.8369 0.1868 2.3251 38.9997
#
#
#
# Elastic Compliance Matrix: (Units=1/GPa)
#
#
# Indices 1 2 3 4 5 6 
#
# 1 0.008239 -0.002275 -0.006258 0.005604 -0.003575 -0.000372
# 2 -0.002275 0.035001 -0.020002 0.010360 -0.010695 -0.010851
# 3 -0.006258 -0.020002 0.032141 -0.022145 0.012614 0.009151
# 4 0.005604 0.010360 -0.022145 0.042570 -0.009379 -0.005592
# 5 -0.003575 -0.010695 0.012614 -0.009379 0.028893 0.002881
# 6 -0.000372 -0.010851 0.009151 -0.005592 0.002881 0.029507
#
#
# Mechanical properties :
#
#
# Convention : Reuss Voigt Hill
#
# Bulk Modulus (GPa) = 54.60666 76.11607 65.36137
# Shear Modulus (GPa) = 20.87469 36.56679 28.72074
#
# Velocity S-wave (km/s) = 3.18540 4.21597 3.73639
# Velocity P-wave (km/s) = 6.33026 7.79087 7.09824
#
# Compressibility (1/GPa) = 0.01831278
#
# Stress axis : x y z
#
# Youngs Moduli (GPa) = 121.37161 28.57036 31.11284
#
# Poissons Ratio (x) = 0.06500 0.19469
# Poissons Ratio (y) = 0.27612 0.62231
# Poissons Ratio (z) = 0.75950 0.57146
#
# Static dielectric constant tensor:
#      x y z
#    x 1.775100 -0.018010 0.074720 
#    y -0.018010 1.811360 -0.062940 
#    z 0.074720 -0.062940 2.180330 
# 
# From -- ./inp_files/208221.got.cif
#   From: 2010.05.17/outbox.cif.g08.bks.cpg/sg2_105_cif.got.tgz:208221.got - 2010.06.03 11:33:40.
