data_PCOD9058231
_publ_section_title
;
Structure prediction by ZEFSAII (Michael W. Deem and Ramdas Pophale) SiO2 
 PCOD9058231
Probable space group: P -1
;
_chemical_formula_sum "Si O2"
_cell_formula_units_Z 16
_cell_length_a 12.239773
_cell_length_b 11.762627
_cell_length_c 11.682369
_cell_angle_alpha 37.433043
_cell_angle_beta 94.018952
_cell_angle_gamma 66.386363
_cell_volume 671.742666
_symmetry_space_group_name_H-M "P -1"
_symmetry_group_IT_number 2
_symmetry_cell_setting 'triclinic'
loop_
_space_group_symop_operation_xyz
x,y,z
-x,-y,-z
loop_
_atom_site_type_symbol
_atom_site_label
_atom_site_fract_x
_atom_site_fract_y
_atom_site_fract_z
Si Si1 0.442506 0.976700 0.130410
Si Si2 0.126947 0.427389 0.979038
Si Si3 0.035646 0.962486 0.166902
Si Si4 0.052160 0.550476 0.624766
Si Si5 0.248044 0.465725 0.163149
Si Si6 0.340419 0.803032 0.403533
Si Si7 0.538845 0.460128 0.900413
Si Si8 0.712389 0.861298 0.383153
O O1 0.467905 0.734706 0.376954
O O2 0.554516 0.957072 0.241398
O O3 0.500000 0.000000 0.000000
O O4 0.241982 0.235508 0.887170
O O5 0.211908 0.481227 0.014782
O O6 0.251046 0.101380 0.213316
O O7 0.038854 0.613648 0.709345
O O8 0.000000 0.500000 0.000000
O O9 0.900899 0.250969 0.001317
O O10 0.040263 0.748687 0.389165
O O11 0.208182 0.846458 0.294015
O O12 0.000000 0.000000 0.000000
O O13 0.898646 0.604884 0.547770
O O14 0.398521 0.414003 0.224660
O O15 0.281176 0.226061 0.417959
O O16 0.405111 0.600171 0.678405
O O17 0.500000 0.500000 0.000000
O O18 0.677579 0.124861 0.160939
#
# Coordination Sequence:
#
# PCOD9058231 Si02
#       8
#     2   2   2   2   2   2   2   2
#     4  11  27  47  76 106 145 202 251 316 373 447
#     4  11  22  44  75 106 146 193 246 314 382 452
#     4  12  28  47  74 109 149 202 259 316 375 455
#     4  11  26  47  72 110 148 195 254 310 376 455
#     4  12  25  47  74 109 151 197 255 311 384 456
#     4  11  25  48  71 112 153 195 255 317 384 454
#     4  12  28  43  74 113 154 200 242 316 387 460
#     4  12  25  49  73 109 152 195 259 302 380 450
#
# _framework density 23.818646000000001
#
# number of rings (size 3 to 8) (size 9 to 14) (size 15 to 20)
#    0.000    0.500    5.000    2.250    8.750    2.000 
#    0.000    1.875    0.000    0.000    0.000    0.000 
#    0.000    0.000    0.000    0.000    0.000    0.000 
#
# Total GULP energy -89372.565064 kJ/mol
# GULP energy per Si atom -5585.785317 kJ/mol
# Density = 2.376443 g / cm^3
# Si number density = 23.818646 Si / 1000 Ang^3
#
#
#
# Elastic Constant Matrix: (Units=GPa)
#
#
# Indices 1 2 3 4 5 6 
#
# 1 129.0349 30.3501 34.8063 14.1969 7.4594 -8.8068
# 2 30.3501 79.9617 52.4918 26.0169 -4.5858 -3.1415
# 3 34.8063 52.4918 133.5096 33.7723 -5.8005 -2.6571
# 4 14.1969 26.0169 33.7723 45.3966 -8.7080 -0.0042
# 5 7.4594 -4.5858 -5.8005 -8.7080 46.4593 12.8960
# 6 -8.8068 -3.1415 -2.6571 -0.0042 12.8960 42.2600
#
#
#
# Elastic Compliance Matrix: (Units=1/GPa)
#
#
# Indices 1 2 3 4 5 6 
#
# 1 0.009082 -0.002333 -0.001241 -0.001105 -0.002738 0.002477
# 2 -0.002333 0.018857 -0.005233 -0.006127 0.000297 0.000495
# 3 -0.001241 -0.005233 0.011103 -0.004842 0.000161 0.000001
# 4 -0.001105 -0.006127 -0.004842 0.030528 0.005423 -0.002642
# 5 -0.002738 0.000297 0.000161 0.005423 0.025324 -0.008266
# 6 0.002477 0.000495 0.000001 -0.002642 -0.008266 0.026738
#
#
# Mechanical properties :
#
#
# Convention : Reuss Voigt Hill
#
# Bulk Modulus (GPa) = 46.66621 64.20029 55.43325
# Shear Modulus (GPa) = 34.15594 41.81373 37.98484
#
# Velocity S-wave (km/s) = 3.79093 4.19442 3.99777
# Velocity P-wave (km/s) = 6.22867 7.10421 6.68080
#
# Compressibility (1/GPa) = 0.02142878
#
# Stress axis : x y z
#
# Youngs Moduli (GPa) = 110.10636 53.03119 90.06743
#
# Poissons Ratio (x) = 0.12372 0.11174
# Poissons Ratio (y) = 0.25687 0.47132
# Poissons Ratio (z) = 0.13659 0.27751
#
# Static dielectric constant tensor:
#      x y z
#    x 1.799620 -0.135570 0.402810 
#    y -0.135570 1.903420 0.467280 
#    z 0.402810 0.467280 1.320790 
# 
# From -- ./inp_files/427421.got.cif
#   From: 2010.05.17/outbox.cif.g08.bks.cpg/sg2_214_cif.got.tgz:427421.got - 2010.06.03 11:33:40.
