data_PCOD9058593
_publ_section_title
;
Structure prediction by ZEFSAII (Michael W. Deem and Ramdas Pophale) SiO2 
 PCOD9058593
Probable space group: P -1
;
_chemical_formula_sum "Si O2"
_cell_formula_units_Z 13
_cell_length_a 9.590706
_cell_length_b 14.007476
_cell_length_c 7.320009
_cell_angle_alpha 46.099272
_cell_angle_beta 56.689505
_cell_angle_gamma 44.281377
_cell_volume 491.982829
_symmetry_space_group_name_H-M "P -1"
_symmetry_group_IT_number 2
_symmetry_cell_setting 'triclinic'
loop_
_space_group_symop_operation_xyz
x,y,z
-x,-y,-z
loop_
_atom_site_type_symbol
_atom_site_label
_atom_site_fract_x
_atom_site_fract_y
_atom_site_fract_z
Si Si1 0.965755 0.287299 0.478893
Si Si2 0.230442 0.901959 0.540571
Si Si3 0.000000 0.000000 0.000000
Si Si4 0.314129 0.138041 0.151214
Si Si5 0.992408 0.563357 0.223680
Si Si6 0.380580 0.800675 0.970270
Si Si7 0.657798 0.430896 0.217089
O O1 0.019063 0.417688 0.284683
O O2 0.746263 0.389674 0.412495
O O3 0.002809 0.171114 0.771398
O O4 0.119059 0.178964 0.354178
O O5 0.228886 0.895929 0.778315
O O6 0.354550 0.714482 0.645355
O O7 0.369188 0.964178 0.289949
O O8 0.000000 0.000000 0.500000
O O9 0.204826 0.896245 0.116902
O O10 0.459842 0.157121 0.152311
O O11 0.217045 0.274438 0.888898
O O12 0.000000 0.500000 0.500000
O O13 0.173816 0.579848 0.022524
O O14 0.481174 0.616580 0.101780
#
# Coordination Sequence:
#
# PCOD9058593 Si02
#       7
#     2   2   1   2   2   2   2
#     4  11  22  46  73 104 150 195 242 303 380 440
#     4  12  23  41  76 112 146 185 250 301 357 449
#     4  12  28  40  74 108 142 188 256 320 348 414
#     4  11  22  47  78 103 146 205 240 293 379 459
#     4  11  23  40  76 111 149 189 245 309 366 440
#     4  12  25  47  73 108 146 202 253 295 376 441
#     4  11  23  46  75 107 148 203 239 295 378 450
#
# _framework density 26.423683
#
# number of rings (size 3 to 8) (size 9 to 14) (size 15 to 20)
#    0.000    0.615    7.692    1.846    2.154    1.846 
#    0.000    1.538    0.000    5.538    0.000    0.000 
#    0.000    0.000    0.000    0.000    0.000    0.000 
#
# Total GULP energy -72447.359307 kJ/mol
# GULP energy per Si atom -5572.873793 kJ/mol
# Density = 2.636354 g / cm^3
# Si number density = 26.423683 Si / 1000 Ang^3
#
#
#
# Elastic Constant Matrix: (Units=GPa)
#
#
# Indices 1 2 3 4 5 6 
#
# 1 120.5797 46.9211 59.6647 -24.1389 1.0667 -12.2143
# 2 46.9211 111.1753 47.9873 -41.4001 0.4172 -29.2307
# 3 59.6647 47.9873 192.1239 -52.6021 1.1522 -8.0208
# 4 -24.1389 -41.4001 -52.6021 58.1391 7.0888 -3.5937
# 5 1.0667 0.4172 1.1522 7.0888 47.8105 -14.0040
# 6 -12.2143 -29.2307 -8.0208 -3.5937 -14.0040 40.8769
#
#
#
# Elastic Compliance Matrix: (Units=1/GPa)
#
#
# Indices 1 2 3 4 5 6 
#
# 1 0.010910 -0.003577 -0.002580 -0.000336 -0.000057 0.000147
# 2 -0.003577 0.018973 0.000571 0.013171 0.002201 0.014523
# 3 -0.002580 0.000571 0.007703 0.006478 -0.000656 0.001494
# 4 -0.000336 0.013171 0.006478 0.033274 -0.001377 0.013043
# 5 -0.000057 0.002201 -0.000656 -0.001377 0.023899 0.009495
# 6 0.000147 0.014523 0.001494 0.013043 0.009495 0.039585
#
#
# Mechanical properties :
#
#
# Convention : Reuss Voigt Hill
#
# Bulk Modulus (GPa) = 37.85857 81.44722 59.65290
# Shear Modulus (GPa) = 32.39986 47.31903 39.85944
#
# Velocity S-wave (km/s) = 3.50547 4.23635 3.88812
# Velocity P-wave (km/s) = 5.54464 7.40401 6.54073
#
# Compressibility (1/GPa) = 0.02641410
#
# Stress axis : x y z
#
# Youngs Moduli (GPa) = 91.65839 52.70698 129.81331
#
# Poissons Ratio (x) = 0.18854 0.33494
# Poissons Ratio (y) = 0.32788 -0.07416
# Poissons Ratio (z) = 0.23649 -0.03011
#
# Static dielectric constant tensor:
#      x y z
#    x 2.041700 -0.001560 -0.047630 
#    y -0.001560 1.196440 -0.535560 
#    z -0.047630 -0.535560 1.838980 
# 
# From -- ./inp_files/198911.got.cif
#   From: 2010.05.17/outbox.cif.g08.bks.cpg/sg2_100_cif.got.tgz:198911.got - 2010.06.03 11:33:40.
