data_PCOD9058760
_publ_section_title
;
Structure prediction by ZEFSAII (Michael W. Deem and Ramdas Pophale) SiO2 
 PCOD9058760
Probable space group: P -1
;
_chemical_formula_sum "Si O2"
_cell_formula_units_Z 14
_cell_length_a 15.839857
_cell_length_b 16.336553
_cell_length_c 9.108885
_cell_angle_alpha 137.850981
_cell_angle_beta 122.111250
_cell_angle_gamma 25.094307
_cell_volume 584.251011
_symmetry_space_group_name_H-M "P -1"
_symmetry_group_IT_number 2
_symmetry_cell_setting 'triclinic'
loop_
_space_group_symop_operation_xyz
x,y,z
-x,-y,-z
loop_
_atom_site_type_symbol
_atom_site_label
_atom_site_fract_x
_atom_site_fract_y
_atom_site_fract_z
Si Si1 0.053853 0.809898 0.174093
Si Si2 0.294527 0.952426 0.019123
Si Si3 0.866480 0.849581 0.271610
Si Si4 0.550351 0.434825 0.788895
Si Si5 0.027720 0.250870 0.446551
Si Si6 0.284423 0.189920 0.144181
Si Si7 0.727887 0.361490 0.455763
O O1 0.285486 0.629200 0.153312
O O2 0.062037 0.717030 0.203185
O O3 0.873714 0.118428 0.380918
O O4 0.946284 0.834123 0.988287
O O5 0.325370 0.061600 0.153760
O O6 0.245455 0.991017 0.198364
O O7 0.504770 0.661332 0.731876
O O8 0.904824 0.763234 0.355403
O O9 0.672849 0.167832 0.524373
O O10 0.822346 0.788872 0.040786
O O11 0.358309 0.631443 0.747446
O O12 0.500000 0.500000 0.000000
O O13 0.865124 0.527019 0.584713
O O14 0.887875 0.285229 0.419228
O O15 0.500000 0.000000 0.000000
#
# Coordination Sequence:
#
# PCOD9058760 Si02
#       7
#     2   2   2   2   2   2   2
#     4  11  25  46  68 100 147 185 224 283 351 414
#     4  11  25  43  74 102 136 188 231 284 355 413
#     4  11  25  44  67 102 138 181 231 287 344 409
#     4  12  25  41  68 107 143 184 234 281 341 419
#     4  12  25  44  73 103 137 183 239 287 342 414
#     4  11  22  48  73  95 138 184 233 290 352 405
#     4  12  25  45  74 102 145 191 225 283 357 408
#
# _framework density 23.962302999999999
#
# number of rings (size 3 to 8) (size 9 to 14) (size 15 to 20)
#    0.000    0.571    5.714    2.571    2.000    1.143 
#    0.000    0.714    3.143    0.000    0.000    0.000 
#    0.000    0.000    0.000    0.000    0.000    0.000 
#
# Total GULP energy -78111.805115 kJ/mol
# GULP energy per Si atom -5579.414651 kJ/mol
# Density = 2.390776 g / cm^3
# Si number density = 23.962303 Si / 1000 Ang^3
#
#
#
# Elastic Constant Matrix: (Units=GPa)
#
#
# Indices 1 2 3 4 5 6 
#
# 1 191.7900 38.4283 71.1648 -4.8646 -19.7322 4.0343
# 2 38.4283 76.2047 27.5531 -8.5579 -22.5178 -4.0048
# 3 71.1648 27.5531 111.7697 8.0671 -18.5717 4.6681
# 4 -4.8646 -8.5579 8.0671 34.2701 16.0509 1.2703
# 5 -19.7322 -22.5178 -18.5717 16.0509 46.2879 -5.5858
# 6 4.0343 -4.0048 4.6681 1.2703 -5.5858 36.7782
#
#
#
# Elastic Compliance Matrix: (Units=1/GPa)
#
#
# Indices 1 2 3 4 5 6 
#
# 1 0.007220 -0.002028 -0.004234 0.001653 -0.000250 -0.000570
# 2 -0.002028 0.017165 -0.002071 0.001264 0.006617 0.003316
# 3 -0.004234 -0.002071 0.013436 -0.006495 0.004768 -0.000518
# 4 0.001653 0.001264 -0.006495 0.038354 -0.014925 -0.002811
# 5 -0.000250 0.006617 0.004768 -0.014925 0.032480 0.005591
# 6 -0.000570 0.003316 -0.000518 -0.002811 0.005591 0.028626
#
#
# Mechanical properties :
#
#
# Convention : Reuss Voigt Hill
#
# Bulk Modulus (GPa) = 47.26776 72.67298 59.97037
# Shear Modulus (GPa) = 31.05659 39.64181 35.34920
#
# Velocity S-wave (km/s) = 3.60399 4.07177 3.84500
# Velocity P-wave (km/s) = 6.08991 7.24566 6.69278
#
# Compressibility (1/GPa) = 0.02115607
#
# Stress axis : x y z
#
# Youngs Moduli (GPa) = 138.51181 58.25702 74.42791
#
# Poissons Ratio (x) = 0.11814 0.31512
# Poissons Ratio (y) = 0.28090 0.15411
# Poissons Ratio (z) = 0.58644 0.12062
#
# Static dielectric constant tensor:
#      x y z
#    x 1.960720 0.023410 -0.014160 
#    y 0.023410 2.006270 0.032060 
#    z -0.014160 0.032060 2.004430 
# 
# From -- ./inp_files/315940.got.cif
#   From: 2010.05.17/outbox.cif.g08.bks.cpg/sg2_158_cif.got.tgz:315940.got - 2010.06.03 11:33:40.
