data_PCOD9058579
_publ_section_title
;
Structure prediction by ZEFSAII (Michael W. Deem and Ramdas Pophale) SiO2 
 PCOD9058579
Probable space group: P -1
;
_chemical_formula_sum "Si O2"
_cell_formula_units_Z 16
_cell_length_a 11.371683
_cell_length_b 8.802423
_cell_length_c 10.960498
_cell_angle_alpha 121.646699
_cell_angle_beta 126.767116
_cell_angle_gamma 73.338183
_cell_volume 747.590522
_symmetry_space_group_name_H-M "P -1"
_symmetry_group_IT_number 2
_symmetry_cell_setting 'triclinic'
loop_
_space_group_symop_operation_xyz
x,y,z
-x,-y,-z
loop_
_atom_site_type_symbol
_atom_site_label
_atom_site_fract_x
_atom_site_fract_y
_atom_site_fract_z
Si Si1 0.884622 0.954504 0.518683
Si Si2 0.951166 0.322286 0.328544
Si Si3 0.676066 0.216928 0.630379
Si Si4 0.683752 0.817440 0.131739
Si Si5 0.097593 0.182472 0.146011
Si Si6 0.613087 0.965528 0.709924
Si Si7 0.356241 0.849922 0.931895
Si Si8 0.839978 0.581727 0.941576
O O1 0.747825 0.852966 0.321436
O O2 0.970505 0.838016 0.620274
O O3 0.815047 0.119735 0.616069
O O4 0.000000 0.000000 0.500000
O O5 0.778133 0.290337 0.211177
O O6 0.000000 0.500000 0.500000
O O7 0.004829 0.319531 0.221747
O O8 0.534965 0.157050 0.436468
O O9 0.723512 0.423437 0.763749
O O10 0.624969 0.129758 0.691525
O O11 0.676973 0.008570 0.136669
O O12 0.512676 0.758871 0.987645
O O13 0.786341 0.677072 0.070715
O O14 0.249937 0.148831 0.293026
O O15 0.144943 0.258970 0.078545
O O16 0.000000 0.000000 0.000000
O O17 0.640795 0.041039 0.893643
O O18 0.000000 0.500000 0.000000
#
# Coordination Sequence:
#
# PCOD9058579 Si02
#       8
#     2   2   2   2   2   2   2   2
#     4  12  24  44  68  98 141 179 225 280 349 414
#     4  12  28  43  68 106 136 179 232 287 340 407
#     4  11  26  43  70 103 135 181 231 284 346 406
#     4  11  24  44  71 102 135 184 224 282 351 407
#     4  12  24  45  72  93 137 186 229 277 342 413
#     4  11  22  46  72  95 133 190 229 275 345 418
#     4  11  23  46  72  98 139 184 227 278 351 414
#     4  12  27  43  70 107 138 173 234 292 335 408
#
# _framework density 21.402090000000001
#
# number of rings (size 3 to 8) (size 9 to 14) (size 15 to 20)
#    0.000    0.500    6.250    1.500    3.500    1.500 
#    0.000    1.250    0.000    0.000    0.000    0.000 
#    0.000    0.000    0.000    0.000    0.000    0.000 
#
# Total GULP energy -89420.638065 kJ/mol
# GULP energy per Si atom -5588.789879 kJ/mol
# Density = 2.135338 g / cm^3
# Si number density = 21.402090 Si / 1000 Ang^3
#
#
#
# Elastic Constant Matrix: (Units=GPa)
#
#
# Indices 1 2 3 4 5 6 
#
# 1 79.5578 4.2211 15.2007 6.3370 13.4105 -17.2263
# 2 4.2211 33.8279 8.2758 2.8626 9.6701 -7.3314
# 3 15.2007 8.2758 94.4438 9.0245 19.0514 -0.6197
# 4 6.3370 2.8626 9.0245 33.1499 -4.0579 -0.6376
# 5 13.4105 9.6701 19.0514 -4.0579 49.6886 -3.7885
# 6 -17.2263 -7.3314 -0.6197 -0.6376 -3.7885 34.4608
#
#
#
# Elastic Compliance Matrix: (Units=1/GPa)
#
#
# Indices 1 2 3 4 5 6 
#
# 1 0.015212 0.001316 -0.001546 -0.002879 -0.003438 0.007425
# 2 0.001316 0.033280 -0.001563 -0.003296 -0.005969 0.006993
# 3 -0.001546 -0.001563 0.012168 -0.003440 -0.004333 -0.001427
# 4 -0.002879 -0.003296 -0.003440 0.032569 0.005320 -0.001015
# 5 -0.003438 -0.005969 -0.004333 0.005320 0.024288 -0.000298
# 6 0.007425 0.006993 -0.001427 -0.001015 -0.000298 0.034141
#
#
# Mechanical properties :
#
#
# Convention : Reuss Voigt Hill
#
# Bulk Modulus (GPa) = 17.52190 29.24721 23.38455
# Shear Modulus (GPa) = 28.69137 35.46867 32.08002
#
# Velocity S-wave (km/s) = 3.66537 4.07535 3.87579
# Velocity P-wave (km/s) = 5.11058 5.98665 5.56588
#
# Compressibility (1/GPa) = 0.05707145
#
# Stress axis : x y z
#
# Youngs Moduli (GPa) = 65.73966 30.04788 82.18525
#
# Poissons Ratio (x) = -0.03953 0.12709
# Poissons Ratio (y) = -0.08649 0.12847
# Poissons Ratio (z) = 0.10166 0.04697
#
# Static dielectric constant tensor:
#      x y z
#    x 1.801620 -0.003080 0.014630 
#    y -0.003080 1.845720 -0.048110 
#    z 0.014630 -0.048110 1.760770 
# 
# From -- ./inp_files/217015.got.cif
#   From: 2010.05.17/outbox.cif.g08.bks.cpg/sg2_109_cif.got.tgz:217015.got - 2010.06.03 11:33:40.
