data_PCOD9058181
_publ_section_title
;
Structure prediction by ZEFSAII (Michael W. Deem and Ramdas Pophale) SiO2 
 PCOD9058181
Probable space group: P -1
;
_chemical_formula_sum "Si O2"
_cell_formula_units_Z 15
_cell_length_a 9.650125
_cell_length_b 11.225034
_cell_length_c 10.015411
_cell_angle_alpha 42.164279
_cell_angle_beta 99.539475
_cell_angle_gamma 77.698771
_cell_volume 618.857713
_symmetry_space_group_name_H-M "P -1"
_symmetry_group_IT_number 2
_symmetry_cell_setting 'triclinic'
loop_
_space_group_symop_operation_xyz
x,y,z
-x,-y,-z
loop_
_atom_site_type_symbol
_atom_site_label
_atom_site_fract_x
_atom_site_fract_y
_atom_site_fract_z
Si Si1 0.758452 0.035170 0.014608
Si Si2 0.194449 0.383373 0.609033
Si Si3 0.467328 0.454165 0.681057
Si Si4 0.764283 0.578121 0.988259
Si Si5 0.500000 0.000000 0.500000
Si Si6 0.661053 0.267746 0.335185
Si Si7 0.918088 0.470462 0.809619
Si Si8 0.927642 0.015922 0.788904
O O1 0.927944 0.938693 0.201328
O O2 0.723638 0.852472 0.139702
O O3 0.615433 0.222436 0.916016
O O4 0.804077 0.093770 0.830649
O O5 0.292353 0.469375 0.633285
O O6 0.204411 0.402526 0.434878
O O7 0.000000 0.500000 0.500000
O O8 0.500000 0.500000 0.500000
O O9 0.460572 0.606523 0.666000
O O10 0.827857 0.533045 0.883824
O O11 0.649465 0.825440 0.765459
O O12 0.680886 0.441379 0.116953
O O13 0.921473 0.509604 0.164662
O O14 0.598037 0.125492 0.382680
O O15 0.834443 0.113403 0.558083
O O16 0.985179 0.230885 0.990913
#
# Coordination Sequence:
#
# PCOD9058181 Si02
#       8
#     2   2   2   2   1   2   2   2
#     4  11  24  41  70 115 148 196 237 301 383 449
#     4  12  24  44  75 109 152 198 245 302 383 449
#     4  12  26  44  72 111 150 188 244 311 379 442
#     4  11  27  49  73 106 143 199 254 307 373 438
#     4  12  28  52  72 104 144 200 254 316 368 434
#     4  12  27  50  76 104 152 199 249 315 376 449
#     4  11  24  46  73 105 148 192 252 307 358 460
#     4  11  22  44  73 103 151 192 242 305 372 445
#
# _framework density 24.238204
#
# number of rings (size 3 to 8) (size 9 to 14) (size 15 to 20)
#    0.000    0.533    4.000    4.000    3.733    1.600 
#    2.400    0.000    0.000    0.000    0.000    0.000 
#    0.000    0.000    0.000    0.000    0.000    0.000 
#
# Total GULP energy -83731.121803 kJ/mol
# GULP energy per Si atom -5582.074787 kJ/mol
# Density = 2.418304 g / cm^3
# Si number density = 24.238204 Si / 1000 Ang^3
#
#
#
# Elastic Constant Matrix: (Units=GPa)
#
#
# Indices 1 2 3 4 5 6 
#
# 1 92.7123 10.6085 26.8994 3.9436 -9.1853 18.3587
# 2 10.6085 32.3952 -12.1614 5.6950 4.0508 -1.7913
# 3 26.8994 -12.1614 96.9648 -4.6234 -5.2411 6.6056
# 4 3.9436 5.6950 -4.6234 33.3843 8.5970 -1.8737
# 5 -9.1853 4.0508 -5.2411 8.5970 35.6808 -4.1939
# 6 18.3587 -1.7913 6.6056 -1.8737 -4.1939 37.3175
#
#
#
# Elastic Compliance Matrix: (Units=1/GPa)
#
#
# Indices 1 2 3 4 5 6 
#
# 1 0.014584 -0.006803 -0.004378 -0.002489 0.003727 -0.006432
# 2 -0.006803 0.036573 0.005868 -0.003449 -0.003803 0.003463
# 3 -0.004378 0.005868 0.012291 0.001304 -0.000267 0.000295
# 4 -0.002489 -0.003449 0.001304 0.033129 -0.007851 0.001609
# 5 0.003727 -0.003803 -0.000267 -0.007851 0.031407 0.001167
# 6 -0.006432 0.003463 0.000295 0.001609 0.001167 0.030287
#
#
# Mechanical properties :
#
#
# Convention : Reuss Voigt Hill
#
# Bulk Modulus (GPa) = 18.93153 30.30725 24.61939
# Shear Modulus (GPa) = 26.80897 34.39157 30.60027
#
# Velocity S-wave (km/s) = 3.32936 3.77091 3.55700
# Velocity P-wave (km/s) = 4.75469 5.61167 5.20086
#
# Compressibility (1/GPa) = 0.05282193
#
# Stress axis : x y z
#
# Youngs Moduli (GPa) = 68.57012 27.34249 81.35928
#
# Poissons Ratio (x) = 0.18602 0.35619
# Poissons Ratio (y) = 0.46651 -0.47745
# Poissons Ratio (z) = 0.30020 -0.16046
#
# Static dielectric constant tensor:
#      x y z
#    x 1.918410 -0.059380 0.001870 
#    y -0.059380 1.874990 -0.002330 
#    z 0.001870 -0.002330 1.942690 
# 
# From -- ./inp_files/388854.got.cif
#   From: 2010.05.17/outbox.cif.g08.bks.cpg/sg2_195_cif.got.tgz:388854.got - 2010.06.03 11:33:40.
