data_PCOD9058667
_publ_section_title
;
Structure prediction by ZEFSAII (Michael W. Deem and Ramdas Pophale) SiO2 
 PCOD9058667
Probable space group: P -1
;
_chemical_formula_sum "Si O2"
_cell_formula_units_Z 16
_cell_length_a 11.951451
_cell_length_b 8.440573
_cell_length_c 16.911533
_cell_angle_alpha 146.341013
_cell_angle_beta 127.711161
_cell_angle_gamma 57.155838
_cell_volume 745.871203
_symmetry_space_group_name_H-M "P -1"
_symmetry_group_IT_number 2
_symmetry_cell_setting 'triclinic'
loop_
_space_group_symop_operation_xyz
x,y,z
-x,-y,-z
loop_
_atom_site_type_symbol
_atom_site_label
_atom_site_fract_x
_atom_site_fract_y
_atom_site_fract_z
Si Si1 0.100458 0.255952 0.634598
Si Si2 0.336036 0.940303 0.193535
Si Si3 0.570391 0.777756 0.500130
Si Si4 0.164004 0.432752 0.569211
Si Si5 0.301779 0.294923 0.888093
Si Si6 0.787652 0.937848 0.094099
Si Si7 0.562770 0.821427 0.820376
Si Si8 0.019251 0.085181 0.134706
O O1 0.164371 0.234687 0.565033
O O2 0.218689 0.261597 0.756473
O O3 0.016431 0.572000 0.731161
O O4 0.000000 0.000000 0.500000
O O5 0.436709 0.077781 0.356887
O O6 0.339784 0.102623 0.179604
O O7 0.180220 0.988898 0.182508
O O8 0.363561 0.603735 0.049598
O O9 0.731744 0.695559 0.506550
O O10 0.489231 0.491301 0.342525
O O11 0.500000 0.000000 0.500000
O O12 0.000000 0.500000 0.500000
O O13 0.224420 0.731722 0.745828
O O14 0.197473 0.251911 0.899428
O O15 0.427832 0.050316 0.851163
O O16 0.649938 0.857026 0.952927
O O17 0.916939 0.929224 0.084799
O O18 0.000000 0.000000 0.000000
#
# Coordination Sequence:
#
# PCOD9058667 Si02
#       8
#     2   2   2   2   2   2   2   2
#     4  11  25  42  73 101 135 180 240 284 344 423
#     4  12  26  45  70 102 142 179 229 292 355 411
#     4  12  28  45  70 106 141 181 238 293 354 416
#     4  11  24  48  71  99 142 190 233 290 348 418
#     4  12  25  43  71 105 135 186 236 280 345 426
#     4  11  23  44  76  94 137 186 233 280 346 426
#     4  12  26  46  72  98 143 189 227 284 356 425
#     4  11  22  47  67 100 138 178 227 289 351 405
#
# _framework density 21.451426000000001
#
# number of rings (size 3 to 8) (size 9 to 14) (size 15 to 20)
#    0.000    0.500    3.750    4.875    5.250    1.500 
#    2.250    0.000    0.000    0.000    0.000    0.000 
#    0.000    0.000    0.000    0.000    0.000    0.000 
#
# Total GULP energy -89541.762646 kJ/mol
# GULP energy per Si atom -5596.360165 kJ/mol
# Density = 2.140260 g / cm^3
# Si number density = 21.451426 Si / 1000 Ang^3
#
#
#
# Elastic Constant Matrix: (Units=GPa)
#
#
# Indices 1 2 3 4 5 6 
#
# 1 85.3421 14.1217 21.1266 4.8254 5.7462 19.0947
# 2 14.1217 81.5853 43.6705 -5.4076 10.4370 13.2624
# 3 21.1266 43.6705 163.5209 -0.5278 8.1391 13.1684
# 4 4.8254 -5.4076 -0.5278 42.8422 11.9169 -2.3817
# 5 5.7462 10.4370 8.1391 11.9169 29.7684 -3.0478
# 6 19.0947 13.2624 13.1684 -2.3817 -3.0478 46.6545
#
#
#
# Elastic Compliance Matrix: (Units=1/GPa)
#
#
# Indices 1 2 3 4 5 6 
#
# 1 0.013477 -0.000767 -0.001019 -0.001347 -0.002048 -0.005213
# 2 -0.000767 0.015880 -0.003544 0.003592 -0.006239 -0.003424
# 3 -0.001019 -0.003544 0.007276 -0.000122 -0.000570 -0.000673
# 4 -0.001347 0.003592 -0.000122 0.027254 -0.011858 0.000181
# 5 -0.002048 -0.006239 -0.000570 -0.011858 0.041578 0.004884
# 6 -0.005213 -0.003424 -0.000673 0.000181 0.004884 0.025059
#
#
# Mechanical properties :
#
#
# Convention : Reuss Voigt Hill
#
# Bulk Modulus (GPa) = 38.50249 54.25400 46.37825
# Shear Modulus (GPa) = 33.36868 40.62165 36.99516
#
# Velocity S-wave (km/s) = 3.94832 4.35634 4.15734
# Velocity P-wave (km/s) = 6.22682 7.11688 6.68668
#
# Compressibility (1/GPa) = 0.02597235
#
# Stress axis : x y z
#
# Youngs Moduli (GPa) = 74.19960 62.97342 137.44431
#
# Poissons Ratio (x) = 0.04832 0.14005
# Poissons Ratio (y) = 0.05693 0.48709
# Poissons Ratio (z) = 0.07560 0.22317
#
# Static dielectric constant tensor:
#      x y z
#    x 1.916440 -0.047400 0.123310 
#    y -0.047400 1.766780 -0.082670 
#    z 0.123310 -0.082670 1.949130 
# 
# From -- ./inp_files/567140.got.cif
#   From: 2010.05.17/outbox.cif.g08.bks.cpg/sg2_284_cif.got.tgz:567140.got - 2010.06.03 11:33:40.
