data_PCOD9058683
_publ_section_title
;
Structure prediction by ZEFSAII (Michael W. Deem and Ramdas Pophale) SiO2 
 PCOD9058683
Probable space group: P -1
;
_chemical_formula_sum "Si O2"
_cell_formula_units_Z 14
_cell_length_a 8.996193
_cell_length_b 10.382387
_cell_length_c 11.812283
_cell_angle_alpha 55.794273
_cell_angle_beta 52.473775
_cell_angle_gamma 44.801215
_cell_volume 599.658736
_symmetry_space_group_name_H-M "P -1"
_symmetry_group_IT_number 2
_symmetry_cell_setting 'triclinic'
loop_
_space_group_symop_operation_xyz
x,y,z
-x,-y,-z
loop_
_atom_site_type_symbol
_atom_site_label
_atom_site_fract_x
_atom_site_fract_y
_atom_site_fract_z
Si Si1 0.391790 0.382636 0.093931
Si Si2 0.960924 0.464349 0.350816
Si Si3 0.982246 0.732610 0.369601
Si Si4 0.424491 0.963178 0.674107
Si Si5 0.673647 0.069870 0.674409
Si Si6 0.521524 0.365717 0.800845
Si Si7 0.174500 0.715825 0.654432
O O1 0.123973 0.481245 0.182721
O O2 0.480747 0.243839 0.227486
O O3 0.500000 0.500000 0.000000
O O4 0.464062 0.302161 0.974339
O O5 0.073448 0.276435 0.469437
O O6 0.894525 0.622678 0.395488
O O7 0.784732 0.444758 0.374321
O O8 0.247123 0.642726 0.286223
O O9 0.842985 0.932558 0.276262
O O10 0.500000 0.000000 0.500000
O O11 0.497371 0.038760 0.708509
O O12 0.575856 0.214826 0.752421
O O13 0.739411 0.164883 0.499731
O O14 0.901625 0.871682 0.708825
O O15 0.319045 0.581284 0.758009
#
# Coordination Sequence:
#
# PCOD9058683 Si02
#       7
#     2   2   2   2   2   2   2
#     4  12  27  48  70 108 150 187 238 302 376 425
#     4  11  22  47  69 106 140 190 249 284 362 439
#     4  11  24  42  78 105 137 193 251 296 351 434
#     4  12  26  48  77 103 145 192 248 302 352 440
#     4  11  25  45  73 113 139 191 252 293 358 436
#     4  12  27  45  72 110 153 187 236 308 369 425
#     4  11  24  45  74 104 147 189 242 304 356 427
#
# _framework density 23.346610999999999
#
# number of rings (size 3 to 8) (size 9 to 14) (size 15 to 20)
#    0.000    0.571    5.714    1.286    8.000    1.714 
#    2.571    0.000    0.000    0.000    0.000    0.000 
#    0.000    0.000    0.000    0.000    0.000    0.000 
#
# Total GULP energy -78145.153734 kJ/mol
# GULP energy per Si atom -5581.796695 kJ/mol
# Density = 2.329347 g / cm^3
# Si number density = 23.346611 Si / 1000 Ang^3
#
#
#
# Elastic Constant Matrix: (Units=GPa)
#
#
# Indices 1 2 3 4 5 6 
#
# 1 102.6504 33.0586 24.7506 -7.4265 2.3591 -5.6631
# 2 33.0586 79.1398 27.2143 -3.8088 23.0190 -12.9648
# 3 24.7506 27.2143 115.4531 1.8777 5.9454 -10.4269
# 4 -7.4265 -3.8088 1.8777 28.1288 1.4810 8.3785
# 5 2.3591 23.0190 5.9454 1.4810 34.6632 -9.6392
# 6 -5.6631 -12.9648 -10.4269 8.3785 -9.6392 47.3665
#
#
#
# Elastic Compliance Matrix: (Units=1/GPa)
#
#
# Indices 1 2 3 4 5 6 
#
# 1 0.011869 -0.005132 -0.001533 0.002461 0.002700 -0.000209
# 2 -0.005132 0.019476 -0.002784 0.001668 -0.011786 0.001411
# 3 -0.001533 -0.002784 0.009792 -0.001996 0.000841 0.001735
# 4 0.002461 0.001668 -0.001996 0.039057 -0.004703 -0.007554
# 5 0.002700 -0.011786 0.000841 -0.004703 0.038185 0.005885
# 6 -0.000209 0.001411 0.001735 -0.007554 0.005885 0.024389
#
#
# Mechanical properties :
#
#
# Convention : Reuss Voigt Hill
#
# Bulk Modulus (GPa) = 44.96205 51.92114 48.44160
# Shear Modulus (GPa) = 29.57222 36.17970 32.87596
#
# Velocity S-wave (km/s) = 3.56288 3.94086 3.75663
# Velocity P-wave (km/s) = 6.01878 6.55704 6.29367
#
# Compressibility (1/GPa) = 0.02224098
#
# Stress axis : x y z
#
# Youngs Moduli (GPa) = 84.25663 51.34446 102.12381
#
# Poissons Ratio (x) = 0.26349 0.15652
# Poissons Ratio (y) = 0.43239 0.28427
# Poissons Ratio (z) = 0.12913 0.14292
#
# Static dielectric constant tensor:
#      x y z
#    x 1.915110 -0.053960 0.019020 
#    y -0.053960 2.096640 -0.029870 
#    z 0.019020 -0.029870 1.844090 
# 
# From -- ./inp_files/391983.got.cif
#   From: 2010.05.17/outbox.cif.g08.bks.cpg/sg2_196_cif.got.tgz:391983.got - 2010.06.03 11:33:40.
