data_PCOD9058145
_publ_section_title
;
Structure prediction by ZEFSAII (Michael W. Deem and Ramdas Pophale) SiO2 
 PCOD9058145
Probable space group: P -1
;
_chemical_formula_sum "Si O2"
_cell_formula_units_Z 15
_cell_length_a 7.783931
_cell_length_b 12.200839
_cell_length_c 12.593165
_cell_angle_alpha 122.946917
_cell_angle_beta 64.182199
_cell_angle_gamma 70.004137
_cell_volume 580.543142
_symmetry_space_group_name_H-M "P -1"
_symmetry_group_IT_number 2
_symmetry_cell_setting 'triclinic'
loop_
_space_group_symop_operation_xyz
x,y,z
-x,-y,-z
loop_
_atom_site_type_symbol
_atom_site_label
_atom_site_fract_x
_atom_site_fract_y
_atom_site_fract_z
Si Si1 0.069192 0.579895 0.604849
Si Si2 0.504536 0.184671 0.409413
Si Si3 0.875694 0.173294 0.045935
Si Si4 0.258637 0.281921 0.758315
Si Si5 0.500000 0.500000 0.500000
Si Si6 0.555531 0.744720 0.949511
Si Si7 0.752853 0.955132 0.626718
Si Si8 0.813484 0.369948 0.799473
O O1 0.391516 0.371296 0.469345
O O2 0.200502 0.648723 0.574221
O O3 0.000000 0.500000 0.500000
O O4 0.774196 0.736792 0.836476
O O5 0.412303 0.252327 0.592362
O O6 0.309784 0.166680 0.405813
O O7 0.838394 0.962324 0.179476
O O8 0.744045 0.352069 0.251660
O O9 0.607477 0.254497 0.093796
O O10 0.000000 0.000000 0.000000
O O11 0.078106 0.249017 0.748663
O O12 0.507566 0.126156 0.696355
O O13 0.000000 0.500000 0.000000
O O14 0.767052 0.536295 0.847797
O O15 0.316608 0.930369 0.189773
O O16 0.075659 0.792081 0.401783
O O17 0.500000 0.500000 0.000000
#
# Coordination Sequence:
#
# PCOD9058145 Si02
#       8
#     2   2   2   2   1   2   2   2
#     4  12  23  48  73 104 143 187 245 305 357 438
#     4  11  23  45  70 102 145 189 244 295 369 438
#     4  12  27  46  69 106 139 186 249 299 359 442
#     4  11  22  44  72 103 142 189 237 291 363 441
#     4  12  26  46  76  98 144 188 240 304 374 408
#     4  12  25  46  70 103 146 186 241 304 362 434
#     4  11  24  45  72 101 141 197 231 297 374 425
#     4  11  25  42  66 105 142 184 245 293 352 435
#
# _framework density 25.837873999999999
#
# number of rings (size 3 to 8) (size 9 to 14) (size 15 to 20)
#    0.000    0.533    6.667    2.400    3.733    3.733 
#    0.000    2.667    0.000    0.000    0.000    0.000 
#    0.000    0.000    0.000    0.000    0.000    0.000 
#
# Total GULP energy -83761.691150 kJ/mol
# GULP energy per Si atom -5584.112743 kJ/mol
# Density = 2.577907 g / cm^3
# Si number density = 25.837874 Si / 1000 Ang^3
#
#
#
# Elastic Constant Matrix: (Units=GPa)
#
#
# Indices 1 2 3 4 5 6 
#
# 1 113.2069 -2.7388 56.3742 -7.3219 0.0931 -21.8533
# 2 -2.7388 85.0661 23.1725 4.0442 6.5200 -5.5386
# 3 56.3742 23.1725 280.2449 -3.0153 2.3922 -4.6832
# 4 -7.3219 4.0442 -3.0153 33.7020 1.8834 5.0698
# 5 0.0931 6.5200 2.3922 1.8834 61.4473 -1.6622
# 6 -21.8533 -5.5386 -4.6832 5.0698 -1.6622 21.4646
#
#
#
# Elastic Compliance Matrix: (Units=1/GPa)
#
#
# Indices 1 2 3 4 5 6 
#
# 1 0.012581 0.001870 -0.002471 0.000368 0.000210 0.012682
# 2 0.001870 0.012704 -0.001351 -0.001970 -0.001095 0.005268
# 3 -0.002471 -0.001351 0.004147 0.000307 -0.000079 -0.002038
# 4 0.000368 -0.001970 0.000307 0.031199 -0.000963 -0.007510
# 5 0.000210 -0.001095 -0.000079 -0.000963 0.016461 0.001417
# 6 0.012682 0.005268 -0.002038 -0.007510 0.001417 0.062298
#
#
# Mechanical properties :
#
#
# Convention : Reuss Voigt Hill
#
# Bulk Modulus (GPa) = 39.17087 70.23709 54.70398
# Shear Modulus (GPa) = 32.93742 50.10344 41.52043
#
# Velocity S-wave (km/s) = 3.57427 4.40835 4.01304
# Velocity P-wave (km/s) = 5.67689 7.29069 6.53381
#
# Compressibility (1/GPa) = 0.02552917
#
# Stress axis : x y z
#
# Youngs Moduli (GPa) = 79.48508 78.71352 241.13635
#
# Poissons Ratio (x) = -0.14722 0.59593
# Poissons Ratio (y) = -0.14866 0.32566
# Poissons Ratio (z) = 0.19644 0.10630
#
# Static dielectric constant tensor:
#      x y z
#    x 2.408700 0.160040 0.006360 
#    y 0.160040 2.157270 -0.012550 
#    z 0.006360 -0.012550 2.107460 
# 
# From -- ./inp_files/399425.got.cif
#   From: 2010.05.17/outbox.cif.g08.bks.cpg/sg2_200_cif.got.tgz:399425.got - 2010.06.03 11:33:40.
