data_PCOD9058870
_publ_section_title
;
Structure prediction by ZEFSAII (Michael W. Deem and Ramdas Pophale) SiO2 
 PCOD9058870
Probable space group: P -1
;
_chemical_formula_sum "Si O2"
_cell_formula_units_Z 14
_cell_length_a 8.628439
_cell_length_b 9.735307
_cell_length_c 7.995764
_cell_angle_alpha 89.522180
_cell_angle_beta 72.815453
_cell_angle_gamma 91.945170
_cell_volume 641.176108
_symmetry_space_group_name_H-M "P -1"
_symmetry_group_IT_number 2
_symmetry_cell_setting 'triclinic'
loop_
_space_group_symop_operation_xyz
x,y,z
-x,-y,-z
loop_
_atom_site_type_symbol
_atom_site_label
_atom_site_fract_x
_atom_site_fract_y
_atom_site_fract_z
Si Si1 0.967716 0.171984 0.370213
Si Si2 0.270466 0.063357 0.442953
Si Si3 0.924252 0.149211 0.020203
Si Si4 0.541634 0.108943 0.126036
Si Si5 0.636295 0.613434 0.906571
Si Si6 0.177765 0.357201 0.496955
Si Si7 0.885058 0.603735 0.129508
O O1 0.962853 0.221211 0.184047
O O2 0.002428 0.295888 0.486727
O O3 0.132637 0.085190 0.340499
O O4 0.812301 0.068960 0.441800
O O5 0.450758 0.048102 0.319636
O O6 0.265995 0.215170 0.523253
O O7 0.732649 0.134652 0.067367
O O8 0.012110 0.254307 0.865088
O O9 0.000000 0.000000 0.000000
O O10 0.452955 0.247775 0.109938
O O11 0.500000 0.000000 0.000000
O O12 0.735941 0.584971 0.701697
O O13 0.500000 0.500000 0.000000
O O14 0.744950 0.630085 0.038888
O O15 0.173334 0.444815 0.666402
O O16 0.000000 0.500000 0.000000
#
# Coordination Sequence:
#
# PCOD9058870 Si02
#       7
#     2   2   2   2   2   2   2
#     4   9  17  37  62  92 128 173 214 275 330 396
#     4   8  17  35  60  91 134 170 211 273 341 388
#     4  12  23  39  67  97 131 178 224 273 337 407
#     4  11  23  38  62  98 137 172 221 282 335 391
#     4  11  24  48  66  95 138 175 223 284 339 401
#     4   9  20  40  68  92 134 173 220 280 329 402
#     4  12  25  43  70  99 128 182 232 270 341 407
#
# _framework density 21.834875
#
# number of rings (size 3 to 8) (size 9 to 14) (size 15 to 20)
#    0.857    0.857    1.429    3.429    2.000    1.714 
#    0.000    1.429    0.000    0.000    0.000    0.000 
#    0.000    0.000    0.000    0.000    0.000    0.000 
#
# Total GULP energy -78025.546176 kJ/mol
# GULP energy per Si atom -5573.253298 kJ/mol
# Density = 2.178518 g / cm^3
# Si number density = 21.834875 Si / 1000 Ang^3
#
#
#
# Elastic Constant Matrix: (Units=GPa)
#
#
# Indices 1 2 3 4 5 6 
#
# 1 107.0304 15.4463 46.9138 -3.3151 -6.2005 7.7329
# 2 15.4463 70.0580 36.0051 -8.4456 -11.6333 9.1097
# 3 46.9138 36.0051 154.4422 -1.6087 7.8371 10.5319
# 4 -3.3151 -8.4456 -1.6087 38.1864 7.0630 -9.9310
# 5 -6.2005 -11.6333 7.8371 7.0630 38.3906 -7.3367
# 6 7.7329 9.1097 10.5319 -9.9310 -7.3367 30.7585
#
#
#
# Elastic Compliance Matrix: (Units=1/GPa)
#
#
# Indices 1 2 3 4 5 6 
#
# 1 0.011044 -0.000206 -0.003348 0.000103 0.002192 -0.001013
# 2 -0.000206 0.017923 -0.004253 0.002294 0.005510 -0.001745
# 3 -0.003348 -0.004253 0.008815 -0.000676 -0.003899 -0.002065
# 4 0.000103 0.002294 -0.000676 0.029384 -0.002969 0.008305
# 5 0.002192 0.005510 -0.003899 -0.002969 0.030457 0.005458
# 6 -0.001013 -0.001745 -0.002065 0.008305 0.005458 0.037974
#
#
# Mechanical properties :
#
#
# Convention : Reuss Voigt Hill
#
# Bulk Modulus (GPa) = 45.10802 58.69565 51.90184
# Shear Modulus (GPa) = 31.52599 37.01147 34.26873
#
# Velocity S-wave (km/s) = 3.80391 4.12158 3.96593
# Velocity P-wave (km/s) = 6.32428 7.04201 6.69277
#
# Compressibility (1/GPa) = 0.02216901
#
# Stress axis : x y z
#
# Youngs Moduli (GPa) = 90.55008 55.79298 113.44485
#
# Poissons Ratio (x) = 0.01151 0.37977
# Poissons Ratio (y) = 0.01868 0.48243
# Poissons Ratio (z) = 0.30313 0.23726
#
# Static dielectric constant tensor:
#      x y z
#    x 1.780500 0.021490 -0.013820 
#    y 0.021490 1.820930 -0.042350 
#    z -0.013820 -0.042350 1.965470 
# 
# From -- ./inp_files/158367.got.cif
#   From: 2010.05.17/outbox.cif.g08.bks.cpg/sg2_80_cif.got.tgz:158367.got - 2010.06.03 11:33:40.
