data_PCOD9058800
_publ_section_title
;
Structure prediction by ZEFSAII (Michael W. Deem and Ramdas Pophale) SiO2 
 PCOD9058800
Probable space group: P -1
;
_chemical_formula_sum "Si O2"
_cell_formula_units_Z 16
_cell_length_a 8.324265
_cell_length_b 18.358536
_cell_length_c 16.240674
_cell_angle_alpha 22.386112
_cell_angle_beta 97.773022
_cell_angle_gamma 110.694011
_cell_volume 745.652725
_symmetry_space_group_name_H-M "P -1"
_symmetry_group_IT_number 2
_symmetry_cell_setting 'triclinic'
loop_
_space_group_symop_operation_xyz
x,y,z
-x,-y,-z
loop_
_atom_site_type_symbol
_atom_site_label
_atom_site_fract_x
_atom_site_fract_y
_atom_site_fract_z
Si Si1 0.299843 0.497936 0.397555
Si Si2 0.329025 0.973943 0.348463
Si Si3 0.213039 0.108714 0.356139
Si Si4 0.697321 0.518449 0.389667
Si Si5 0.884901 0.015062 0.836245
Si Si6 0.427203 0.981487 0.106947
Si Si7 0.792895 0.476182 0.108647
Si Si8 0.738645 0.213411 0.207904
O O1 0.487113 0.488015 0.404575
O O2 0.255261 0.471837 0.520053
O O3 0.102648 0.269316 0.580302
O O4 0.386163 0.770706 0.096646
O O5 0.195963 0.976537 0.409238
O O6 0.564903 0.173437 0.179581
O O7 0.253389 0.008025 0.223645
O O8 0.293430 0.723002 0.619124
O O9 0.326781 0.042886 0.493735
O O10 0.295585 0.373912 0.059141
O O11 0.000000 0.000000 0.500000
O O12 0.653082 0.281166 0.594415
O O13 0.868983 0.775043 0.092484
O O14 0.764805 0.011943 0.910786
O O15 0.500000 0.000000 0.000000
O O16 0.762410 0.362063 0.135136
O O17 0.038055 0.653540 0.953422
#
# Coordination Sequence:
#
# PCOD9058800 Si02
#       8
#     2   2   2   2   2   2   2   2
#     4   9  19  37  60  83 111 148 191 235 277 332
#     4  11  23  35  52  83 116 143 176 225 283 335
#     4   9  18  36  59  80 101 139 189 224 262 322
#     4   9  19  37  59  83 110 146 193 237 276 327
#     4  11  23  36  55  86 120 150 182 228 289 342
#     4   9  20  38  59  83 108 143 191 234 275 330
#     4   9  18  35  57  78 106 143 184 229 271 320
#     4   9  19  35  56  80 106 141 186 228 269 324
#
# _framework density 21.457709000000001
#
# number of rings (size 3 to 8) (size 9 to 14) (size 15 to 20)
#    0.000    2.500    0.000    3.375    0.000    8.000 
#    0.000    2.500    0.000    0.000    0.000    0.000 
#    0.000    0.000    0.000    0.000    0.000    0.000 
#
# Total GULP energy -89224.758869 kJ/mol
# GULP energy per Si atom -5576.547429 kJ/mol
# Density = 2.140887 g / cm^3
# Si number density = 21.457709 Si / 1000 Ang^3
#
#
#
# Elastic Constant Matrix: (Units=GPa)
#
#
# Indices 1 2 3 4 5 6 
#
# 1 43.7598 20.7657 10.0231 -15.1263 -3.7827 6.7116
# 2 20.7657 57.8759 35.5402 -5.6258 -1.1560 23.7254
# 3 10.0231 35.5402 137.9702 -40.4387 21.9443 7.2181
# 4 -15.1263 -5.6258 -40.4387 29.2044 -2.1254 -4.7875
# 5 -3.7827 -1.1560 21.9443 -2.1254 41.4711 -8.0533
# 6 6.7116 23.7254 7.2181 -4.7875 -8.0533 26.0567
#
#
#
# Elastic Compliance Matrix: (Units=1/GPa)
#
#
# Indices 1 2 3 4 5 6 
#
# 1 0.045038 -0.029309 0.015584 0.042411 0.000875 0.018832
# 2 -0.029309 0.055874 -0.022454 -0.042906 -0.000181 -0.045045
# 3 0.015584 -0.022454 0.023325 0.037994 -0.006711 0.014876
# 4 0.042411 -0.042906 0.037994 0.106004 -0.005102 0.035518
# 5 0.000875 -0.000181 -0.006711 -0.005102 0.029410 0.009950
# 6 0.018832 -0.045045 0.014876 0.035518 0.009950 0.080022
#
#
# Mechanical properties :
#
#
# Convention : Reuss Voigt Hill
#
# Bulk Modulus (GPa) = 19.27569 41.36264 30.31917
# Shear Modulus (GPa) = 11.64624 30.89824 21.27224
#
# Velocity S-wave (km/s) = 2.33223 3.79880 3.15200
# Velocity P-wave (km/s) = 4.03175 6.20962 5.23519
#
# Compressibility (1/GPa) = 0.05187881
#
# Stress axis : x y z
#
# Youngs Moduli (GPa) = 22.20328 17.89743 42.87293
#
# Poissons Ratio (x) = 0.52456 -0.66814
# Poissons Ratio (y) = 0.65077 0.96266
# Poissons Ratio (z) = -0.34602 0.40187
#
# Static dielectric constant tensor:
#      x y z
#    x 1.782240 -0.014730 -0.007010 
#    y -0.014730 1.771350 -0.023410 
#    z -0.007010 -0.023410 1.871870 
# 
# From -- ./inp_files/562546.got.cif
#   From: 2010.05.17/outbox.cif.g08.bks.cpg/sg2_282_cif.got.tgz:562546.got - 2010.06.03 11:33:40.
