data_PCOD9058469
_publ_section_title
;
Structure prediction by ZEFSAII (Michael W. Deem and Ramdas Pophale) SiO2 
 PCOD9058469
Probable space group: P -1
;
_chemical_formula_sum "Si O2"
_cell_formula_units_Z 16
_cell_length_a 12.188342
_cell_length_b 5.331771
_cell_length_c 10.018674
_cell_angle_alpha 80.756676
_cell_angle_beta 93.469456
_cell_angle_gamma 66.616754
_cell_volume 584.261414
_symmetry_space_group_name_H-M "P -1"
_symmetry_group_IT_number 2
_symmetry_cell_setting 'triclinic'
loop_
_space_group_symop_operation_xyz
x,y,z
-x,-y,-z
loop_
_atom_site_type_symbol
_atom_site_label
_atom_site_fract_x
_atom_site_fract_y
_atom_site_fract_z
Si Si1 0.739651 0.325167 0.688010
Si Si2 0.384259 0.162514 0.068452
Si Si3 0.507571 0.308769 0.303315
Si Si4 0.091810 0.138092 0.460239
Si Si5 0.698711 0.805289 0.435280
Si Si6 0.286698 0.544903 0.795529
Si Si7 0.150289 0.053347 0.056635
Si Si8 0.959021 0.502605 0.201160
O O1 0.596829 0.398372 0.687023
O O2 0.731048 0.589493 0.577703
O O3 0.811654 0.066136 0.620559
O O4 0.820294 0.240650 0.838002
O O5 0.430266 0.202682 0.210730
O O6 0.283582 0.044272 0.073180
O O7 0.319378 0.445286 0.957649
O O8 0.500000 0.000000 0.000000
O O9 0.622081 0.309811 0.231910
O O10 0.583001 0.084770 0.436836
O O11 0.181795 0.139276 0.582989
O O12 0.024565 0.433969 0.355343
O O13 0.000000 0.000000 0.500000
O O14 0.674456 0.669760 0.310139
O O15 0.144673 0.615453 0.780190
O O16 0.056847 0.293561 0.123597
O O17 0.098580 0.185249 0.894966
#
# Coordination Sequence:
#
# PCOD9058469 Si02
#       8
#     2   2   2   2   2   2   2   2
#     4  11  26  43  71 106 145 185 239 292 361 431
#     4  11  22  45  75 101 144 188 238 301 362 428
#     4  12  26  44  72 107 147 188 237 299 364 426
#     4  11  25  48  74 104 147 191 242 295 355 427
#     4  12  26  44  71 105 145 196 235 293 358 428
#     4  11  24  45  72 107 142 190 242 294 362 430
#     4   9  21  43  72 102 138 185 238 300 356 418
#     4   9  20  43  74  96 141 183 237 302 347 418
#
# _framework density 27.385000999999999
#
# number of rings (size 3 to 8) (size 9 to 14) (size 15 to 20)
#    0.000    1.250    1.250    3.750    3.500    4.000 
#    0.000    0.625    2.750    0.000    0.000    0.000 
#    0.000    0.000    0.000    0.000    0.000    0.000 
#
# Total GULP energy -89383.687973 kJ/mol
# GULP energy per Si atom -5586.480498 kJ/mol
# Density = 2.732267 g / cm^3
# Si number density = 27.385001 Si / 1000 Ang^3
#
#
#
# Elastic Constant Matrix: (Units=GPa)
#
#
# Indices 1 2 3 4 5 6 
#
# 1 136.5707 21.3859 32.6439 -4.6697 18.2107 -28.3280
# 2 21.3859 65.5854 53.0867 -18.2084 12.8027 -28.2085
# 3 32.6439 53.0867 142.4741 -35.9944 31.3227 -12.0948
# 4 -4.6697 -18.2084 -35.9944 54.5724 -15.0618 1.4080
# 5 18.2107 12.8027 31.3227 -15.0618 54.1276 0.3173
# 6 -28.3280 -28.2085 -12.0948 1.4080 0.3173 49.6905
#
#
#
# Elastic Compliance Matrix: (Units=1/GPa)
#
#
# Indices 1 2 3 4 5 6 
#
# 1 0.008970 0.000904 -0.001586 -0.000824 -0.002574 0.005281
# 2 0.000904 0.029936 -0.008900 0.003423 -0.001371 0.015255
# 3 -0.001586 -0.008900 0.012192 0.004118 -0.003253 -0.003085
# 4 -0.000824 0.003423 0.004118 0.023027 0.003481 0.001801
# 5 -0.002574 -0.001371 -0.003253 0.003481 0.022535 -0.003280
# 6 0.005281 0.015255 -0.003085 0.001801 -0.003280 0.031014
#
#
# Mechanical properties :
#
#
# Convention : Reuss Voigt Hill
#
# Bulk Modulus (GPa) = 31.31502 62.09593 46.70547
# Shear Modulus (GPa) = 31.74959 47.51235 39.63097
#
# Velocity S-wave (km/s) = 3.40866 4.16982 3.80831
# Velocity P-wave (km/s) = 5.19152 6.77552 6.03571
#
# Compressibility (1/GPa) = 0.03193356
#
# Stress axis : x y z
#
# Youngs Moduli (GPa) = 111.48070 33.40498 82.02129
#
# Poissons Ratio (x) = -0.03019 0.13008
# Poissons Ratio (y) = -0.10075 0.72999
# Poissons Ratio (z) = 0.17679 0.29730
#
# Static dielectric constant tensor:
#      x y z
#    x 3.621920 -0.425860 0.192340 
#    y -0.425860 2.432890 -0.171380 
#    z 0.192340 -0.171380 2.268350 
# 
# From -- ./inp_files/410063.got.cif
#   From: 2010.05.17/outbox.cif.g08.bks.cpg/sg2_206_cif.got.tgz:410063.got - 2010.06.03 11:33:40.
