data_PCOD9058774
_publ_section_title
;
Structure prediction by ZEFSAII (Michael W. Deem and Ramdas Pophale) SiO2 
 PCOD9058774
Probable space group: P -1
;
_chemical_formula_sum "Si O2"
_cell_formula_units_Z 14
_cell_length_a 8.716968
_cell_length_b 8.621866
_cell_length_c 21.626225
_cell_angle_alpha 36.512808
_cell_angle_beta 33.124151
_cell_angle_gamma 47.215795
_cell_volume 528.376435
_symmetry_space_group_name_H-M "P -1"
_symmetry_group_IT_number 2
_symmetry_cell_setting 'triclinic'
loop_
_space_group_symop_operation_xyz
x,y,z
-x,-y,-z
loop_
_atom_site_type_symbol
_atom_site_label
_atom_site_fract_x
_atom_site_fract_y
_atom_site_fract_z
Si Si1 0.144832 0.988314 0.657573
Si Si2 0.776254 0.708299 0.794350
Si Si3 0.833395 0.924096 0.513943
Si Si4 0.670742 0.496174 0.507455
Si Si5 0.354701 0.756456 0.818393
Si Si6 0.723415 0.826826 0.018247
Si Si7 0.771084 0.594741 0.205330
O O1 0.269041 0.085707 0.518889
O O2 0.202111 0.223106 0.608052
O O3 0.584764 0.901343 0.653158
O O4 0.049344 0.890570 0.875348
O O5 0.999793 0.806052 0.635375
O O6 0.482616 0.727000 0.853690
O O7 0.918921 0.438493 0.856526
O O8 0.825413 0.920844 0.764217
O O9 0.065284 0.700855 0.517064
O O10 0.500000 0.500000 0.500000
O O11 0.458594 0.408738 0.661793
O O12 0.326164 0.462171 0.899048
O O13 0.233152 0.689790 0.736426
O O14 0.717557 0.799033 0.103702
O O15 0.500000 0.000000 0.000000
#
# Coordination Sequence:
#
# PCOD9058774 Si02
#       7
#     2   2   2   2   2   2   2
#     4   8  21  40  66 105 154 200 233 307 390 455
#     4   8  21  42  73 106 147 199 236 312 399 440
#     4   9  21  40  70 112 153 189 235 314 401 447
#     4  12  21  36  69 122 159 189 243 311 392 472
#     4  11  22  49  73 109 152 194 265 317 368 465
#     4  11  27  50  74 107 148 212 263 312 371 446
#     4   9  22  46  71 106 155 199 253 307 380 450
#
# _framework density 26.496262000000002
#
# number of rings (size 3 to 8) (size 9 to 14) (size 15 to 20)
#    1.714    0.286    0.000    3.000    0.000    1.714 
#   25.714    0.714    0.000    0.000    0.000    0.000 
#    0.000    0.000    0.000    0.000    0.000    0.000 
#
# Total GULP energy -78190.879232 kJ/mol
# GULP energy per Si atom -5585.062802 kJ/mol
# Density = 2.643596 g / cm^3
# Si number density = 26.496262 Si / 1000 Ang^3
#
#
#
# Elastic Constant Matrix: (Units=GPa)
#
#
# Indices 1 2 3 4 5 6 
#
# 1 212.8785 62.6588 89.4621 -5.4097 40.7309 -38.0630
# 2 62.6588 93.3906 78.7104 1.0731 19.6810 -36.3936
# 3 89.4621 78.7104 194.4354 5.0469 13.2351 -35.7080
# 4 -5.4097 1.0731 5.0469 19.1874 -7.0879 5.2200
# 5 40.7309 19.6810 13.2351 -7.0879 47.1643 -3.8036
# 6 -38.0630 -36.3936 -35.7080 5.2200 -3.8036 66.7933
#
#
#
# Elastic Compliance Matrix: (Units=1/GPa)
#
#
# Indices 1 2 3 4 5 6 
#
# 1 0.007284 -0.001253 -0.002145 0.000309 -0.004957 0.002015
# 2 -0.001253 0.020743 -0.005951 -0.004150 -0.005931 0.007393
# 3 -0.002145 -0.005951 0.008542 -0.001999 0.001666 0.000353
# 4 0.000309 -0.004150 -0.001999 0.058704 0.010271 -0.007157
# 5 -0.004957 -0.005931 0.001666 0.010271 0.028685 -0.004335
# 6 0.002015 0.007393 0.000353 -0.007157 -0.004335 0.020649
#
#
# Mechanical properties :
#
#
# Convention : Reuss Voigt Hill
#
# Bulk Modulus (GPa) = 55.95630 106.92970 81.44300
# Shear Modulus (GPa) = 29.53982 44.62055 37.08018
#
# Velocity S-wave (km/s) = 3.34259 4.10815 3.74498
# Velocity P-wave (km/s) = 6.00513 7.93389 7.03592
#
# Compressibility (1/GPa) = 0.01787109
#
# Stress axis : x y z
#
# Youngs Moduli (GPa) = 137.28055 48.20924 117.06344
#
# Poissons Ratio (x) = 0.06042 0.25107
# Poissons Ratio (y) = 0.17205 0.69667
# Poissons Ratio (z) = 0.29444 0.28690
#
# Static dielectric constant tensor:
#      x y z
#    x 2.220770 -0.001400 0.017120 
#    y -0.001400 2.080580 0.033850 
#    z 0.017120 0.033850 2.132050 
# 
# From -- ./inp_files/492253.got.cif
#   From: 2010.05.17/outbox.cif.g08.bks.cpg/sg2_247_cif.got.tgz:492253.got - 2010.06.03 11:33:40.
