data_PCOD9058174
_publ_section_title
;
Structure prediction by ZEFSAII (Michael W. Deem and Ramdas Pophale) SiO2 
 PCOD9058174
Probable space group: P -1
;
_chemical_formula_sum "Si O2"
_cell_formula_units_Z 16
_cell_length_a 11.273601
_cell_length_b 15.858095
_cell_length_c 8.764039
_cell_angle_alpha 44.601200
_cell_angle_beta 44.713112
_cell_angle_gamma 70.161811
_cell_volume 728.678553
_symmetry_space_group_name_H-M "P -1"
_symmetry_group_IT_number 2
_symmetry_cell_setting 'triclinic'
loop_
_space_group_symop_operation_xyz
x,y,z
-x,-y,-z
loop_
_atom_site_type_symbol
_atom_site_label
_atom_site_fract_x
_atom_site_fract_y
_atom_site_fract_z
Si Si1 0.817442 0.892820 0.188374
Si Si2 0.106476 0.954563 0.589141
Si Si3 0.281243 0.848894 0.040577
Si Si4 0.347761 0.166704 0.287984
Si Si5 0.546030 0.460931 0.677579
Si Si6 0.643015 0.145174 0.687132
Si Si7 0.529421 0.324881 0.338743
Si Si8 0.825825 0.403880 0.699150
O O1 0.815796 0.861408 0.408324
O O2 0.653084 0.774214 0.431431
O O3 0.982324 0.904091 0.913944
O O4 0.771859 0.024471 0.063595
O O5 0.188518 0.857176 0.564233
O O6 0.269544 0.078331 0.330499
O O7 0.000000 0.000000 0.500000
O O8 0.299358 0.815741 0.243573
O O9 0.156168 0.726823 0.218571
O O10 0.482003 0.871546 0.762008
O O11 0.424869 0.314228 0.993137
O O12 0.500000 0.500000 0.500000
O O13 0.492032 0.549079 0.734626
O O14 0.742145 0.462872 0.558490
O O15 0.573722 0.246455 0.538053
O O16 0.500000 0.000000 0.000000
O O17 0.674646 0.360502 0.025294
O O18 0.000000 0.500000 0.500000
#
# Coordination Sequence:
#
# PCOD9058174 Si02
#       8
#     2   2   2   2   2   2   2   2
#     4  12  24  41  71 106 143 180 237 308 369 434
#     4  12  25  42  66 111 144 182 236 305 373 433
#     4  11  22  44  73 102 144 188 242 289 377 432
#     4  11  24  44  68 100 145 188 239 297 361 442
#     4  11  26  48  76 102 142 202 248 294 368 448
#     4  12  23  43  73 104 146 187 236 303 372 445
#     4  12  24  46  72 102 140 194 243 295 369 440
#     4  11  27  49  73 108 146 193 250 307 356 434
#
# _framework density 21.957554999999999
#
# number of rings (size 3 to 8) (size 9 to 14) (size 15 to 20)
#    0.000    0.500    6.250    2.625    3.500    2.000 
#    0.000    1.250    0.000    0.000    0.000    0.000 
#    0.000    0.000    0.000    0.000    0.000    0.000 
#
# Total GULP energy -89436.425891 kJ/mol
# GULP energy per Si atom -5589.776618 kJ/mol
# Density = 2.190758 g / cm^3
# Si number density = 21.957555 Si / 1000 Ang^3
#
#
#
# Elastic Constant Matrix: (Units=GPa)
#
#
# Indices 1 2 3 4 5 6 
#
# 1 87.6149 9.6711 39.4583 -12.3685 0.3021 27.5456
# 2 9.6711 127.1613 48.4494 13.1262 -3.4790 26.4033
# 3 39.4583 48.4494 103.0815 8.9020 -7.6204 9.0377
# 4 -12.3685 13.1262 8.9020 35.1067 5.4445 -2.9901
# 5 0.3021 -3.4790 -7.6204 5.4445 40.1726 -10.5162
# 6 27.5456 26.4033 9.0377 -2.9901 -10.5162 44.7337
#
#
#
# Elastic Compliance Matrix: (Units=1/GPa)
#
#
# Indices 1 2 3 4 5 6 
#
# 1 0.021208 0.004183 -0.010012 0.008236 -0.006611 -0.014509
# 2 0.004183 0.012005 -0.006472 -0.001779 -0.002340 -0.009023
# 3 -0.010012 -0.006472 0.016800 -0.005570 0.005418 0.007492
# 4 0.008236 -0.001779 -0.005570 0.034287 -0.006476 -0.002127
# 5 -0.006611 -0.002340 0.005418 -0.006476 0.029487 0.010857
# 6 -0.014509 -0.009023 0.007492 -0.002127 0.010857 0.037511
#
#
# Mechanical properties :
#
#
# Convention : Reuss Voigt Hill
#
# Bulk Modulus (GPa) = 39.35261 57.00169 48.17715
# Shear Modulus (GPa) = 27.11937 38.68786 32.90361
#
# Velocity S-wave (km/s) = 3.51819 4.20210 3.87526
# Velocity P-wave (km/s) = 5.87065 7.03987 6.48168
#
# Compressibility (1/GPa) = 0.02541127
#
# Stress axis : x y z
#
# Youngs Moduli (GPa) = 47.15213 83.29905 59.52332
#
# Poissons Ratio (x) = -0.34847 0.59596
# Poissons Ratio (y) = -0.19726 0.38524
# Poissons Ratio (z) = 0.47210 0.53911
#
# Static dielectric constant tensor:
#      x y z
#    x 1.802360 0.041070 -0.035220 
#    y 0.041070 1.804170 0.057300 
#    z -0.035220 0.057300 1.776880 
# 
# From -- ./inp_files/271748.got.cif
#   From: 2010.05.17/outbox.cif.g08.bks.cpg/sg2_136_cif.got.tgz:271748.got - 2010.06.03 11:33:40.
