data_PCOD9058398
_publ_section_title
;
Structure prediction by ZEFSAII (Michael W. Deem and Ramdas Pophale) SiO2 
 PCOD9058398
Probable space group: P -1
;
_chemical_formula_sum "Si O2"
_cell_formula_units_Z 14
_cell_length_a 8.301152
_cell_length_b 13.973535
_cell_length_c 15.173408
_cell_angle_alpha 29.487631
_cell_angle_beta 134.131020
_cell_angle_gamma 116.744147
_cell_volume 557.847825
_symmetry_space_group_name_H-M "P -1"
_symmetry_group_IT_number 2
_symmetry_cell_setting 'triclinic'
loop_
_space_group_symop_operation_xyz
x,y,z
-x,-y,-z
loop_
_atom_site_type_symbol
_atom_site_label
_atom_site_fract_x
_atom_site_fract_y
_atom_site_fract_z
Si Si1 0.964952 0.158225 0.277695
Si Si2 0.214938 0.537883 0.905640
Si Si3 0.228977 0.087422 0.254512
Si Si4 0.961592 0.824630 0.068198
Si Si5 0.701044 0.349439 0.335752
Si Si6 0.800288 0.668005 0.405924
Si Si7 0.519060 0.087955 0.079961
O O1 0.162877 0.096006 0.324954
O O2 0.728835 0.161434 0.129936
O O3 0.991924 0.351591 0.188068
O O4 0.000000 0.000000 0.500000
O O5 0.443368 0.537089 0.051025
O O6 0.287731 0.292621 0.102671
O O7 0.161785 0.680636 0.683553
O O8 0.019248 0.141528 0.055780
O O9 0.375101 0.828137 0.509362
O O10 0.150120 0.577119 0.359379
O O11 0.674266 0.875789 0.942371
O O12 0.000000 0.000000 0.000000
O O13 0.914747 0.357373 0.471971
O O14 0.650529 0.844473 0.283714
O O15 0.649854 0.763393 0.182951
#
# Coordination Sequence:
#
# PCOD9058398 Si02
#       7
#     2   2   2   2   2   2   2
#     4  12  25  47  74 106 149 194 249 301 370 447
#     4  11  24  42  74 106 146 200 239 302 379 426
#     4  12  25  46  73 110 149 190 250 308 366 441
#     4  12  28  47  74 115 152 193 255 311 371 450
#     4  11  22  45  72 103 149 189 242 306 367 441
#     4  11  23  51  76 102 151 199 248 311 368 446
#     4  11  26  47  81 104 144 209 245 301 393 431
#
# _framework density 25.096450999999998
#
# number of rings (size 3 to 8) (size 9 to 14) (size 15 to 20)
#    0.000    0.571    4.286    3.000    4.000    2.857 
#    2.571    0.000    0.000    0.000    0.000    0.000 
#    0.000    0.000    0.000    0.000    0.000    0.000 
#
# Total GULP energy -77997.352980 kJ/mol
# GULP energy per Si atom -5571.239499 kJ/mol
# Density = 2.503933 g / cm^3
# Si number density = 25.096451 Si / 1000 Ang^3
#
#
#
# Elastic Constant Matrix: (Units=GPa)
#
#
# Indices 1 2 3 4 5 6 
#
# 1 30.3362 3.5328 6.6863 -10.5063 -21.1256 -8.3328
# 2 3.5328 139.8851 70.8768 -8.2929 -7.6732 -7.3949
# 3 6.6863 70.8768 142.4970 -2.9342 -27.6755 4.4589
# 4 -10.5063 -8.2929 -2.9342 43.4788 5.8445 -1.6521
# 5 -21.1256 -7.6732 -27.6755 5.8445 36.6862 0.1321
# 6 -8.3328 -7.3949 4.4589 -1.6521 0.1321 43.5201
#
#
#
# Elastic Compliance Matrix: (Units=1/GPa)
#
#
# Indices 1 2 3 4 5 6 
#
# 1 0.067812 -0.000577 0.004850 0.011616 0.040691 0.012706
# 2 -0.000577 0.010043 -0.005525 0.001852 -0.002703 0.002240
# 3 0.004850 -0.005525 0.011602 -0.000556 0.010482 -0.001252
# 4 0.011616 0.001852 -0.000556 0.025920 0.002515 0.003572
# 5 0.040691 -0.002703 0.010482 0.002515 0.057609 0.006178
# 6 0.012706 0.002240 -0.001252 0.003572 0.006178 0.026037
#
#
# Mechanical properties :
#
#
# Convention : Reuss Voigt Hill
#
# Bulk Modulus (GPa) = 11.50076 52.76779 32.13427
# Shear Modulus (GPa) = 21.69096 40.17850 30.93473
#
# Velocity S-wave (km/s) = 2.94309 4.00555 3.51470
# Velocity P-wave (km/s) = 4.01767 6.51645 5.41322
#
# Compressibility (1/GPa) = 0.08695079
#
# Stress axis : x y z
#
# Youngs Moduli (GPa) = 14.74671 99.57538 86.19353
#
# Poissons Ratio (x) = 0.05750 -0.41802
# Poissons Ratio (y) = 0.00852 0.47622
# Poissons Ratio (z) = -0.07152 0.55015
#
# Static dielectric constant tensor:
#      x y z
#    x 2.259700 -0.031950 0.161550 
#    y -0.031950 2.064260 -0.103480 
#    z 0.161550 -0.103480 2.027510 
# 
# From -- ./inp_files/505143.got.cif
#   From: 2010.05.17/outbox.cif.g08.bks.cpg/sg2_253_cif.got.tgz:505143.got - 2010.06.03 11:33:40.
