data_PCOD9058431
_publ_section_title
;
Structure prediction by ZEFSAII (Michael W. Deem and Ramdas Pophale) SiO2 
 PCOD9058431
Probable space group: P -1
;
_chemical_formula_sum "Si O2"
_cell_formula_units_Z 16
_cell_length_a 5.932626
_cell_length_b 16.678493
_cell_length_c 16.035779
_cell_angle_alpha 34.404826
_cell_angle_beta 55.111544
_cell_angle_gamma 65.795871
_cell_volume 728.808248
_symmetry_space_group_name_H-M "P -1"
_symmetry_group_IT_number 2
_symmetry_cell_setting 'triclinic'
loop_
_space_group_symop_operation_xyz
x,y,z
-x,-y,-z
loop_
_atom_site_type_symbol
_atom_site_label
_atom_site_fract_x
_atom_site_fract_y
_atom_site_fract_z
Si Si1 0.844589 0.243528 0.868935
Si Si2 0.635962 0.993254 0.885375
Si Si3 0.746312 0.619737 0.870655
Si Si4 0.828974 0.154829 0.126587
Si Si5 0.143229 0.395914 0.950887
Si Si6 0.313320 0.065008 0.409836
Si Si7 0.566114 0.446586 0.665557
Si Si8 0.430289 0.269248 0.675144
O O1 0.835129 0.394023 0.695531
O O2 0.119440 0.188983 0.822505
O O3 0.575198 0.130835 0.005915
O O4 0.851001 0.258170 0.953482
O O5 0.940875 0.948910 0.851691
O O6 0.625047 0.150701 0.716414
O O7 0.500000 0.000000 0.000000
O O8 0.726368 0.770615 0.702142
O O9 0.018044 0.544817 0.858747
O O10 0.500000 0.500000 0.000000
O O11 0.729451 0.637087 0.959108
O O12 0.526866 0.073060 0.279553
O O13 0.917563 0.259018 0.095929
O O14 0.346978 0.409755 0.817561
O O15 0.500000 0.000000 0.500000
O O16 0.000000 0.000000 0.500000
O O17 0.502499 0.349068 0.680013
O O18 0.568837 0.608525 0.498458
#
# Coordination Sequence:
#
# PCOD9058431 Si02
#       8
#     2   2   2   2   2   2   2   2
#     4  12  21  40  70  95 135 191 245 281 356 436
#     4  12  23  42  66 101 139 183 246 291 345 443
#     4  11  25  45  80 103 138 192 252 309 367 453
#     4  12  25  44  77 101 136 199 242 299 370 451
#     4  11  22  45  73 105 139 190 257 305 364 452
#     4  12  29  51  76 110 155 190 242 321 392 443
#     4  11  23  41  65  95 146 180 234 297 360 425
#     4  11  24  41  63 103 143 189 229 298 360 422
#
# _framework density 21.953648000000001
#
# number of rings (size 3 to 8) (size 9 to 14) (size 15 to 20)
#    0.000    0.500    6.250    2.250    3.500    1.000 
#    0.000    0.000    0.000    0.000    0.000    0.000 
#    0.000    0.000    0.000    0.000    0.000    0.000 
#
# Total GULP energy -89349.239987 kJ/mol
# GULP energy per Si atom -5584.327499 kJ/mol
# Density = 2.190368 g / cm^3
# Si number density = 21.953648 Si / 1000 Ang^3
#
#
#
# Elastic Constant Matrix: (Units=GPa)
#
#
# Indices 1 2 3 4 5 6 
#
# 1 117.8615 44.4144 58.1292 -6.5524 13.8786 -6.3208
# 2 44.4144 92.6970 41.5041 -12.8989 11.6504 -17.7287
# 3 58.1292 41.5041 106.8775 -19.9188 21.0593 -6.3070
# 4 -6.5524 -12.8989 -19.9188 38.8216 -11.6425 7.4618
# 5 13.8786 11.6504 21.0593 -11.6425 51.1187 -3.1130
# 6 -6.3208 -17.7287 -6.3070 7.4618 -3.1130 52.3043
#
#
#
# Elastic Compliance Matrix: (Units=1/GPa)
#
#
# Indices 1 2 3 4 5 6 
#
# 1 0.012674 -0.003763 -0.005710 -0.002235 -0.000750 -0.000158
# 2 -0.003763 0.015073 -0.003135 0.001862 -0.000455 0.003983
# 3 -0.005710 -0.003135 0.015140 0.005059 -0.002870 -0.000820
# 4 -0.002235 0.001862 0.005059 0.030662 0.004892 -0.003112
# 5 -0.000750 -0.000455 -0.002870 0.004892 0.022168 0.000030
# 6 -0.000158 0.003983 -0.000820 -0.003112 0.000030 0.020797
#
#
# Mechanical properties :
#
#
# Convention : Reuss Voigt Hill
#
# Bulk Modulus (GPa) = 56.59137 67.28127 61.93632
# Shear Modulus (GPa) = 33.87090 40.00813 36.93952
#
# Velocity S-wave (km/s) = 3.93216 4.27358 4.10642
# Velocity P-wave (km/s) = 6.81538 7.42057 7.12440
#
# Compressibility (1/GPa) = 0.01767054
#
# Stress axis : x y z
#
# Youngs Moduli (GPa) = 78.89873 66.34560 66.05196
#
# Poissons Ratio (x) = 0.24967 0.37718
# Poissons Ratio (y) = 0.29691 0.20705
# Poissons Ratio (z) = 0.45054 0.20797
#
# Static dielectric constant tensor:
#      x y z
#    x 1.918180 -0.015000 0.001040 
#    y -0.015000 1.803910 -0.010510 
#    z 0.001040 -0.010510 1.828250 
# 
# From -- ./inp_files/484199.got.cif
#   From: 2010.05.17/outbox.cif.g08.bks.cpg/sg2_243_cif.got.tgz:484199.got - 2010.06.03 11:33:40.
