data_PCOD9058743
_publ_section_title
;
Structure prediction by ZEFSAII (Michael W. Deem and Ramdas Pophale) SiO2 
 PCOD9058743
Probable space group: P -1
;
_chemical_formula_sum "Si O2"
_cell_formula_units_Z 16
_cell_length_a 17.705142
_cell_length_b 18.292995
_cell_length_c 9.855221
_cell_angle_alpha 31.517815
_cell_angle_beta 148.655728
_cell_angle_gamma 156.923824
_cell_volume 614.913694
_symmetry_space_group_name_H-M "P -1"
_symmetry_group_IT_number 2
_symmetry_cell_setting 'triclinic'
loop_
_space_group_symop_operation_xyz
x,y,z
-x,-y,-z
loop_
_atom_site_type_symbol
_atom_site_label
_atom_site_fract_x
_atom_site_fract_y
_atom_site_fract_z
Si Si1 0.878535 0.105980 0.225044
Si Si2 0.490983 0.657102 0.699493
Si Si3 0.085881 0.165222 0.172381
Si Si4 0.467168 0.587538 0.189984
Si Si5 0.777956 0.298486 0.641634
Si Si6 0.215351 0.359010 0.547892
Si Si7 0.875663 0.092722 0.679636
Si Si8 0.251821 0.715993 0.692627
O O1 0.935562 0.095464 0.177931
O O2 0.080830 0.303188 0.299315
O O3 0.832091 0.935088 0.509449
O O4 0.735748 0.142055 0.926990
O O5 0.730189 0.600149 0.898358
O O6 0.342731 0.647617 0.581199
O O7 0.386159 0.583459 0.506338
O O8 0.500000 0.500000 0.000000
O O9 0.287211 0.126479 0.282673
O O10 0.978466 0.116240 0.941788
O O11 0.500000 0.500000 0.500000
O O12 0.662619 0.698381 0.217632
O O13 0.417801 0.706618 0.982131
O O14 0.722138 0.223237 0.521070
O O15 0.021202 0.496542 0.699607
O O16 0.055921 0.237232 0.618899
O O17 0.753370 0.152531 0.428836
#
# Coordination Sequence:
#
# PCOD9058743 Si02
#       8
#     2   2   2   2   2   2   2   2
#     4  11  24  47  78 115 162 215 263 336 402 477
#     4  12  29  49  77 117 160 212 268 324 410 482
#     4  11  24  47  78 115 163 208 272 327 404 477
#     4  12  25  49  83 122 161 215 269 335 405 490
#     4  11  22  49  80 114 160 213 271 336 398 484
#     4  12  28  50  80 122 161 210 267 332 414 478
#     4  12  28  53  83 119 163 211 274 345 396 485
#     4  11  22  47  80 114 161 208 271 337 399 467
#
# _framework density 26.019911
#
# number of rings (size 3 to 8) (size 9 to 14) (size 15 to 20)
#    0.000    0.500    5.000    2.250    3.500    3.000 
#    2.250    0.625    0.000    0.000    0.000    0.000 
#    0.000    0.000    0.000    0.000    0.000    0.000 
#
# Total GULP energy -89773.073685 kJ/mol
# GULP energy per Si atom -5610.817105 kJ/mol
# Density = 2.596069 g / cm^3
# Si number density = 26.019911 Si / 1000 Ang^3
#
#
#
# Elastic Constant Matrix: (Units=GPa)
#
#
# Indices 1 2 3 4 5 6 
#
# 1 185.0145 52.9821 79.8699 6.9144 26.8584 -2.6958
# 2 52.9821 161.6443 47.5055 5.7950 -0.1448 -22.8676
# 3 79.8699 47.5055 188.6029 -11.0872 30.5214 -1.9594
# 4 6.9144 5.7950 -11.0872 31.6475 -8.4952 6.4523
# 5 26.8584 -0.1448 30.5214 -8.4952 50.6818 6.0683
# 6 -2.6958 -22.8676 -1.9594 6.4523 6.0683 34.4745
#
#
#
# Elastic Compliance Matrix: (Units=1/GPa)
#
#
# Indices 1 2 3 4 5 6 
#
# 1 0.007482 -0.001540 -0.002462 -0.003156 -0.003083 0.000557
# 2 -0.001540 0.008025 -0.001579 -0.002617 0.000695 0.005480
# 3 -0.002462 -0.001579 0.007308 0.002904 -0.002503 -0.000927
# 4 -0.003156 -0.002617 0.002904 0.037880 0.007490 -0.010226
# 5 -0.003083 0.000695 -0.002503 0.007490 0.024811 -0.005692
# 6 0.000557 0.005480 -0.000927 -0.010226 -0.005692 0.035549
#
#
# Mechanical properties :
#
#
# Convention : Reuss Voigt Hill
#
# Bulk Modulus (GPa) = 85.79599 99.55298 92.67448
# Shear Modulus (GPa) = 36.73767 47.02104 41.87936
#
# Velocity S-wave (km/s) = 3.76161 4.25563 4.01622
# Velocity P-wave (km/s) = 7.20493 7.90510 7.56312
#
# Compressibility (1/GPa) = 0.01165556
#
# Stress axis : x y z
#
# Youngs Moduli (GPa) = 133.65063 124.61403 136.82846
#
# Poissons Ratio (x) = 0.19188 0.33682
# Poissons Ratio (y) = 0.20579 0.21599
# Poissons Ratio (z) = 0.32899 0.19671
#
# Static dielectric constant tensor:
#      x y z
#    x 2.009780 0.008820 -0.001920 
#    y 0.008820 2.076130 -0.013700 
#    z -0.001920 -0.013700 2.044210 
# 
# From -- ./inp_files/317501.got.cif
#   From: 2010.05.17/outbox.cif.g08.bks.cpg/sg2_159_cif.got.tgz:317501.got - 2010.06.03 11:33:40.
