data_PCOD9058259
_publ_section_title
;
Structure prediction by ZEFSAII (Michael W. Deem and Ramdas Pophale) SiO2 
 PCOD9058259
Probable space group: P -1
;
_chemical_formula_sum "Si O2"
_cell_formula_units_Z 16
_cell_length_a 15.324221
_cell_length_b 14.561513
_cell_length_c 11.553756
_cell_angle_alpha 151.860212
_cell_angle_beta 112.055155
_cell_angle_gamma 47.944462
_cell_volume 712.265420
_symmetry_space_group_name_H-M "P -1"
_symmetry_group_IT_number 2
_symmetry_cell_setting 'triclinic'
loop_
_space_group_symop_operation_xyz
x,y,z
-x,-y,-z
loop_
_atom_site_type_symbol
_atom_site_label
_atom_site_fract_x
_atom_site_fract_y
_atom_site_fract_z
Si Si1 0.925896 0.750750 0.574338
Si Si2 0.217672 0.340696 0.110367
Si Si3 0.035080 0.667972 0.177977
Si Si4 0.627558 0.385098 0.017983
Si Si5 0.860194 0.257237 0.888470
Si Si6 0.552713 0.343054 0.537588
Si Si7 0.957819 0.847390 0.949428
Si Si8 0.360140 0.500064 0.406337
O O1 0.934378 0.876935 0.832238
O O2 0.070642 0.548960 0.343522
O O3 0.948875 0.496931 0.355746
O O4 0.776508 0.022301 0.725266
O O5 0.173802 0.498335 0.140163
O O6 0.322597 0.334081 0.210791
O O7 0.292538 0.014058 0.764850
O O8 0.085214 0.642945 0.046686
O O9 0.906311 0.010458 0.548081
O O10 0.000000 0.500000 0.000000
O O11 0.547834 0.538560 0.271343
O O12 0.500000 0.500000 0.000000
O O13 0.694703 0.469896 0.083654
O O14 0.951975 0.128709 0.911509
O O15 0.476503 0.369327 0.417186
O O16 0.578415 0.524517 0.714009
O O17 0.791370 0.135182 0.238197
#
# Coordination Sequence:
#
# PCOD9058259 Si02
#       8
#     2   2   2   2   2   2   2   2
#     4  11  24  45  76 109 138 191 239 301 358 419
#     4  12  24  43  77  99 132 190 242 292 347 432
#     4  11  25  43  74 103 139 173 246 295 344 417
#     4  12  28  47  68 103 155 191 230 297 365 428
#     4  11  26  45  72 108 134 194 235 295 360 420
#     4  11  27  45  67 102 150 183 231 292 364 418
#     4  11  22  44  78 107 142 178 251 300 352 424
#     4  11  23  44  70 104 141 185 233 296 357 425
#
# _framework density 22.463536000000001
#
# number of rings (size 3 to 8) (size 9 to 14) (size 15 to 20)
#    0.000    0.750    5.000    1.125    5.250    1.000 
#    2.250    1.250    0.000    0.000    0.000    0.000 
#    0.000    0.000    0.000    0.000    0.000    0.000 
#
# Total GULP energy -89340.609884 kJ/mol
# GULP energy per Si atom -5583.788118 kJ/mol
# Density = 2.241241 g / cm^3
# Si number density = 22.463536 Si / 1000 Ang^3
#
#
#
# Elastic Constant Matrix: (Units=GPa)
#
#
# Indices 1 2 3 4 5 6 
#
# 1 129.1098 38.9577 43.5600 -4.7979 -17.3344 17.9356
# 2 38.9577 95.4389 6.7297 -5.6792 -12.6797 8.7100
# 3 43.5600 6.7297 62.2253 -2.9765 -8.8556 14.9640
# 4 -4.7979 -5.6792 -2.9765 31.8924 3.6812 -6.3937
# 5 -17.3344 -12.6797 -8.8556 3.6812 34.1566 -5.0884
# 6 17.9356 8.7100 14.9640 -6.3937 -5.0884 36.6054
#
#
#
# Elastic Compliance Matrix: (Units=1/GPa)
#
#
# Indices 1 2 3 4 5 6 
#
# 1 0.011890 -0.003875 -0.007156 -0.000193 0.002514 -0.001663
# 2 -0.003875 0.012488 0.002154 0.001240 0.002895 -0.001334
# 3 -0.007156 0.002154 0.022580 -0.000024 0.002139 -0.005944
# 4 -0.000193 0.001240 -0.000024 0.032869 -0.002409 0.005215
# 5 0.002514 0.002895 0.002139 -0.002409 0.032639 0.001321
# 6 -0.001663 -0.001334 -0.005944 0.005215 0.001321 0.031975
#
#
# Mechanical properties :
#
#
# Convention : Reuss Voigt Hill
#
# Bulk Modulus (GPa) = 34.24128 51.69654 42.96891
# Shear Modulus (GPa) = 29.08190 33.69932 31.39061
#
# Velocity S-wave (km/s) = 3.60200 3.87742 3.74224
# Velocity P-wave (km/s) = 5.70748 6.56577 6.15161
#
# Compressibility (1/GPa) = 0.02920451
#
# Stress axis : x y z
#
# Youngs Moduli (GPa) = 84.10280 80.07754 44.28727
#
# Poissons Ratio (x) = 0.31028 0.31693
# Poissons Ratio (y) = 0.32587 -0.09540
# Poissons Ratio (z) = 0.60185 -0.17250
#
# Static dielectric constant tensor:
#      x y z
#    x 1.845890 0.018780 0.047550 
#    y 0.018780 1.872360 0.000860 
#    z 0.047550 0.000860 1.846770 
# 
# From -- ./inp_files/455249.got.cif
#   From: 2010.05.17/outbox.cif.g08.bks.cpg/sg2_228_cif.got.tgz:455249.got - 2010.06.03 11:33:40.
