data_PCOD9058773
_publ_section_title
;
Structure prediction by ZEFSAII (Michael W. Deem and Ramdas Pophale) SiO2 
 PCOD9058773
Probable space group: P -1
;
_chemical_formula_sum "Si O2"
_cell_formula_units_Z 16
_cell_length_a 8.985475
_cell_length_b 7.337781
_cell_length_c 20.164474
_cell_angle_alpha 38.358377
_cell_angle_beta 64.856113
_cell_angle_gamma 52.389053
_cell_volume 649.689560
_symmetry_space_group_name_H-M "P -1"
_symmetry_group_IT_number 2
_symmetry_cell_setting 'triclinic'
loop_
_space_group_symop_operation_xyz
x,y,z
-x,-y,-z
loop_
_atom_site_type_symbol
_atom_site_label
_atom_site_fract_x
_atom_site_fract_y
_atom_site_fract_z
Si Si1 0.275145 0.817563 0.729305
Si Si2 0.605576 0.904847 0.136181
Si Si3 0.882719 0.810401 0.563917
Si Si4 0.543737 0.731814 0.473477
Si Si5 0.912803 0.797644 0.209673
Si Si6 0.896753 0.274535 0.627722
Si Si7 0.801144 0.828310 0.864069
Si Si8 0.863562 0.892456 0.986319
O O1 0.387977 0.419669 0.808703
O O2 0.396950 0.004977 0.642532
O O3 0.178241 0.940868 0.785358
O O4 0.103177 0.954532 0.668806
O O5 0.741423 0.792940 0.205836
O O6 0.391929 0.154304 0.125825
O O7 0.691915 0.052678 0.023940
O O8 0.956754 0.540050 0.568395
O O9 0.932090 0.567469 0.687894
O O10 0.663672 0.040136 0.521575
O O11 0.000000 0.000000 0.500000
O O12 0.500000 0.500000 0.500000
O O13 0.721249 0.466060 0.558149
O O14 0.017820 0.921471 0.104100
O O15 0.812914 0.137160 0.740568
O O16 0.796810 0.851497 0.937805
O O17 0.987564 0.482001 0.909357
#
# Coordination Sequence:
#
# PCOD9058773 Si02
#       8
#     2   2   2   2   2   2   2   2
#     4  11  24  47  69 106 145 188 237 299 355 430
#     4  12  26  43  78 104 139 197 236 291 365 431
#     4  11  25  45  69 101 143 188 234 301 355 431
#     4  12  27  41  70 106 140 187 244 291 363 434
#     4  11  26  47  71 103 147 184 238 297 359 420
#     4  11  23  46  70 102 143 189 231 301 361 423
#     4  11  23  43  76 104 143 184 240 293 361 427
#     4  11  22  49  68 105 145 182 238 303 355 420
#
# _framework density 24.627144999999999
#
# number of rings (size 3 to 8) (size 9 to 14) (size 15 to 20)
#    0.000    0.750    3.750    4.500    7.000    0.500 
#    0.000    0.000    0.000    0.000    0.000    0.000 
#    0.000    0.000    0.000    0.000    0.000    0.000 
#
# Total GULP energy -89550.576742 kJ/mol
# GULP energy per Si atom -5596.911046 kJ/mol
# Density = 2.457109 g / cm^3
# Si number density = 24.627145 Si / 1000 Ang^3
#
#
#
# Elastic Constant Matrix: (Units=GPa)
#
#
# Indices 1 2 3 4 5 6 
#
# 1 165.5490 26.1633 48.9454 -1.8517 -5.6241 -15.8304
# 2 26.1633 55.4634 19.0763 -1.4811 -5.6143 -14.8853
# 3 48.9454 19.0763 118.2300 1.7772 -18.2151 -0.3645
# 4 -1.8517 -1.4811 1.7772 27.5751 -3.1797 -3.5044
# 5 -5.6241 -5.6143 -18.2151 -3.1797 34.4503 -0.5673
# 6 -15.8304 -14.8853 -0.3645 -3.5044 -0.5673 46.9117
#
#
#
# Elastic Compliance Matrix: (Units=1/GPa)
#
#
# Indices 1 2 3 4 5 6 
#
# 1 0.007361 -0.002040 -0.002803 0.000743 -0.000513 0.001864
# 2 -0.002040 0.021809 -0.002334 0.002265 0.002302 0.006411
# 3 -0.002803 -0.002334 0.010732 -0.000660 0.004749 -0.001595
# 4 0.000743 0.002265 -0.000660 0.037383 0.003654 0.003801
# 5 -0.000513 0.002302 0.004749 0.003654 0.032188 0.001256
# 6 0.001864 0.006411 -0.001595 0.003801 0.001256 0.024267
#
#
# Mechanical properties :
#
#
# Convention : Reuss Voigt Hill
#
# Bulk Modulus (GPa) = 39.14211 58.62360 48.88285
# Shear Modulus (GPa) = 31.92694 38.12457 35.02575
#
# Velocity S-wave (km/s) = 3.60448 3.93882 3.77535
# Velocity P-wave (km/s) = 5.76640 6.67397 6.23672
#
# Compressibility (1/GPa) = 0.02554793
#
# Stress axis : x y z
#
# Youngs Moduli (GPa) = 135.85804 45.85273 93.18327
#
# Poissons Ratio (x) = 0.09354 0.26115
# Poissons Ratio (y) = 0.27716 0.21749
# Poissons Ratio (z) = 0.38075 0.10702
#
# Static dielectric constant tensor:
#      x y z
#    x 1.949270 0.007750 0.024370 
#    y 0.007750 2.121350 -0.017600 
#    z 0.024370 -0.017600 1.999590 
# 
# From -- ./inp_files/606562.got.cif
#   From: 2010.05.17/outbox.cif.g08.bks.cpg/sg2_304_cif.got.tgz:606562.got - 2010.06.03 11:33:40.
