data_PCOD9058755
_publ_section_title
;
Structure prediction by ZEFSAII (Michael W. Deem and Ramdas Pophale) SiO2 
 PCOD9058755
Probable space group: P -1
;
_chemical_formula_sum "Si O2"
_cell_formula_units_Z 15
_cell_length_a 9.666122
_cell_length_b 13.918183
_cell_length_c 17.660048
_cell_angle_alpha 31.343981
_cell_angle_beta 144.019642
_cell_angle_gamma 150.146016
_cell_volume 593.295901
_symmetry_space_group_name_H-M "P -1"
_symmetry_group_IT_number 2
_symmetry_cell_setting 'triclinic'
loop_
_space_group_symop_operation_xyz
x,y,z
-x,-y,-z
loop_
_atom_site_type_symbol
_atom_site_label
_atom_site_fract_x
_atom_site_fract_y
_atom_site_fract_z
Si Si1 0.116276 0.680549 0.862670
Si Si2 0.642886 0.063993 0.937261
Si Si3 0.212138 0.542834 0.659353
Si Si4 0.478734 0.568450 0.026495
Si Si5 0.666914 0.399567 0.607277
Si Si6 0.891348 0.010036 0.849866
Si Si7 0.000000 0.000000 0.500000
Si Si8 0.541634 0.904956 0.431874
O O1 0.405068 0.883722 0.894122
O O2 0.200592 0.562250 0.919855
O O3 0.967730 0.783201 0.685391
O O4 0.000000 0.500000 0.000000
O O5 0.721298 0.288019 0.777247
O O6 0.907636 0.040194 0.071622
O O7 0.500000 0.000000 0.000000
O O8 0.354949 0.705364 0.541975
O O9 0.969428 0.548218 0.594335
O O10 0.044752 0.278297 0.742359
O O11 0.478659 0.582867 0.797444
O O12 0.755275 0.830704 0.979525
O O13 0.500000 0.500000 0.000000
O O14 0.500000 0.500000 0.500000
O O15 0.459071 0.201317 0.582243
O O16 0.590551 0.952606 0.721433
O O17 0.117314 0.936600 0.519868
#
# Coordination Sequence:
#
# PCOD9058755 Si02
#       8
#     2   2   2   2   2   2   1   2
#     4  12  27  50  73 106 153 196 246 304 379 454
#     4  12  27  45  77 109 143 196 250 314 372 440
#     4  11  23  45  76 100 136 198 242 299 371 444
#     4  12  25  44  70 103 139 194 239 299 371 436
#     4  11  24  42  67 106 143 175 244 309 361 431
#     4  11  22  48  72  98 142 185 250 295 354 439
#     4  12  24  46  72 108 148 196 240 306 386 442
#     4  11  25  45  74 102 141 197 238 302 373 448
#
# _framework density 25.282492999999999
#
# number of rings (size 3 to 8) (size 9 to 14) (size 15 to 20)
#    0.000    0.533    5.333    3.600    5.600    1.067 
#    0.000    0.667    0.000    0.000    0.000    0.000 
#    0.000    0.000    0.000    0.000    0.000    0.000 
#
# Total GULP energy -83523.728709 kJ/mol
# GULP energy per Si atom -5568.248581 kJ/mol
# Density = 2.522495 g / cm^3
# Si number density = 25.282493 Si / 1000 Ang^3
#
#
#
# Elastic Constant Matrix: (Units=GPa)
#
#
# Indices 1 2 3 4 5 6 
#
# 1 217.9965 29.6612 126.7049 -15.6436 7.7673 27.3689
# 2 29.6612 50.8722 30.7210 -4.1871 -2.0828 1.3797
# 3 126.7049 30.7210 237.1070 -3.1858 2.5925 17.5056
# 4 -15.6436 -4.1871 -3.1858 30.7001 14.2563 -9.8418
# 5 7.7673 -2.0828 2.5925 14.2563 66.2728 -4.7740
# 6 27.3689 1.3797 17.5056 -9.8418 -4.7740 47.4386
#
#
#
# Elastic Compliance Matrix: (Units=1/GPa)
#
#
# Indices 1 2 3 4 5 6 
#
# 1 0.007491 -0.001994 -0.003501 0.003157 -0.001662 -0.002484
# 2 -0.001994 0.022120 -0.001906 0.002028 0.000690 0.001701
# 3 -0.003501 -0.001906 0.006350 -0.001780 0.000442 -0.000593
# 4 0.003157 0.002028 -0.001780 0.040199 -0.008433 0.006268
# 5 -0.001662 0.000690 0.000442 -0.008433 0.017156 0.000753
# 6 -0.002484 0.001701 -0.000593 0.006268 0.000753 0.024059
#
#
# Mechanical properties :
#
#
# Convention : Reuss Voigt Hill
#
# Bulk Modulus (GPa) = 47.26152 97.79444 72.52798
# Shear Modulus (GPa) = 35.91178 50.14153 43.02666
#
# Velocity S-wave (km/s) = 3.77294 4.45820 4.12981
# Velocity P-wave (km/s) = 6.14117 8.07870 7.17563
#
# Compressibility (1/GPa) = 0.02115886
#
# Stress axis : x y z
#
# Youngs Moduli (GPa) = 133.49625 45.20786 157.47746
#
# Poissons Ratio (x) = 0.09016 0.55126
# Poissons Ratio (y) = 0.26625 0.30017
# Poissons Ratio (z) = 0.46731 0.08617
#
# Static dielectric constant tensor:
#      x y z
#    x 1.941010 -0.241090 -0.127140 
#    y -0.241090 1.715080 -0.148480 
#    z -0.127140 -0.148480 2.030860 
# 
# From -- ./inp_files/561355.got.cif
#   From: 2010.05.17/outbox.cif.g08.bks.cpg/sg2_281_cif.got.tgz:561355.got - 2010.06.03 11:33:40.
