data_PCOD9058701
_publ_section_title
;
Structure prediction by ZEFSAII (Michael W. Deem and Ramdas Pophale) SiO2 
 PCOD9058701
Probable space group: P -1
;
_chemical_formula_sum "Si O2"
_cell_formula_units_Z 16
_cell_length_a 8.660753
_cell_length_b 5.359956
_cell_length_c 26.579840
_cell_angle_alpha 59.206883
_cell_angle_beta 136.523636
_cell_angle_gamma 102.449719
_cell_volume 703.453898
_symmetry_space_group_name_H-M "P -1"
_symmetry_group_IT_number 2
_symmetry_cell_setting 'triclinic'
loop_
_space_group_symop_operation_xyz
x,y,z
-x,-y,-z
loop_
_atom_site_type_symbol
_atom_site_label
_atom_site_fract_x
_atom_site_fract_y
_atom_site_fract_z
Si Si1 0.575540 0.508288 0.160583
Si Si2 0.747584 0.436718 0.766546
Si Si3 0.837116 0.470729 0.512273
Si Si4 0.946285 0.019964 0.673124
Si Si5 0.174634 0.280067 0.139791
Si Si6 0.320219 0.663972 0.981770
Si Si7 0.542245 0.114933 0.417607
Si Si8 0.093055 0.173652 0.795760
O O1 0.364389 0.415699 0.144635
O O2 0.680995 0.763115 0.183585
O O3 0.480868 0.652804 0.069363
O O4 0.804501 0.228953 0.245107
O O5 0.821595 0.601861 0.814445
O O6 0.514018 0.652780 0.666915
O O7 0.932517 0.428003 0.766554
O O8 0.750630 0.085575 0.811595
O O9 0.959936 0.276131 0.609341
O O10 0.661390 0.285941 0.468294
O O11 0.000000 0.500000 0.500000
O O12 0.704063 0.798903 0.468370
O O13 0.935741 0.116337 0.719401
O O14 0.698536 0.944770 0.612910
O O15 0.908969 0.428700 0.044058
O O16 0.188570 0.940991 0.887049
O O17 0.500000 0.500000 0.000000
#
# Coordination Sequence:
#
# PCOD9058701 Si02
#       8
#     2   2   2   2   2   2   2   2
#     4  12  26  43  72 109 151 190 246 311 363 434
#     4  11  24  47  75 106 142 196 247 296 366 435
#     4  12  30  49  76 112 149 191 236 311 370 439
#     4  12  27  47  75 110 145 192 251 296 370 440
#     4  11  27  44  73 109 155 193 243 306 368 433
#     4  11  22  47  71 107 146 201 251 296 366 434
#     4  12  25  50  77 104 147 194 246 298 365 445
#     4  11  24  46  75 105 145 193 250 304 354 443
#
# _framework density 22.744916
#
# number of rings (size 3 to 8) (size 9 to 14) (size 15 to 20)
#    0.000    0.500    2.500    5.625    7.000    1.000 
#    0.000    3.750    0.000    0.000    0.000    0.000 
#    0.000    0.000    0.000    0.000    0.000    0.000 
#
# Total GULP energy -89172.335657 kJ/mol
# GULP energy per Si atom -5573.270979 kJ/mol
# Density = 2.269315 g / cm^3
# Si number density = 22.744916 Si / 1000 Ang^3
#
#
#
# Elastic Constant Matrix: (Units=GPa)
#
#
# Indices 1 2 3 4 5 6 
#
# 1 100.8229 3.0657 8.2206 -1.8708 20.4207 31.9526
# 2 3.0657 121.5602 58.3531 24.3498 -38.2106 -8.9798
# 3 8.2206 58.3531 142.3290 9.0111 -32.8867 -14.0424
# 4 -1.8708 24.3498 9.0111 35.6204 -5.6428 5.2007
# 5 20.4207 -38.2106 -32.8867 -5.6428 69.2510 19.7246
# 6 31.9526 -8.9798 -14.0424 5.2007 19.7246 43.5593
#
#
#
# Elastic Compliance Matrix: (Units=1/GPa)
#
#
# Indices 1 2 3 4 5 6 
#
# 1 0.014096 -0.001760 -0.001999 0.003540 -0.002797 -0.010503
# 2 -0.001760 0.013190 -0.003500 -0.007635 0.005088 0.001489
# 3 -0.001999 -0.003500 0.009392 -0.000118 0.002331 0.002731
# 4 0.003540 -0.007635 -0.000118 0.034701 -0.000122 -0.008296
# 5 -0.002797 0.005088 0.002331 -0.000122 0.020744 -0.005527
# 6 -0.010503 0.001489 0.002731 -0.008296 -0.005527 0.035342
#
#
# Mechanical properties :
#
#
# Convention : Reuss Voigt Hill
#
# Bulk Modulus (GPa) = 45.12817 55.99899 50.56358
# Shear Modulus (GPa) = 33.47432 49.35765 41.41599
#
# Velocity S-wave (km/s) = 3.84047 4.66344 4.27182
# Velocity P-wave (km/s) = 6.28886 7.32603 6.82717
#
# Compressibility (1/GPa) = 0.02215911
#
# Stress axis : x y z
#
# Youngs Moduli (GPa) = 70.94340 75.81756 106.47466
#
# Poissons Ratio (x) = 0.13343 0.21287
# Poissons Ratio (y) = 0.12485 0.37265
# Poissons Ratio (z) = 0.14183 0.26536
#
# Static dielectric constant tensor:
#      x y z
#    x 1.963150 0.001410 0.276140 
#    y 0.001410 1.983870 -0.141140 
#    z 0.276140 -0.141140 2.215330 
# 
# From -- ./inp_files/616314.got.cif
#   From: 2010.05.17/outbox.cif.g08.bks.cpg/sg2_309_cif.got.tgz:616314.got - 2010.06.03 11:33:40.
