data_PCOD9058621
_publ_section_title
;
Structure prediction by ZEFSAII (Michael W. Deem and Ramdas Pophale) SiO2 
 PCOD9058621
Probable space group: P -1
;
_chemical_formula_sum "Si O2"
_cell_formula_units_Z 16
_cell_length_a 8.165487
_cell_length_b 9.231981
_cell_length_c 11.828045
_cell_angle_alpha 52.464394
_cell_angle_beta 73.518532
_cell_angle_gamma 80.887674
_cell_volume 677.874350
_symmetry_space_group_name_H-M "P -1"
_symmetry_group_IT_number 2
_symmetry_cell_setting 'triclinic'
loop_
_space_group_symop_operation_xyz
x,y,z
-x,-y,-z
loop_
_atom_site_type_symbol
_atom_site_label
_atom_site_fract_x
_atom_site_fract_y
_atom_site_fract_z
Si Si1 0.257761 0.861226 0.527903
Si Si2 0.254450 0.117072 0.841413
Si Si3 0.169675 0.387434 0.538457
Si Si4 0.695154 0.559902 0.952407
Si Si5 0.788962 0.175396 0.196829
Si Si6 0.615534 0.255290 0.662847
Si Si7 0.123350 0.254344 0.368988
Si Si8 0.827834 0.921873 0.867890
O O1 0.308122 0.860759 0.649228
O O2 0.396143 0.792980 0.445226
O O3 0.081839 0.741069 0.605250
O O4 0.195577 0.060313 0.408797
O O5 0.161140 0.261420 0.710301
O O6 0.440395 0.208015 0.781541
O O7 0.278576 0.936435 0.845607
O O8 0.167445 0.080840 0.995468
O O9 0.321137 0.537396 0.440478
O O10 0.179553 0.269574 0.479866
O O11 0.000000 0.500000 0.500000
O O12 0.787799 0.594830 0.798129
O O13 0.715631 0.747913 0.929217
O O14 0.500000 0.500000 0.000000
O O15 0.784998 0.390992 0.074894
O O16 0.983652 0.111292 0.201620
O O17 0.753680 0.114181 0.751400
#
# Coordination Sequence:
#
# PCOD9058621 Si02
#       8
#     2   2   2   2   2   2   2   2
#     4  11  22  46  75 100 135 182 240 289 342 408
#     4  12  29  46  66 107 143 181 232 288 356 412
#     4  12  26  44  71 101 136 185 231 281 346 420
#     4  12  28  44  71 107 141 182 230 292 356 404
#     4  12  26  46  73 102 136 188 236 285 343 422
#     4  12  26  46  72 101 141 183 228 296 353 403
#     4  11  23  45  72 101 138 179 241 285 341 418
#     4  12  26  49  70 100 142 187 232 283 347 426
#
# _framework density 23.603196000000001
#
# number of rings (size 3 to 8) (size 9 to 14) (size 15 to 20)
#    0.000    0.250    5.000    3.750    7.000    1.500 
#    0.000    0.000    0.000    0.000    0.000    0.000 
#    0.000    0.000    0.000    0.000    0.000    0.000 
#
# Total GULP energy -89677.648020 kJ/mol
# GULP energy per Si atom -5604.853001 kJ/mol
# Density = 2.354947 g / cm^3
# Si number density = 23.603196 Si / 1000 Ang^3
#
#
#
# Elastic Constant Matrix: (Units=GPa)
#
#
# Indices 1 2 3 4 5 6 
#
# 1 45.8329 4.1806 0.6716 -4.6157 3.4167 -3.6133
# 2 4.1806 91.9863 32.7045 5.9197 5.7812 18.1352
# 3 0.6716 32.7045 136.8771 7.8932 20.3469 -7.8142
# 4 -4.6157 5.9197 7.8932 42.5677 5.3431 1.3397
# 5 3.4167 5.7812 20.3469 5.3431 36.5903 -6.3617
# 6 -3.6133 18.1352 -7.8142 1.3397 -6.3617 35.9564
#
#
#
# Elastic Compliance Matrix: (Units=1/GPa)
#
#
# Indices 1 2 3 4 5 6 
#
# 1 0.022642 -0.001879 0.000653 0.002765 -0.002081 0.002894
# 2 -0.001879 0.013987 -0.003541 -0.001066 -0.001337 -0.008210
# 3 0.000653 -0.003541 0.008937 -0.000713 -0.003820 0.003145
# 4 0.002765 -0.001066 -0.000713 0.024529 -0.003424 -0.000859
# 5 -0.002081 -0.001337 -0.003820 -0.003424 0.031281 0.005297
# 6 0.002894 -0.008210 0.003145 -0.000859 0.005297 0.033895
#
#
# Mechanical properties :
#
#
# Convention : Reuss Voigt Hill
#
# Bulk Modulus (GPa) = 27.75316 38.86773 33.31044
# Shear Modulus (GPa) = 31.88450 38.83221 35.35835
#
# Velocity S-wave (km/s) = 3.67939 4.06052 3.87464
# Velocity P-wave (km/s) = 5.46207 6.20376 5.84469
#
# Compressibility (1/GPa) = 0.03603193
#
# Stress axis : x y z
#
# Youngs Moduli (GPa) = 44.16579 71.49618 111.89095
#
# Poissons Ratio (x) = 0.13433 -0.07305
# Poissons Ratio (y) = 0.08298 0.39622
# Poissons Ratio (z) = -0.02884 0.25318
#
# Static dielectric constant tensor:
#      x y z
#    x 1.901570 0.046840 0.004300 
#    y 0.046840 1.916240 -0.003850 
#    z 0.004300 -0.003850 1.846010 
# 
# From -- ./inp_files/244135.got.cif
#   From: 2010.05.17/outbox.cif.g08.bks.cpg/sg2_123_cif.got.tgz:244135.got - 2010.06.03 11:33:40.
