data_PCOD9058074
_publ_section_title
;
Structure prediction by ZEFSAII (Michael W. Deem and Ramdas Pophale) SiO2 
 PCOD9058074
Probable space group: P -1
;
_chemical_formula_sum "Si O2"
_cell_formula_units_Z 14
_cell_length_a 9.280961
_cell_length_b 11.975783
_cell_length_c 17.806578
_cell_angle_alpha 152.658758
_cell_angle_beta 141.784025
_cell_angle_gamma 50.592415
_cell_volume 548.298062
_symmetry_space_group_name_H-M "P -1"
_symmetry_group_IT_number 2
_symmetry_cell_setting 'triclinic'
loop_
_space_group_symop_operation_xyz
x,y,z
-x,-y,-z
loop_
_atom_site_type_symbol
_atom_site_label
_atom_site_fract_x
_atom_site_fract_y
_atom_site_fract_z
Si Si1 0.649040 0.933917 0.794772
Si Si2 0.055048 0.590988 0.162864
Si Si3 0.462321 0.262222 0.617514
Si Si4 0.074915 0.774783 0.660798
Si Si5 0.352198 0.501617 0.864002
Si Si6 0.923258 0.864626 0.004449
Si Si7 0.868653 0.101460 0.407796
O O1 0.839932 0.938599 0.810067
O O2 0.366864 0.879801 0.630874
O O3 0.699077 0.228786 0.011851
O O4 0.742789 0.793334 0.818275
O O5 0.345087 0.644988 0.312248
O O6 0.988263 0.363029 0.057064
O O7 0.942221 0.831735 0.275490
O O8 0.000000 0.500000 0.000000
O O9 0.188794 0.189531 0.440948
O O10 0.486092 0.435003 0.804511
O O11 0.500000 0.000000 0.500000
O O12 0.000000 0.500000 0.500000
O O13 0.194404 0.820472 0.655630
O O14 0.197329 0.986129 0.894964
O O15 0.106145 0.296435 0.645738
O O16 0.500000 0.500000 0.000000
#
# Coordination Sequence:
#
# PCOD9058074 Si02
#       7
#     2   2   2   2   2   2   2
#     4  11  28  49  71 108 158 197 253 302 386 454
#     4  12  23  43  77 110 145 194 257 309 380 439
#     4  11  22  44  70 109 144 186 253 309 367 449
#     4  11  24  44  75 106 146 191 253 306 375 441
#     4  11  26  46  77 110 154 198 249 314 379 448
#     4  11  26  49  72 107 153 201 244 317 374 455
#     4  11  25  48  75 114 145 197 261 308 376 450
#
# _framework density 25.533556000000001
#
# number of rings (size 3 to 8) (size 9 to 14) (size 15 to 20)
#    0.000    0.857    4.286    2.571    8.000    1.143 
#    2.571    2.143    0.000    0.000    0.000    0.000 
#    0.000    0.000    0.000    0.000    0.000    0.000 
#
# Total GULP energy -78386.898576 kJ/mol
# GULP energy per Si atom -5599.064184 kJ/mol
# Density = 2.547544 g / cm^3
# Si number density = 25.533556 Si / 1000 Ang^3
#
#
#
# Elastic Constant Matrix: (Units=GPa)
#
#
# Indices 1 2 3 4 5 6 
#
# 1 112.8504 13.6240 19.7640 -22.2561 0.8697 0.8068
# 2 13.6240 125.3619 10.6245 13.8054 -1.9278 13.6773
# 3 19.7640 10.6245 80.4871 -1.7178 1.7259 3.4154
# 4 -22.2561 13.8054 -1.7178 43.2091 -12.3775 8.3874
# 5 0.8697 -1.9278 1.7259 -12.3775 53.1737 -9.6530
# 6 0.8068 13.6773 3.4154 8.3874 -9.6530 46.4937
#
#
#
# Elastic Compliance Matrix: (Units=1/GPa)
#
#
# Indices 1 2 3 4 5 6 
#
# 1 0.010708 -0.001605 -0.002289 0.006379 0.001246 -0.000437
# 2 -0.001605 0.008811 -0.000739 -0.003509 -0.000819 -0.002047
# 3 -0.002289 -0.000739 0.013121 -0.000463 -0.000661 -0.000760
# 4 0.006379 -0.003509 -0.000463 0.029913 0.006173 -0.003159
# 5 0.001246 -0.000819 -0.000661 0.006173 0.020847 0.003482
# 6 -0.000437 -0.002047 -0.000760 -0.003159 0.003482 0.023467
#
#
# Mechanical properties :
#
#
# Convention : Reuss Voigt Hill
#
# Bulk Modulus (GPa) = 42.78748 45.19158 43.98953
# Shear Modulus (GPa) = 40.34709 46.88775 43.61742
#
# Velocity S-wave (km/s) = 3.97943 4.28988 4.13757
# Velocity P-wave (km/s) = 6.15697 6.50190 6.33178
#
# Compressibility (1/GPa) = 0.02337132
#
# Stress axis : x y z
#
# Youngs Moduli (GPa) = 93.39132 113.49280 76.21549
#
# Poissons Ratio (x) = 0.18218 0.17449
# Poissons Ratio (y) = 0.14992 0.05635
# Poissons Ratio (z) = 0.21381 0.08391
#
# Static dielectric constant tensor:
#      x y z
#    x 1.992850 0.080170 -0.101270 
#    y 0.080170 1.940320 0.024490 
#    z -0.101270 0.024490 1.928350 
# 
# From -- ./inp_files/560222.got.cif
#   From: 2010.05.17/outbox.cif.g08.bks.cpg/sg2_281_cif.got.tgz:560222.got - 2010.06.03 11:33:40.
