data_PCOD9058215
_publ_section_title
;
Structure prediction by ZEFSAII (Michael W. Deem and Ramdas Pophale) SiO2 
 PCOD9058215
Probable space group: P -1
;
_chemical_formula_sum "Si O2"
_cell_formula_units_Z 16
_cell_length_a 15.410710
_cell_length_b 11.675092
_cell_length_c 15.557672
_cell_angle_alpha 37.652031
_cell_angle_beta 152.507212
_cell_angle_gamma 123.799419
_cell_volume 675.264622
_symmetry_space_group_name_H-M "P -1"
_symmetry_group_IT_number 2
_symmetry_cell_setting 'triclinic'
loop_
_space_group_symop_operation_xyz
x,y,z
-x,-y,-z
loop_
_atom_site_type_symbol
_atom_site_label
_atom_site_fract_x
_atom_site_fract_y
_atom_site_fract_z
Si Si1 0.214634 0.530031 0.270317
Si Si2 0.907325 0.999767 0.155689
Si Si3 0.014654 0.795571 0.185805
Si Si4 0.501951 0.453322 0.232845
Si Si5 0.505162 0.077980 0.862625
Si Si6 0.431811 0.154556 0.232192
Si Si7 0.730833 0.635018 0.778567
Si Si8 0.350169 0.842457 0.741190
O O1 0.388516 0.338942 0.596934
O O2 0.258836 0.437230 0.267267
O O3 0.215676 0.753453 0.136575
O O4 0.969417 0.588066 0.042270
O O5 0.745401 0.975114 0.092283
O O6 0.979086 0.847697 0.225465
O O7 0.121938 0.956751 0.421373
O O8 0.258487 0.592217 0.507396
O O9 0.814796 0.763427 0.004736
O O10 0.000000 0.000000 0.000000
O O11 0.541052 0.232001 0.352441
O O12 0.349587 0.490990 0.157208
O O13 0.382783 0.644658 0.945667
O O14 0.369481 0.009262 0.721891
O O15 0.500000 0.000000 0.000000
O O16 0.458282 0.243138 0.111167
O O17 0.559886 0.893941 0.485632
#
# Coordination Sequence:
#
# PCOD9058215 Si02
#       8
#     2   2   2   2   2   2   2   2
#     4  11  23  46  74 101 138 189 238 288 358 416
#     4  12  26  48  78 102 143 193 234 294 355 421
#     4  12  26  43  75 110 142 183 238 295 352 419
#     4  12  28  42  74 106 143 190 236 292 359 419
#     4  12  29  48  71 108 145 184 237 298 352 424
#     4  12  23  48  71 103 145 184 239 291 346 428
#     4  11  22  44  74 105 136 188 240 293 342 425
#     4  12  26  49  69 104 147 184 238 287 361 421
#
# _framework density 23.694416
#
# number of rings (size 3 to 8) (size 9 to 14) (size 15 to 20)
#    0.000    0.250    6.250    1.875    5.250    3.000 
#    0.000    0.000    0.000    0.000    0.000    0.000 
#    0.000    0.000    0.000    0.000    0.000    0.000 
#
# Total GULP energy -89756.154441 kJ/mol
# GULP energy per Si atom -5609.759653 kJ/mol
# Density = 2.364049 g / cm^3
# Si number density = 23.694416 Si / 1000 Ang^3
#
#
#
# Elastic Constant Matrix: (Units=GPa)
#
#
# Indices 1 2 3 4 5 6 
#
# 1 203.4323 25.3462 48.0713 6.3546 -5.4727 21.8327
# 2 25.3462 57.8685 8.7696 9.9840 11.8890 -1.5141
# 3 48.0713 8.7696 75.6437 14.3840 0.0683 15.8725
# 4 6.3546 9.9840 14.3840 34.0074 12.4438 4.2088
# 5 -5.4727 11.8890 0.0683 12.4438 37.2501 0.4022
# 6 21.8327 -1.5141 15.8725 4.2088 0.4022 42.1592
#
#
#
# Elastic Compliance Matrix: (Units=1/GPa)
#
#
# Indices 1 2 3 4 5 6 
#
# 1 0.006312 -0.002766 -0.003376 0.000749 0.001590 -0.002187
# 2 -0.002766 0.020435 -0.000524 -0.003483 -0.005794 0.002767
# 3 -0.003376 -0.000524 0.017619 -0.006867 0.001979 -0.004237
# 4 0.000749 -0.003483 -0.006867 0.037514 -0.011281 -0.001565
# 5 0.001590 -0.005794 0.001979 -0.011281 0.032704 -0.000962
# 6 -0.002187 0.002767 -0.004237 -0.001565 -0.000962 0.026712
#
#
# Mechanical properties :
#
#
# Convention : Reuss Voigt Hill
#
# Bulk Modulus (GPa) = 32.22237 55.70209 43.96223
# Shear Modulus (GPa) = 30.30796 39.66718 34.98757
#
# Velocity S-wave (km/s) = 3.58036 4.09603 3.84685
# Velocity P-wave (km/s) = 5.54262 6.77713 6.19072
#
# Compressibility (1/GPa) = 0.03103434
#
# Stress axis : x y z
#
# Youngs Moduli (GPa) = 158.42757 48.93496 56.75692
#
# Poissons Ratio (x) = 0.13537 0.19159
# Poissons Ratio (y) = 0.43825 0.02975
# Poissons Ratio (z) = 0.53478 0.02565
#
# Static dielectric constant tensor:
#      x y z
#    x 1.878080 0.002540 0.003960 
#    y 0.002540 1.913650 -0.009510 
#    z 0.003960 -0.009510 1.879140 
# 
# From -- ./inp_files/532332.got.cif
#   From: 2010.05.17/outbox.cif.g08.bks.cpg/sg2_267_cif.got.tgz:532332.got - 2010.06.03 11:33:40.
