data_PCOD9058570
_publ_section_title
;
Structure prediction by ZEFSAII (Michael W. Deem and Ramdas Pophale) SiO2 
 PCOD9058570
Probable space group: P -1
;
_chemical_formula_sum "Si O2"
_cell_formula_units_Z 16
_cell_length_a 9.206335
_cell_length_b 9.986915
_cell_length_c 9.274530
_cell_angle_alpha 101.382060
_cell_angle_beta 122.625515
_cell_angle_gamma 72.727559
_cell_volume 685.053376
_symmetry_space_group_name_H-M "P -1"
_symmetry_group_IT_number 2
_symmetry_cell_setting 'triclinic'
loop_
_space_group_symop_operation_xyz
x,y,z
-x,-y,-z
loop_
_atom_site_type_symbol
_atom_site_label
_atom_site_fract_x
_atom_site_fract_y
_atom_site_fract_z
Si Si1 0.701751 0.428349 0.128828
Si Si2 0.280218 0.613428 0.552453
Si Si3 0.635487 0.131380 0.496206
Si Si4 0.992995 0.063096 0.848482
Si Si5 0.284796 0.296897 0.430763
Si Si6 0.319301 0.023084 0.819646
Si Si7 0.867262 0.688342 0.345338
Si Si8 0.996463 0.351491 0.040888
O O1 0.695027 0.349071 0.259062
O O2 0.804787 0.547814 0.250041
O O3 0.818047 0.356376 0.041143
O O4 0.500000 0.500000 0.000000
O O5 0.366445 0.708113 0.516419
O O6 0.335785 0.446155 0.522598
O O7 0.072678 0.660111 0.418183
O O8 0.806609 0.067858 0.671091
O O9 0.447201 0.161484 0.481953
O O10 0.649744 0.053246 0.334322
O O11 0.159083 0.988440 0.821795
O O12 0.007710 0.223801 0.911100
O O13 0.000000 0.000000 0.000000
O O14 0.160991 0.278938 0.494149
O O15 0.166911 0.314140 0.228335
O O16 0.252470 0.186457 0.779695
O O17 0.500000 0.000000 0.000000
O O18 0.000000 0.500000 0.000000
#
# Coordination Sequence:
#
# PCOD9058570 Si02
#       8
#     2   2   2   2   2   2   2   2
#     4  11  25  39  71 106 139 185 236 302 358 429
#     4  11  22  46  72 103 143 188 239 296 368 422
#     4  12  28  46  75 104 145 194 239 300 361 436
#     4  12  30  47  72 110 147 187 248 305 362 432
#     4  11  24  44  71 107 140 189 240 300 358 432
#     4  12  29  50  74 100 144 197 242 295 362 443
#     4  11  23  47  72 101 147 186 244 291 368 424
#     4  12  25  44  71 103 148 188 242 298 366 425
#
# _framework density 23.355844000000001
#
# number of rings (size 3 to 8) (size 9 to 14) (size 15 to 20)
#    0.000    0.500    3.750    3.750   12.250    0.500 
#    0.000    0.000    0.000    0.000    0.000    0.000 
#    0.000    0.000    0.000    0.000    0.000    0.000 
#
# Total GULP energy -89605.413762 kJ/mol
# GULP energy per Si atom -5600.338360 kJ/mol
# Density = 2.330269 g / cm^3
# Si number density = 23.355844 Si / 1000 Ang^3
#
#
#
# Elastic Constant Matrix: (Units=GPa)
#
#
# Indices 1 2 3 4 5 6 
#
# 1 53.9161 25.4432 11.7175 6.6364 -16.7179 -29.8843
# 2 25.4432 98.6121 35.2473 -1.7471 -6.9032 -28.0913
# 3 11.7175 35.2473 145.6926 -11.2874 -10.1657 -18.9922
# 4 6.6364 -1.7471 -11.2874 44.9922 -0.4828 -8.0586
# 5 -16.7179 -6.9032 -10.1657 -0.4828 27.0882 -4.1898
# 6 -29.8843 -28.0913 -18.9922 -8.0586 -4.1898 46.8444
#
#
#
# Elastic Compliance Matrix: (Units=1/GPa)
#
#
# Indices 1 2 3 4 5 6 
#
# 1 0.049731 -0.001312 0.003608 0.000329 0.037254 0.035791
# 2 -0.001312 0.013370 -0.001899 0.001511 0.002985 0.006938
# 3 0.003608 -0.001899 0.008349 0.002536 0.005772 0.005500
# 4 0.000329 0.001511 0.002536 0.024078 0.002982 0.006553
# 5 0.037254 0.002985 0.005772 0.002982 0.068226 0.034511
# 6 0.035791 0.006938 0.005500 0.006553 0.034511 0.054784
#
#
# Mechanical properties :
#
#
# Convention : Reuss Voigt Hill
#
# Bulk Modulus (GPa) = 13.84191 49.22630 31.53410
# Shear Modulus (GPa) = 20.67605 38.83915 29.75760
#
# Velocity S-wave (km/s) = 2.97856 4.08233 3.57332
# Velocity P-wave (km/s) = 4.21527 6.58354 5.52772
#
# Compressibility (1/GPa) = 0.07224438
#
# Stress axis : x y z
#
# Youngs Moduli (GPa) = 20.10827 74.79365 119.77030
#
# Poissons Ratio (x) = 0.09810 -0.43214
# Poissons Ratio (y) = 0.02637 0.22749
# Poissons Ratio (z) = -0.07255 0.14206
#
# Static dielectric constant tensor:
#      x y z
#    x 1.794070 0.055890 -0.113770 
#    y 0.055890 1.883700 0.020530 
#    z -0.113770 0.020530 1.831160 
# 
# From -- ./inp_files/188789.got.cif
#   From: 2010.05.17/outbox.cif.g08.bks.cpg/sg2_95_cif.got.tgz:188789.got - 2010.06.03 11:33:40.
