data_PCOD9058256
_publ_section_title
;
Structure prediction by ZEFSAII (Michael W. Deem and Ramdas Pophale) SiO2 
 PCOD9058256
Probable space group: P -1
;
_chemical_formula_sum "Si O2"
_cell_formula_units_Z 16
_cell_length_a 7.311507
_cell_length_b 7.870490
_cell_length_c 11.032455
_cell_angle_alpha 88.864902
_cell_angle_beta 86.687568
_cell_angle_gamma 83.760409
_cell_volume 629.990387
_symmetry_space_group_name_H-M "P -1"
_symmetry_group_IT_number 2
_symmetry_cell_setting 'triclinic'
loop_
_space_group_symop_operation_xyz
x,y,z
-x,-y,-z
loop_
_atom_site_type_symbol
_atom_site_label
_atom_site_fract_x
_atom_site_fract_y
_atom_site_fract_z
Si Si1 0.147992 0.400344 0.585542
Si Si2 0.989232 0.233187 0.970341
Si Si3 0.127368 0.854898 0.425605
Si Si4 0.334937 0.745055 0.202131
Si Si5 0.829290 0.447131 0.161560
Si Si6 0.642390 0.843922 0.032982
Si Si7 0.433219 0.361567 0.195582
Si Si8 0.491623 0.802630 0.546105
O O1 0.171943 0.515192 0.698366
O O2 0.343516 0.318564 0.525039
O O3 0.000000 0.500000 0.500000
O O4 0.028414 0.247432 0.627352
O O5 0.160159 0.092035 0.948614
O O6 0.948515 0.279419 0.110325
O O7 0.089002 0.393602 0.907915
O O8 0.804881 0.227058 0.903840
O O9 0.259544 0.878660 0.305844
O O10 0.285432 0.767786 0.512442
O O11 0.000000 0.000000 0.500000
O O12 0.330867 0.544763 0.241233
O O13 0.541273 0.769482 0.153101
O O14 0.624608 0.413139 0.134356
O O15 0.656228 0.722918 0.914686
O O16 0.500000 0.000000 0.000000
O O17 0.474095 0.238777 0.312115
O O18 0.500000 0.000000 0.500000
#
# Coordination Sequence:
#
# PCOD9058256 Si02
#       8
#     2   2   2   2   2   2   2   2
#     4  12  26  46  76 110 144 201 262 312 375 453
#     4  11  24  45  77 110 150 192 248 311 376 447
#     4  12  27  49  75 109 152 206 249 315 392 453
#     4  12  25  50  80 111 151 200 261 312 372 469
#     4  11  22  44  77 109 143 190 253 316 361 445
#     4  12  29  46  74 115 156 199 245 315 392 454
#     4  12  25  49  80 110 150 203 257 315 382 457
#     4  12  29  50  74 109 157 202 254 322 391 454
#
# _framework density 25.397210999999999
#
# number of rings (size 3 to 8) (size 9 to 14) (size 15 to 20)
#    0.000    0.250    5.000    4.125    3.500    3.000 
#    2.250    0.000    0.000    0.000    0.000    0.000 
#    0.000    0.000    0.000    0.000    0.000    0.000 
#
# Total GULP energy -89452.517856 kJ/mol
# GULP energy per Si atom -5590.782366 kJ/mol
# Density = 2.533941 g / cm^3
# Si number density = 25.397211 Si / 1000 Ang^3
#
#
#
# Elastic Constant Matrix: (Units=GPa)
#
#
# Indices 1 2 3 4 5 6 
#
# 1 140.0018 10.5020 23.9769 29.8340 -7.6460 -27.3309
# 2 10.5020 89.9480 37.8158 5.7414 -4.8582 -23.7100
# 3 23.9769 37.8158 144.7648 28.9384 -5.7220 -15.8653
# 4 29.8340 5.7414 28.9384 42.0073 -7.3722 -8.0221
# 5 -7.6460 -4.8582 -5.7220 -7.3722 42.5596 7.8480
# 6 -27.3309 -23.7100 -15.8653 -8.0221 7.8480 47.2446
#
#
#
# Elastic Compliance Matrix: (Units=1/GPa)
#
#
# Indices 1 2 3 4 5 6 
#
# 1 0.009231 0.000508 -0.000008 -0.005759 -0.000137 0.004637
# 2 0.000508 0.014070 -0.003298 0.001264 0.000290 0.006414
# 3 -0.000008 -0.003298 0.008939 -0.005663 -0.000234 0.000420
# 4 -0.005759 0.001264 -0.005663 0.032356 0.003908 0.000246
# 5 -0.000137 0.000290 -0.000234 0.003908 0.024790 -0.003467
# 6 0.004637 0.006414 0.000420 0.000246 -0.003467 0.027827
#
#
# Mechanical properties :
#
#
# Convention : Reuss Voigt Hill
#
# Bulk Modulus (GPa) = 37.52956 57.70041 47.61499
# Shear Modulus (GPa) = 37.96786 46.52364 42.24575
#
# Velocity S-wave (km/s) = 3.87067 4.28464 4.08291
# Velocity P-wave (km/s) = 5.89790 6.87358 6.40435
#
# Compressibility (1/GPa) = 0.02664566
#
# Stress axis : x y z
#
# Youngs Moduli (GPa) = 108.33163 71.07089 111.86598
#
# Poissons Ratio (x) = -0.03611 0.00086
# Poissons Ratio (y) = -0.05504 0.36892
# Poissons Ratio (z) = 0.00083 0.23438
#
# Static dielectric constant tensor:
#      x y z
#    x 2.095240 0.013180 -0.060620 
#    y 0.013180 2.190420 -0.041950 
#    z -0.060620 -0.041950 2.000130 
# 
# From -- ./inp_files/379078.got.cif
#   From: 2010.05.17/outbox.cif.g08.bks.cpg/sg2_190_cif.got.tgz:379078.got - 2010.06.03 11:33:40.
