data_PCOD9058647
_publ_section_title
;
Structure prediction by ZEFSAII (Michael W. Deem and Ramdas Pophale) SiO2 
 PCOD9058647
Probable space group: P -1
;
_chemical_formula_sum "Si O2"
_cell_formula_units_Z 13
_cell_length_a 15.685892
_cell_length_b 7.544958
_cell_length_c 12.522694
_cell_angle_alpha 147.019260
_cell_angle_beta 144.155697
_cell_angle_gamma 47.496835
_cell_volume 472.385840
_symmetry_space_group_name_H-M "P -1"
_symmetry_group_IT_number 2
_symmetry_cell_setting 'triclinic'
loop_
_space_group_symop_operation_xyz
x,y,z
-x,-y,-z
loop_
_atom_site_type_symbol
_atom_site_label
_atom_site_fract_x
_atom_site_fract_y
_atom_site_fract_z
Si Si1 0.713883 0.629606 0.415536
Si Si2 0.000000 0.000000 0.500000
Si Si3 0.187987 0.168222 0.178117
Si Si4 0.486361 0.107346 0.917207
Si Si5 0.519499 0.188343 0.460325
Si Si6 0.043283 0.116353 0.353327
Si Si7 0.736976 0.521213 0.002748
O O1 0.636928 0.295896 0.134576
O O2 0.807810 0.849240 0.542914
O O3 0.815896 0.575902 0.596892
O O4 0.573366 0.854785 0.404655
O O5 0.953353 0.982919 0.571794
O O6 0.856825 0.772273 0.211710
O O7 0.189095 0.816890 0.060167
O O8 0.348260 0.226472 0.323532
O O9 0.064053 0.124736 0.943343
O O10 0.350454 0.349111 0.916917
O O11 0.500000 0.000000 0.000000
O O12 0.455038 0.863186 0.665676
O O13 0.621989 0.447765 0.754640
O O14 0.000000 0.500000 0.500000
#
# Coordination Sequence:
#
# PCOD9058647 Si02
#       7
#     2   1   2   2   2   2   2
#     4  11  23  47  71 106 145 190 248 300 370 440
#     4  12  28  46  70 102 152 192 242 302 364 440
#     4  11  22  46  77 105 140 192 249 306 364 437
#     4  12  26  39  70 109 148 188 243 301 368 441
#     4  11  23  45  75 103 143 191 243 307 362 435
#     4  12  26  45  72 104 149 196 243 299 368 443
#     4  11  24  47  68 106 145 188 247 300 365 434
#
# _framework density 27.519874999999999
#
# number of rings (size 3 to 8) (size 9 to 14) (size 15 to 20)
#    0.000    0.615    4.615    3.692    4.308    1.846 
#    0.000    6.923    0.000    0.000    0.000    0.000 
#    0.000    0.000    0.000    0.000    0.000    0.000 
#
# Total GULP energy -72657.327157 kJ/mol
# GULP energy per Si atom -5589.025166 kJ/mol
# Density = 2.745724 g / cm^3
# Si number density = 27.519875 Si / 1000 Ang^3
#
#
#
# Elastic Constant Matrix: (Units=GPa)
#
#
# Indices 1 2 3 4 5 6 
#
# 1 195.3434 7.6576 118.0275 -3.3521 4.0863 30.5170
# 2 7.6576 39.6721 25.2726 -10.8509 -4.7003 25.5758
# 3 118.0275 25.2726 276.4228 -7.3622 10.4697 20.7101
# 4 -3.3521 -10.8509 -7.3622 37.4359 11.0369 -10.6758
# 5 4.0863 -4.7003 10.4697 11.0369 74.9688 -2.7773
# 6 30.5170 25.5758 20.7101 -10.6758 -2.7773 36.5467
#
#
#
# Elastic Compliance Matrix: (Units=1/GPa)
#
#
# Indices 1 2 3 4 5 6 
#
# 1 0.008598 0.007067 -0.003575 -0.000901 0.000223 -0.010346
# 2 0.007067 0.053562 -0.004931 0.003436 0.001694 -0.039458
# 3 -0.003575 -0.004931 0.005379 0.000543 -0.000816 0.003484
# 4 -0.000901 0.003436 0.000543 0.030868 -0.004106 0.006745
# 5 0.000223 0.001694 -0.000816 -0.004106 0.014113 -0.001036
# 6 -0.010346 -0.039458 0.003484 0.006745 -0.001036 0.063532
#
#
# Mechanical properties :
#
#
# Convention : Reuss Voigt Hill
#
# Bulk Modulus (GPa) = 15.46485 90.37263 52.91874
# Shear Modulus (GPa) = 24.93972 53.82232 39.38102
#
# Velocity S-wave (km/s) = 3.01365 4.42720 3.78696
# Velocity P-wave (km/s) = 4.21203 7.68399 6.19617
#
# Compressibility (1/GPa) = 0.06466275
#
# Stress axis : x y z
#
# Youngs Moduli (GPa) = 116.30420 18.66991 185.90250
#
# Poissons Ratio (x) = -0.13195 0.66455
# Poissons Ratio (y) = -0.82198 0.91670
# Poissons Ratio (z) = 0.41575 0.09206
#
# Static dielectric constant tensor:
#      x y z
#    x 2.333570 -0.191580 -0.069260 
#    y -0.191580 2.408710 0.023970 
#    z -0.069260 0.023970 2.089150 
# 
# From -- ./inp_files/276448.got.cif
#   From: 2010.05.17/outbox.cif.g08.bks.cpg/sg2_139_cif.got.tgz:276448.got - 2010.06.03 11:33:40.
