data_PCOD9058698
_publ_section_title
;
Structure prediction by ZEFSAII (Michael W. Deem and Ramdas Pophale) SiO2 
 PCOD9058698
Probable space group: P -1
;
_chemical_formula_sum "Si O2"
_cell_formula_units_Z 16
_cell_length_a 12.075034
_cell_length_b 12.076653
_cell_length_c 11.782172
_cell_angle_alpha 54.398371
_cell_angle_beta 37.019120
_cell_angle_gamma 40.512228
_cell_volume 670.638051
_symmetry_space_group_name_H-M "P -1"
_symmetry_group_IT_number 2
_symmetry_cell_setting 'triclinic'
loop_
_space_group_symop_operation_xyz
x,y,z
-x,-y,-z
loop_
_atom_site_type_symbol
_atom_site_label
_atom_site_fract_x
_atom_site_fract_y
_atom_site_fract_z
Si Si1 0.242028 0.317783 0.711883
Si Si2 0.713116 0.162815 0.087511
Si Si3 0.266289 0.170540 0.142393
Si Si4 0.863424 0.159461 0.432295
Si Si5 0.621096 0.905568 0.654028
Si Si6 0.661521 0.601977 0.183736
Si Si7 0.064279 0.198889 0.760992
Si Si8 0.356739 0.696757 0.689849
O O1 0.200265 0.388390 0.830868
O O2 0.058555 0.334607 0.764822
O O3 0.380107 0.382845 0.507070
O O4 0.429598 0.110853 0.690672
O O5 0.494930 0.191888 0.191061
O O6 0.665593 0.253270 0.192775
O O7 0.851745 0.962804 0.129227
O O8 0.837631 0.227703 0.878768
O O9 0.246378 0.144564 0.306679
O O10 0.034248 0.212230 0.254440
O O11 0.302701 0.311679 0.000679
O O12 0.500000 0.000000 0.000000
O O13 0.605696 0.287651 0.618378
O O14 0.809863 0.143304 0.354768
O O15 0.000000 0.000000 0.500000
O O16 0.758302 0.855964 0.453522
O O17 0.707460 0.428392 0.211636
#
# Coordination Sequence:
#
# PCOD9058698 Si02
#       8
#     2   2   2   2   2   2   2   2
#     4  10  17  37  62  88 129 161 211 270 322 370
#     4  10  21  36  62  97 123 168 215 272 323 379
#     4  12  24  41  65  95 131 173 219 266 325 385
#     4  11  23  40  67  96 132 173 212 268 328 381
#     4  11  20  39  62  91 130 161 217 275 314 370
#     4  11  25  43  62 100 136 176 208 272 329 392
#     4  10  20  34  62  93 123 163 221 271 316 368
#     4  11  22  42  66  98 139 166 216 269 332 388
#
# _framework density 23.857876999999998
#
# number of rings (size 3 to 8) (size 9 to 14) (size 15 to 20)
#    0.000    1.250    5.000    3.000    1.750    2.500 
#    2.250    0.625    0.000    1.500    0.000    0.000 
#    0.000    0.000    0.000    0.000    0.000    0.000 
#
# Total GULP energy -89338.518726 kJ/mol
# GULP energy per Si atom -5583.657420 kJ/mol
# Density = 2.380358 g / cm^3
# Si number density = 23.857877 Si / 1000 Ang^3
#
#
#
# Elastic Constant Matrix: (Units=GPa)
#
#
# Indices 1 2 3 4 5 6 
#
# 1 104.1602 25.4121 24.5100 -5.1386 -28.9698 29.3214
# 2 25.4121 64.7246 22.2804 -13.2399 1.9022 19.8456
# 3 24.5100 22.2804 100.5888 -11.7491 -26.1505 15.3593
# 4 -5.1386 -13.2399 -11.7491 36.6187 15.6881 -9.5126
# 5 -28.9698 1.9022 -26.1505 15.6881 41.2252 -5.2555
# 6 29.3214 19.8456 15.3593 -9.5126 -5.2555 30.4525
#
#
#
# Elastic Compliance Matrix: (Units=1/GPa)
#
#
# Indices 1 2 3 4 5 6 
#
# 1 0.019350 -0.006092 0.002375 -0.010299 0.017252 -0.016099
# 2 -0.006092 0.024044 -0.005156 0.010278 -0.013376 -0.006301
# 3 0.002375 -0.005156 0.013813 -0.003209 0.011259 -0.004953
# 4 -0.010299 0.010278 -0.003209 0.042520 -0.024149 0.013951
# 5 0.017252 -0.013376 0.011259 -0.024149 0.051776 -0.012181
# 6 -0.016099 -0.006301 -0.004953 0.013951 -0.012181 0.057199
#
#
# Mechanical properties :
#
#
# Convention : Reuss Voigt Hill
#
# Bulk Modulus (GPa) = 25.34173 45.98651 35.66412
# Shear Modulus (GPa) = 20.86782 34.81070 27.83926
#
# Velocity S-wave (km/s) = 2.96069 3.82394 3.41967
# Velocity P-wave (km/s) = 4.72574 6.23007 5.52930
#
# Compressibility (1/GPa) = 0.03946060
#
# Stress axis : x y z
#
# Youngs Moduli (GPa) = 51.67921 41.58977 72.39388
#
# Poissons Ratio (x) = 0.25338 -0.17193
# Poissons Ratio (y) = 0.31485 0.37327
# Poissons Ratio (z) = -0.12273 0.21444
#
# Static dielectric constant tensor:
#      x y z
#    x 1.924760 -0.036830 -0.081450 
#    y -0.036830 1.992660 0.030330 
#    z -0.081450 0.030330 1.986970 
# 
# From -- ./inp_files/425403.got.cif
#   From: 2010.05.17/outbox.cif.g08.bks.cpg/sg2_213_cif.got.tgz:425403.got - 2010.06.03 11:33:40.
