data_PCOD9058946
_publ_section_title
;
Structure prediction by ZEFSAII (Michael W. Deem and Ramdas Pophale) SiO2 
 PCOD9058946
Probable space group: P -1
;
_chemical_formula_sum "Si O2"
_cell_formula_units_Z 14
_cell_length_a 13.874710
_cell_length_b 14.478401
_cell_length_c 12.287507
_cell_angle_alpha 112.216339
_cell_angle_beta 119.410686
_cell_angle_gamma 20.115575
_cell_volume 710.549675
_symmetry_space_group_name_H-M "P -1"
_symmetry_group_IT_number 2
_symmetry_cell_setting 'triclinic'
loop_
_space_group_symop_operation_xyz
x,y,z
-x,-y,-z
loop_
_atom_site_type_symbol
_atom_site_label
_atom_site_fract_x
_atom_site_fract_y
_atom_site_fract_z
Si Si1 0.281577 0.770214 0.217252
Si Si2 0.778028 0.862048 0.714634
Si Si3 0.763319 0.664363 0.536757
Si Si4 0.502350 0.268957 0.867432
Si Si5 0.388075 0.710257 0.844222
Si Si6 0.326234 0.463741 0.476961
Si Si7 0.158685 0.971681 0.605191
O O1 0.321845 0.802219 0.146246
O O2 0.356604 0.591528 0.155660
O O3 0.525892 0.602713 0.368112
O O4 0.936961 0.068805 0.206105
O O5 0.743724 0.771386 0.658860
O O6 0.139527 0.578864 0.774508
O O7 0.569988 0.068101 0.587087
O O8 0.638801 0.044981 0.816437
O O9 0.847981 0.487673 0.556021
O O10 0.000000 0.500000 0.500000
O O11 0.538160 0.274630 0.012697
O O12 0.334083 0.808511 0.743011
O O13 0.607189 0.196571 0.435588
O O14 0.108975 0.720928 0.404026
O O15 0.000000 0.000000 0.500000
#
# Coordination Sequence:
#
# PCOD9058946 Si02
#       7
#     2   2   2   2   2   2   2
#     4  12  21  38  62  93 127 167 207 263 314 375
#     4  11  23  39  65  92 128 154 201 261 334 371
#     4  11  24  42  68 100 127 156 208 276 333 368
#     4  12  24  40  61  96 127 171 205 256 325 380
#     4  12  25  40  61  86 136 173 212 251 304 379
#     4  12  24  38  70  92 129 160 214 264 321 363
#     4  12  24  42  61  92 129 178 211 255 296 372
#
# _framework density 19.703056
#
# number of rings (size 3 to 8) (size 9 to 14) (size 15 to 20)
#    0.000    0.286    5.714    3.857    6.000    0.000 
#    0.000    0.000    0.000    5.143    0.000    0.000 
#    0.000    0.000    0.000    0.000    0.000    0.000 
#
# Total GULP energy -78349.585769 kJ/mol
# GULP energy per Si atom -5596.398984 kJ/mol
# Density = 1.965821 g / cm^3
# Si number density = 19.703056 Si / 1000 Ang^3
#
#
#
# Elastic Constant Matrix: (Units=GPa)
#
#
# Indices 1 2 3 4 5 6 
#
# 1 64.3224 -4.6223 24.9414 -2.5012 2.0409 -0.3864
# 2 -4.6223 52.1063 -0.1652 -3.6880 8.0601 -5.8332
# 3 24.9414 -0.1652 83.4461 24.0497 -0.8688 6.6241
# 4 -2.5012 -3.6880 24.0497 30.0466 -1.2497 2.3552
# 5 2.0409 8.0601 -0.8688 -1.2497 18.0532 5.5466
# 6 -0.3864 -5.8332 6.6241 2.3552 5.5466 34.4682
#
#
#
# Elastic Compliance Matrix: (Units=1/GPa)
#
#
# Indices 1 2 3 4 5 6 
#
# 1 0.019568 0.003249 -0.008531 0.008482 -0.004259 0.002514
# 2 0.003249 0.022296 -0.002748 0.004239 -0.011997 0.005979
# 3 -0.008531 -0.002748 0.019544 -0.016269 0.003146 -0.003711
# 4 0.008482 0.004239 -0.016269 0.047443 -0.000594 0.000793
# 5 -0.004259 -0.011997 0.003146 -0.000594 0.065384 -0.013164
# 6 0.002514 0.005979 -0.003711 0.000793 -0.013164 0.032830
#
#
# Mechanical properties :
#
#
# Convention : Reuss Voigt Hill
#
# Bulk Modulus (GPa) = 22.05107 26.68696 24.36901
# Shear Modulus (GPa) = 20.98706 28.49499 24.74103
#
# Velocity S-wave (km/s) = 3.26723 3.80705 3.54742
# Velocity P-wave (km/s) = 5.04471 5.73575 5.40129
#
# Compressibility (1/GPa) = 0.04534927
#
# Stress axis : x y z
#
# Youngs Moduli (GPa) = 51.10361 44.85047 51.16550
#
# Poissons Ratio (x) = -0.14574 0.43648
# Poissons Ratio (y) = -0.16606 0.14063
# Poissons Ratio (z) = 0.43595 0.12327
#
# Static dielectric constant tensor:
#      x y z
#    x 1.684350 -0.002850 0.018890 
#    y -0.002850 1.696060 0.009280 
#    z 0.018890 0.009280 1.687050 
# 
# From -- ./inp_files/67054.got.cif
#   From: 2010.05.17/outbox.cif.g08.bks.cpg/sg2_34_cif.got.tgz:67054.got - 2010.06.03 11:33:40.
