data_PCOD9058853
_publ_section_title
;
Structure prediction by ZEFSAII (Michael W. Deem and Ramdas Pophale) SiO2 
 PCOD9058853
Probable space group: P -1
;
_chemical_formula_sum "Si O2"
_cell_formula_units_Z 16
_cell_length_a 19.214775
_cell_length_b 10.047160
_cell_length_c 9.699778
_cell_angle_alpha 30.858961
_cell_angle_beta 129.654220
_cell_angle_gamma 127.544163
_cell_volume 730.454577
_symmetry_space_group_name_H-M "P -1"
_symmetry_group_IT_number 2
_symmetry_cell_setting 'triclinic'
loop_
_space_group_symop_operation_xyz
x,y,z
-x,-y,-z
loop_
_atom_site_type_symbol
_atom_site_label
_atom_site_fract_x
_atom_site_fract_y
_atom_site_fract_z
Si Si1 0.050473 0.638229 0.631431
Si Si2 0.395630 0.025182 0.818089
Si Si3 0.178071 0.543026 0.121628
Si Si4 0.239312 0.271194 0.927115
Si Si5 0.920386 0.832164 0.465972
Si Si6 0.879725 0.277244 0.658537
Si Si7 0.311231 0.421034 0.189434
Si Si8 0.718396 0.976492 0.059645
O O1 0.103864 0.706085 0.499163
O O2 0.971835 0.811511 0.406628
O O3 0.981999 0.360859 0.775943
O O4 0.120457 0.666203 0.821469
O O5 0.382617 0.238708 0.495487
O O6 0.344372 0.733706 0.970814
O O7 0.350288 0.113855 0.823120
O O8 0.500000 0.000000 0.000000
O O9 0.104919 0.432766 0.242164
O O10 0.226033 0.352902 0.250598
O O11 0.260142 0.709551 0.166153
O O12 0.176903 0.073951 0.743578
O O13 0.284147 0.361796 0.049852
O O14 0.168725 0.007241 0.106029
O O15 0.305057 0.167698 0.986830
O O16 0.189501 0.508750 0.593936
O O17 0.000000 0.000000 0.500000
#
# Coordination Sequence:
#
# PCOD9058853 Si02
#       8
#     2   2   2   2   2   2   2   2
#     4  11  23  38  54  90 130 187 241 281 319 376
#     4  11  25  50  79 105 130 166 219 279 343 414
#     4  11  23  40  60  92 133 183 234 284 323 389
#     4  12  25  44  65  95 138 177 223 272 340 396
#     4  12  23  34  60  89 131 177 236 277 324 371
#     4  11  26  39  59  89 136 188 233 276 325 385
#     4  11  24  45  74 101 134 173 217 271 345 408
#     4  11  25  42  65  98 134 177 223 283 335 393
#
# _framework density 21.904169
#
# number of rings (size 3 to 8) (size 9 to 14) (size 15 to 20)
#    0.000    0.750    5.000    2.250    5.250    2.000 
#    0.000    1.250    0.000    0.000    0.000    0.000 
#    0.000    0.000    0.000    0.000    0.000    0.000 
#
# Total GULP energy -89219.148670 kJ/mol
# GULP energy per Si atom -5576.196792 kJ/mol
# Density = 2.185431 g / cm^3
# Si number density = 21.904169 Si / 1000 Ang^3
#
#
#
# Elastic Constant Matrix: (Units=GPa)
#
#
# Indices 1 2 3 4 5 6 
#
# 1 74.1788 44.1453 7.8952 9.7740 13.1303 -15.7579
# 2 44.1453 121.1774 32.2341 6.0633 0.3220 -36.4211
# 3 7.8952 32.2341 64.3445 4.8847 9.2388 -3.0615
# 4 9.7740 6.0633 4.8847 25.2016 5.9608 -0.3640
# 5 13.1303 0.3220 9.2388 5.9608 31.6415 4.5067
# 6 -15.7579 -36.4211 -3.0615 -0.3640 4.5067 30.7680
#
#
#
# Elastic Compliance Matrix: (Units=1/GPa)
#
#
# Indices 1 2 3 4 5 6 
#
# 1 0.020118 -0.006562 0.002616 -0.004603 -0.008752 0.004023
# 2 -0.006562 0.017576 -0.007543 -0.000585 0.002533 0.016316
# 3 0.002616 -0.007543 0.019729 -0.001731 -0.005759 -0.004802
# 4 -0.004603 -0.000585 -0.001731 0.043202 -0.005445 -0.001914
# 5 -0.008752 0.002533 -0.005759 -0.005445 0.039034 -0.007839
# 6 0.004023 0.016316 -0.004802 -0.001914 -0.007839 0.054523
#
#
# Mechanical properties :
#
#
# Convention : Reuss Voigt Hill
#
# Bulk Modulus (GPa) = 29.03129 47.58334 38.30731
# Shear Modulus (GPa) = 21.86851 29.21731 25.54291
#
# Velocity S-wave (km/s) = 3.16313 3.65618 3.41856
# Velocity P-wave (km/s) = 5.15976 6.29239 5.75401
#
# Compressibility (1/GPa) = 0.03444559
#
# Stress axis : x y z
#
# Youngs Moduli (GPa) = 49.70668 56.89668 50.68761
#
# Poissons Ratio (x) = 0.37337 -0.13261
# Poissons Ratio (y) = 0.32618 0.38231
# Poissons Ratio (z) = -0.13005 0.42914
#
# Static dielectric constant tensor:
#      x y z
#    x 1.771350 0.018460 0.008700 
#    y 0.018460 1.601380 0.006220 
#    z 0.008700 0.006220 1.902670 
# 
# From -- ./inp_files/341437.got.cif
#   From: 2010.05.17/outbox.cif.g08.bks.cpg/sg2_171_cif.got.tgz:341437.got - 2010.06.03 11:33:40.
