data_PCOD9058269
_publ_section_title
;
Structure prediction by ZEFSAII (Michael W. Deem and Ramdas Pophale) SiO2 
 PCOD9058269
Probable space group: P -1
;
_chemical_formula_sum "Si O2"
_cell_formula_units_Z 14
_cell_length_a 23.632665
_cell_length_b 17.631167
_cell_length_c 8.098918
_cell_angle_alpha 32.324084
_cell_angle_beta 147.616676
_cell_angle_gamma 157.853890
_cell_volume 647.464146
_symmetry_space_group_name_H-M "P -1"
_symmetry_group_IT_number 2
_symmetry_cell_setting 'triclinic'
loop_
_space_group_symop_operation_xyz
x,y,z
-x,-y,-z
loop_
_atom_site_type_symbol
_atom_site_label
_atom_site_fract_x
_atom_site_fract_y
_atom_site_fract_z
Si Si1 0.561867 0.317337 0.226755
Si Si2 0.959540 0.336724 0.577916
Si Si3 0.699251 0.919757 0.205257
Si Si4 0.858417 0.962386 0.190179
Si Si5 0.597353 0.956972 0.353669
Si Si6 0.835770 0.373949 0.739342
Si Si7 0.655572 0.731037 0.782285
O O1 0.429899 0.112247 0.395711
O O2 0.711234 0.361270 0.531757
O O3 0.487163 0.252117 0.979994
O O4 0.592440 0.510407 0.000398
O O5 0.000000 0.500000 0.500000
O O6 0.098666 0.477558 0.531248
O O7 0.780874 0.169790 0.372812
O O8 0.946998 0.189958 0.930848
O O9 0.769024 0.903843 0.249350
O O10 0.735592 0.867996 0.557338
O O11 0.759582 0.142567 0.949720
O O12 0.754629 0.819310 0.035225
O O13 0.000000 0.000000 0.500000
O O14 0.546213 0.760960 0.494791
O O15 0.500000 0.000000 0.000000
O O16 0.000000 0.500000 0.000000
#
# Coordination Sequence:
#
# PCOD9058269 Si02
#       7
#     2   2   2   2   2   2   2
#     4  12  25  47  74 106 148 193 237 306 359 428
#     4  11  22  45  65 101 137 180 236 287 348 426
#     4  12  25  49  73 107 146 189 246 299 358 434
#     4  11  26  45  73 104 150 187 236 302 367 424
#     4  11  23  45  71 101 142 185 233 293 353 421
#     4  12  26  44  74 108 142 189 248 294 361 433
#     4  11  26  46  72 108 144 185 248 291 364 429
#
# _framework density 21.622817000000001
#
# number of rings (size 3 to 8) (size 9 to 14) (size 15 to 20)
#    0.000    0.571    4.286    4.714    4.000    2.857 
#    0.000    0.000    0.000    0.000    0.000    0.000 
#    0.000    0.000    0.000    0.000    0.000    0.000 
#
# Total GULP energy -78050.977070 kJ/mol
# GULP energy per Si atom -5575.069791 kJ/mol
# Density = 2.157360 g / cm^3
# Si number density = 21.622817 Si / 1000 Ang^3
#
#
#
# Elastic Constant Matrix: (Units=GPa)
#
#
# Indices 1 2 3 4 5 6 
#
# 1 101.4427 35.2304 49.2030 5.1915 -9.0838 -1.7249
# 2 35.2304 101.3660 57.7732 -22.0748 20.3338 -21.0033
# 3 49.2030 57.7732 139.8361 10.8562 20.6249 -8.2023
# 4 5.1915 -22.0748 10.8562 28.8179 5.2890 -1.1341
# 5 -9.0838 20.3338 20.6249 5.2890 44.0195 -8.3510
# 6 -1.7249 -21.0033 -8.2023 -1.1341 -8.3510 37.7546
#
#
#
# Elastic Compliance Matrix: (Units=1/GPa)
#
#
# Indices 1 2 3 4 5 6 
#
# 1 0.015288 -0.008325 -0.002651 -0.009876 0.008890 -0.002839
# 2 -0.008325 0.029598 -0.009101 0.030368 -0.012447 0.012267
# 3 -0.002651 -0.009101 0.012759 -0.011134 -0.001570 -0.003094
# 4 -0.009876 0.030368 -0.011134 0.067471 -0.016608 0.012377
# 5 0.008890 -0.012447 -0.001570 -0.016608 0.033022 -0.000054
# 6 -0.002839 0.012267 -0.003094 0.012377 -0.000054 0.032869
#
#
# Mechanical properties :
#
#
# Convention : Reuss Voigt Hill
#
# Bulk Modulus (GPa) = 57.17466 69.67311 63.42388
# Shear Modulus (GPa) = 21.09785 35.48094 28.28939
#
# Velocity S-wave (km/s) = 3.12704 4.05520 3.62098
# Velocity P-wave (km/s) = 6.28785 7.36330 6.84672
#
# Compressibility (1/GPa) = 0.01749027
#
# Stress axis : x y z
#
# Youngs Moduli (GPa) = 65.41087 33.78639 78.37807
#
# Poissons Ratio (x) = 0.28127 0.20778
# Poissons Ratio (y) = 0.54453 0.71334
# Poissons Ratio (z) = 0.17340 0.30750
#
# Static dielectric constant tensor:
#      x y z
#    x 1.706470 -0.113130 -0.045930 
#    y -0.113130 1.830250 0.099360 
#    z -0.045930 0.099360 1.827070 
# 
# From -- ./inp_files/354998.got.cif
#   From: 2010.05.17/outbox.cif.g08.bks.cpg/sg2_178_cif.got.tgz:354998.got - 2010.06.03 11:33:40.
