data_PCOD9058988
_publ_section_title
;
Structure prediction by ZEFSAII (Michael W. Deem and Ramdas Pophale) SiO2 
 PCOD9058988
Probable space group: P -1
;
_chemical_formula_sum "Si O2"
_cell_formula_units_Z 14
_cell_length_a 8.587579
_cell_length_b 18.964879
_cell_length_c 7.875429
_cell_angle_alpha 143.043002
_cell_angle_beta 128.956336
_cell_angle_gamma 52.332653
_cell_volume 583.223829
_symmetry_space_group_name_H-M "P -1"
_symmetry_group_IT_number 2
_symmetry_cell_setting 'triclinic'
loop_
_space_group_symop_operation_xyz
x,y,z
-x,-y,-z
loop_
_atom_site_type_symbol
_atom_site_label
_atom_site_fract_x
_atom_site_fract_y
_atom_site_fract_z
Si Si1 0.314105 0.012032 0.670260
Si Si2 0.638202 0.538498 0.024514
Si Si3 0.970782 0.129551 0.933812
Si Si4 0.059132 0.449510 0.254190
Si Si5 0.694916 0.365019 0.289429
Si Si6 0.322253 0.199365 0.487870
Si Si7 0.421459 0.231519 0.010999
O O1 0.442745 0.104875 0.871979
O O2 0.140065 0.079282 0.809882
O O3 0.181481 0.960977 0.336843
O O4 0.480211 0.897317 0.634615
O O5 0.687814 0.669294 0.345542
O O6 0.855138 0.443284 0.000296
O O7 0.500000 0.500000 0.000000
O O8 0.503493 0.558925 0.800845
O O9 0.819648 0.260085 0.047623
O O10 0.113786 0.154829 0.232955
O O11 0.159490 0.545445 0.408636
O O12 0.000000 0.500000 0.500000
O O13 0.230230 0.326494 0.143182
O O14 0.615617 0.292313 0.246004
O O15 0.363323 0.212097 0.739056
#
# Coordination Sequence:
#
# PCOD9058988 Si02
#       7
#     2   2   2   2   2   2   2
#     4  11  24  45  69  98 138 176 228 276 328 405
#     4  11  23  39  69  98 133 173 221 279 329 399
#     4  11  23  43  73  95 134 181 224 274 334 393
#     4  12  24  45  70  97 136 178 227 274 340 400
#     4  11  23  45  66 100 138 174 225 276 337 399
#     4  11  24  44  65 100 137 173 226 275 333 401
#     4  11  26  44  68 100 140 178 220 282 339 396
#
# _framework density 24.004508000000001
#
# number of rings (size 3 to 8) (size 9 to 14) (size 15 to 20)
#    0.000    0.857    5.714    2.143    0.000    2.857 
#    2.571    0.000    0.000    0.000    0.000    0.000 
#    0.000    0.000    0.000    0.000    0.000    0.000 
#
# Total GULP energy -78325.477291 kJ/mol
# GULP energy per Si atom -5594.676949 kJ/mol
# Density = 2.394987 g / cm^3
# Si number density = 24.004508 Si / 1000 Ang^3
#
#
#
# Elastic Constant Matrix: (Units=GPa)
#
#
# Indices 1 2 3 4 5 6 
#
# 1 91.5424 22.7235 16.5064 -4.5297 9.8136 -10.8326
# 2 22.7235 50.5095 8.4040 3.0569 5.8173 -13.3429
# 3 16.5064 8.4040 67.4476 -0.8776 11.6614 -7.1601
# 4 -4.5297 3.0569 -0.8776 38.5128 -9.0965 7.1041
# 5 9.8136 5.8173 11.6614 -9.0965 54.4613 3.8583
# 6 -10.8326 -13.3429 -7.1601 7.1041 3.8583 40.4565
#
#
#
# Elastic Compliance Matrix: (Units=1/GPa)
#
#
# Indices 1 2 3 4 5 6 
#
# 1 0.012917 -0.005056 -0.002172 0.001354 -0.001187 0.001282
# 2 -0.005056 0.024874 -0.000575 -0.004734 -0.002970 0.007863
# 3 -0.002172 -0.000575 0.016284 -0.001130 -0.003409 0.002634
# 4 0.001354 -0.004734 -0.001130 0.029169 0.005877 -0.007081
# 5 -0.001187 -0.002970 -0.003409 0.005877 0.020954 -0.004931
# 6 0.001282 0.007863 0.002634 -0.007081 -0.004931 0.029834
#
#
# Mechanical properties :
#
#
# Convention : Reuss Voigt Hill
#
# Bulk Modulus (GPa) = 25.99582 33.86302 29.92942
# Shear Modulus (GPa) = 30.77644 37.47718 34.12681
#
# Velocity S-wave (km/s) = 3.58454 3.95556 3.77461
# Velocity P-wave (km/s) = 5.29008 5.91604 5.61180
#
# Compressibility (1/GPa) = 0.03846772
#
# Stress axis : x y z
#
# Youngs Moduli (GPa) = 77.41978 40.20201 61.41012
#
# Poissons Ratio (x) = 0.20327 0.13339
# Poissons Ratio (y) = 0.39145 0.03533
# Poissons Ratio (z) = 0.16817 0.02313
#
# Static dielectric constant tensor:
#      x y z
#    x 1.919620 -0.021770 -0.035350 
#    y -0.021770 1.890240 -0.006570 
#    z -0.035350 -0.006570 1.976540 
# 
# From -- ./inp_files/224414.got.cif
#   From: 2010.05.17/outbox.cif.g08.bks.cpg/sg2_113_cif.got.tgz:224414.got - 2010.06.03 11:33:40.
