data_PCOD9058225
_publ_section_title
;
Structure prediction by ZEFSAII (Michael W. Deem and Ramdas Pophale) SiO2 
 PCOD9058225
Probable space group: P -1
;
_chemical_formula_sum "Si O2"
_cell_formula_units_Z 16
_cell_length_a 9.130194
_cell_length_b 12.073750
_cell_length_c 9.588218
_cell_angle_alpha 59.604909
_cell_angle_beta 111.505303
_cell_angle_gamma 121.591617
_cell_volume 769.131005
_symmetry_space_group_name_H-M "P -1"
_symmetry_group_IT_number 2
_symmetry_cell_setting 'triclinic'
loop_
_space_group_symop_operation_xyz
x,y,z
-x,-y,-z
loop_
_atom_site_type_symbol
_atom_site_label
_atom_site_fract_x
_atom_site_fract_y
_atom_site_fract_z
Si Si1 0.473141 0.267812 0.522631
Si Si2 0.953087 0.061909 0.583330
Si Si3 0.501740 0.263875 0.042066
Si Si4 0.615911 0.046912 0.371113
Si Si5 0.246099 0.245439 0.199560
Si Si6 0.820041 0.475044 0.377692
Si Si7 0.705486 0.716426 0.288970
Si Si8 0.853596 0.514105 0.033245
O O1 0.336522 0.282458 0.357721
O O2 0.662181 0.336685 0.473978
O O3 0.445982 0.332310 0.616389
O O4 0.415576 0.099374 0.624143
O O5 0.814058 0.119568 0.447802
O O6 0.121192 0.173796 0.645420
O O7 0.853777 0.924222 0.732983
O O8 0.000000 0.000000 0.500000
O O9 0.564186 0.147893 0.193322
O O10 0.402313 0.297709 0.112184
O O11 0.668788 0.406556 0.974559
O O12 0.365887 0.215771 0.899882
O O13 0.500000 0.000000 0.500000
O O14 0.128569 0.326688 0.076046
O O15 0.754484 0.596319 0.316281
O O16 0.846267 0.474852 0.219884
O O17 0.000000 0.500000 0.500000
O O18 0.000000 0.500000 0.000000
#
# Coordination Sequence:
#
# PCOD9058225 Si02
#       8
#     2   2   2   2   2   2   2   2
#     4  11  24  46  72  97 138 187 229 278 351 420
#     4  11  24  45  72 103 136 184 233 280 345 419
#     4  12  25  46  72 102 142 183 229 291 347 413
#     4  11  22  44  74  99 131 190 232 276 345 418
#     4  11  22  47  72  93 135 192 228 274 354 417
#     4  12  28  45  69 103 141 182 235 293 342 413
#     4  12  27  45  71 107 141 181 232 288 351 410
#     4  12  28  45  70 103 139 184 234 290 350 409
#
# _framework density 20.802697999999999
#
# number of rings (size 3 to 8) (size 9 to 14) (size 15 to 20)
#    0.000    0.500    7.500    1.500    8.750    1.000 
#    2.250    0.000    0.000    0.000    0.000    0.000 
#    0.000    0.000    0.000    0.000    0.000    0.000 
#
# Total GULP energy -89464.586539 kJ/mol
# GULP energy per Si atom -5591.536659 kJ/mol
# Density = 2.075535 g / cm^3
# Si number density = 20.802698 Si / 1000 Ang^3
#
#
#
# Elastic Constant Matrix: (Units=GPa)
#
#
# Indices 1 2 3 4 5 6 
#
# 1 119.1497 22.2209 42.0417 9.8695 -3.1489 -16.4697
# 2 22.2209 70.5926 29.9720 4.0663 9.7858 1.0821
# 3 42.0417 29.9720 112.0149 13.6707 19.7550 -12.5936
# 4 9.8695 4.0663 13.6707 28.4135 0.3003 7.2374
# 5 -3.1489 9.7858 19.7550 0.3003 41.0786 1.8121
# 6 -16.4697 1.0821 -12.5936 7.2374 1.8121 33.6556
#
#
#
# Elastic Compliance Matrix: (Units=1/GPa)
#
#
# Indices 1 2 3 4 5 6 
#
# 1 0.010906 -0.002428 -0.002962 -0.003284 0.002648 0.004870
# 2 -0.002428 0.016793 -0.003665 0.001043 -0.002290 -0.003200
# 3 -0.002962 -0.003665 0.013440 -0.006214 -0.006008 0.005357
# 4 -0.003284 0.001043 -0.006214 0.042524 0.002762 -0.013259
# 5 0.002648 -0.002290 -0.006008 0.002762 0.028093 -0.002985
# 6 0.004870 -0.003200 0.005357 -0.013259 -0.002985 0.037216
#
#
# Mechanical properties :
#
#
# Convention : Reuss Voigt Hill
#
# Bulk Modulus (GPa) = 43.42505 54.46961 48.94733
# Shear Modulus (GPa) = 28.61093 34.46437 31.53765
#
# Velocity S-wave (km/s) = 3.71259 4.07471 3.89786
# Velocity P-wave (km/s) = 6.26880 6.95546 6.62103
#
# Compressibility (1/GPa) = 0.02302818
#
# Stress axis : x y z
#
# Youngs Moduli (GPa) = 91.69236 59.54986 74.40335
#
# Poissons Ratio (x) = 0.14458 0.22041
# Poissons Ratio (y) = 0.22261 0.27270
# Poissons Ratio (z) = 0.27163 0.21826
#
# Static dielectric constant tensor:
#      x y z
#    x 1.760120 0.012320 -0.028870 
#    y 0.012320 1.801000 -0.057300 
#    z -0.028870 -0.057300 1.818280 
# 
# From -- ./inp_files/185269.got.cif
#   From: 2010.05.17/outbox.cif.g08.bks.cpg/sg2_93_cif.got.tgz:185269.got - 2010.06.03 11:33:40.
