data_PCOD9058714
_publ_section_title
;
Structure prediction by ZEFSAII (Michael W. Deem and Ramdas Pophale) SiO2 
 PCOD9058714
Probable space group: P -1
;
_chemical_formula_sum "Si O2"
_cell_formula_units_Z 16
_cell_length_a 9.378196
_cell_length_b 23.244640
_cell_length_c 9.523002
_cell_angle_alpha 40.219813
_cell_angle_beta 91.319895
_cell_angle_gamma 124.226993
_cell_volume 718.638010
_symmetry_space_group_name_H-M "P -1"
_symmetry_group_IT_number 2
_symmetry_cell_setting 'triclinic'
loop_
_space_group_symop_operation_xyz
x,y,z
-x,-y,-z
loop_
_atom_site_type_symbol
_atom_site_label
_atom_site_fract_x
_atom_site_fract_y
_atom_site_fract_z
Si Si1 0.907176 0.084247 0.161145
Si Si2 0.025030 0.637459 0.095474
Si Si3 0.034821 0.799456 0.574439
Si Si4 0.653676 0.757484 0.727001
Si Si5 0.780256 0.160175 0.784700
Si Si6 0.429433 0.089180 0.241209
Si Si7 0.464113 0.316651 0.811120
Si Si8 0.934749 0.509751 0.831713
O O1 0.789131 0.926259 0.405408
O O2 0.790944 0.036127 0.405563
O O3 0.809676 0.110747 0.008870
O O4 0.226237 0.244557 0.866019
O O5 0.762096 0.501291 0.437644
O O6 0.064616 0.563654 0.154998
O O7 0.978746 0.684827 0.883977
O O8 0.291276 0.792547 0.904144
O O9 0.026584 0.769677 0.467852
O O10 0.839933 0.779134 0.632266
O O11 0.322146 0.981277 0.304557
O O12 0.602533 0.710676 0.976288
O O13 0.360896 0.608072 0.936326
O O14 0.861887 0.304512 0.547726
O O15 0.500000 0.000000 0.000000
O O16 0.443275 0.200497 0.994997
O O17 0.000000 0.500000 0.000000
#
# Coordination Sequence:
#
# PCOD9058714 Si02
#       8
#     2   2   2   2   2   2   2   2
#     4  11  22  47  73 105 145 190 238 294 364 428
#     4  12  26  43  75 108 145 186 248 299 359 424
#     4  12  26  46  73 108 144 191 241 297 365 431
#     4  11  24  46  75 101 150 189 237 299 364 429
#     4  12  29  46  73 108 143 191 249 295 361 434
#     4  11  22  48  73 105 143 195 235 298 356 432
#     4  11  23  43  72 112 142 186 242 299 366 419
#     4  12  26  49  71  98 147 198 234 297 362 432
#
# _framework density 22.264341000000002
#
# number of rings (size 3 to 8) (size 9 to 14) (size 15 to 20)
#    0.000    0.500    6.250    3.000    3.500    3.500 
#    0.000    0.000    0.000    0.000    0.000    0.000 
#    0.000    0.000    0.000    0.000    0.000    0.000 
#
# Total GULP energy -89632.281826 kJ/mol
# GULP energy per Si atom -5602.017614 kJ/mol
# Density = 2.221367 g / cm^3
# Si number density = 22.264341 Si / 1000 Ang^3
#
#
#
# Elastic Constant Matrix: (Units=GPa)
#
#
# Indices 1 2 3 4 5 6 
#
# 1 117.2245 31.6064 42.9557 -13.2518 8.5604 19.5113
# 2 31.6064 83.0297 -0.7921 -15.5471 -40.4107 6.6216
# 3 42.9557 -0.7921 99.1764 -6.9624 46.6117 20.5721
# 4 -13.2518 -15.5471 -6.9624 30.0756 20.2285 -1.2323
# 5 8.5604 -40.4107 46.6117 20.2285 197.9287 24.7530
# 6 19.5113 6.6216 20.5721 -1.2323 24.7530 58.8730
#
#
#
# Elastic Compliance Matrix: (Units=1/GPa)
#
#
# Indices 1 2 3 4 5 6 
#
# 1 0.011862 -0.004166 -0.004521 0.002162 -0.000306 -0.001709
# 2 -0.004166 0.016119 0.001308 0.004745 0.002931 -0.002022
# 3 -0.004521 0.001308 0.014204 0.003895 -0.002997 -0.002271
# 4 0.002162 0.004745 0.003895 0.040357 -0.004165 -0.000016
# 5 -0.000306 0.002931 -0.002997 -0.004165 0.007076 -0.002243
# 6 -0.001709 -0.002022 -0.002271 -0.000016 -0.002243 0.019516
#
#
# Mechanical properties :
#
#
# Convention : Reuss Voigt Hill
#
# Bulk Modulus (GPa) = 36.45980 49.66338 43.06159
# Shear Modulus (GPa) = 37.58449 72.41951 55.00200
#
# Velocity S-wave (km/s) = 4.11311 5.70944 4.97571
# Velocity P-wave (km/s) = 6.24246 8.11285 7.23832
#
# Compressibility (1/GPa) = 0.02742747
#
# Stress axis : x y z
#
# Youngs Moduli (GPa) = 84.30440 62.03986 70.40097
#
# Poissons Ratio (x) = 0.25848 0.31826
# Poissons Ratio (y) = 0.35125 -0.09211
# Poissons Ratio (z) = 0.38111 -0.08117
#
# Static dielectric constant tensor:
#      x y z
#    x 1.814240 -0.004470 -0.016440 
#    y -0.004470 1.832570 -0.029200 
#    z -0.016440 -0.029200 1.824930 
# 
# From -- ./inp_files/225976.got.cif
#   From: 2010.05.17/outbox.cif.g08.bks.cpg/sg2_113_cif.got.tgz:225976.got - 2010.06.03 11:33:40.
