data_PCOD9058220
_publ_section_title
;
Structure prediction by ZEFSAII (Michael W. Deem and Ramdas Pophale) SiO2 
 PCOD9058220
Probable space group: P -1
;
_chemical_formula_sum "Si O2"
_cell_formula_units_Z 14
_cell_length_a 14.549267
_cell_length_b 23.336674
_cell_length_c 5.749015
_cell_angle_alpha 84.693371
_cell_angle_beta 94.143442
_cell_angle_gamma 19.502007
_cell_volume 569.349403
_symmetry_space_group_name_H-M "P -1"
_symmetry_group_IT_number 2
_symmetry_cell_setting 'triclinic'
loop_
_space_group_symop_operation_xyz
x,y,z
-x,-y,-z
loop_
_atom_site_type_symbol
_atom_site_label
_atom_site_fract_x
_atom_site_fract_y
_atom_site_fract_z
Si Si1 0.492796 0.092013 0.886473
Si Si2 0.805390 0.491151 0.573022
Si Si3 0.349661 0.793614 0.744012
Si Si4 0.848702 0.875528 0.530066
Si Si5 0.942506 0.140510 0.210983
Si Si6 0.526704 0.761809 0.187230
Si Si7 0.515663 0.548719 0.336012
O O1 0.389723 0.221466 0.824545
O O2 0.158601 0.259494 0.753321
O O3 0.659143 0.982333 0.703275
O O4 0.667558 0.975940 0.210598
O O5 0.668739 0.603773 0.732146
O O6 0.768065 0.565329 0.350335
O O7 0.572288 0.576128 0.461834
O O8 0.337871 0.737371 0.875453
O O9 0.349818 0.846226 0.896560
O O10 0.000000 0.000000 0.500000
O O11 0.979148 0.863342 0.567040
O O12 0.163023 0.649686 0.679523
O O13 0.811352 0.257437 0.933937
O O14 0.264284 0.918053 0.281399
O O15 0.500000 0.500000 0.500000
#
# Coordination Sequence:
#
# PCOD9058220 Si02
#       7
#     2   2   2   2   2   2   2
#     4  11  28  48  74 103 147 195 246 291 360 432
#     4  12  27  44  71 107 140 194 237 297 362 438
#     4  12  22  38  69 106 147 179 231 294 370 436
#     4  11  26  49  73 104 145 197 245 300 349 425
#     4  11  22  44  74 106 145 184 236 304 376 428
#     4  11  23  44  67 106 146 183 233 297 366 439
#     4  12  25  47  75 106 144 188 247 305 363 423
#
# _framework density 24.589472000000001
#
# number of rings (size 3 to 8) (size 9 to 14) (size 15 to 20)
#    0.000    0.571    2.857    5.571    4.000    2.857 
#    0.000    0.000    0.000    0.000    0.000    0.000 
#    0.000    0.000    0.000    0.000    0.000    0.000 
#
# Total GULP energy -78095.523755 kJ/mol
# GULP energy per Si atom -5578.251697 kJ/mol
# Density = 2.453351 g / cm^3
# Si number density = 24.589472 Si / 1000 Ang^3
#
#
#
# Elastic Constant Matrix: (Units=GPa)
#
#
# Indices 1 2 3 4 5 6 
#
# 1 49.7402 8.8874 18.4687 -1.9727 -0.0558 6.3074
# 2 8.8874 94.0631 32.5503 -1.5720 10.7135 10.9674
# 3 18.4687 32.5503 102.8126 -7.3192 9.8413 2.1612
# 4 -1.9727 -1.5720 -7.3192 35.4803 0.6054 3.5813
# 5 -0.0558 10.7135 9.8413 0.6054 26.7272 -3.7568
# 6 6.3074 10.9674 2.1612 3.5813 -3.7568 38.2044
#
#
#
# Elastic Compliance Matrix: (Units=1/GPa)
#
#
# Indices 1 2 3 4 5 6 
#
# 1 0.022043 -0.000517 -0.003789 0.000727 0.001178 -0.003229
# 2 -0.000517 0.012832 -0.003444 0.000295 -0.004427 -0.003866
# 3 -0.003789 -0.003444 0.011925 0.002103 -0.003003 0.000447
# 4 0.000727 0.000295 0.002103 0.029033 -0.002004 -0.003242
# 5 0.001178 -0.004427 -0.003003 -0.002004 0.041113 0.005477
# 6 -0.003229 -0.003866 0.000447 -0.003242 0.005477 0.028635
#
#
# Mechanical properties :
#
#
# Convention : Reuss Voigt Hill
#
# Bulk Modulus (GPa) = 31.94848 40.71430 36.33139
# Shear Modulus (GPa) = 29.15198 32.52968 30.84083
#
# Velocity S-wave (km/s) = 3.44691 3.64113 3.54535
# Velocity P-wave (km/s) = 5.37239 5.85412 5.61842
#
# Compressibility (1/GPa) = 0.03130040
#
# Stress axis : x y z
#
# Youngs Moduli (GPa) = 45.36512 77.93273 83.85658
#
# Poissons Ratio (x) = 0.04030 0.31775
# Poissons Ratio (y) = 0.02346 0.28876
# Poissons Ratio (z) = 0.17190 0.26837
#
# Static dielectric constant tensor:
#      x y z
#    x 2.368150 -0.069400 -0.316380 
#    y -0.069400 1.917730 0.073730 
#    z -0.316380 0.073730 2.148400 
# 
# From -- ./inp_files/97131.got.cif
#   From: 2010.05.17/outbox.cif.g08.bks.cpg/sg2_49_cif.got.tgz:97131.got - 2010.06.03 11:33:40.
