data_PCOD9058563
_publ_section_title
;
Structure prediction by ZEFSAII (Michael W. Deem and Ramdas Pophale) SiO2 
 PCOD9058563
Probable space group: P -1
;
_chemical_formula_sum "Si O2"
_cell_formula_units_Z 14
_cell_length_a 33.167978
_cell_length_b 9.610728
_cell_length_c 6.812877
_cell_angle_alpha 50.954019
_cell_angle_beta 39.827486
_cell_angle_gamma 27.407471
_cell_volume 630.301637
_symmetry_space_group_name_H-M "P -1"
_symmetry_group_IT_number 2
_symmetry_cell_setting 'triclinic'
loop_
_space_group_symop_operation_xyz
x,y,z
-x,-y,-z
loop_
_atom_site_type_symbol
_atom_site_label
_atom_site_fract_x
_atom_site_fract_y
_atom_site_fract_z
Si Si1 0.619910 0.781054 0.788358
Si Si2 0.800387 0.297376 0.798575
Si Si3 0.667699 0.160883 0.704376
Si Si4 0.481651 0.628040 0.244614
Si Si5 0.251315 0.378415 0.914384
Si Si6 0.899893 0.361611 0.091616
Si Si7 0.898882 0.716300 0.040082
O O1 0.686500 0.509389 0.936065
O O2 0.680199 0.669371 0.456863
O O3 0.601398 0.018248 0.740744
O O4 0.500000 0.000000 0.000000
O O5 0.832710 0.396093 0.465005
O O6 0.794839 0.376776 0.971855
O O7 0.881507 0.944910 0.791483
O O8 0.582350 0.358598 0.669898
O O9 0.785473 0.949846 0.376743
O O10 0.597621 0.418590 0.907997
O O11 0.683202 0.924970 0.944846
O O12 0.500000 0.500000 0.500000
O O13 0.163039 0.480300 0.019802
O O14 0.916798 0.511493 0.003272
O O15 0.000000 0.000000 0.000000
O O16 0.000000 0.500000 0.000000
#
# Coordination Sequence:
#
# PCOD9058563 Si02
#       7
#     2   2   2   2   2   2   2
#     4  11  25  40  66 107 144 183 235 298 357 423
#     4  11  26  48  70 104 145 185 243 291 362 433
#     4  11  24  43  71 101 137 190 241 285 357 435
#     4  11  23  42  69 101 138 189 236 286 358 426
#     4  11  22  46  71  95 145 189 234 291 358 425
#     4  11  26  48  74 100 136 189 237 295 359 424
#     4  12  28  48  74 108 145 190 242 302 364 426
#
# _framework density 22.211587000000002
#
# number of rings (size 3 to 8) (size 9 to 14) (size 15 to 20)
#    0.000    0.857    4.286    1.714    6.000    2.286 
#    2.571    0.000    0.000    0.000    0.000    0.000 
#    0.000    0.000    0.000    0.000    0.000    0.000 
#
# Total GULP energy -78215.820899 kJ/mol
# GULP energy per Si atom -5586.844350 kJ/mol
# Density = 2.216103 g / cm^3
# Si number density = 22.211587 Si / 1000 Ang^3
#
#
#
# Elastic Constant Matrix: (Units=GPa)
#
#
# Indices 1 2 3 4 5 6 
#
# 1 138.2639 58.9168 39.7841 -2.9027 17.8850 -18.7917
# 2 58.9168 137.3149 6.9401 -4.7419 9.3937 -3.8556
# 3 39.7841 6.9401 45.2077 16.0686 19.3215 2.0166
# 4 -2.9027 -4.7419 16.0686 46.9141 0.2297 2.0394
# 5 17.8850 9.3937 19.3215 0.2297 30.7677 0.9628
# 6 -18.7917 -3.8556 2.0166 2.0394 0.9628 47.8938
#
#
#
# Elastic Compliance Matrix: (Units=1/GPa)
#
#
# Indices 1 2 3 4 5 6 
#
# 1 0.014295 -0.005210 -0.014925 0.005217 0.002441 0.005547
# 2 -0.005210 0.009398 0.004699 -0.000908 -0.002741 -0.001392
# 3 -0.014925 0.004699 0.051813 -0.017795 -0.024963 -0.006400
# 4 0.005217 -0.000908 -0.017795 0.027541 0.008170 0.001386
# 5 0.002441 -0.002741 -0.024963 0.008170 0.047519 0.000485
# 6 0.005547 -0.001392 -0.006400 0.001386 0.000485 0.023144
#
#
# Mechanical properties :
#
#
# Convention : Reuss Voigt Hill
#
# Bulk Modulus (GPa) = 22.40548 59.11872 40.76210
# Shear Modulus (GPa) = 22.78311 39.45815 31.12063
#
# Velocity S-wave (km/s) = 3.20618 4.21939 3.74719
# Velocity P-wave (km/s) = 4.88009 7.10011 6.09208
#
# Compressibility (1/GPa) = 0.04463193
#
# Stress axis : x y z
#
# Youngs Moduli (GPa) = 69.95546 106.40991 19.30024
#
# Poissons Ratio (x) = 0.55441 0.28806
# Poissons Ratio (y) = 0.36448 -0.09069
# Poissons Ratio (z) = 1.04410 -0.49998
#
# Static dielectric constant tensor:
#      x y z
#    x 1.929730 0.027550 -0.053390 
#    y 0.027550 1.778840 0.052800 
#    z -0.053390 0.052800 1.855880 
# 
# From -- ./inp_files/40004.got.cif
#   From: 2010.05.17/outbox.cif.g08.bks.cpg/sg2_21_cif.got.tgz:40004.got - 2010.06.03 11:33:40.
