data_PCOD9058790
_publ_section_title
;
Structure prediction by ZEFSAII (Michael W. Deem and Ramdas Pophale) SiO2 
 PCOD9058790
Probable space group: P -1
;
_chemical_formula_sum "Si O2"
_cell_formula_units_Z 14
_cell_length_a 12.815446
_cell_length_b 13.030720
_cell_length_c 7.770969
_cell_angle_alpha 134.350284
_cell_angle_beta 129.358454
_cell_angle_gamma 39.072932
_cell_volume 572.732998
_symmetry_space_group_name_H-M "P -1"
_symmetry_group_IT_number 2
_symmetry_cell_setting 'triclinic'
loop_
_space_group_symop_operation_xyz
x,y,z
-x,-y,-z
loop_
_atom_site_type_symbol
_atom_site_label
_atom_site_fract_x
_atom_site_fract_y
_atom_site_fract_z
Si Si1 0.133676 0.813484 0.628618
Si Si2 0.594034 0.831470 0.021921
Si Si3 0.036662 0.321352 0.754154
Si Si4 0.215075 0.808682 0.163445
Si Si5 0.000663 0.670433 0.677104
Si Si6 0.697308 0.052451 0.915481
Si Si7 0.453131 0.430739 0.528935
O O1 0.292385 0.622333 0.655994
O O2 0.062554 0.744765 0.334546
O O3 0.230918 0.899602 0.792272
O O4 0.956042 0.993206 0.728784
O O5 0.764901 0.806019 0.201010
O O6 0.490691 0.867085 0.130498
O O7 0.612631 0.675381 0.746256
O O8 0.500000 0.000000 0.000000
O O9 0.986527 0.326822 0.511589
O O10 0.000000 0.500000 0.000000
O O11 0.275697 0.862665 0.122840
O O12 0.381778 0.694694 0.325265
O O13 0.140732 0.693753 0.923391
O O14 0.000000 0.500000 0.500000
O O15 0.821788 0.840731 0.764495
O O16 0.500000 0.500000 0.500000
#
# Coordination Sequence:
#
# PCOD9058790 Si02
#       7
#     2   2   2   2   2   2   2
#     4  11  22  50  79 112 150 209 268 310 388 475
#     4  12  29  49  73 117 158 206 259 332 407 465
#     4  12  25  47  75 106 162 194 254 326 390 469
#     4  11  25  52  84 111 160 210 268 333 382 474
#     4  11  26  46  78 119 153 210 262 325 403 462
#     4  11  24  52  80 108 157 209 269 325 389 476
#     4  12  27  49  79 119 158 208 268 319 396 484
#
# _framework density 24.444201
#
# number of rings (size 3 to 8) (size 9 to 14) (size 15 to 20)
#    0.000    0.571    5.714    1.714    4.000    1.714 
#    5.143    1.429    0.000    0.000    0.000    0.000 
#    0.000    0.000    0.000    0.000    0.000    0.000 
#
# Total GULP energy -78026.817220 kJ/mol
# GULP energy per Si atom -5573.344087 kJ/mol
# Density = 2.438857 g / cm^3
# Si number density = 24.444201 Si / 1000 Ang^3
#
#
#
# Elastic Constant Matrix: (Units=GPa)
#
#
# Indices 1 2 3 4 5 6 
#
# 1 58.8922 59.8204 15.7985 -10.8971 8.0861 -5.4095
# 2 59.8204 164.3588 62.4960 3.5161 5.2172 -6.1176
# 3 15.7985 62.4960 124.8186 14.0330 19.2489 9.5836
# 4 -10.8971 3.5161 14.0330 59.7935 -2.2450 12.7197
# 5 8.0861 5.2172 19.2489 -2.2450 34.5459 9.3898
# 6 -5.4095 -6.1176 9.5836 12.7197 9.3898 37.6055
#
#
#
# Elastic Compliance Matrix: (Units=1/GPa)
#
#
# Indices 1 2 3 4 5 6 
#
# 1 0.030331 -0.011776 0.002407 0.005005 -0.006840 0.001849
# 2 -0.011776 0.012283 -0.005054 -0.001864 0.003210 0.001421
# 3 0.002407 -0.005054 0.011470 -0.001912 -0.005973 -0.001261
# 4 0.005005 -0.001864 -0.001912 0.019715 0.003244 -0.006574
# 5 -0.006840 0.003210 -0.005973 0.003244 0.036059 -0.009040
# 6 0.001849 0.001421 -0.001261 -0.006574 -0.009040 0.031891
#
#
# Mechanical properties :
#
#
# Convention : Reuss Voigt Hill
#
# Bulk Modulus (GPa) = 39.62171 69.36660 54.49415
# Shear Modulus (GPa) = 27.93175 40.38595 34.15885
#
# Velocity S-wave (km/s) = 3.38401 4.06910 3.74227
# Velocity P-wave (km/s) = 5.61364 7.10745 6.40425
#
# Compressibility (1/GPa) = 0.02523869
#
# Stress axis : x y z
#
# Youngs Moduli (GPa) = 32.96986 81.41476 87.18094
#
# Poissons Ratio (x) = 0.95871 -0.20985
# Poissons Ratio (y) = 0.38824 0.44062
# Poissons Ratio (z) = -0.07936 0.41147
#
# Static dielectric constant tensor:
#      x y z
#    x 4.693680 0.439890 0.546750 
#    y 0.439890 1.988440 0.041180 
#    z 0.546750 0.041180 2.048410 
# 
# From -- ./inp_files/316108.got.cif
#   From: 2010.05.17/outbox.cif.g08.bks.cpg/sg2_159_cif.got.tgz:316108.got - 2010.06.03 11:33:40.
