data_PCOD9058238
_publ_section_title
;
Structure prediction by ZEFSAII (Michael W. Deem and Ramdas Pophale) SiO2 
 PCOD9058238
Probable space group: P -1
;
_chemical_formula_sum "Si O2"
_cell_formula_units_Z 16
_cell_length_a 7.950888
_cell_length_b 14.188846
_cell_length_c 8.379534
_cell_angle_alpha 100.466741
_cell_angle_beta 45.110968
_cell_angle_gamma 107.053282
_cell_volume 639.847575
_symmetry_space_group_name_H-M "P -1"
_symmetry_group_IT_number 2
_symmetry_cell_setting 'triclinic'
loop_
_space_group_symop_operation_xyz
x,y,z
-x,-y,-z
loop_
_atom_site_type_symbol
_atom_site_label
_atom_site_fract_x
_atom_site_fract_y
_atom_site_fract_z
Si Si1 0.851471 0.288621 0.425909
Si Si2 0.752466 0.576324 0.407152
Si Si3 0.319761 0.415507 0.185998
Si Si4 0.253210 0.688940 0.121246
Si Si5 0.318335 0.221534 0.616591
Si Si6 0.879919 0.864940 0.943133
Si Si7 0.735709 0.994440 0.448742
Si Si8 0.389360 0.900789 0.139356
O O1 0.804506 0.304704 0.648758
O O2 0.595599 0.262963 0.502681
O O3 0.065845 0.379372 0.252213
O O4 0.984311 0.201679 0.273929
O O5 0.500000 0.500000 0.500000
O O6 0.750171 0.550518 0.586098
O O7 0.727898 0.688295 0.426232
O O8 0.039197 0.599582 0.165591
O O9 0.500000 0.500000 0.000000
O O10 0.483342 0.335764 0.080985
O O11 0.261787 0.802046 0.096840
O O12 0.295529 0.118181 0.510478
O O13 0.156716 0.186518 0.873979
O O14 0.043379 0.971499 0.812104
O O15 0.611010 0.868436 0.069833
O O16 0.762058 0.062633 0.607642
O O17 0.500000 0.000000 0.500000
O O18 0.500000 0.000000 0.000000
#
# Coordination Sequence:
#
# PCOD9058238 Si02
#       8
#     2   2   2   2   2   2   2   2
#     4  11  22  44  76 100 140 183 245 286 353 429
#     4  11  31  48  71 109 146 182 240 305 360 423
#     4  11  27  48  80 101 136 192 238 297 362 425
#     4  11  24  50  69 105 142 186 241 287 361 429
#     4  12  26  44  72 105 150 190 236 302 357 419
#     4  12  22  43  70  99 143 192 241 282 359 418
#     4  12  24  43  67 108 140 190 239 287 350 429
#     4  12  27  41  69 104 147 189 237 293 354 427
#
# _framework density 25.005955
#
# number of rings (size 3 to 8) (size 9 to 14) (size 15 to 20)
#    0.000    0.500    6.250    0.375    8.750    3.000 
#    0.000    0.000    0.000    0.000    0.000    0.000 
#    0.000    0.000    0.000    0.000    0.000    0.000 
#
# Total GULP energy -89346.171103 kJ/mol
# GULP energy per Si atom -5584.135694 kJ/mol
# Density = 2.494904 g / cm^3
# Si number density = 25.005955 Si / 1000 Ang^3
#
#
#
# Elastic Constant Matrix: (Units=GPa)
#
#
# Indices 1 2 3 4 5 6 
#
# 1 57.9391 12.8629 11.0836 -15.0641 -16.4588 7.7210
# 2 12.8629 109.1851 15.7674 -42.2968 -1.2440 3.5325
# 3 11.0836 15.7674 95.8245 -30.8609 -7.6888 12.0453
# 4 -15.0641 -42.2968 -30.8609 60.0066 3.0030 -8.6642
# 5 -16.4588 -1.2440 -7.6888 3.0030 33.0169 -16.1341
# 6 7.7210 3.5325 12.0453 -8.6642 -16.1341 42.6121
#
#
#
# Elastic Compliance Matrix: (Units=1/GPa)
#
#
# Indices 1 2 3 4 5 6 
#
# 1 0.021529 -0.000706 -0.000234 0.004421 0.010850 0.001231
# 2 -0.000706 0.012710 0.000905 0.009350 -0.000198 0.000645
# 3 -0.000234 0.000905 0.012859 0.006871 0.001445 -0.001723
# 4 0.004421 0.009350 0.006871 0.028235 0.003282 0.003465
# 5 0.010850 -0.000198 0.001445 0.003282 0.042824 0.014524
# 6 0.001231 0.000645 -0.001723 0.003465 0.014524 0.029882
#
#
# Mechanical properties :
#
#
# Convention : Reuss Voigt Hill
#
# Bulk Modulus (GPa) = 21.26416 38.04184 29.65300
# Shear Modulus (GPa) = 30.52756 42.00943 36.26850
#
# Velocity S-wave (km/s) = 3.49780 4.10320 3.81254
# Velocity P-wave (km/s) = 4.98347 6.13958 5.59148
#
# Compressibility (1/GPa) = 0.04702748
#
# Stress axis : x y z
#
# Youngs Moduli (GPa) = 46.44948 78.67655 77.76370
#
# Poissons Ratio (x) = 0.05554 0.01821
# Poissons Ratio (y) = 0.03279 -0.07034
# Poissons Ratio (z) = 0.01088 -0.07117
#
# Static dielectric constant tensor:
#      x y z
#    x 2.037270 0.024840 -0.040340 
#    y 0.024840 2.294310 -0.026230 
#    z -0.040340 -0.026230 1.966490 
# 
# From -- ./inp_files/207488.got.cif
#   From: 2010.05.17/outbox.cif.g08.bks.cpg/sg2_104_cif.got.tgz:207488.got - 2010.06.03 11:33:40.
