data_PCOD9058663
_publ_section_title
;
Structure prediction by ZEFSAII (Michael W. Deem and Ramdas Pophale) SiO2 
 PCOD9058663
Probable space group: P -1
;
_chemical_formula_sum "Si O2"
_cell_formula_units_Z 12
_cell_length_a 8.135607
_cell_length_b 12.128168
_cell_length_c 8.965195
_cell_angle_alpha 46.672299
_cell_angle_beta 70.518558
_cell_angle_gamma 44.710201
_cell_volume 431.687384
_symmetry_space_group_name_H-M "P -1"
_symmetry_group_IT_number 2
_symmetry_cell_setting 'triclinic'
loop_
_space_group_symop_operation_xyz
x,y,z
-x,-y,-z
loop_
_atom_site_type_symbol
_atom_site_label
_atom_site_fract_x
_atom_site_fract_y
_atom_site_fract_z
Si Si1 0.299335 0.529907 0.129850
Si Si2 0.092781 0.473718 0.818580
Si Si3 0.044159 0.103445 0.514744
Si Si4 0.370005 0.273276 0.613411
Si Si5 0.153546 0.976572 0.124335
Si Si6 0.597059 0.075119 0.188769
O O1 0.395871 0.398187 0.377183
O O2 0.500000 0.500000 0.000000
O O3 0.144076 0.488701 0.140986
O O4 0.081931 0.778672 0.002215
O O5 0.029161 0.681708 0.700513
O O6 0.179465 0.419992 0.668219
O O7 0.324830 0.268381 0.031057
O O8 0.319078 0.936434 0.657343
O O9 0.878430 0.161730 0.653221
O O10 0.000000 0.000000 0.500000
O O11 0.322758 0.147157 0.655863
O O12 0.623424 0.085175 0.795246
O O13 0.241512 0.925248 0.976474
#
# Coordination Sequence:
#
# PCOD9058663 Si02
#       6
#     2   2   2   2   2   2
#     4  12  25  43  81 127 170 214 265 348 436 504
#     4  11  23  50  85 124 162 224 285 338 423 499
#     4  12  29  48  77 120 180 224 272 339 415 505
#     4  11  22  46  91 120 161 213 283 357 413 499
#     4  11  25  48  78 125 162 212 285 344 414 501
#     4  11  22  49  91 119 161 221 284 349 408 499
#
# _framework density 27.797892999999998
#
# number of rings (size 3 to 8) (size 9 to 14) (size 15 to 20)
#    0.000    0.667    5.000    3.000    2.333    4.667 
#    0.000    4.167    0.000    0.000    0.000    0.000 
#    0.000    0.667    0.000    0.000    0.000    0.000 
#
# Total GULP energy -67352.735435 kJ/mol
# GULP energy per Si atom -5612.727953 kJ/mol
# Density = 2.773462 g / cm^3
# Si number density = 27.797893 Si / 1000 Ang^3
#
#
#
# Elastic Constant Matrix: (Units=GPa)
#
#
# Indices 1 2 3 4 5 6 
#
# 1 191.7479 103.1739 92.5652 -10.9929 4.7951 13.2645
# 2 103.1739 151.9861 97.8303 9.9545 1.4217 -2.8474
# 3 92.5652 97.8303 208.7047 -1.7063 9.2265 5.4565
# 4 -10.9929 9.9545 -1.7063 59.8053 -5.4638 -8.6429
# 5 4.7951 1.4217 9.2265 -5.4638 71.0788 3.9958
# 6 13.2645 -2.8474 5.4565 -8.6429 3.9958 61.3480
#
#
#
# Elastic Compliance Matrix: (Units=1/GPa)
#
#
# Indices 1 2 3 4 5 6 
#
# 1 0.009073 -0.005432 -0.001411 0.002272 -0.000046 -0.001765
# 2 -0.005432 0.012877 -0.003706 -0.002983 0.000267 0.001664
# 3 -0.001411 -0.003706 0.007200 0.000441 -0.000709 -0.000399
# 4 0.002272 -0.002983 0.000441 0.018010 0.001133 0.001795
# 5 -0.000046 0.000267 -0.000709 0.001133 0.014284 -0.000685
# 6 -0.001765 0.001664 -0.000399 0.001795 -0.000685 0.017092
#
#
# Mechanical properties :
#
#
# Convention : Reuss Voigt Hill
#
# Bulk Modulus (GPa) = 124.21419 126.61971 125.41695
# Shear Modulus (GPa) = 48.86660 55.70438 52.28549
#
# Velocity S-wave (km/s) = 4.19731 4.48136 4.34166
# Velocity P-wave (km/s) = 8.26267 8.51033 8.38741
#
# Compressibility (1/GPa) = 0.00805061
#
# Stress axis : x y z
#
# Youngs Moduli (GPa) = 110.22061 77.65794 138.88951
#
# Poissons Ratio (x) = 0.42186 0.19595
# Poissons Ratio (y) = 0.59875 0.51479
# Poissons Ratio (z) = 0.15550 0.28784
#
# Static dielectric constant tensor:
#      x y z
#    x 2.249090 -0.007800 0.055180 
#    y -0.007800 2.159730 0.034910 
#    z 0.055180 0.034910 2.144880 
# 
# From -- ./inp_files/167093.got.cif
#   From: 2010.05.17/outbox.cif.g08.bks.cpg/sg2_84_cif.got.tgz:167093.got - 2010.06.03 11:33:40.
