data_PCOD9058697
_publ_section_title
;
Structure prediction by ZEFSAII (Michael W. Deem and Ramdas Pophale) SiO2 
 PCOD9058697
Probable space group: P -1
;
_chemical_formula_sum "Si O2"
_cell_formula_units_Z 16
_cell_length_a 15.042844
_cell_length_b 8.289629
_cell_length_c 14.854995
_cell_angle_alpha 67.818231
_cell_angle_beta 152.611087
_cell_angle_gamma 96.191805
_cell_volume 667.290806
_symmetry_space_group_name_H-M "P -1"
_symmetry_group_IT_number 2
_symmetry_cell_setting 'triclinic'
loop_
_space_group_symop_operation_xyz
x,y,z
-x,-y,-z
loop_
_atom_site_type_symbol
_atom_site_label
_atom_site_fract_x
_atom_site_fract_y
_atom_site_fract_z
Si Si1 0.492019 0.844024 0.121376
Si Si2 0.777110 0.148488 0.518613
Si Si3 0.932772 0.808683 0.607393
Si Si4 0.743684 0.689051 0.206648
Si Si5 0.258554 0.849891 0.090336
Si Si6 0.410284 0.504164 0.017970
Si Si7 0.105699 0.540202 0.997947
Si Si8 0.423067 0.079732 0.314288
O O1 0.732508 0.817345 0.369774
O O2 0.561288 0.721802 0.114888
O O3 0.300163 0.083522 0.881538
O O4 0.405390 0.788563 0.143666
O O5 0.627493 0.073360 0.447227
O O6 0.008716 0.054125 0.802231
O O7 0.854115 0.039488 0.513939
O O8 0.604673 0.386689 0.293149
O O9 0.176135 0.700210 0.800803
O O10 0.963471 0.691459 0.754614
O O11 0.681416 0.650610 0.059158
O O12 0.000000 0.500000 0.500000
O O13 0.358898 0.930690 0.238357
O O14 0.231238 0.655888 0.124141
O O15 0.500000 0.500000 0.000000
O O16 0.238854 0.321400 0.112571
O O17 0.000000 0.500000 0.000000
O O18 0.500000 0.000000 0.500000
#
# Coordination Sequence:
#
# PCOD9058697 Si02
#       8
#     2   2   2   2   2   2   2   2
#     4  11  24  44  69 105 148 205 256 315 388 458
#     4  11  25  48  69 108 158 196 260 323 379 465
#     4  11  22  47  71 101 153 200 253 329 381 450
#     4  11  24  41  66 104 149 199 258 315 379 451
#     4  11  27  49  80 111 154 209 252 315 407 462
#     4  12  26  41  68 106 149 204 259 320 384 458
#     4  11  27  49  77 115 153 196 262 324 387 469
#     4  12  25  50  81 112 157 198 253 328 392 468
#
# _framework density 23.977551999999999
#
# number of rings (size 3 to 8) (size 9 to 14) (size 15 to 20)
#    0.000    0.750    5.000    1.500    5.250    3.000 
#    2.250    0.000    0.000    0.000    0.000    0.000 
#    0.000    0.000    0.000    0.000    0.000    0.000 
#
# Total GULP energy -89391.450614 kJ/mol
# GULP energy per Si atom -5586.965663 kJ/mol
# Density = 2.392298 g / cm^3
# Si number density = 23.977552 Si / 1000 Ang^3
#
#
#
# Elastic Constant Matrix: (Units=GPa)
#
#
# Indices 1 2 3 4 5 6 
#
# 1 159.6753 63.9581 47.6066 1.6598 24.9868 5.5930
# 2 63.9581 106.9760 23.7724 -6.5387 2.5306 -24.5155
# 3 47.6066 23.7724 91.2116 -8.7901 17.2713 -8.7507
# 4 1.6598 -6.5387 -8.7901 48.0178 -10.6144 -1.9875
# 5 24.9868 2.5306 17.2713 -10.6144 43.5869 -2.9870
# 6 5.5930 -24.5155 -8.7507 -1.9875 -2.9870 50.3302
#
#
#
# Elastic Compliance Matrix: (Units=1/GPa)
#
#
# Indices 1 2 3 4 5 6 
#
# 1 0.011689 -0.007623 -0.003927 -0.003753 -0.006041 -0.006202
# 2 -0.007623 0.016108 0.000097 0.003956 0.004988 0.009162
# 3 -0.003927 0.000097 0.013960 0.002261 -0.002541 0.002849
# 4 -0.003753 0.003956 0.002261 0.023638 0.007063 0.004090
# 5 -0.006041 0.004988 -0.002541 0.007063 0.029163 0.004669
# 6 -0.006202 0.009162 0.002849 0.004090 0.004669 0.025955
#
#
# Mechanical properties :
#
#
# Convention : Reuss Voigt Hill
#
# Bulk Modulus (GPa) = 53.05171 69.83745 61.44458
# Shear Modulus (GPa) = 33.39962 43.22204 38.31083
#
# Velocity S-wave (km/s) = 3.73628 4.25031 4.00156
# Velocity P-wave (km/s) = 6.38644 7.29906 6.85795
#
# Compressibility (1/GPa) = 0.01884953
#
# Stress axis : x y z
#
# Youngs Moduli (GPa) = 85.55402 62.08175 71.63323
#
# Poissons Ratio (x) = 0.47327 0.28127
# Poissons Ratio (y) = 0.65221 -0.00691
# Poissons Ratio (z) = 0.33593 -0.00599
#
# Static dielectric constant tensor:
#      x y z
#    x 1.947620 0.117600 0.008960 
#    y 0.117600 2.237910 -0.066510 
#    z 0.008960 -0.066510 2.042690 
# 
# From -- ./inp_files/529569.got.cif
#   From: 2010.05.17/outbox.cif.g08.bks.cpg/sg2_265_cif.got.tgz:529569.got - 2010.06.03 11:33:40.
