data_PCOD9058984
_publ_section_title
;
Structure prediction by ZEFSAII (Michael W. Deem and Ramdas Pophale) SiO2 
 PCOD9058984
Probable space group: P -1
;
_chemical_formula_sum "Si O2"
_cell_formula_units_Z 16
_cell_length_a 9.443713
_cell_length_b 9.485688
_cell_length_c 13.482275
_cell_angle_alpha 70.550907
_cell_angle_beta 101.730798
_cell_angle_gamma 45.623762
_cell_volume 620.538914
_symmetry_space_group_name_H-M "P -1"
_symmetry_group_IT_number 2
_symmetry_cell_setting 'triclinic'
loop_
_space_group_symop_operation_xyz
x,y,z
-x,-y,-z
loop_
_atom_site_type_symbol
_atom_site_label
_atom_site_fract_x
_atom_site_fract_y
_atom_site_fract_z
Si Si1 0.621153 0.782102 0.162500
Si Si2 0.073735 0.756389 0.625664
Si Si3 0.310298 0.740836 0.837451
Si Si4 0.373151 0.238419 0.162322
Si Si5 0.606738 0.520254 0.427730
Si Si6 0.419910 0.960221 0.409446
Si Si7 0.124492 0.837765 0.161438
Si Si8 0.075563 0.269681 0.918503
O O1 0.788542 0.523788 0.308509
O O2 0.824382 0.669900 0.137851
O O3 0.500948 0.025856 0.146225
O O4 0.352413 0.946462 0.042457
O O5 0.241699 0.691639 0.749253
O O6 0.127741 0.770332 0.518586
O O7 0.802719 0.950430 0.592471
O O8 0.436843 0.782777 0.802594
O O9 0.500000 0.500000 0.000000
O O10 0.061895 0.982272 0.813495
O O11 0.351809 0.139671 0.272526
O O12 0.082885 0.560952 0.043104
O O13 0.500000 0.500000 0.500000
O O14 0.386375 0.691832 0.269630
O O15 0.608026 0.678924 0.447325
O O16 0.500000 0.000000 0.500000
O O17 0.128402 0.655154 0.189055
O O18 0.000000 0.000000 0.000000
#
# Coordination Sequence:
#
# PCOD9058984 Si02
#       8
#     2   2   2   2   2   2   2   2
#     4  11  23  42  69 107 146 199 244 309 375 459
#     4  12  26  51  77 110 155 199 266 319 386 471
#     4  12  26  44  77 116 157 206 257 317 393 471
#     4  12  25  46  72 107 151 201 258 310 388 458
#     4  12  29  51  81 113 154 205 262 327 399 466
#     4  12  30  51  76 108 151 205 265 326 393 461
#     4  12  25  48  74 113 158 201 256 322 388 473
#     4  11  23  39  69 105 152 192 245 305 379 447
#
# _framework density 25.784037999999999
#
# number of rings (size 3 to 8) (size 9 to 14) (size 15 to 20)
#    0.000    0.250    5.000    4.125    5.250    3.000 
#    0.000    0.000    0.000    0.000    0.000    0.000 
#    0.000    0.000    0.000    0.000    0.000    0.000 
#
# Total GULP energy -89392.636565 kJ/mol
# GULP energy per Si atom -5587.039785 kJ/mol
# Density = 2.572535 g / cm^3
# Si number density = 25.784038 Si / 1000 Ang^3
#
#
#
# Elastic Constant Matrix: (Units=GPa)
#
#
# Indices 1 2 3 4 5 6 
#
# 1 134.9908 42.1664 19.4365 26.4720 3.2748 -19.9169
# 2 42.1664 191.3615 19.0432 34.9402 18.6077 -26.9136
# 3 19.4365 19.0432 65.3720 29.2283 -5.0641 3.0871
# 4 26.4720 34.9402 29.2283 39.3194 1.2885 3.7620
# 5 3.2748 18.6077 -5.0641 1.2885 35.6020 10.2208
# 6 -19.9169 -26.9136 3.0871 3.7620 10.2208 57.6315
#
#
#
# Elastic Compliance Matrix: (Units=1/GPa)
#
#
# Indices 1 2 3 4 5 6 
#
# 1 0.009338 -0.000185 -0.000235 -0.006262 -0.001677 0.003859
# 2 -0.000185 0.007769 0.000493 -0.007450 -0.005120 0.004932
# 3 -0.000235 0.000493 0.023537 -0.017844 0.003943 -0.000646
# 4 -0.006262 -0.007450 -0.017844 0.050256 0.002529 -0.008417
# 5 -0.001677 -0.005120 0.003943 0.002529 0.034084 -0.009391
# 6 0.003859 0.004932 -0.000646 -0.008417 -0.009391 0.023238
#
#
# Mechanical properties :
#
#
# Convention : Reuss Voigt Hill
#
# Bulk Modulus (GPa) = 24.51492 61.44628 42.98060
# Shear Modulus (GPa) = 30.92668 47.24913 39.08791
#
# Velocity S-wave (km/s) = 3.46707 4.28541 3.89777
# Velocity P-wave (km/s) = 5.05528 6.95480 6.07968
#
# Compressibility (1/GPa) = 0.04079149
#
# Stress axis : x y z
#
# Youngs Moduli (GPa) = 107.09404 128.71335 42.48545
#
# Poissons Ratio (x) = 0.02380 0.00997
# Poissons Ratio (y) = 0.01981 -0.02096
# Poissons Ratio (z) = 0.02514 -0.06349
#
# Static dielectric constant tensor:
#      x y z
#    x 2.315490 -0.016490 -0.182230 
#    y -0.016490 2.153760 -0.069450 
#    z -0.182230 -0.069450 2.309060 
# 
# From -- ./inp_files/494920.got.cif
#   From: 2010.05.17/outbox.cif.g08.bks.cpg/sg2_248_cif.got.tgz:494920.got - 2010.06.03 11:33:40.
