data_PCOD9058528
_publ_section_title
;
Structure prediction by ZEFSAII (Michael W. Deem and Ramdas Pophale) SiO2 
 PCOD9058528
Probable space group: P -1
;
_chemical_formula_sum "Si O2"
_cell_formula_units_Z 16
_cell_length_a 9.393764
_cell_length_b 11.528833
_cell_length_c 21.217670
_cell_angle_alpha 43.820607
_cell_angle_beta 153.717587
_cell_angle_gamma 128.968517
_cell_volume 703.287457
_symmetry_space_group_name_H-M "P -1"
_symmetry_group_IT_number 2
_symmetry_cell_setting 'triclinic'
loop_
_space_group_symop_operation_xyz
x,y,z
-x,-y,-z
loop_
_atom_site_type_symbol
_atom_site_label
_atom_site_fract_x
_atom_site_fract_y
_atom_site_fract_z
Si Si1 0.318342 0.148158 0.289692
Si Si2 0.259632 0.488841 0.849345
Si Si3 0.032767 0.013858 0.341886
Si Si4 0.751072 0.660632 0.342876
Si Si5 0.178655 0.851885 0.669240
Si Si6 0.261966 0.756258 0.211935
Si Si7 0.612353 0.486292 0.856961
Si Si8 0.838574 0.935497 0.869081
O O1 0.619856 0.018410 0.473989
O O2 0.484309 0.321249 0.276011
O O3 0.102548 0.079062 0.175324
O O4 0.090115 0.151338 0.258247
O O5 0.052863 0.667177 0.688810
O O6 0.456758 0.449190 0.877966
O O7 0.007706 0.356539 0.822913
O O8 0.500000 0.500000 0.000000
O O9 0.917093 0.839092 0.337305
O O10 0.800527 0.084700 0.276033
O O11 0.563333 0.659256 0.336099
O O12 0.512016 0.635389 0.198823
O O13 0.000000 0.500000 0.500000
O O14 0.543183 0.816968 0.805082
O O15 0.000000 0.000000 0.500000
O O16 0.313783 0.886804 0.237175
O O17 0.118133 0.869288 0.051965
O O18 0.000000 0.500000 0.000000
#
# Coordination Sequence:
#
# PCOD9058528 Si02
#       8
#     2   2   2   2   2   2   2   2
#     4  11  23  44  67  99 136 183 231 285 354 426
#     4  12  25  45  72 106 138 187 248 298 356 433
#     4  11  25  42  70 101 135 185 233 285 358 428
#     4  12  26  47  69 102 149 185 235 301 367 425
#     4  12  23  44  73  97 137 187 239 294 354 422
#     4  11  26  44  71 105 138 192 238 301 359 432
#     4  12  26  45  70 103 146 185 230 297 361 426
#     4  11  22  46  69  96 145 179 240 296 359 418
#
# _framework density 22.750298000000001
#
# number of rings (size 3 to 8) (size 9 to 14) (size 15 to 20)
#    0.000    0.500    6.250    1.500    5.250    0.000 
#    0.000    2.500    0.000    0.000    0.000    0.000 
#    0.000    0.000    0.000    0.000    0.000    0.000 
#
# Total GULP energy -89359.444621 kJ/mol
# GULP energy per Si atom -5584.965289 kJ/mol
# Density = 2.269852 g / cm^3
# Si number density = 22.750298 Si / 1000 Ang^3
#
#
#
# Elastic Constant Matrix: (Units=GPa)
#
#
# Indices 1 2 3 4 5 6 
#
# 1 124.2754 42.1333 19.6505 -16.3928 -10.6526 4.9831
# 2 42.1333 110.5876 5.6589 4.8324 -9.5260 -7.7815
# 3 19.6505 5.6589 60.7259 -1.1541 0.6578 -6.9899
# 4 -16.3928 4.8324 -1.1541 25.0965 -4.7343 2.9439
# 5 -10.6526 -9.5260 0.6578 -4.7343 33.7759 1.7771
# 6 4.9831 -7.7815 -6.9899 2.9439 1.7771 39.9933
#
#
#
# Elastic Compliance Matrix: (Units=1/GPa)
#
#
# Indices 1 2 3 4 5 6 
#
# 1 0.012079 -0.004766 -0.003783 0.009884 0.004135 -0.004005
# 2 -0.004766 0.011357 0.000752 -0.005514 0.000738 0.003308
# 3 -0.003783 0.000752 0.018059 -0.002621 -0.001913 0.004052
# 4 0.009884 -0.005514 -0.002621 0.049730 0.008943 -0.006820
# 5 0.004135 0.000738 -0.001913 0.008943 0.032558 -0.002811
# 6 -0.004005 0.003308 0.004052 -0.006820 -0.002811 0.027482
#
#
# Mechanical properties :
#
#
# Convention : Reuss Voigt Hill
#
# Bulk Modulus (GPa) = 38.60730 47.83046 43.21888
# Shear Modulus (GPa) = 28.49115 34.98291 31.73703
#
# Velocity S-wave (km/s) = 3.54268 3.92559 3.73904
# Velocity P-wave (km/s) = 5.80870 6.45111 6.13831
#
# Compressibility (1/GPa) = 0.02590184
#
# Stress axis : x y z
#
# Youngs Moduli (GPa) = 82.78572 88.04889 55.37501
#
# Poissons Ratio (x) = 0.41965 0.20946
# Poissons Ratio (y) = 0.39456 -0.04164
# Poissons Ratio (z) = 0.31314 -0.06620
#
# Static dielectric constant tensor:
#      x y z
#    x 1.915860 0.035430 0.012610 
#    y 0.035430 1.846810 -0.020540 
#    z 0.012610 -0.020540 1.958960 
# 
# From -- ./inp_files/589520.got.cif
#   From: 2010.05.17/outbox.cif.g08.bks.cpg/sg2_295_cif.got.tgz:589520.got - 2010.06.03 11:33:40.
