data_PCOD9058098
_publ_section_title
;
Structure prediction by ZEFSAII (Michael W. Deem and Ramdas Pophale) SiO2 
 PCOD9058098
Probable space group: P -1
;
_chemical_formula_sum "Si O2"
_cell_formula_units_Z 16
_cell_length_a 9.073724
_cell_length_b 12.950094
_cell_length_c 9.346563
_cell_angle_alpha 75.971201
_cell_angle_beta 118.944751
_cell_angle_gamma 126.828364
_cell_volume 767.500328
_symmetry_space_group_name_H-M "P -1"
_symmetry_group_IT_number 2
_symmetry_cell_setting 'triclinic'
loop_
_space_group_symop_operation_xyz
x,y,z
-x,-y,-z
loop_
_atom_site_type_symbol
_atom_site_label
_atom_site_fract_x
_atom_site_fract_y
_atom_site_fract_z
Si Si1 0.227219 0.733425 0.664485
Si Si2 0.854163 0.731251 0.384135
Si Si3 0.704817 0.437641 0.451643
Si Si4 0.839610 0.880130 0.561682
Si Si5 0.626536 0.962520 0.661067
Si Si6 0.960390 0.867362 0.092242
Si Si7 0.234467 0.299902 0.208199
Si Si8 0.069537 0.456339 0.182733
O O1 0.207313 0.625088 0.584871
O O2 0.465539 0.848318 0.729418
O O3 0.084356 0.779935 0.527171
O O4 0.132517 0.662458 0.793527
O O5 0.759756 0.578569 0.381154
O O6 0.741868 0.762558 0.440592
O O7 0.866180 0.809241 0.223615
O O8 0.460203 0.346436 0.347365
O O9 0.794998 0.452760 0.649140
O O10 0.722000 0.918052 0.600081
O O11 0.928967 0.828254 0.734777
O O12 0.000000 0.000000 0.500000
O O13 0.500000 0.000000 0.500000
O O14 0.805626 0.084330 0.791519
O O15 0.818518 0.749534 0.960265
O O16 0.000000 0.000000 0.000000
O O17 0.201738 0.408833 0.194926
O O18 0.000000 0.500000 0.000000
#
# Coordination Sequence:
#
# PCOD9058098 Si02
#       8
#     2   2   2   2   2   2   2   2
#     4  11  22  44  71 100 136 181 225 275 347 411
#     4  11  23  41  72  99 135 180 228 277 340 409
#     4  11  24  45  71  98 133 186 226 271 350 414
#     4  12  21  43  71  99 128 183 229 276 335 406
#     4  12  24  43  73  98 135 181 231 277 343 405
#     4  12  24  43  65 100 136 176 227 281 335 395
#     4  12  25  44  67  96 141 178 227 279 338 406
#     4  11  26  44  68 103 138 171 228 287 337 395
#
# _framework density 20.846896000000001
#
# number of rings (size 3 to 8) (size 9 to 14) (size 15 to 20)
#    0.000    0.500    7.500    1.875    3.500    0.500 
#    2.250    1.875    0.000    0.000    0.000    0.000 
#    0.000    0.000    0.000    0.000    0.000    0.000 
#
# Total GULP energy -89124.922702 kJ/mol
# GULP energy per Si atom -5570.307669 kJ/mol
# Density = 2.079945 g / cm^3
# Si number density = 20.846896 Si / 1000 Ang^3
#
#
#
# Elastic Constant Matrix: (Units=GPa)
#
#
# Indices 1 2 3 4 5 6 
#
# 1 95.4260 17.7322 44.6229 2.1246 -9.4245 2.7911
# 2 17.7322 55.4508 24.6687 -1.4308 -1.7584 3.5649
# 3 44.6229 24.6687 130.9451 -15.6278 -12.2202 7.2876
# 4 2.1246 -1.4308 -15.6278 40.9596 2.9453 4.0663
# 5 -9.4245 -1.7584 -12.2202 2.9453 33.4405 -1.6372
# 6 2.7911 3.5649 7.2876 4.0663 -1.6372 43.0529
#
#
#
# Elastic Compliance Matrix: (Units=1/GPa)
#
#
# Indices 1 2 3 4 5 6 
#
# 1 0.013128 -0.002375 -0.004136 -0.002545 0.002306 0.000374
# 2 -0.002375 0.020177 -0.003026 -0.000172 -0.000749 -0.001017
# 3 -0.004136 -0.003026 0.010378 0.004076 0.002033 -0.001546
# 4 -0.002545 -0.000172 0.004076 0.026525 -0.001724 -0.003082
# 5 0.002306 -0.000749 0.002033 -0.001724 0.031455 0.000927
# 6 0.000374 -0.001017 -0.001546 -0.003082 0.000927 0.023875
#
#
# Mechanical properties :
#
#
# Convention : Reuss Voigt Hill
#
# Bulk Modulus (GPa) = 40.63226 50.65217 45.64222
# Shear Modulus (GPa) = 32.71960 36.47714 34.59837
#
# Velocity S-wave (km/s) = 3.96601 4.18756 4.07829
# Velocity P-wave (km/s) = 6.36439 6.90875 6.64215
#
# Compressibility (1/GPa) = 0.02461098
#
# Stress axis : x y z
#
# Youngs Moduli (GPa) = 76.17317 49.56233 96.35492
#
# Poissons Ratio (x) = 0.11770 0.39848
# Poissons Ratio (y) = 0.18090 0.29153
# Poissons Ratio (z) = 0.31502 0.14995
#
# Static dielectric constant tensor:
#      x y z
#    x 1.785640 0.049190 -0.010870 
#    y 0.049190 1.830610 0.013170 
#    z -0.010870 0.013170 1.769340 
# 
# From -- ./inp_files/186951.got.cif
#   From: 2010.05.17/outbox.cif.g08.bks.cpg/sg2_94_cif.got.tgz:186951.got - 2010.06.03 11:33:40.
