data_PCOD9058523
_publ_section_title
;
Structure prediction by ZEFSAII (Michael W. Deem and Ramdas Pophale) SiO2 
 PCOD9058523
Probable space group: P -1
;
_chemical_formula_sum "Si O2"
_cell_formula_units_Z 16
_cell_length_a 7.503714
_cell_length_b 9.319233
_cell_length_c 16.112181
_cell_angle_alpha 57.198768
_cell_angle_beta 98.591646
_cell_angle_gamma 130.192774
_cell_volume 687.365444
_symmetry_space_group_name_H-M "P -1"
_symmetry_group_IT_number 2
_symmetry_cell_setting 'triclinic'
loop_
_space_group_symop_operation_xyz
x,y,z
-x,-y,-z
loop_
_atom_site_type_symbol
_atom_site_label
_atom_site_fract_x
_atom_site_fract_y
_atom_site_fract_z
Si Si1 0.694454 0.816140 0.543752
Si Si2 0.616338 0.270295 0.609721
Si Si3 0.535555 0.841777 0.096556
Si Si4 0.013670 0.307249 0.044626
Si Si5 0.287599 0.049120 0.327241
Si Si6 0.085445 0.906298 0.730921
Si Si7 0.179092 0.447283 0.314693
Si Si8 0.415817 0.476592 0.904904
O O1 0.512962 0.727313 0.481146
O O2 0.638901 0.910710 0.583679
O O3 0.640342 0.599496 0.651067
O O4 0.000000 0.000000 0.500000
O O5 0.826336 0.500135 0.606175
O O6 0.712693 0.142736 0.642765
O O7 0.373770 0.098244 0.703797
O O8 0.306498 0.665529 0.196360
O O9 0.575771 0.699070 0.087266
O O10 0.780346 0.036564 0.102538
O O11 0.500000 0.000000 0.000000
O O12 0.084212 0.284186 0.149170
O O13 0.000000 0.500000 0.000000
O O14 0.146076 0.366908 0.947071
O O15 0.025702 0.977486 0.327086
O O16 0.461697 0.287375 0.210587
O O17 0.048978 0.768315 0.687746
O O18 0.500000 0.500000 0.000000
#
# Coordination Sequence:
#
# PCOD9058523 Si02
#       8
#     2   2   2   2   2   2   2   2
#     4  11  22  47  76  93 142 186 224 296 356 399
#     4  12  24  43  76 100 134 188 229 284 361 407
#     4  12  25  42  69 102 140 183 237 281 341 427
#     4  12  24  42  68 101 139 189 231 282 352 411
#     4  11  24  43  71 103 136 179 236 286 347 422
#     4  11  22  46  68  99 145 177 225 291 341 409
#     4  11  23  43  71 103 137 180 233 285 347 420
#     4  12  23  42  67  96 142 181 228 290 343 414
#
# _framework density 23.277283000000001
#
# number of rings (size 3 to 8) (size 9 to 14) (size 15 to 20)
#    0.000    0.500    7.500    3.375    1.750    0.000 
#    0.000    4.375    0.000    0.000    0.000    0.000 
#    0.000    0.000    0.000    0.000    0.000    0.000 
#
# Total GULP energy -89089.788766 kJ/mol
# GULP energy per Si atom -5568.111798 kJ/mol
# Density = 2.322430 g / cm^3
# Si number density = 23.277283 Si / 1000 Ang^3
#
#
#
# Elastic Constant Matrix: (Units=GPa)
#
#
# Indices 1 2 3 4 5 6 
#
# 1 42.6951 5.8034 0.8094 6.4955 13.2260 -15.5574
# 2 5.8034 87.6286 2.8464 13.1612 13.4527 4.9146
# 3 0.8094 2.8464 81.3272 19.2148 12.4113 0.8124
# 4 6.4955 13.1612 19.2148 33.4258 -3.8443 0.6910
# 5 13.2260 13.4527 12.4113 -3.8443 31.2966 -7.7953
# 6 -15.5574 4.9146 0.8124 0.6910 -7.7953 21.3372
#
#
#
# Elastic Compliance Matrix: (Units=1/GPa)
#
#
# Indices 1 2 3 4 5 6 
#
# 1 0.037521 -0.000123 0.004167 -0.011628 -0.013211 0.022777
# 2 -0.000123 0.014575 0.003151 -0.008562 -0.010268 -0.007041
# 3 0.004167 0.003151 0.017151 -0.013256 -0.012129 -0.002343
# 4 -0.011628 -0.008562 -0.013256 0.045399 0.019325 -0.000412
# 5 -0.013211 -0.010268 -0.012129 0.019325 0.052015 0.011572
# 6 0.022777 -0.007041 -0.002343 -0.000412 0.011572 0.069425
#
#
# Mechanical properties :
#
#
# Convention : Reuss Voigt Hill
#
# Bulk Modulus (GPa) = 11.95659 25.61881 18.78770
# Shear Modulus (GPa) = 20.03417 30.69137 25.36277
#
# Velocity S-wave (km/s) = 2.93691 3.63507 3.30448
# Velocity P-wave (km/s) = 4.08023 5.35240 4.75902
#
# Compressibility (1/GPa) = 0.08363590
#
# Stress axis : x y z
#
# Youngs Moduli (GPa) = 26.65199 68.61212 58.30733
#
# Poissons Ratio (x) = 0.00844 -0.24296
# Poissons Ratio (y) = 0.00328 -0.18374
# Poissons Ratio (z) = -0.11105 -0.21621
#
# Static dielectric constant tensor:
#      x y z
#    x -0.643970 -0.595580 1.219920 
#    y -0.595580 1.764110 0.348470 
#    z 1.219920 0.348470 1.403420 
# 
# From -- ./inp_files/492529.got.cif
#   From: 2010.05.17/outbox.cif.g08.bks.cpg/sg2_247_cif.got.tgz:492529.got - 2010.06.03 11:33:40.
