data_PCOD9058148
_publ_section_title
;
Structure prediction by ZEFSAII (Michael W. Deem and Ramdas Pophale) SiO2 
 PCOD9058148
Probable space group: P -1
;
_chemical_formula_sum "Si O2"
_cell_formula_units_Z 14
_cell_length_a 17.025880
_cell_length_b 9.397048
_cell_length_c 14.248595
_cell_angle_alpha 39.631553
_cell_angle_beta 155.882449
_cell_angle_gamma 140.789741
_cell_volume 571.100320
_symmetry_space_group_name_H-M "P -1"
_symmetry_group_IT_number 2
_symmetry_cell_setting 'triclinic'
loop_
_space_group_symop_operation_xyz
x,y,z
-x,-y,-z
loop_
_atom_site_type_symbol
_atom_site_label
_atom_site_fract_x
_atom_site_fract_y
_atom_site_fract_z
Si Si1 0.365096 0.756844 0.685033
Si Si2 0.657415 0.086867 0.712477
Si Si3 0.439360 0.200193 0.771605
Si Si4 0.973889 0.068446 0.291845
Si Si5 0.074205 0.066568 0.203408
Si Si6 0.722794 0.399655 0.804069
Si Si7 0.392603 0.310857 0.848649
O O1 0.573610 0.885402 0.799019
O O2 0.214200 0.902953 0.416368
O O3 0.311099 0.502360 0.714111
O O4 0.426423 0.742686 0.867547
O O5 0.500000 0.000000 0.500000
O O6 0.668124 0.308891 0.682672
O O7 0.882752 0.094434 0.922509
O O8 0.555399 0.280072 0.760582
O O9 0.471155 0.396382 0.787498
O O10 0.202819 0.119979 0.541627
O O11 0.500000 0.000000 0.000000
O O12 0.802343 0.910360 0.249329
O O13 0.973025 0.956663 0.245908
O O14 0.909694 0.303040 0.084493
O O15 0.212650 0.326024 0.245896
#
# Coordination Sequence:
#
# PCOD9058148 Si02
#       7
#     2   2   2   2   2   2   2
#     4  11  25  48  70 102 149 190 241 295 365 433
#     4  11  24  48  71 107 151 185 238 302 365 428
#     4  12  24  45  74 108 142 188 244 296 357 437
#     4  11  22  44  72 104 144 179 241 302 360 421
#     4  11  25  46  76 104 142 197 240 296 364 431
#     4  11  25  46  76 108 143 189 242 300 360 430
#     4  11  24  46  71 106 145 191 237 301 360 427
#
# _framework density 24.514081000000001
#
# number of rings (size 3 to 8) (size 9 to 14) (size 15 to 20)
#    0.000    0.857    4.286    3.857    0.000    8.000 
#    2.571    0.000    3.143    0.000    0.000    0.000 
#    0.000    0.000    0.000    0.000    0.000    0.000 
#
# Total GULP energy -78129.809336 kJ/mol
# GULP energy per Si atom -5580.700667 kJ/mol
# Density = 2.445829 g / cm^3
# Si number density = 24.514081 Si / 1000 Ang^3
#
#
#
# Elastic Constant Matrix: (Units=GPa)
#
#
# Indices 1 2 3 4 5 6 
#
# 1 129.5262 27.4411 71.0339 9.3387 -4.3809 -5.6081
# 2 27.4411 93.0352 55.0196 -8.3848 1.6995 -10.1690
# 3 71.0339 55.0196 211.5204 6.2859 5.4777 -29.3707
# 4 9.3387 -8.3848 6.2859 27.6875 -9.1059 -0.0450
# 5 -4.3809 1.6995 5.4777 -9.1059 38.2823 6.3445
# 6 -5.6081 -10.1690 -29.3707 -0.0450 6.3445 21.9318
#
#
#
# Elastic Compliance Matrix: (Units=1/GPa)
#
#
# Indices 1 2 3 4 5 6 
#
# 1 0.009992 -0.001570 -0.003346 -0.002565 0.001599 -0.003121
# 2 -0.001570 0.013643 -0.002956 0.005553 0.000662 0.001786
# 3 -0.003346 -0.002956 0.008156 -0.002822 -0.003708 0.009763
# 4 -0.002565 0.005553 -0.002822 0.042874 0.010877 -0.004918
# 5 0.001599 0.000662 -0.003708 0.010877 0.031609 -0.013371
# 6 -0.003121 0.001786 0.009763 -0.004918 -0.013371 0.062558
#
#
# Mechanical properties :
#
#
# Convention : Reuss Voigt Hill
#
# Bulk Modulus (GPa) = 62.31475 82.34121 72.32798
# Shear Modulus (GPa) = 26.32637 36.28612 31.30625
#
# Velocity S-wave (km/s) = 3.28064 3.85153 3.57749
# Velocity P-wave (km/s) = 6.31073 7.31036 6.82886
#
# Compressibility (1/GPa) = 0.01604757
#
# Stress axis : x y z
#
# Youngs Moduli (GPa) = 100.08215 73.29614 122.61611
#
# Poissons Ratio (x) = 0.11508 0.41023
# Poissons Ratio (y) = 0.15714 0.36242
# Poissons Ratio (z) = 0.33484 0.21664
#
# Static dielectric constant tensor:
#      x y z
#    x 2.052920 -0.111240 -0.073750 
#    y -0.111240 2.058260 0.029390 
#    z -0.073750 0.029390 2.147820 
# 
# From -- ./inp_files/63839.got.cif
#   From: 2010.05.17/outbox.cif.g08.bks.cpg/sg2_32_cif.got.tgz:63839.got - 2010.06.03 11:33:40.
