data_PCOD9058384
_publ_section_title
;
Structure prediction by ZEFSAII (Michael W. Deem and Ramdas Pophale) SiO2 
 PCOD9058384
Probable space group: P -1
;
_chemical_formula_sum "Si O2"
_cell_formula_units_Z 14
_cell_length_a 14.933964
_cell_length_b 5.081807
_cell_length_c 9.976925
_cell_angle_alpha 70.830805
_cell_angle_beta 54.860614
_cell_angle_gamma 97.264805
_cell_volume 533.848051
_symmetry_space_group_name_H-M "P -1"
_symmetry_group_IT_number 2
_symmetry_cell_setting 'triclinic'
loop_
_space_group_symop_operation_xyz
x,y,z
-x,-y,-z
loop_
_atom_site_type_symbol
_atom_site_label
_atom_site_fract_x
_atom_site_fract_y
_atom_site_fract_z
Si Si1 0.940525 0.785095 0.371865
Si Si2 0.376023 0.432297 0.693256
Si Si3 0.738468 0.303080 0.463398
Si Si4 0.896674 0.168201 0.138433
Si Si5 0.828091 0.880903 0.725337
Si Si6 0.725684 0.235163 0.065724
Si Si7 0.577053 0.861028 0.876113
O O1 0.837016 0.465400 0.467217
O O2 0.882604 0.893777 0.528096
O O3 0.956316 0.958934 0.187022
O O4 0.072146 0.871012 0.306886
O O5 0.500000 0.500000 0.500000
O O6 0.289442 0.448656 0.642118
O O7 0.354836 0.660550 0.779464
O O8 0.351562 0.116932 0.844997
O O9 0.796372 0.147724 0.337564
O O10 0.617792 0.046335 0.670616
O O11 0.832226 0.174955 0.055853
O O12 0.000000 0.500000 0.000000
O O13 0.705186 0.918961 0.817948
O O14 0.789081 0.532135 0.869338
O O15 0.500000 0.500000 0.000000
O O16 0.500000 0.000000 0.000000
#
# Coordination Sequence:
#
# PCOD9058384 Si02
#       7
#     2   2   2   2   2   2   2
#     4  11  23  49  75 108 158 191 255 320 387 458
#     4  11  26  45  73 105 147 200 249 309 363 445
#     4  11  26  46  76 110 150 202 257 312 388 452
#     4  11  22  45  71 109 149 197 242 311 388 453
#     4  11  26  47  76 114 148 201 255 319 385 452
#     4  11  25  44  73 107 148 187 255 302 370 447
#     4  12  29  49  75 105 153 205 253 309 376 456
#
# _framework density 26.224688
#
# number of rings (size 3 to 8) (size 9 to 14) (size 15 to 20)
#    0.000    0.857    4.286    1.286    4.000    3.429 
#    2.571    0.000    0.000    0.000    0.000    0.000 
#    0.000    0.000    0.000    0.000    0.000    0.000 
#
# Total GULP energy -78290.665421 kJ/mol
# GULP energy per Si atom -5592.190387 kJ/mol
# Density = 2.616500 g / cm^3
# Si number density = 26.224688 Si / 1000 Ang^3
#
#
#
# Elastic Constant Matrix: (Units=GPa)
#
#
# Indices 1 2 3 4 5 6 
#
# 1 154.5158 32.7707 27.5783 4.8904 -9.1983 -22.6941
# 2 32.7707 138.5490 29.9600 -2.1561 -2.6776 -17.7394
# 3 27.5783 29.9600 126.9978 -12.1642 13.6221 -16.5561
# 4 4.8904 -2.1561 -12.1642 59.9406 -10.4145 -0.9124
# 5 -9.1983 -2.6776 13.6221 -10.4145 49.6219 3.7441
# 6 -22.6941 -17.7394 -16.5561 -0.9124 3.7441 36.5703
#
#
#
# Elastic Compliance Matrix: (Units=1/GPa)
#
#
# Indices 1 2 3 4 5 6 
#
# 1 0.007504 -0.001073 -0.001114 -0.000607 0.001248 0.003489
# 2 -0.001073 0.008114 -0.001370 0.000222 0.000465 0.002608
# 3 -0.001114 -0.001370 0.009291 0.001497 -0.002756 0.003170
# 4 -0.000607 0.000222 0.001497 0.017598 0.003142 0.000526
# 5 0.001248 0.000465 -0.002756 0.003142 0.022008 -0.002422
# 6 0.003489 0.002608 0.003170 0.000526 -0.002422 0.032471
#
#
# Mechanical properties :
#
#
# Convention : Reuss Voigt Hill
#
# Bulk Modulus (GPa) = 56.18864 66.74227 61.46546
# Shear Modulus (GPa) = 45.44146 51.21013 48.32580
#
# Velocity S-wave (km/s) = 4.16718 4.42378 4.29739
# Velocity P-wave (km/s) = 6.68028 7.18321 6.93631
#
# Compressibility (1/GPa) = 0.01779719
#
# Stress axis : x y z
#
# Youngs Moduli (GPa) = 133.26070 123.24448 107.62616
#
# Poissons Ratio (x) = 0.13220 0.11986
# Poissons Ratio (y) = 0.14295 0.14743
# Poissons Ratio (z) = 0.14840 0.16882
#
# Static dielectric constant tensor:
#      x y z
#    x 2.218770 0.017530 -0.066190 
#    y 0.017530 2.079780 -0.032540 
#    z -0.066190 -0.032540 2.125400 
# 
# From -- ./inp_files/68810.got.cif
#   From: 2010.05.17/outbox.cif.g08.bks.cpg/sg2_35_cif.got.tgz:68810.got - 2010.06.03 11:33:40.
