data_PCOD9058189
_publ_section_title
;
Structure prediction by ZEFSAII (Michael W. Deem and Ramdas Pophale) SiO2 
 PCOD9058189
Probable space group: P -1
;
_chemical_formula_sum "Si O2"
_cell_formula_units_Z 10
_cell_length_a 9.310063
_cell_length_b 9.938965
_cell_length_c 8.181391
_cell_angle_alpha 64.843122
_cell_angle_beta 50.391456
_cell_angle_gamma 46.035686
_cell_volume 419.591346
_symmetry_space_group_name_H-M "P -1"
_symmetry_group_IT_number 2
_symmetry_cell_setting 'triclinic'
loop_
_space_group_symop_operation_xyz
x,y,z
-x,-y,-z
loop_
_atom_site_type_symbol
_atom_site_label
_atom_site_fract_x
_atom_site_fract_y
_atom_site_fract_z
Si Si1 0.891629 0.568129 0.798216
Si Si2 0.746909 0.411959 0.270278
Si Si3 0.998712 0.990209 0.310123
Si Si4 0.432058 0.935311 0.926146
Si Si5 0.772596 0.837415 0.350707
O O1 0.675272 0.755859 0.770582
O O2 0.057548 0.612099 0.737957
O O3 0.067159 0.385167 0.658507
O O4 0.764145 0.522015 0.050497
O O5 0.500000 0.500000 0.500000
O O6 0.835608 0.206291 0.259259
O O7 0.904061 0.892354 0.339292
O O8 0.000000 0.000000 0.500000
O O9 0.267962 0.879284 0.123705
O O10 0.259295 0.112993 0.846177
O O11 0.500000 0.000000 0.000000
O O12 0.500000 0.000000 0.500000
#
# Coordination Sequence:
#
# PCOD9058189 Si02
#       5
#     2   2   2   2   2
#     4  11  24  45  74 105 144 192 240 301 365 427
#     4  11  22  44  73 106 145 187 244 297 363 440
#     4  12  25  46  72 103 145 194 240 300 368 427
#     4  12  23  46  74 102 145 187 237 301 361 431
#     4  12  27  47  70 106 149 188 244 306 356 431
#
# _framework density 23.832712999999998
#
# number of rings (size 3 to 8) (size 9 to 14) (size 15 to 20)
#    0.000    0.400    4.000    5.400    0.000    1.600 
#    3.600    0.000    0.000    0.000    0.000    0.000 
#    0.000    0.000    0.000    0.000    0.000    0.000 
#
# Total GULP energy -55848.822263 kJ/mol
# GULP energy per Si atom -5584.882226 kJ/mol
# Density = 2.377847 g / cm^3
# Si number density = 23.832713 Si / 1000 Ang^3
#
#
#
# Elastic Constant Matrix: (Units=GPa)
#
#
# Indices 1 2 3 4 5 6 
#
# 1 129.2781 35.8197 10.3745 3.7004 -9.5777 0.4788
# 2 35.8197 148.4085 18.9135 29.0483 -2.2583 -12.4484
# 3 10.3745 18.9135 86.9152 25.9280 -29.8298 -17.3654
# 4 3.7004 29.0483 25.9280 53.7370 -12.2062 1.8258
# 5 -9.5777 -2.2583 -29.8298 -12.2062 43.2614 1.2808
# 6 0.4788 -12.4484 -17.3654 1.8258 1.2808 53.5734
#
#
#
# Elastic Compliance Matrix: (Units=1/GPa)
#
#
# Indices 1 2 3 4 5 6 
#
# 1 0.008510 -0.002299 -0.000440 0.001319 0.001858 -0.000842
# 2 -0.002299 0.008397 -0.000318 -0.004677 -0.001671 0.002068
# 3 -0.000440 -0.000318 0.018334 -0.006449 0.010535 0.005841
# 4 0.001319 -0.004677 -0.006449 0.024924 0.002755 -0.004104
# 5 0.001858 -0.001671 0.010535 0.002755 0.031417 0.002165
# 6 -0.000842 0.002068 0.005841 -0.004104 0.002165 0.021135
#
#
# Mechanical properties :
#
#
# Convention : Reuss Voigt Hill
#
# Bulk Modulus (GPa) = 34.33031 54.97968 44.65499
# Shear Modulus (GPa) = 38.89879 50.08064 44.48971
#
# Velocity S-wave (km/s) = 4.04438 4.58901 4.32528
# Velocity P-wave (km/s) = 6.02041 7.15526 6.61223
#
# Compressibility (1/GPa) = 0.02912878
#
# Stress axis : x y z
#
# Youngs Moduli (GPa) = 117.50244 119.09051 54.54443
#
# Poissons Ratio (x) = 0.27375 0.02399
# Poissons Ratio (y) = 0.27010 0.01733
# Poissons Ratio (z) = 0.05167 0.03784
#
# Static dielectric constant tensor:
#      x y z
#    x 1.778580 -0.007440 0.067320 
#    y -0.007440 1.870410 -0.034850 
#    z 0.067320 -0.034850 2.195980 
# 
# From -- ./inp_files/143940.got.cif
#   From: 2010.05.17/outbox.cif.g08.bks.cpg/sg2_72_cif.got.tgz:143940.got - 2010.06.03 11:33:40.
