data_PCOD9058455
_publ_section_title
;
Structure prediction by ZEFSAII (Michael W. Deem and Ramdas Pophale) SiO2 
 PCOD9058455
Probable space group: P -1
;
_chemical_formula_sum "Si O2"
_cell_formula_units_Z 16
_cell_length_a 10.236588
_cell_length_b 12.812555
_cell_length_c 12.550594
_cell_angle_alpha 54.995652
_cell_angle_beta 103.739638
_cell_angle_gamma 145.259922
_cell_volume 664.948119
_symmetry_space_group_name_H-M "P -1"
_symmetry_group_IT_number 2
_symmetry_cell_setting 'triclinic'
loop_
_space_group_symop_operation_xyz
x,y,z
-x,-y,-z
loop_
_atom_site_type_symbol
_atom_site_label
_atom_site_fract_x
_atom_site_fract_y
_atom_site_fract_z
Si Si1 0.908247 0.109295 0.476847
Si Si2 0.064880 0.431720 0.976726
Si Si3 0.472271 0.276493 0.959635
Si Si4 0.359257 0.867790 0.662207
Si Si5 0.791851 0.181377 0.746232
Si Si6 0.773517 0.541920 0.468033
Si Si7 0.499345 0.154893 0.815200
Si Si8 0.559593 0.590227 0.681720
O O1 0.826829 0.159830 0.355676
O O2 0.996539 0.227815 0.541112
O O3 0.168516 0.255032 0.393984
O O4 0.664969 0.812507 0.612444
O O5 0.195214 0.604087 0.798134
O O6 0.799968 0.137944 0.077352
O O7 0.286801 0.533116 0.022248
O O8 0.000000 0.500000 0.000000
O O9 0.546812 0.267064 0.868494
O O10 0.419354 0.379654 0.859592
O O11 0.247286 0.998779 0.124479
O O12 0.500000 0.000000 0.500000
O O13 0.571852 0.034534 0.700140
O O14 0.699279 0.199762 0.811158
O O15 0.081852 0.430204 0.606714
O O16 0.564657 0.300373 0.643888
O O17 0.629681 0.536668 0.380352
#
# Coordination Sequence:
#
# PCOD9058455 Si02
#       8
#     2   2   2   2   2   2   2   2
#     4  11  24  43  74  97 136 181 232 287 334 403
#     4  11  24  41  68 104 137 172 230 281 341 416
#     4  11  25  45  70 100 142 183 229 285 340 413
#     4  11  22  45  74 105 138 175 221 292 361 404
#     4  11  25  44  69 107 147 172 228 292 355 416
#     4  12  26  45  69 104 141 181 234 283 343 413
#     4  12  25  43  72 103 140 184 224 286 353 406
#     4  11  26  44  69 100 135 189 242 275 328 413
#
# _framework density 24.062027
#
# number of rings (size 3 to 8) (size 9 to 14) (size 15 to 20)
#    0.000    0.750    5.000    2.625    3.500    0.500 
#    4.500    1.875    0.000    0.000    0.000    0.000 
#    0.000    0.000    0.000    0.000    0.000    0.000 
#
# Total GULP energy -89635.184544 kJ/mol
# GULP energy per Si atom -5602.199034 kJ/mol
# Density = 2.400726 g / cm^3
# Si number density = 24.062027 Si / 1000 Ang^3
#
#
#
# Elastic Constant Matrix: (Units=GPa)
#
#
# Indices 1 2 3 4 5 6 
#
# 1 41.3939 23.8575 33.7634 -7.4738 13.6507 16.4276
# 2 23.8575 112.2056 65.1291 1.1639 14.1517 -4.6972
# 3 33.7634 65.1291 188.6185 -7.9894 31.8024 7.2074
# 4 -7.4738 1.1639 -7.9894 27.8635 7.3985 12.7911
# 5 13.6507 14.1517 31.8024 7.3985 53.8741 3.3450
# 6 16.4276 -4.6972 7.2074 12.7911 3.3450 35.3623
#
#
#
# Elastic Compliance Matrix: (Units=1/GPa)
#
#
# Indices 1 2 3 4 5 6 
#
# 1 0.061992 -0.013218 -0.000624 0.041073 -0.014783 -0.043886
# 2 -0.013218 0.014408 -0.004090 -0.012024 0.002825 0.012970
# 3 -0.000624 -0.004090 0.007790 0.004713 -0.003816 -0.003185
# 4 0.041073 -0.012024 0.004713 0.075015 -0.017406 -0.047126
# 5 -0.014783 0.002825 -0.003816 -0.017406 0.025469 0.011908
# 6 -0.043886 0.012970 -0.003185 -0.047126 0.011908 0.066958
#
#
# Mechanical properties :
#
#
# Convention : Reuss Voigt Hill
#
# Bulk Modulus (GPa) = 20.69205 65.30201 42.99703
# Shear Modulus (GPa) = 16.46872 38.05119 27.25996
#
# Velocity S-wave (km/s) = 2.61900 3.98097 3.36951
# Velocity P-wave (km/s) = 4.21469 6.95189 5.74858
#
# Compressibility (1/GPa) = 0.04832775
#
# Stress axis : x y z
#
# Youngs Moduli (GPa) = 16.13100 69.40494 128.36378
#
# Poissons Ratio (x) = 0.91738 0.08004
# Poissons Ratio (y) = 0.21322 0.52504
# Poissons Ratio (z) = 0.01006 0.28388
#
# Static dielectric constant tensor:
#      x y z
#    x 1.970210 -0.029830 -0.024860 
#    y -0.029830 1.889400 -0.025380 
#    z -0.024860 -0.025380 1.971100 
# 
# From -- ./inp_files/345541.got.cif
#   From: 2010.05.17/outbox.cif.g08.bks.cpg/sg2_173_cif.got.tgz:345541.got - 2010.06.03 11:33:40.
