data_PCOD9058529
_publ_section_title
;
Structure prediction by ZEFSAII (Michael W. Deem and Ramdas Pophale) SiO2 
 PCOD9058529
Probable space group: P -1
;
_chemical_formula_sum "Si O2"
_cell_formula_units_Z 16
_cell_length_a 9.892124
_cell_length_b 21.622104
_cell_length_c 11.929105
_cell_angle_alpha 142.336895
_cell_angle_beta 49.310283
_cell_angle_gamma 149.572038
_cell_volume 785.692454
_symmetry_space_group_name_H-M "P -1"
_symmetry_group_IT_number 2
_symmetry_cell_setting 'triclinic'
loop_
_space_group_symop_operation_xyz
x,y,z
-x,-y,-z
loop_
_atom_site_type_symbol
_atom_site_label
_atom_site_fract_x
_atom_site_fract_y
_atom_site_fract_z
Si Si1 0.587309 0.373808 0.126461
Si Si2 0.840993 0.634012 0.647314
Si Si3 0.940986 0.287796 0.600329
Si Si4 0.575689 0.812562 0.271853
Si Si5 0.084488 0.164813 0.498952
Si Si6 0.411936 0.687278 0.705830
Si Si7 0.281929 0.317567 0.854051
Si Si8 0.218292 0.823378 0.923658
O O1 0.413340 0.402395 0.244575
O O2 0.545052 0.307315 0.176359
O O3 0.890891 0.544332 0.204587
O O4 0.492908 0.257059 0.914989
O O5 0.771954 0.486230 0.478156
O O6 0.917782 0.688420 0.555756
O O7 0.068587 0.753698 0.785378
O O8 0.648135 0.199745 0.598837
O O9 0.951526 0.203309 0.562642
O O10 0.570811 0.714856 0.215289
O O11 0.863042 0.985267 0.376811
O O12 0.314911 0.215773 0.369710
O O13 0.203131 0.254793 0.680530
O O14 0.287959 0.741985 0.817829
O O15 0.500000 0.500000 0.000000
O O16 0.007353 0.224688 0.939278
O O17 0.500000 0.000000 0.000000
#
# Coordination Sequence:
#
# PCOD9058529 Si02
#       8
#     2   2   2   2   2   2   2   2
#     4  11  22  46  69  97 132 176 234 276 330 405
#     4  11  22  46  71  95 135 176 230 277 332 404
#     4  11  24  43  70  99 132 177 225 279 337 410
#     4  12  27  42  68  99 137 182 218 281 344 396
#     4  12  25  45  67 102 143 171 222 284 348 400
#     4  11  24  43  72 100 132 180 227 278 336 404
#     4  12  28  47  70  99 142 183 229 277 338 410
#     4  12  28  45  70 103 138 178 230 284 338 405
#
# _framework density 20.364203
#
# number of rings (size 3 to 8) (size 9 to 14) (size 15 to 20)
#    0.000    0.500    3.750    4.500    8.750    1.500 
#    0.000    0.000    0.000    0.000    0.000    0.000 
#    0.000    0.000    0.000    0.000    0.000    0.000 
#
# Total GULP energy -89495.714441 kJ/mol
# GULP energy per Si atom -5593.482153 kJ/mol
# Density = 2.031785 g / cm^3
# Si number density = 20.364203 Si / 1000 Ang^3
#
#
#
# Elastic Constant Matrix: (Units=GPa)
#
#
# Indices 1 2 3 4 5 6 
#
# 1 136.2360 -44.4416 1.1475 -10.2886 3.0373 -26.7798
# 2 -44.4416 126.4444 24.4102 35.9483 37.1490 45.0065
# 3 1.1475 24.4102 10.6312 23.5223 -14.4335 0.2658
# 4 -10.2886 35.9483 23.5223 32.2938 35.5837 8.8859
# 5 3.0373 37.1490 -14.4335 35.5837 -9.9124 4.4072
# 6 -26.7798 45.0065 0.2658 8.8859 4.4072 52.6068
#
#
#
# Elastic Compliance Matrix: (Units=1/GPa)
#
#
# Indices 1 2 3 4 5 6 
#
# 1 0.008352 0.002120 0.001158 -0.002497 0.001084 0.002763
# 2 0.002120 0.016720 -0.000614 -0.016167 0.001450 -0.010613
# 3 0.001158 -0.000614 0.037828 0.006972 -0.030962 0.002340
# 4 -0.002497 -0.016167 0.006972 0.023480 0.015993 0.007219
# 5 0.001084 0.001450 -0.030962 0.015993 0.005729 -0.003714
# 6 0.002763 -0.010613 0.002340 0.007219 -0.003714 0.028575
#
#
# Mechanical properties :
#
#
# Convention : Reuss Voigt Hill
#
# Bulk Modulus (GPa) = 14.65675 26.17154 20.41414
# Shear Modulus (GPa) = 36.20551 34.47734 35.34143
#
# Velocity S-wave (km/s) = 4.22109 4.11912 4.17041
# Velocity P-wave (km/s) = 5.56505 5.95839 5.76508
#
# Compressibility (1/GPa) = 0.06822796
#
# Stress axis : x y z
#
# Youngs Moduli (GPa) = 119.72527 59.80821 26.43521
#
# Poissons Ratio (x) = -0.12679 -0.03061
# Poissons Ratio (y) = -0.25382 0.01624
# Poissons Ratio (z) = -0.13862 0.03674
#
# Static dielectric constant tensor:
#      x y z
#    x 1.686860 -0.004080 -0.005120 
#    y -0.004080 1.786940 0.000700 
#    z -0.005120 0.000700 1.714960 
# 
# From -- ./inp_files/155414.got.cif
#   From: 2010.05.17/outbox.cif.g08.bks.cpg/sg2_78_cif.got.tgz:155414.got - 2010.06.03 11:33:40.
