data_PCOD9058204
_publ_section_title
;
Structure prediction by ZEFSAII (Michael W. Deem and Ramdas Pophale) SiO2 
 PCOD9058204
Probable space group: P -1
;
_chemical_formula_sum "Si O2"
_cell_formula_units_Z 13
_cell_length_a 13.165466
_cell_length_b 5.392542
_cell_length_c 9.325974
_cell_angle_alpha 58.735294
_cell_angle_beta 75.787580
_cell_angle_gamma 102.414419
_cell_volume 499.596165
_symmetry_space_group_name_H-M "P -1"
_symmetry_group_IT_number 2
_symmetry_cell_setting 'triclinic'
loop_
_space_group_symop_operation_xyz
x,y,z
-x,-y,-z
loop_
_atom_site_type_symbol
_atom_site_label
_atom_site_fract_x
_atom_site_fract_y
_atom_site_fract_z
Si Si1 0.588181 0.203334 0.285762
Si Si2 0.179833 0.608622 0.682854
Si Si3 0.256572 0.500008 0.289026
Si Si4 0.000000 0.500000 0.000000
Si Si5 0.804363 0.019092 0.720499
Si Si6 0.505380 0.745063 0.187744
Si Si7 0.956367 0.950645 0.304166
O O1 0.714839 0.330089 0.270029
O O2 0.554535 0.501269 0.183133
O O3 0.500000 0.000000 0.500000
O O4 0.570044 0.954148 0.238499
O O5 0.222561 0.823036 0.461577
O O6 0.111129 0.257235 0.750154
O O7 0.086307 0.708819 0.772185
O O8 0.240224 0.826016 0.185000
O O9 0.369026 0.542337 0.326929
O O10 0.141585 0.246894 0.479667
O O11 0.260891 0.352837 0.177454
O O12 0.057053 0.263634 0.078228
O O13 0.940342 0.136259 0.644521
O O14 0.500000 0.000000 0.000000
#
# Coordination Sequence:
#
# PCOD9058204 Si02
#       7
#     2   2   2   1   2   2   2
#     4  12  27  49  82 110 152 203 254 312 380 449
#     4  11  25  45  69 107 147 188 244 300 370 434
#     4  11  22  44  74 100 143 186 247 298 360 436
#     4  12  26  40  70  98 156 174 246 296 374 418
#     4  11  24  44  74 104 139 196 247 289 360 450
#     4  12  28  50  77 114 150 195 261 315 379 443
#     4  11  25  44  69 105 145 193 247 290 371 443
#
# _framework density 26.021018999999999
#
# number of rings (size 3 to 8) (size 9 to 14) (size 15 to 20)
#    0.000    0.615    1.538    7.385    4.308    2.462 
#    0.000    0.000    0.000    0.000    0.000    0.000 
#    0.000    0.000    0.000    0.000    0.000    0.000 
#
# Total GULP energy -72422.958817 kJ/mol
# GULP energy per Si atom -5570.996832 kJ/mol
# Density = 2.596179 g / cm^3
# Si number density = 26.021019 Si / 1000 Ang^3
#
#
#
# Elastic Constant Matrix: (Units=GPa)
#
#
# Indices 1 2 3 4 5 6 
#
# 1 149.0851 57.4460 2.6303 3.5844 -8.6861 23.5830
# 2 57.4460 171.1034 14.5372 -4.4985 3.9664 -14.9317
# 3 2.6303 14.5372 63.6634 -5.5127 -5.4640 -3.7557
# 4 3.5844 -4.4985 -5.5127 34.5439 -2.0200 -5.3561
# 5 -8.6861 3.9664 -5.4640 -2.0200 30.6626 13.3666
# 6 23.5830 -14.9317 -3.7557 -5.3561 13.3666 36.1817
#
#
#
# Elastic Compliance Matrix: (Units=1/GPa)
#
#
# Indices 1 2 3 4 5 6 
#
# 1 0.011732 -0.005537 0.000511 -0.003456 0.010051 -0.014103
# 2 -0.005537 0.008972 -0.001614 0.002645 -0.007304 0.010234
# 3 0.000511 -0.001614 0.016570 0.002556 0.003570 -0.000220
# 4 -0.003456 0.002645 0.002556 0.031335 -0.002857 0.009303
# 5 0.010051 -0.007304 0.003570 -0.002857 0.048924 -0.027692
# 6 -0.014103 0.010234 -0.000220 0.009303 -0.027692 0.052638
#
#
# Mechanical properties :
#
#
# Convention : Reuss Voigt Hill
#
# Bulk Modulus (GPa) = 41.67702 59.23099 50.45400
# Shear Modulus (GPa) = 26.11657 40.89353 33.50505
#
# Velocity S-wave (km/s) = 3.17152 3.96859 3.59223
# Velocity P-wave (km/s) = 5.42796 6.61904 6.05287
#
# Compressibility (1/GPa) = 0.02399404
#
# Stress axis : x y z
#
# Youngs Moduli (GPa) = 85.24015 111.45340 60.35060
#
# Poissons Ratio (x) = 0.61709 -0.03084
# Poissons Ratio (y) = 0.47195 0.09741
# Poissons Ratio (z) = -0.04356 0.17990
#
# Static dielectric constant tensor:
#      x y z
#    x 2.283640 0.121400 0.075540 
#    y 0.121400 2.419420 -0.012720 
#    z 0.075540 -0.012720 2.262340 
# 
# From -- ./inp_files/229452.got.cif
#   From: 2010.05.17/outbox.cif.g08.bks.cpg/sg2_115_cif.got.tgz:229452.got - 2010.06.03 11:33:40.
