data_PCOD9058478
_publ_section_title
;
Structure prediction by ZEFSAII (Michael W. Deem and Ramdas Pophale) SiO2 
 PCOD9058478
Probable space group: P -1
;
_chemical_formula_sum "Si O2"
_cell_formula_units_Z 16
_cell_length_a 9.180524
_cell_length_b 15.277979
_cell_length_c 15.700918
_cell_angle_alpha 151.787328
_cell_angle_beta 114.549630
_cell_angle_gamma 84.612663
_cell_volume 733.033840
_symmetry_space_group_name_H-M "P -1"
_symmetry_group_IT_number 2
_symmetry_cell_setting 'triclinic'
loop_
_space_group_symop_operation_xyz
x,y,z
-x,-y,-z
loop_
_atom_site_type_symbol
_atom_site_label
_atom_site_fract_x
_atom_site_fract_y
_atom_site_fract_z
Si Si1 0.662628 0.488383 0.576846
Si Si2 0.054631 0.072824 0.477798
Si Si3 0.551195 0.695014 0.466365
Si Si4 0.010791 0.974204 0.880093
Si Si5 0.610459 0.820286 0.068289
Si Si6 0.215765 0.569550 0.874261
Si Si7 0.838567 0.258063 0.380890
Si Si8 0.660563 0.023535 0.623834
O O1 0.500000 0.500000 0.500000
O O2 0.560026 0.314731 0.484202
O O3 0.751650 0.396759 0.457599
O O4 0.836461 0.754029 0.881225
O O5 0.189974 0.355363 0.733128
O O6 0.181279 0.994640 0.402422
O O7 0.000000 0.000000 0.500000
O O8 0.834117 0.943654 0.268826
O O9 0.792548 0.850560 0.678051
O O10 0.531966 0.807337 0.475446
O O11 0.469704 0.429901 0.203952
O O12 0.086514 0.824654 0.745769
O O13 0.000000 0.000000 0.000000
O O14 0.659511 0.010450 0.172824
O O15 0.434505 0.746160 0.029855
O O16 0.030244 0.435468 0.644779
O O17 0.213768 0.732379 0.081813
O O18 0.500000 0.000000 0.500000
#
# Coordination Sequence:
#
# PCOD9058478 Si02
#       8
#     2   2   2   2   2   2   2   2
#     4  12  27  47  72 107 147 190 243 303 366 438
#     4  11  26  44  69 103 146 186 242 307 356 429
#     4  12  24  48  73 103 150 187 241 312 358 431
#     4  12  25  48  72 108 146 190 245 306 371 431
#     4  11  22  45  75  99 139 193 237 295 371 421
#     4  11  24  46  71 104 142 186 241 299 365 429
#     4  11  25  44  75 105 141 191 242 293 372 441
#     4  12  27  46  74 109 146 195 243 296 370 437
#
# _framework density 21.827095
#
# number of rings (size 3 to 8) (size 9 to 14) (size 15 to 20)
#    0.000    0.500    5.000    3.000    3.500    3.500 
#    0.000    0.000    0.000    0.000    0.000    0.000 
#    0.000    0.000    0.000    0.000    0.000    0.000 
#
# Total GULP energy -89564.195342 kJ/mol
# GULP energy per Si atom -5597.762209 kJ/mol
# Density = 2.177742 g / cm^3
# Si number density = 21.827095 Si / 1000 Ang^3
#
#
#
# Elastic Constant Matrix: (Units=GPa)
#
#
# Indices 1 2 3 4 5 6 
#
# 1 142.4320 56.6815 53.5331 16.7330 -32.4351 10.4671
# 2 56.6815 102.7783 25.4582 1.8241 -2.9775 9.2328
# 3 53.5331 25.4582 125.6817 14.4762 -14.1975 -1.3910
# 4 16.7330 1.8241 14.4762 18.0473 8.1582 -0.2945
# 5 -32.4351 -2.9775 -14.1975 8.1582 50.5636 3.9143
# 6 10.4671 9.2328 -1.3910 -0.2945 3.9143 36.6414
#
#
#
# Elastic Compliance Matrix: (Units=1/GPa)
#
#
# Indices 1 2 3 4 5 6 
#
# 1 0.015919 -0.007253 -0.001833 -0.018302 0.012554 -0.004278
# 2 -0.007253 0.013822 -0.001386 0.008963 -0.005612 -0.000792
# 3 -0.001833 -0.001386 0.010214 -0.007589 0.002765 0.000904
# 4 -0.018302 0.008963 -0.007589 0.090526 -0.028448 0.006448
# 5 0.012554 -0.005612 0.002765 -0.028448 0.033319 -0.005855
# 6 -0.004278 -0.000792 0.000904 0.006448 -0.005855 0.029425
#
#
# Mechanical properties :
#
#
# Convention : Reuss Voigt Hill
#
# Bulk Modulus (GPa) = 52.59372 71.35973 61.97672
# Shear Modulus (GPa) = 22.67509 36.73173 29.70341
#
# Velocity S-wave (km/s) = 3.22662 4.10671 3.69297
# Velocity P-wave (km/s) = 6.16679 7.43309 6.82936
#
# Compressibility (1/GPa) = 0.01901368
#
# Stress axis : x y z
#
# Youngs Moduli (GPa) = 62.81676 72.34748 97.90021
#
# Poissons Ratio (x) = 0.52471 0.17943
# Poissons Ratio (y) = 0.45559 0.13567
# Poissons Ratio (z) = 0.11513 0.10026
#
# Static dielectric constant tensor:
#      x y z
#    x 1.798600 0.035180 -0.003430 
#    y 0.035180 1.835720 -0.017150 
#    z -0.003430 -0.017150 1.831420 
# 
# From -- ./inp_files/505922.got.cif
#   From: 2010.05.17/outbox.cif.g08.bks.cpg/sg2_253_cif.got.tgz:505922.got - 2010.06.03 11:33:40.
