data_PCOD9058962
_publ_section_title
;
Structure prediction by ZEFSAII (Michael W. Deem and Ramdas Pophale) SiO2 
 PCOD9058962
Probable space group: P -1
;
_chemical_formula_sum "Si O2"
_cell_formula_units_Z 10
_cell_length_a 15.035318
_cell_length_b 7.381364
_cell_length_c 4.700376
_cell_angle_alpha 109.384217
_cell_angle_beta 90.421884
_cell_angle_gamma 129.920434
_cell_volume 359.464866
_symmetry_space_group_name_H-M "P -1"
_symmetry_group_IT_number 2
_symmetry_cell_setting 'triclinic'
loop_
_space_group_symop_operation_xyz
x,y,z
-x,-y,-z
loop_
_atom_site_type_symbol
_atom_site_label
_atom_site_fract_x
_atom_site_fract_y
_atom_site_fract_z
Si Si1 0.566360 0.205704 0.357790
Si Si2 0.411145 0.355523 0.212974
Si Si3 0.772074 0.943674 0.441520
Si Si4 0.910175 0.506953 0.833029
Si Si5 0.153292 0.346855 0.552923
O O1 0.534711 0.386655 0.442885
O O2 0.710829 0.416396 0.450865
O O3 0.500000 0.000000 0.500000
O O4 0.500000 0.000000 0.000000
O O5 0.683701 0.872406 0.665470
O O6 0.500000 0.500000 0.000000
O O7 0.295982 0.239875 0.931691
O O8 0.856407 0.895110 0.530522
O O9 0.831693 0.233231 0.517016
O O10 0.944529 0.708082 0.693777
O O11 0.847823 0.542393 0.093186
O O12 0.000000 0.500000 0.000000
#
# Coordination Sequence:
#
# PCOD9058962 Si02
#       5
#     2   2   2   2   2
#     4  11  23  39  66  98 133 183 222 266 343 406
#     4  11  24  41  64  99 138 183 223 273 345 406
#     4  11  25  46  66 100 144 177 228 289 342 411
#     4  12  27  46  76 103 130 187 240 287 356 398
#     4  11  25  46  69 101 146 176 230 293 341 414
#
# _framework density 27.819130999999999
#
# number of rings (size 3 to 8) (size 9 to 14) (size 15 to 20)
#    0.000    0.800    0.000    8.400    8.400    1.600 
#    0.000    0.000    0.000    0.000    0.000    0.000 
#    0.000    0.000    0.000    0.000    0.000    0.000 
#
# Total GULP energy -55800.560577 kJ/mol
# GULP energy per Si atom -5580.056058 kJ/mol
# Density = 2.775581 g / cm^3
# Si number density = 27.819131 Si / 1000 Ang^3
#
#
#
# Elastic Constant Matrix: (Units=GPa)
#
#
# Indices 1 2 3 4 5 6 
#
# 1 130.6217 25.8258 24.5701 7.5126 -10.9721 -20.8640
# 2 25.8258 126.5574 34.3382 -19.5416 -3.0799 -6.9349
# 3 24.5701 34.3382 154.0631 -33.0311 -14.5111 -9.9548
# 4 7.5126 -19.5416 -33.0311 61.3028 -18.6385 -13.1435
# 5 -10.9721 -3.0799 -14.5111 -18.6385 39.5656 -8.0210
# 6 -20.8640 -6.9349 -9.9548 -13.1435 -8.0210 38.4449
#
#
#
# Elastic Compliance Matrix: (Units=1/GPa)
#
#
# Indices 1 2 3 4 5 6 
#
# 1 0.009153 -0.001276 -0.000303 0.000683 0.003802 0.005685
# 2 -0.001276 0.009181 -0.000468 0.004305 0.002805 0.002899
# 3 -0.000303 -0.000468 0.010311 0.010240 0.010113 0.008031
# 4 0.000683 0.004305 0.010240 0.035309 0.025197 0.021127
# 5 0.003802 0.002805 0.010113 0.025197 0.046908 0.023589
# 6 0.005685 0.002899 0.008031 0.021127 0.023589 0.043844
#
#
# Mechanical properties :
#
#
# Convention : Reuss Voigt Hill
#
# Bulk Modulus (GPa) = 40.73422 64.52338 52.62880
# Shear Modulus (GPa) = 29.94296 49.62987 39.78642
#
# Velocity S-wave (km/s) = 3.28433 4.22835 3.78588
# Velocity P-wave (km/s) = 5.39043 6.86169 6.17007
#
# Compressibility (1/GPa) = 0.02454938
#
# Stress axis : x y z
#
# Youngs Moduli (GPa) = 109.25052 108.92221 96.98765
#
# Poissons Ratio (x) = 0.13898 0.02943
# Poissons Ratio (y) = 0.13940 0.04541
# Poissons Ratio (z) = 0.03316 0.05100
#
# Static dielectric constant tensor:
#      x y z
#    x 2.552090 0.041760 0.170210 
#    y 0.041760 2.143250 -0.007260 
#    z 0.170210 -0.007260 2.145290 
# 
# From -- ./inp_files/105802.got.cif
#   From: 2010.05.17/outbox.cif.g08.bks.cpg/sg2_53_cif.got.tgz:105802.got - 2010.06.03 11:33:40.
