data_PCOD9058588
_publ_section_title
;
Structure prediction by ZEFSAII (Michael W. Deem and Ramdas Pophale) SiO2 
 PCOD9058588
Probable space group: P -1
;
_chemical_formula_sum "Si O2"
_cell_formula_units_Z 16
_cell_length_a 11.617421
_cell_length_b 9.559325
_cell_length_c 16.534976
_cell_angle_alpha 131.483007
_cell_angle_beta 31.323871
_cell_angle_gamma 133.555923
_cell_volume 678.437142
_symmetry_space_group_name_H-M "P -1"
_symmetry_group_IT_number 2
_symmetry_cell_setting 'triclinic'
loop_
_space_group_symop_operation_xyz
x,y,z
-x,-y,-z
loop_
_atom_site_type_symbol
_atom_site_label
_atom_site_fract_x
_atom_site_fract_y
_atom_site_fract_z
Si Si1 0.321957 0.089204 0.188437
Si Si2 0.743234 0.163600 0.164699
Si Si3 0.413831 0.773562 0.277632
Si Si4 0.551769 0.798926 0.377253
Si Si5 0.182400 0.360362 0.080390
Si Si6 0.554319 0.599802 0.632977
Si Si7 0.076682 0.046343 0.155532
Si Si8 0.080787 0.749289 0.327650
O O1 0.435549 0.295960 0.244993
O O2 0.143046 0.094841 0.226817
O O3 0.193219 0.941701 0.280694
O O4 0.500000 0.000000 0.000000
O O5 0.641125 0.339266 0.275419
O O6 0.999411 0.237011 0.076587
O O7 0.577165 0.001359 0.261204
O O8 0.747755 0.043457 0.033403
O O9 0.404358 0.711886 0.352126
O O10 0.185024 0.765018 0.361849
O O11 0.562535 0.651987 0.096517
O O12 0.492099 0.630678 0.415727
O O13 0.830401 0.876887 0.229722
O O14 0.500000 0.000000 0.500000
O O15 0.162029 0.575513 0.174117
O O16 0.091651 0.244771 0.174061
O O17 0.804183 0.691200 0.476150
#
# Coordination Sequence:
#
# PCOD9058588 Si02
#       8
#     2   2   2   2   2   2   2   2
#     4  12  26  47  73 107 144 186 241 293 353 429
#     4  11  22  46  73 102 143 188 240 296 357 427
#     4  11  23  46  74  97 145 187 243 295 350 431
#     4  12  28  46  71 107 142 191 241 300 361 415
#     4  11  23  45  75 106 138 189 244 292 360 417
#     4  12  29  47  70 107 151 188 234 293 370 426
#     4  11  23  45  71 107 141 184 246 302 346 422
#     4  12  28  46  70 107 148 192 232 294 366 428
#
# _framework density 23.583615000000002
#
# number of rings (size 3 to 8) (size 9 to 14) (size 15 to 20)
#    0.000    0.500    5.000    3.000    7.000    1.500 
#    0.000    0.000    0.000    0.000    0.000    0.000 
#    0.000    0.000    0.000    0.000    0.000    0.000 
#
# Total GULP energy -89610.012516 kJ/mol
# GULP energy per Si atom -5600.625782 kJ/mol
# Density = 2.352994 g / cm^3
# Si number density = 23.583615 Si / 1000 Ang^3
#
#
#
# Elastic Constant Matrix: (Units=GPa)
#
#
# Indices 1 2 3 4 5 6 
#
# 1 104.5955 -4.5896 5.8702 3.6147 -9.4534 -11.6630
# 2 -4.5896 93.7679 21.5878 21.8630 -3.6983 -20.3447
# 3 5.8702 21.5878 68.0155 5.4735 -8.5921 -15.5999
# 4 3.6147 21.8630 5.4735 36.3040 4.1669 -2.7077
# 5 -9.4534 -3.6983 -8.5921 4.1669 27.6213 5.7322
# 6 -11.6630 -20.3447 -15.5999 -2.7077 5.7322 31.8916
#
#
#
# Elastic Compliance Matrix: (Units=1/GPa)
#
#
# Indices 1 2 3 4 5 6 
#
# 1 0.010535 0.002166 0.000041 -0.002412 0.003349 0.004448
# 2 0.002166 0.015153 -0.002178 -0.008578 0.001650 0.008368
# 3 0.000041 -0.002178 0.017458 -0.001316 0.004038 0.006327
# 4 -0.002412 -0.008578 -0.001316 0.033721 -0.006869 -0.002900
# 5 0.003349 0.001650 0.004038 -0.006869 0.040617 -0.003631
# 6 0.004448 0.008368 0.006327 -0.002900 -0.003631 0.041822
#
#
# Mechanical properties :
#
#
# Convention : Reuss Voigt Hill
#
# Bulk Modulus (GPa) = 23.14705 34.67950 28.91328
# Shear Modulus (GPa) = 28.79335 35.39743 32.09539
#
# Velocity S-wave (km/s) = 3.49794 3.87839 3.69307
# Velocity P-wave (km/s) = 5.11373 5.89854 5.52010
#
# Compressibility (1/GPa) = 0.04320205
#
# Stress axis : x y z
#
# Youngs Moduli (GPa) = 94.91810 65.99411 57.28155
#
# Poissons Ratio (x) = -0.14293 -0.00233
# Poissons Ratio (y) = -0.20558 0.12478
# Poissons Ratio (z) = -0.00385 0.14376
#
# Static dielectric constant tensor:
#      x y z
#    x 1.931650 0.044330 -0.080470 
#    y 0.044330 1.847810 -0.019720 
#    z -0.080470 -0.019720 2.269450 
# 
# From -- ./inp_files/209211.got.cif
#   From: 2010.05.17/outbox.cif.g08.bks.cpg/sg2_105_cif.got.tgz:209211.got - 2010.06.03 11:33:40.
