data_PCOD9058456
_publ_section_title
;
Structure prediction by ZEFSAII (Michael W. Deem and Ramdas Pophale) SiO2 
 PCOD9058456
Probable space group: P -1
;
_chemical_formula_sum "Si O2"
_cell_formula_units_Z 16
_cell_length_a 8.859327
_cell_length_b 23.973783
_cell_length_c 8.010146
_cell_angle_alpha 56.405150
_cell_angle_beta 50.181995
_cell_angle_gamma 31.827319
_cell_volume 688.938213
_symmetry_space_group_name_H-M "P -1"
_symmetry_group_IT_number 2
_symmetry_cell_setting 'triclinic'
loop_
_space_group_symop_operation_xyz
x,y,z
-x,-y,-z
loop_
_atom_site_type_symbol
_atom_site_label
_atom_site_fract_x
_atom_site_fract_y
_atom_site_fract_z
Si Si1 0.614370 0.531147 0.984097
Si Si2 0.804774 0.780127 0.738396
Si Si3 0.829713 0.978630 0.205581
Si Si4 0.651800 0.677894 0.165427
Si Si5 0.206922 0.687698 0.280079
Si Si6 0.725168 0.902835 0.133305
Si Si7 0.675579 0.276490 0.338010
Si Si8 0.927352 0.948911 0.552380
O O1 0.528424 0.624990 0.804148
O O2 0.981165 0.434381 0.914562
O O3 0.500000 0.500000 0.000000
O O4 0.423935 0.577451 0.215763
O O5 0.535617 0.907605 0.712201
O O6 0.981504 0.723377 0.530748
O O7 0.070167 0.739943 0.736862
O O8 0.649393 0.754161 0.966701
O O9 0.879718 0.915325 0.124402
O O10 0.987998 0.916980 0.368637
O O11 0.000000 0.000000 0.000000
O O12 0.437937 0.683410 0.200013
O O13 0.538820 0.696985 0.405464
O O14 0.975796 0.778285 0.149734
O O15 0.441389 0.948074 0.363218
O O16 0.500000 0.000000 0.000000
O O17 0.882005 0.160335 0.309389
O O18 0.000000 0.000000 0.500000
#
# Coordination Sequence:
#
# PCOD9058456 Si02
#       8
#     2   2   2   2   2   2   2   2
#     4  12  26  50  75 106 142 194 249 315 379 426
#     4  11  22  45  74 106 144 196 242 298 374 442
#     4  12  23  42  71 104 148 196 242 294 368 450
#     4  11  25  48  75 104 140 195 250 305 377 436
#     4  11  26  46  71 104 145 189 246 312 365 451
#     4  12  24  43  69 103 148 188 239 304 369 444
#     4  11  24  47  75 105 149 185 246 309 363 443
#     4  12  25  43  69 108 148 194 237 288 370 448
#
# _framework density 23.224143000000002
#
# number of rings (size 3 to 8) (size 9 to 14) (size 15 to 20)
#    0.000    0.500    3.750    5.625    0.000    2.500 
#    4.500    0.000    0.000    0.000    0.000    0.000 
#    0.000    0.000    0.000    0.000    0.000    0.000 
#
# Total GULP energy -89340.171497 kJ/mol
# GULP energy per Si atom -5583.760719 kJ/mol
# Density = 2.317128 g / cm^3
# Si number density = 23.224143 Si / 1000 Ang^3
#
#
#
# Elastic Constant Matrix: (Units=GPa)
#
#
# Indices 1 2 3 4 5 6 
#
# 1 68.7666 3.8100 10.9938 -5.0578 -2.9828 8.8046
# 2 3.8100 137.1494 10.2143 13.1337 4.8333 -18.1332
# 3 10.9938 10.2143 68.7783 9.4415 -11.6896 -4.3716
# 4 -5.0578 13.1337 9.4415 46.1271 -0.8952 2.9126
# 5 -2.9828 4.8333 -11.6896 -0.8952 33.2677 -6.8726
# 6 8.8046 -18.1332 -4.3716 2.9126 -6.8726 38.4892
#
#
#
# Elastic Compliance Matrix: (Units=1/GPa)
#
#
# Indices 1 2 3 4 5 6 
#
# 1 0.015934 -0.001119 -0.003178 0.003013 -0.000444 -0.004840
# 2 -0.001119 0.008183 -0.000533 -0.002617 -0.000695 0.004124
# 3 -0.003178 -0.000533 0.016988 -0.003791 0.006454 0.003845
# 4 0.003013 -0.002617 -0.003791 0.023786 -0.000934 -0.004320
# 5 -0.000444 -0.000695 0.006454 -0.000934 0.033727 0.006600
# 6 -0.004840 0.004124 0.003845 -0.004320 0.006600 0.030974
#
#
# Mechanical properties :
#
#
# Convention : Reuss Voigt Hill
#
# Bulk Modulus (GPa) = 31.80053 36.08117 33.94085
# Shear Modulus (GPa) = 33.39308 40.22187 36.80747
#
# Velocity S-wave (km/s) = 3.79603 4.16612 3.98537
# Velocity P-wave (km/s) = 5.73896 6.22189 5.98530
#
# Compressibility (1/GPa) = 0.03144602
#
# Stress axis : x y z
#
# Youngs Moduli (GPa) = 62.75880 122.21177 58.86386
#
# Poissons Ratio (x) = 0.13674 0.18705
# Poissons Ratio (y) = 0.07022 0.03137
# Poissons Ratio (z) = 0.19942 0.06514
#
# Static dielectric constant tensor:
#      x y z
#    x 1.771290 -0.018790 -0.004790 
#    y -0.018790 1.882340 -0.065100 
#    z -0.004790 -0.065100 1.878790 
# 
# From -- ./inp_files/226255.got.cif
#   From: 2010.05.17/outbox.cif.g08.bks.cpg/sg2_114_cif.got.tgz:226255.got - 2010.06.03 11:33:40.
