data_PCOD9058835
_publ_section_title
;
Structure prediction by ZEFSAII (Michael W. Deem and Ramdas Pophale) SiO2 
 PCOD9058835
Probable space group: P -1
;
_chemical_formula_sum "Si O2"
_cell_formula_units_Z 16
_cell_length_a 19.338934
_cell_length_b 10.360317
_cell_length_c 8.508450
_cell_angle_alpha 106.551204
_cell_angle_beta 105.915440
_cell_angle_gamma 22.932676
_cell_volume 636.403498
_symmetry_space_group_name_H-M "P -1"
_symmetry_group_IT_number 2
_symmetry_cell_setting 'triclinic'
loop_
_space_group_symop_operation_xyz
x,y,z
-x,-y,-z
loop_
_atom_site_type_symbol
_atom_site_label
_atom_site_fract_x
_atom_site_fract_y
_atom_site_fract_z
Si Si1 0.796904 0.426848 0.606395
Si Si2 0.323056 0.569121 0.720103
Si Si3 0.758707 0.036665 0.063182
Si Si4 0.433465 0.482828 0.168485
Si Si5 0.723002 0.986516 0.707388
Si Si6 0.940674 0.151717 0.184264
Si Si7 0.520395 0.880228 0.815170
Si Si8 0.166576 0.422857 0.591809
O O1 0.713510 0.442262 0.471160
O O2 0.645906 0.747749 0.732350
O O3 0.844782 0.453054 0.515906
O O4 0.947920 0.113974 0.704726
O O5 0.192419 0.925555 0.775102
O O6 0.534392 0.241211 0.729623
O O7 0.257057 0.568556 0.804152
O O8 0.642353 0.139471 0.138175
O O9 0.645906 0.336273 0.986909
O O10 0.831511 0.825952 0.885589
O O11 0.351403 0.743462 0.310566
O O12 0.386726 0.418575 0.179372
O O13 0.828825 0.726109 0.549106
O O14 0.958992 0.282596 0.259403
O O15 0.000000 0.000000 0.000000
O O16 0.350962 0.120575 0.695813
O O17 0.500000 0.000000 0.000000
#
# Coordination Sequence:
#
# PCOD9058835 Si02
#       8
#     2   2   2   2   2   2   2   2
#     4  11  25  39  60  90 125 171 201 253 315 379
#     4  10  17  37  63  85 118 163 206 240 309 368
#     4   8  17  33  60  88 122 169 193 251 307 389
#     4   8  18  33  53  90 130 152 196 242 326 350
#     4   9  18  35  63  95 118 162 199 261 304 369
#     4  11  26  42  61  88 127 171 208 254 314 374
#     4  12  25  33  62  99 127 159 204 271 305 358
#     4  11  23  40  61  92 127 158 213 257 311 365
#
# _framework density 25.141282
#
# number of rings (size 3 to 8) (size 9 to 14) (size 15 to 20)
#    0.750    1.250    2.500    2.625    8.750    0.500 
#    0.000    0.000    0.000    6.000    6.500    0.000 
#    0.000    0.000    0.000    0.000    0.000    0.000 
#
# Total GULP energy -89072.097083 kJ/mol
# GULP energy per Si atom -5567.006068 kJ/mol
# Density = 2.508406 g / cm^3
# Si number density = 25.141282 Si / 1000 Ang^3
#
#
#
# Elastic Constant Matrix: (Units=GPa)
#
#
# Indices 1 2 3 4 5 6 
#
# 1 69.4797 17.1783 19.8197 15.2670 6.6870 7.0922
# 2 17.1783 55.1062 50.2115 6.2837 3.5491 11.8816
# 3 19.8197 50.2115 154.3332 43.5912 16.7745 13.7050
# 4 15.2670 6.2837 43.5912 57.8074 14.5634 6.7797
# 5 6.6870 3.5491 16.7745 14.5634 35.7683 11.2192
# 6 7.0922 11.8816 13.7050 6.7797 11.2192 35.2092
#
#
#
# Elastic Compliance Matrix: (Units=1/GPa)
#
#
# Indices 1 2 3 4 5 6 
#
# 1 0.016529 -0.005328 0.000970 -0.004155 -0.001085 -0.000763
# 2 -0.005328 0.030003 -0.010497 0.006227 0.002600 -0.006993
# 3 0.000970 -0.010497 0.012133 -0.007884 -0.001849 0.000732
# 4 -0.004155 0.006227 -0.007884 0.025335 -0.006105 -0.001129
# 5 -0.001085 0.002600 -0.001849 -0.006105 0.034295 -0.009692
# 6 -0.000763 -0.006993 0.000732 -0.001129 -0.009692 0.033936
#
#
# Mechanical properties :
#
#
# Convention : Reuss Voigt Hill
#
# Bulk Modulus (GPa) = 34.53799 50.37092 42.45446
# Shear Modulus (GPa) = 26.09691 38.53761 32.31726
#
# Velocity S-wave (km/s) = 3.22531 3.91940 3.58917
# Velocity P-wave (km/s) = 5.25714 6.36874 5.83945
#
# Compressibility (1/GPa) = 0.02895362
#
# Stress axis : x y z
#
# Youngs Moduli (GPa) = 60.50121 33.32989 82.41870
#
# Poissons Ratio (x) = 0.17759 -0.07995
# Poissons Ratio (y) = 0.32236 0.86519
# Poissons Ratio (z) = -0.05869 0.34988
#
# Static dielectric constant tensor:
#      x y z
#    x 2.064260 -0.027710 0.146820 
#    y -0.027710 2.136200 0.080430 
#    z 0.146820 0.080430 2.175170 
# 
# From -- ./inp_files/353580.got.cif
#   From: 2010.05.17/outbox.cif.g08.bks.cpg/sg2_177_cif.got.tgz:353580.got - 2010.06.03 11:33:40.
