data_PCOD9058819
_publ_section_title
;
Structure prediction by ZEFSAII (Michael W. Deem and Ramdas Pophale) SiO2 
 PCOD9058819
Probable space group: P -1
;
_chemical_formula_sum "Si O2"
_cell_formula_units_Z 12
_cell_length_a 13.714060
_cell_length_b 12.193799
_cell_length_c 6.589545
_cell_angle_alpha 47.826282
_cell_angle_beta 138.957968
_cell_angle_gamma 136.953943
_cell_volume 475.797796
_symmetry_space_group_name_H-M "P -1"
_symmetry_group_IT_number 2
_symmetry_cell_setting 'triclinic'
loop_
_space_group_symop_operation_xyz
x,y,z
-x,-y,-z
loop_
_atom_site_type_symbol
_atom_site_label
_atom_site_fract_x
_atom_site_fract_y
_atom_site_fract_z
Si Si1 0.399837 0.655221 0.759245
Si Si2 0.723258 0.831240 0.836472
Si Si3 0.960795 0.936106 0.745236
Si Si4 0.186998 0.617360 0.083329
Si Si5 0.629581 0.103059 0.252837
Si Si6 0.882927 0.583371 0.140492
O O1 0.578646 0.685603 0.918428
O O2 0.306984 0.679685 0.385606
O O3 0.416159 0.783877 0.806402
O O4 0.264652 0.473172 0.855873
O O5 0.771373 0.854000 0.642298
O O6 0.665703 0.975026 0.597168
O O7 0.907434 0.900072 0.133103
O O8 0.994270 0.776910 0.030903
O O9 0.000000 0.000000 0.500000
O O10 0.211688 0.770250 0.789031
O O11 0.217693 0.497510 0.124320
O O12 0.000000 0.500000 0.000000
O O13 0.500000 0.000000 0.000000
O O14 0.000000 0.500000 0.500000
#
# Coordination Sequence:
#
# PCOD9058819 Si02
#       6
#     2   2   2   2   2   2
#     4  11  24  42  68 106 142 181 239 296 344 430
#     4  11  26  44  68 104 143 185 241 291 361 421
#     4  11  28  47  72 101 144 192 233 297 359 424
#     4  11  23  36  66 105 139 183 231 289 353 404
#     4  11  24  40  72 107 140 183 238 294 357 418
#     4  11  24  45  72 104 141 186 242 292 350 423
#
# _framework density 25.220797999999998
#
# number of rings (size 3 to 8) (size 9 to 14) (size 15 to 20)
#    0.000    1.000    3.333    2.500    4.667    2.000 
#    0.000    1.667    0.000    0.000    0.000    0.000 
#    0.000    0.000    0.000    0.000    0.000    0.000 
#
# Total GULP energy -66971.874006 kJ/mol
# GULP energy per Si atom -5580.989500 kJ/mol
# Density = 2.516339 g / cm^3
# Si number density = 25.220798 Si / 1000 Ang^3
#
#
#
# Elastic Constant Matrix: (Units=GPa)
#
#
# Indices 1 2 3 4 5 6 
#
# 1 159.6375 42.6400 41.0535 -3.1932 -29.5161 37.7987
# 2 42.6400 129.8249 40.7297 -6.9065 -22.0640 29.2623
# 3 41.0535 40.7297 74.6887 -1.3569 -34.4758 2.1792
# 4 -3.1932 -6.9065 -1.3569 52.7582 4.7428 -18.7049
# 5 -29.5161 -22.0640 -34.4758 4.7428 38.7768 -8.6497
# 6 37.7987 29.2623 2.1792 -18.7049 -8.6497 60.3928
#
#
#
# Elastic Compliance Matrix: (Units=1/GPa)
#
#
# Indices 1 2 3 4 5 6 
#
# 1 0.008984 -0.000267 -0.003473 -0.001780 0.002579 -0.005550
# 2 -0.000267 0.010600 -0.005579 -0.000512 -0.000173 -0.004951
# 3 -0.003473 -0.005579 0.027386 0.000404 0.020016 0.006880
# 4 -0.001780 -0.000512 0.000404 0.021742 -0.002214 0.007764
# 5 0.002579 -0.000173 0.020016 -0.002214 0.046551 0.003729
# 6 -0.005550 -0.004951 0.006880 0.007764 0.003729 0.025122
#
#
# Mechanical properties :
#
#
# Convention : Reuss Voigt Hill
#
# Bulk Modulus (GPa) = 35.29425 68.11085 51.70255
# Shear Modulus (GPa) = 29.67982 46.36740 38.02361
#
# Velocity S-wave (km/s) = 3.43417 4.29238 3.88703
# Velocity P-wave (km/s) = 5.45428 7.18543 6.37886
#
# Compressibility (1/GPa) = 0.02833323
#
# Stress axis : x y z
#
# Youngs Moduli (GPa) = 111.31057 94.34240 36.51536
#
# Poissons Ratio (x) = 0.02515 0.12681
# Poissons Ratio (y) = 0.02967 0.20371
# Poissons Ratio (z) = 0.38656 0.52630
#
# Static dielectric constant tensor:
#      x y z
#    x 2.143450 -0.046860 -0.023570 
#    y -0.046860 2.102110 -0.011720 
#    z -0.023570 -0.011720 2.003450 
# 
# From -- ./inp_files/97525.got.cif
#   From: 2010.05.17/outbox.cif.g08.bks.cpg/sg2_49_cif.got.tgz:97525.got - 2010.06.03 11:33:40.
