data_PCOD9058707
_publ_section_title
;
Structure prediction by ZEFSAII (Michael W. Deem and Ramdas Pophale) SiO2 
 PCOD9058707
Probable space group: P -1
;
_chemical_formula_sum "Si O2"
_cell_formula_units_Z 15
_cell_length_a 14.721098
_cell_length_b 7.428084
_cell_length_c 9.126279
_cell_angle_alpha 73.751524
_cell_angle_beta 37.400448
_cell_angle_gamma 76.192947
_cell_volume 581.699335
_symmetry_space_group_name_H-M "P -1"
_symmetry_group_IT_number 2
_symmetry_cell_setting 'triclinic'
loop_
_space_group_symop_operation_xyz
x,y,z
-x,-y,-z
loop_
_atom_site_type_symbol
_atom_site_label
_atom_site_fract_x
_atom_site_fract_y
_atom_site_fract_z
Si Si1 0.046917 0.577160 0.721603
Si Si2 0.264998 0.281478 0.889624
Si Si3 0.315364 0.655841 0.578181
Si Si4 0.448197 0.772462 0.903011
Si Si5 0.914922 0.164161 0.981856
Si Si6 0.114482 0.842211 0.328160
Si Si7 0.500000 0.000000 0.500000
Si Si8 0.597765 0.662658 0.016121
O O1 0.995324 0.364430 0.850402
O O2 0.190792 0.614478 0.626239
O O3 0.079049 0.647732 0.500449
O O4 0.909042 0.705075 0.930872
O O5 0.334144 0.471387 0.694304
O O6 0.361627 0.114573 0.737645
O O7 0.265673 0.298264 0.061837
O O8 0.460203 0.708999 0.292247
O O9 0.251697 0.811677 0.737721
O O10 0.409326 0.556026 0.966847
O O11 0.512877 0.854533 0.654865
O O12 0.290260 0.867541 0.132702
O O13 0.568671 0.773619 0.879019
O O14 0.901437 0.150620 0.827876
O O15 0.000000 0.000000 0.000000
O O16 0.000000 0.000000 0.500000
#
# Coordination Sequence:
#
# PCOD9058707 Si02
#       8
#     2   2   2   2   2   2   1   2
#     4  11  24  48  73 101 148 188 240 297 364 423
#     4  11  24  44  71 105 141 187 231 297 354 427
#     4  11  22  47  72 103 140 190 240 296 355 428
#     4  11  25  46  71 103 137 191 236 293 355 430
#     4  11  25  41  69 109 140 187 235 297 365 425
#     4  12  25  46  72 104 148 189 241 298 359 426
#     4  12  26  42  70 110 142 180 240 296 358 430
#     4  11  24  47  73  98 141 193 237 284 360 431
#
# _framework density 25.786518999999998
#
# number of rings (size 3 to 8) (size 9 to 14) (size 15 to 20)
#    0.000    0.800    2.667    5.600    1.867    1.600 
#    0.000    0.000    0.000    0.000    0.000    0.000 
#    0.000    0.000    0.000    0.000    0.000    0.000 
#
# Total GULP energy -83916.421620 kJ/mol
# GULP energy per Si atom -5594.428108 kJ/mol
# Density = 2.572783 g / cm^3
# Si number density = 25.786519 Si / 1000 Ang^3
#
#
#
# Elastic Constant Matrix: (Units=GPa)
#
#
# Indices 1 2 3 4 5 6 
#
# 1 152.3654 42.3820 26.6723 -5.1750 26.0375 -19.9911
# 2 42.3820 125.3752 27.0760 -0.8952 24.7532 -18.6052
# 3 26.6723 27.0760 108.3552 -7.9530 23.7890 -17.4136
# 4 -5.1750 -0.8952 -7.9530 48.9742 -9.0064 15.5189
# 5 26.0375 24.7532 23.7890 -9.0064 47.6976 -10.2604
# 6 -19.9911 -18.6052 -17.4136 15.5189 -10.2604 37.0974
#
#
#
# Elastic Compliance Matrix: (Units=1/GPa)
#
#
# Indices 1 2 3 4 5 6 
#
# 1 0.007911 -0.001616 -0.000554 -0.000645 -0.002744 0.002703
# 2 -0.001616 0.009897 -0.000901 -0.001875 -0.003403 0.003513
# 3 -0.000554 -0.000901 0.011002 -0.000085 -0.004015 0.003339
# 4 -0.000645 -0.001875 -0.000085 0.024301 0.003704 -0.010469
# 5 -0.002744 -0.003403 -0.004015 0.003704 0.027121 0.000882
# 6 0.002703 0.003513 0.003339 -0.010469 0.000882 0.036365
#
#
# Mechanical properties :
#
#
# Convention : Reuss Voigt Hill
#
# Bulk Modulus (GPa) = 44.11661 64.26183 54.18922
# Shear Modulus (GPa) = 38.37389 46.08488 42.22939
#
# Velocity S-wave (km/s) = 3.86182 4.23208 4.05118
# Velocity P-wave (km/s) = 6.08527 6.98967 6.55309
#
# Compressibility (1/GPa) = 0.02266720
#
# Stress axis : x y z
#
# Youngs Moduli (GPa) = 126.39859 101.04303 90.88988
#
# Poissons Ratio (x) = 0.16333 0.05035
# Poissons Ratio (y) = 0.20432 0.08191
# Poissons Ratio (z) = 0.07003 0.09106
#
# Static dielectric constant tensor:
#      x y z
#    x 1.522000 -0.067110 -0.046500 
#    y -0.067110 2.016760 0.001290 
#    z -0.046500 0.001290 1.968950 
# 
# From -- ./inp_files/294659.got.cif
#   From: 2010.05.17/outbox.cif.g08.bks.cpg/sg2_148_cif.got.tgz:294659.got - 2010.06.03 11:33:40.
