data_PCOD9058364
_publ_section_title
;
Structure prediction by ZEFSAII (Michael W. Deem and Ramdas Pophale) SiO2 
 PCOD9058364
Probable space group: P -1
;
_chemical_formula_sum "Si O2"
_cell_formula_units_Z 14
_cell_length_a 6.900945
_cell_length_b 8.953520
_cell_length_c 11.693530
_cell_angle_alpha 100.484596
_cell_angle_beta 56.338915
_cell_angle_gamma 115.679544
_cell_volume 540.341705
_symmetry_space_group_name_H-M "P -1"
_symmetry_group_IT_number 2
_symmetry_cell_setting 'triclinic'
loop_
_space_group_symop_operation_xyz
x,y,z
-x,-y,-z
loop_
_atom_site_type_symbol
_atom_site_label
_atom_site_fract_x
_atom_site_fract_y
_atom_site_fract_z
Si Si1 0.327972 0.088942 0.122554
Si Si2 0.552377 0.608753 0.384440
Si Si3 0.355252 0.517339 0.898172
Si Si4 0.237010 0.033530 0.714557
Si Si5 0.883802 0.282013 0.435334
Si Si6 0.228674 0.856629 0.318938
Si Si7 0.811860 0.464579 0.822479
O O1 0.491343 0.284823 0.106594
O O2 0.249194 0.017148 0.266189
O O3 0.048919 0.036791 0.149209
O O4 0.500000 0.000000 0.000000
O O5 0.500000 0.500000 0.500000
O O6 0.647688 0.526725 0.239639
O O7 0.727095 0.805613 0.352297
O O8 0.280151 0.618145 0.453220
O O9 0.515904 0.420279 0.886371
O O10 0.126761 0.472115 0.058512
O O11 0.478482 0.095807 0.728759
O O12 0.258034 0.886499 0.613161
O O13 0.950444 0.212603 0.521199
O O14 0.059248 0.398079 0.296396
O O15 0.146657 0.700060 0.238773
#
# Coordination Sequence:
#
# PCOD9058364 Si02
#       7
#     2   2   2   2   2   2   2
#     4  12  27  47  70 108 144 190 242 292 362 429
#     4  11  26  44  73 107 148 185 243 298 358 429
#     4  11  24  45  68 105 145 187 237 294 360 429
#     4  11  26  48  68 106 145 187 238 300 358 418
#     4  11  24  45  72 105 141 193 239 292 363 423
#     4  11  24  45  74 102 143 186 246 295 357 429
#     4  11  22  45  71 100 143 190 239 291 362 426
#
# _framework density 25.909531999999999
#
# number of rings (size 3 to 8) (size 9 to 14) (size 15 to 20)
#    0.000    0.857    5.714    2.143    6.000    1.143 
#    2.571    1.429    0.000    0.000    0.000    0.000 
#    0.000    0.000    0.000    0.000    0.000    0.000 
#
# Total GULP energy -78248.238397 kJ/mol
# GULP energy per Si atom -5589.159885 kJ/mol
# Density = 2.585056 g / cm^3
# Si number density = 25.909532 Si / 1000 Ang^3
#
#
#
# Elastic Constant Matrix: (Units=GPa)
#
#
# Indices 1 2 3 4 5 6 
#
# 1 70.4485 16.1415 34.6996 5.7380 0.2381 -0.1930
# 2 16.1415 147.8393 59.8859 4.0823 11.2325 -1.0502
# 3 34.6996 59.8859 206.6967 7.7244 10.2668 5.2496
# 4 5.7380 4.0823 7.7244 53.0766 -7.7538 0.9311
# 5 0.2381 11.2325 10.2668 -7.7538 46.2262 -2.7999
# 6 -0.1930 -1.0502 5.2496 0.9311 -2.7999 32.9862
#
#
#
# Elastic Compliance Matrix: (Units=1/GPa)
#
#
# Indices 1 2 3 4 5 6 
#
# 1 0.015647 -0.000731 -0.002405 -0.001228 0.000457 0.000524
# 2 -0.000731 0.007807 -0.002060 -0.000446 -0.001483 0.000459
# 3 -0.002405 -0.002060 0.005936 -0.000567 -0.000966 -0.001090
# 4 -0.001228 -0.000446 -0.000567 0.019608 0.003518 -0.000186
# 5 0.000457 -0.001483 -0.000966 0.003518 0.022914 0.001955
# 6 0.000524 0.000459 -0.001090 -0.000186 0.001955 0.030678
#
#
# Mechanical properties :
#
#
# Convention : Reuss Voigt Hill
#
# Bulk Modulus (GPa) = 52.64314 71.82650 62.23482
# Shear Modulus (GPa) = 41.90620 47.40830 44.65725
#
# Velocity S-wave (km/s) = 4.02606 4.28221 4.15611
# Velocity P-wave (km/s) = 6.47876 7.22717 6.86318
#
# Compressibility (1/GPa) = 0.01899583
#
# Stress axis : x y z
#
# Youngs Moduli (GPa) = 63.91078 128.09358 168.47448
#
# Poissons Ratio (x) = 0.09367 0.40518
# Poissons Ratio (y) = 0.04674 0.34713
# Poissons Ratio (z) = 0.15371 0.26393
#
# Static dielectric constant tensor:
#      x y z
#    x 2.190860 0.056580 -0.068940 
#    y 0.056580 1.955470 -0.043030 
#    z -0.068940 -0.043030 2.124050 
# 
# From -- ./inp_files/296142.got.cif
#   From: 2010.05.17/outbox.cif.g08.bks.cpg/sg2_149_cif.got.tgz:296142.got - 2010.06.03 11:33:40.
