data_PCOD9058696
_publ_section_title
;
Structure prediction by ZEFSAII (Michael W. Deem and Ramdas Pophale) SiO2 
 PCOD9058696
Probable space group: P -1
;
_chemical_formula_sum "Si O2"
_cell_formula_units_Z 14
_cell_length_a 14.630039
_cell_length_b 9.108619
_cell_length_c 8.065650
_cell_angle_alpha 32.550325
_cell_angle_beta 109.521503
_cell_angle_gamma 102.480876
_cell_volume 540.482068
_symmetry_space_group_name_H-M "P -1"
_symmetry_group_IT_number 2
_symmetry_cell_setting 'triclinic'
loop_
_space_group_symop_operation_xyz
x,y,z
-x,-y,-z
loop_
_atom_site_type_symbol
_atom_site_label
_atom_site_fract_x
_atom_site_fract_y
_atom_site_fract_z
Si Si1 0.061993 0.172669 0.493128
Si Si2 0.592685 0.098792 0.549821
Si Si3 0.871346 0.111207 0.853577
Si Si4 0.290842 0.174892 0.582549
Si Si5 0.336681 0.687819 0.307825
Si Si6 0.090548 0.445949 0.781630
Si Si7 0.692569 0.570938 0.995619
O O1 0.082433 0.008001 0.834573
O O2 0.171706 0.209549 0.466310
O O3 0.994220 0.453081 0.236536
O O4 0.000000 0.000000 0.500000
O O5 0.500000 0.000000 0.500000
O O6 0.634773 0.320586 0.245261
O O7 0.578151 0.244237 0.582342
O O8 0.665377 0.813572 0.881510
O O9 0.759907 0.215132 0.732989
O O10 0.886953 0.870912 0.955150
O O11 0.918277 0.368693 0.566741
O O12 0.327010 0.871134 0.960998
O O13 0.329179 0.272292 0.339487
O O14 0.327666 0.379335 0.545181
O O15 0.192252 0.528274 0.838117
#
# Coordination Sequence:
#
# PCOD9058696 Si02
#       7
#     2   2   2   2   2   2   2
#     4  11  28  43  66 104 145 190 243 289 330 397
#     4  12  26  49  79 109 134 174 238 298 354 431
#     4  11  23  45  65  95 137 188 237 283 337 401
#     4  11  27  45  69 100 151 189 229 276 356 415
#     4  11  22  47  71 101 137 190 228 285 355 422
#     4  12  24  44  68  97 141 183 243 283 334 404
#     4  12  25  47  73 107 143 183 229 292 361 417
#
# _framework density 25.902802999999999
#
# number of rings (size 3 to 8) (size 9 to 14) (size 15 to 20)
#    0.000    0.571    2.857    4.714    8.000    2.857 
#    0.000    4.286    0.000    0.000    0.000    0.000 
#    0.000    0.000    0.000    0.000    0.000    0.000 
#
# Total GULP energy -78526.401137 kJ/mol
# GULP energy per Si atom -5609.028653 kJ/mol
# Density = 2.584385 g / cm^3
# Si number density = 25.902803 Si / 1000 Ang^3
#
#
#
# Elastic Constant Matrix: (Units=GPa)
#
#
# Indices 1 2 3 4 5 6 
#
# 1 49.5023 24.4795 30.9409 5.7846 -19.2617 13.8321
# 2 24.4795 135.8543 12.2154 -11.0999 -19.4301 9.1632
# 3 30.9409 12.2154 115.4949 -16.3151 -39.8276 -1.2745
# 4 5.7846 -11.0999 -16.3151 52.4692 -1.8304 -2.2535
# 5 -19.2617 -19.4301 -39.8276 -1.8304 40.4309 -5.1797
# 6 13.8321 9.1632 -1.2745 -2.2535 -5.1797 40.0139
#
#
#
# Elastic Compliance Matrix: (Units=1/GPa)
#
#
# Indices 1 2 3 4 5 6 
#
# 1 0.032825 -0.004551 -0.008215 -0.007459 0.003674 -0.010511
# 2 -0.004551 0.008869 0.002332 0.003280 0.004590 0.000395
# 3 -0.008215 0.002332 0.016793 0.007357 0.014744 0.005164
# 4 -0.007459 0.003280 0.007357 0.023285 0.006870 0.004262
# 5 0.003674 0.004590 0.014744 0.006870 0.044068 0.004240
# 6 -0.010511 0.000395 0.005164 0.004262 0.004240 0.029487
#
#
# Mechanical properties :
#
#
# Convention : Reuss Voigt Hill
#
# Bulk Modulus (GPa) = 26.58273 48.45813 37.52043
# Shear Modulus (GPa) = 26.49207 42.13052 34.31130
#
# Velocity S-wave (km/s) = 3.20151 4.03735 3.64348
# Velocity P-wave (km/s) = 4.89398 6.36253 5.67595
#
# Compressibility (1/GPa) = 0.03761841
#
# Stress axis : x y z
#
# Youngs Moduli (GPa) = 30.46496 112.75158 59.54805
#
# Poissons Ratio (x) = 0.51314 0.48919
# Poissons Ratio (y) = 0.13865 -0.13886
# Poissons Ratio (z) = 0.25027 -0.26292
#
# Static dielectric constant tensor:
#      x y z
#    x 2.080020 0.048050 0.053630 
#    y 0.048050 2.096620 0.068530 
#    z 0.053630 0.068530 2.024300 
# 
# From -- ./inp_files/328314.got.cif
#   From: 2010.05.17/outbox.cif.g08.bks.cpg/sg2_165_cif.got.tgz:328314.got - 2010.06.03 11:33:40.
