data_PCOD9058831
_publ_section_title
;
Structure prediction by ZEFSAII (Michael W. Deem and Ramdas Pophale) SiO2 
 PCOD9058831
Probable space group: P -1
;
_chemical_formula_sum "Si O2"
_cell_formula_units_Z 16
_cell_length_a 12.130152
_cell_length_b 14.527556
_cell_length_c 14.680325
_cell_angle_alpha 151.554756
_cell_angle_beta 117.674959
_cell_angle_gamma 44.511080
_cell_volume 754.565768
_symmetry_space_group_name_H-M "P -1"
_symmetry_group_IT_number 2
_symmetry_cell_setting 'triclinic'
loop_
_space_group_symop_operation_xyz
x,y,z
-x,-y,-z
loop_
_atom_site_type_symbol
_atom_site_label
_atom_site_fract_x
_atom_site_fract_y
_atom_site_fract_z
Si Si1 0.131607 0.761637 0.555107
Si Si2 0.847479 0.817660 0.033893
Si Si3 0.441024 0.864903 0.640468
Si Si4 0.736305 0.031962 0.662468
Si Si5 0.241826 0.274870 0.750295
Si Si6 0.449466 0.404810 0.007354
Si Si7 0.663327 0.827233 0.811660
Si Si8 0.398157 0.470717 0.257509
O O1 0.286151 0.449757 0.382517
O O2 0.197584 0.700822 0.422580
O O3 0.135852 0.970188 0.779489
O O4 0.937457 0.887486 0.605566
O O5 0.683340 0.962137 0.166623
O O6 0.819904 0.757704 0.870780
O O7 0.026812 0.530341 0.897919
O O8 0.605061 0.832559 0.690421
O O9 0.480728 0.590526 0.414843
O O10 0.330715 0.045826 0.664934
O O11 0.653788 0.130761 0.817557
O O12 0.723124 0.847007 0.442815
O O13 0.607266 0.320306 0.807602
O O14 0.326448 0.390097 0.894204
O O15 0.403328 0.441670 0.126771
O O16 0.510589 0.159822 0.066307
#
# Coordination Sequence:
#
# PCOD9058831 Si02
#       8
#     2   2   2   2   2   2   2   2
#     4  11  23  40  65  97 128 168 215 264 315 378
#     4  11  23  37  62  98 132 165 212 264 319 379
#     4  11  23  37  62  98 132 165 212 264 319 379
#     4  11  24  43  66  94 128 170 214 266 323 381
#     4  12  22  40  66  94 121 172 215 264 317 384
#     4  11  24  43  66  94 128 170 214 266 323 381
#     4  12  23  40  65  94 135 174 209 262 323 376
#     4  11  23  40  65  97 128 168 215 264 315 378
#
# _framework density 21.204249999999998
#
# number of rings (size 3 to 8) (size 9 to 14) (size 15 to 20)
#    0.000    0.750    5.000    3.750    0.000    3.500 
#    0.000    0.625    0.000    1.500    0.000    0.000 
#    0.000    0.000    0.000    0.000    0.000    0.000 
#
# Total GULP energy -89098.784933 kJ/mol
# GULP energy per Si atom -5568.674058 kJ/mol
# Density = 2.115599 g / cm^3
# Si number density = 21.204250 Si / 1000 Ang^3
#
#
#
# Elastic Constant Matrix: (Units=GPa)
#
#
# Indices 1 2 3 4 5 6 
#
# 1 85.6905 71.8583 74.7080 -38.8394 -29.9440 4.0201
# 2 71.8583 136.3245 97.2733 -30.9916 -25.2550 7.2553
# 3 74.7080 97.2733 174.3298 -43.4401 -13.1035 20.4442
# 4 -38.8394 -30.9916 -43.4401 41.5063 11.2594 2.8170
# 5 -29.9440 -25.2550 -13.1035 11.2594 55.0363 -13.1176
# 6 4.0201 7.2553 20.4442 2.8170 -13.1176 21.3360
#
#
#
# Elastic Compliance Matrix: (Units=1/GPa)
#
#
# Indices 1 2 3 4 5 6 
#
# 1 0.036282 -0.008806 -0.006470 0.016635 0.012648 0.007938
# 2 -0.008806 0.015989 -0.006594 -0.004372 0.003063 0.005000
# 3 -0.006470 -0.006594 0.016129 0.009683 -0.009198 -0.018927
# 4 0.016635 -0.004372 0.009683 0.049526 -0.005794 -0.021027
# 5 0.012648 0.003063 -0.009198 -0.005794 0.031541 0.025546
# 6 0.007938 0.005000 -0.018927 -0.021027 0.025546 0.080291
#
#
# Mechanical properties :
#
#
# Convention : Reuss Voigt Hill
#
# Bulk Modulus (GPa) = 40.54959 98.22487 69.38723
# Shear Modulus (GPa) = 17.74819 33.74272 25.74545
#
# Velocity S-wave (km/s) = 2.89625 3.99346 3.48827
# Velocity P-wave (km/s) = 5.50901 8.22724 7.00131
#
# Compressibility (1/GPa) = 0.02466116
#
# Stress axis : x y z
#
# Youngs Moduli (GPa) = 27.56184 62.54188 61.99889
#
# Poissons Ratio (x) = 0.55073 0.40114
# Poissons Ratio (y) = 0.24270 0.40881
# Poissons Ratio (z) = 0.17833 0.41239
#
# Static dielectric constant tensor:
#      x y z
#    x 1.819200 0.005090 -0.008520 
#    y 0.005090 1.799790 0.004670 
#    z -0.008520 0.004670 1.765740 
# 
# From -- ./inp_files/522666.got.cif
#   From: 2010.05.17/outbox.cif.g08.bks.cpg/sg2_262_cif.got.tgz:522666.got - 2010.06.03 11:33:40.
