data_PCOD9058284
_publ_section_title
;
Structure prediction by ZEFSAII (Michael W. Deem and Ramdas Pophale) SiO2 
 PCOD9058284
Probable space group: P -1
;
_chemical_formula_sum "Si O2"
_cell_formula_units_Z 16
_cell_length_a 9.816791
_cell_length_b 15.912939
_cell_length_c 9.233741
_cell_angle_alpha 97.334447
_cell_angle_beta 89.726002
_cell_angle_gamma 34.920734
_cell_volume 803.594525
_symmetry_space_group_name_H-M "P -1"
_symmetry_group_IT_number 2
_symmetry_cell_setting 'triclinic'
loop_
_space_group_symop_operation_xyz
x,y,z
-x,-y,-z
loop_
_atom_site_type_symbol
_atom_site_label
_atom_site_fract_x
_atom_site_fract_y
_atom_site_fract_z
Si Si1 0.716246 0.386802 0.855068
Si Si2 0.268370 0.147585 0.204123
Si Si3 0.091987 0.531353 0.598398
Si Si4 0.972763 0.123018 0.183451
Si Si5 0.517001 0.574533 0.611026
Si Si6 0.260690 0.805267 0.109182
Si Si7 0.246028 0.185040 0.877158
Si Si8 0.234889 0.380137 0.871160
O O1 0.631246 0.485961 0.742628
O O2 0.750232 0.268970 0.799055
O O3 0.973955 0.291109 0.883142
O O4 0.500000 0.500000 0.000000
O O5 0.111327 0.291546 0.334777
O O6 0.133398 0.125819 0.186882
O O7 0.545026 0.987000 0.213525
O O8 0.282550 0.177996 0.048174
O O9 0.311574 0.453287 0.485972
O O10 0.179084 0.456869 0.739763
O O11 0.000000 0.500000 0.500000
O O12 0.745146 0.252729 0.317203
O O13 0.862939 0.164133 0.031951
O O14 0.122206 0.962212 0.187315
O O15 0.500000 0.500000 0.500000
O O16 0.540266 0.689633 0.066978
O O17 0.287183 0.254114 0.816760
O O18 0.000000 0.500000 0.000000
#
# Coordination Sequence:
#
# PCOD9058284 Si02
#       8
#     2   2   2   2   2   2   2   2
#     4  12  23  43  69 105 130 176 236 276 321 401
#     4  11  22  45  67 101 141 174 221 279 347 392
#     4  12  28  45  66 101 140 179 223 277 341 407
#     4  11  23  43  67 103 138 175 221 282 341 393
#     4  12  25  44  70  94 139 185 218 273 348 399
#     4  11  24  40  72 103 133 169 234 284 322 396
#     4  11  23  40  72 100 134 176 222 283 338 386
#     4  12  24  43  68 104 134 173 230 282 325 396
#
# _framework density 19.910537999999999
#
# number of rings (size 3 to 8) (size 9 to 14) (size 15 to 20)
#    0.000    0.500    6.250    2.250    1.750    1.000 
#    0.000    7.500    0.000    0.000    0.000    0.000 
#    0.000    0.000    0.000    0.000    0.000    0.000 
#
# Total GULP energy -89455.703024 kJ/mol
# GULP energy per Si atom -5590.981439 kJ/mol
# Density = 1.986522 g / cm^3
# Si number density = 19.910538 Si / 1000 Ang^3
#
#
#
# Elastic Constant Matrix: (Units=GPa)
#
#
# Indices 1 2 3 4 5 6 
#
# 1 132.9436 46.7128 28.6633 1.2974 -6.0521 -4.2283
# 2 46.7128 129.8936 43.2577 11.6928 -5.5668 -2.8787
# 3 28.6633 43.2577 82.1068 9.5324 -17.1275 -1.6031
# 4 1.2974 11.6928 9.5324 33.3297 7.3052 0.9138
# 5 -6.0521 -5.5668 -17.1275 7.3052 39.8290 0.0630
# 6 -4.2283 -2.8787 -1.6031 0.9138 0.0630 43.2447
#
#
#
# Elastic Compliance Matrix: (Units=1/GPa)
#
#
# Indices 1 2 3 4 5 6 
#
# 1 0.008857 -0.002671 -0.001800 0.001091 -0.000003 0.000598
# 2 -0.002671 0.010281 -0.004313 -0.002185 -0.000423 0.000310
# 3 -0.001800 -0.004313 0.017215 -0.004978 0.007439 0.000269
# 4 0.001091 -0.002185 -0.004978 0.034045 -0.008523 -0.000930
# 5 -0.000003 -0.000423 0.007439 -0.008523 0.029809 0.000384
# 6 0.000598 0.000310 0.000269 -0.000930 0.000384 0.023232
#
#
# Mechanical properties :
#
#
# Convention : Reuss Voigt Hill
#
# Bulk Modulus (GPa) = 53.23375 64.69018 58.96196
# Shear Modulus (GPa) = 33.95168 38.36804 36.15986
#
# Velocity S-wave (km/s) = 4.13390 4.39455 4.26622
# Velocity P-wave (km/s) = 7.04131 7.63612 7.34474
#
# Compressibility (1/GPa) = 0.01878508
#
# Stress axis : x y z
#
# Youngs Moduli (GPa) = 112.90744 97.27018 58.08917
#
# Poissons Ratio (x) = 0.25977 0.10459
# Poissons Ratio (y) = 0.30153 0.25051
# Poissons Ratio (z) = 0.20329 0.41948
#
# Static dielectric constant tensor:
#      x y z
#    x 1.670500 0.036630 0.026130 
#    y 0.036630 1.639350 0.033280 
#    z 0.026130 0.033280 1.654790 
# 
# From -- ./inp_files/207780.got.cif
#   From: 2010.05.17/outbox.cif.g08.bks.cpg/sg2_104_cif.got.tgz:207780.got - 2010.06.03 11:33:40.
