data_PCOD9058244
_publ_section_title
;
Structure prediction by ZEFSAII (Michael W. Deem and Ramdas Pophale) SiO2 
 PCOD9058244
Probable space group: P -1
;
_chemical_formula_sum "Si O2"
_cell_formula_units_Z 14
_cell_length_a 9.215372
_cell_length_b 8.996907
_cell_length_c 9.469578
_cell_angle_alpha 110.969572
_cell_angle_beta 82.704973
_cell_angle_gamma 123.024572
_cell_volume 612.350384
_symmetry_space_group_name_H-M "P -1"
_symmetry_group_IT_number 2
_symmetry_cell_setting 'triclinic'
loop_
_space_group_symop_operation_xyz
x,y,z
-x,-y,-z
loop_
_atom_site_type_symbol
_atom_site_label
_atom_site_fract_x
_atom_site_fract_y
_atom_site_fract_z
Si Si1 0.147873 0.181081 0.960577
Si Si2 0.959891 0.350844 0.075334
Si Si3 0.470804 0.155722 0.486417
Si Si4 0.656074 0.047238 0.837957
Si Si5 0.841516 0.462062 0.404667
Si Si6 0.259232 0.318393 0.703741
Si Si7 0.521493 0.275976 0.033595
O O1 0.129498 0.174442 0.790390
O O2 0.338335 0.228484 0.984495
O O3 0.130133 0.348622 0.082041
O O4 0.000000 0.000000 0.000000
O O5 0.877015 0.377801 0.231829
O O6 0.823772 0.153203 0.950743
O O7 0.000000 0.500000 0.000000
O O8 0.657369 0.317665 0.453508
O O9 0.386297 0.251469 0.615791
O O10 0.500000 0.000000 0.500000
O O11 0.332675 0.032959 0.338352
O O12 0.514159 0.862273 0.877321
O O13 0.602081 0.201052 0.884642
O O14 0.827544 0.633953 0.399240
O O15 0.000000 0.500000 0.500000
O O16 0.366352 0.514178 0.847371
#
# Coordination Sequence:
#
# PCOD9058244 Si02
#       7
#     2   2   2   2   2   2   2
#     4  12  26  42  74 112 148 190 258 320 379 445
#     4  12  25  48  77 111 151 199 255 314 381 447
#     4  12  29  47  76 111 159 205 255 313 393 463
#     4  11  22  45  76 105 151 198 254 308 367 450
#     4  12  28  50  77 111 155 201 257 320 390 450
#     4  12  26  51  73 112 153 208 257 311 387 465
#     4  11  22  44  76 106 143 196 256 308 365 457
#
# _framework density 22.862729000000002
#
# number of rings (size 3 to 8) (size 9 to 14) (size 15 to 20)
#    0.000    0.286    5.714    2.571    6.000    0.000 
#    0.000    1.429    0.000    0.000    0.000    0.000 
#    0.000    0.000    0.000    0.000    0.000    0.000 
#
# Total GULP energy -78206.957058 kJ/mol
# GULP energy per Si atom -5586.211218 kJ/mol
# Density = 2.281069 g / cm^3
# Si number density = 22.862729 Si / 1000 Ang^3
#
#
#
# Elastic Constant Matrix: (Units=GPa)
#
#
# Indices 1 2 3 4 5 6 
#
# 1 178.8317 51.8342 53.9758 -11.0536 -19.7696 -22.8370
# 2 51.8342 127.1192 59.6632 -20.0769 -7.4510 -11.4545
# 3 53.9758 59.6632 115.7593 -4.0578 -18.0483 3.8192
# 4 -11.0536 -20.0769 -4.0578 38.1349 -1.9697 -1.8990
# 5 -19.7696 -7.4510 -18.0483 -1.9697 55.0199 0.1811
# 6 -22.8370 -11.4545 3.8192 -1.8990 0.1811 37.8862
#
#
#
# Elastic Compliance Matrix: (Units=1/GPa)
#
#
# Indices 1 2 3 4 5 6 
#
# 1 0.007637 -0.000963 -0.002892 0.001721 0.001711 0.004682
# 2 -0.000963 0.012251 -0.005862 0.005725 -0.000418 0.004003
# 3 -0.002892 -0.005862 0.013474 -0.002611 0.002510 -0.005017
# 4 0.001721 0.005725 -0.002611 0.029764 0.001588 0.004515
# 5 0.001711 -0.000418 0.002510 0.001588 0.019612 0.000638
# 6 0.004682 0.004003 -0.005017 0.004515 0.000638 0.031157
#
#
# Mechanical properties :
#
#
# Convention : Reuss Voigt Hill
#
# Bulk Modulus (GPa) = 71.79681 83.62852 77.71267
# Shear Modulus (GPa) = 36.23957 43.29067 39.76512
#
# Velocity S-wave (km/s) = 3.98564 4.35616 4.17501
# Velocity P-wave (km/s) = 7.25617 7.87143 7.57006
#
# Compressibility (1/GPa) = 0.01392819
#
# Stress axis : x y z
#
# Youngs Moduli (GPa) = 130.93636 81.62706 74.21847
#
# Poissons Ratio (x) = 0.07859 0.21466
# Poissons Ratio (y) = 0.12606 0.43506
# Poissons Ratio (z) = 0.37870 0.47848
#
# Static dielectric constant tensor:
#      x y z
#    x 1.934710 -0.082260 0.040390 
#    y -0.082260 2.161710 -0.029660 
#    z 0.040390 -0.029660 1.861750 
# 
# From -- ./inp_files/155890.got.cif
#   From: 2010.05.17/outbox.cif.g08.bks.cpg/sg2_78_cif.got.tgz:155890.got - 2010.06.03 11:33:40.
