data_PCOD9058188
_publ_section_title
;
Structure prediction by ZEFSAII (Michael W. Deem and Ramdas Pophale) SiO2 
 PCOD9058188
Probable space group: P -1
;
_chemical_formula_sum "Si O2"
_cell_formula_units_Z 16
_cell_length_a 11.569978
_cell_length_b 9.446265
_cell_length_c 8.003337
_cell_angle_alpha 86.060726
_cell_angle_beta 52.287734
_cell_angle_gamma 98.161017
_cell_volume 671.322048
_symmetry_space_group_name_H-M "P -1"
_symmetry_group_IT_number 2
_symmetry_cell_setting 'triclinic'
loop_
_space_group_symop_operation_xyz
x,y,z
-x,-y,-z
loop_
_atom_site_type_symbol
_atom_site_label
_atom_site_fract_x
_atom_site_fract_y
_atom_site_fract_z
Si Si1 0.738755 0.104181 0.035319
Si Si2 0.493375 0.164275 0.841135
Si Si3 0.241488 0.894317 0.612294
Si Si4 0.050533 0.093692 0.616178
Si Si5 0.618760 0.588411 0.261435
Si Si6 0.875900 0.590536 0.628374
Si Si7 0.948156 0.634915 0.950519
Si Si8 0.631811 0.366211 0.973693
O O1 0.681116 0.077319 0.277879
O O2 0.737745 0.267979 0.967419
O O3 0.621726 0.991455 0.034741
O O4 0.903425 0.076409 0.864078
O O5 0.651670 0.150713 0.619594
O O6 0.423316 0.264580 0.771583
O O7 0.506369 0.249327 0.998507
O O8 0.179253 0.029963 0.592447
O O9 0.093416 0.768024 0.800745
O O10 0.100887 0.261950 0.505692
O O11 0.000000 0.000000 0.500000
O O12 0.500000 0.500000 0.500000
O O13 0.789228 0.634620 0.177843
O O14 0.599513 0.471747 0.135677
O O15 0.000000 0.500000 0.500000
O O16 0.892836 0.623980 0.807921
O O17 0.719097 0.476182 0.747153
O O18 0.000000 0.500000 0.000000
#
# Coordination Sequence:
#
# PCOD9058188 Si02
#       8
#     2   2   2   2   2   2   2   2
#     4  12  26  48  72 104 148 191 248 306 367 432
#     4  12  26  49  72 103 150 193 247 301 365 436
#     4  12  25  47  73 109 144 196 245 300 370 433
#     4  12  25  46  74 107 147 186 245 304 365 440
#     4  11  25  47  71 110 150 187 240 300 364 441
#     4  11  22  44  73 106 142 182 242 303 359 435
#     4  11  23  43  76 102 146 184 237 297 363 432
#     4  11  24  46  73 106 141 195 246 298 363 436
#
# _framework density 23.833568
#
# number of rings (size 3 to 8) (size 9 to 14) (size 15 to 20)
#    0.000    0.500    2.500    6.750    1.750    0.000 
#    4.500    0.000    0.000    0.000    0.000    0.000 
#    0.000    0.000    0.000    0.000    0.000    0.000 
#
# Total GULP energy -89553.937502 kJ/mol
# GULP energy per Si atom -5597.121094 kJ/mol
# Density = 2.377932 g / cm^3
# Si number density = 23.833568 Si / 1000 Ang^3
#
#
#
# Elastic Constant Matrix: (Units=GPa)
#
#
# Indices 1 2 3 4 5 6 
#
# 1 71.1954 32.3766 14.9986 -5.7823 -11.3703 -12.9535
# 2 32.3766 155.6824 50.4216 -22.9691 -14.1651 -19.8031
# 3 14.9986 50.4216 109.3981 1.7904 -18.4497 -3.9936
# 4 -5.7823 -22.9691 1.7904 34.4678 -2.3837 2.4274
# 5 -11.3703 -14.1651 -18.4497 -2.3837 34.7201 6.2593
# 6 -12.9535 -19.8031 -3.9936 2.4274 6.2593 58.0107
#
#
#
# Elastic Compliance Matrix: (Units=1/GPa)
#
#
# Indices 1 2 3 4 5 6 
#
# 1 0.016379 -0.002448 -0.000410 0.001237 0.003812 0.002330
# 2 -0.002448 0.009419 -0.003854 0.005994 0.001037 0.002041
# 3 -0.000410 -0.003854 0.011746 -0.002867 0.004512 -0.000966
# 4 0.001237 0.005994 -0.002867 0.033587 0.003573 0.000334
# 5 0.003812 0.001037 0.004512 0.003573 0.033522 -0.002251
# 6 0.002330 0.002041 -0.000966 0.000334 -0.002251 0.018618
#
#
# Mechanical properties :
#
#
# Convention : Reuss Voigt Hill
#
# Bulk Modulus (GPa) = 41.45868 59.09662 50.27765
# Shear Modulus (GPa) = 34.54607 41.33833 37.94220
#
# Velocity S-wave (km/s) = 3.81132 4.16920 3.99427
# Velocity P-wave (km/s) = 6.06639 6.93006 6.51256
#
# Compressibility (1/GPa) = 0.02412040
#
# Stress axis : x y z
#
# Youngs Moduli (GPa) = 61.05541 106.16812 85.13344
#
# Poissons Ratio (x) = 0.25986 0.03487
# Poissons Ratio (y) = 0.14944 0.32814
# Poissons Ratio (z) = 0.02501 0.40922
#
# Static dielectric constant tensor:
#      x y z
#    x 1.960310 0.006390 -0.052240 
#    y 0.006390 1.973560 -0.020880 
#    z -0.052240 -0.020880 1.900250 
# 
# From -- ./inp_files/243357.got.cif
#   From: 2010.05.17/outbox.cif.g08.bks.cpg/sg2_122_cif.got.tgz:243357.got - 2010.06.03 11:33:40.
