data_PCOD9058136
_publ_section_title
;
Structure prediction by ZEFSAII (Michael W. Deem and Ramdas Pophale) SiO2 
 PCOD9058136
Probable space group: P -1
;
_chemical_formula_sum "Si O2"
_cell_formula_units_Z 14
_cell_length_a 9.468027
_cell_length_b 16.053065
_cell_length_c 8.751964
_cell_angle_alpha 68.134021
_cell_angle_beta 52.452003
_cell_angle_gamma 110.688330
_cell_volume 601.855154
_symmetry_space_group_name_H-M "P -1"
_symmetry_group_IT_number 2
_symmetry_cell_setting 'triclinic'
loop_
_space_group_symop_operation_xyz
x,y,z
-x,-y,-z
loop_
_atom_site_type_symbol
_atom_site_label
_atom_site_fract_x
_atom_site_fract_y
_atom_site_fract_z
Si Si1 0.995867 0.769049 0.771919
Si Si2 0.089855 0.298078 0.782557
Si Si3 0.748812 0.551970 0.702682
Si Si4 0.179702 0.983845 0.934054
Si Si5 0.687375 0.228998 0.649944
Si Si6 0.537751 0.727428 0.982149
Si Si7 0.437452 0.091496 0.355825
O O1 0.099472 0.714064 0.672740
O O2 0.281042 0.946024 0.476229
O O3 0.859131 0.701735 0.075062
O O4 0.784121 0.750646 0.830503
O O5 0.300395 0.440955 0.445554
O O6 0.780118 0.223127 0.034906
O O7 0.043602 0.186521 0.799927
O O8 0.715611 0.431675 0.821562
O O9 0.076068 0.711784 0.421988
O O10 0.500000 0.500000 0.000000
O O11 0.383731 0.071376 0.888564
O O12 0.358712 0.047505 0.614611
O O13 0.000000 0.000000 0.000000
O O14 0.574461 0.273238 0.783809
O O15 0.646632 0.850514 0.715818
#
# Coordination Sequence:
#
# PCOD9058136 Si02
#       7
#     2   2   2   2   2   2   2
#     4  11  23  46  72 108 138 182 233 292 363 409
#     4  11  23  46  72  97 144 183 228 295 353 414
#     4  12  28  48  68  97 145 196 238 284 347 416
#     4  11  24  43  74 110 136 174 235 294 363 415
#     4  12  23  45  72 103 140 184 237 289 349 420
#     4  12  27  45  67 105 145 187 239 284 343 425
#     4  11  22  44  72 100 146 176 225 303 352 410
#
# _framework density 23.261409
#
# number of rings (size 3 to 8) (size 9 to 14) (size 15 to 20)
#    0.000    0.571    5.714    3.429    2.000    2.857 
#    0.000    1.429    0.000    0.000    0.000    0.000 
#    0.000    0.000    0.000    0.000    0.000    0.000 
#
# Total GULP energy -77982.372379 kJ/mol
# GULP energy per Si atom -5570.169456 kJ/mol
# Density = 2.320847 g / cm^3
# Si number density = 23.261409 Si / 1000 Ang^3
#
#
#
# Elastic Constant Matrix: (Units=GPa)
#
#
# Indices 1 2 3 4 5 6 
#
# 1 85.8925 15.7677 18.1847 -13.5814 -6.9985 8.8891
# 2 15.7677 109.9756 12.3404 0.6114 -3.4372 -0.8511
# 3 18.1847 12.3404 51.5923 -5.7782 6.8673 -4.7532
# 4 -13.5814 0.6114 -5.7782 16.6300 -7.2357 -10.2727
# 5 -6.9985 -3.4372 6.8673 -7.2357 46.0350 -1.1981
# 6 8.8891 -0.8511 -4.7532 -10.2727 -1.1981 40.2707
#
#
#
# Elastic Compliance Matrix: (Units=1/GPa)
#
#
# Indices 1 2 3 4 5 6 
#
# 1 0.015335 -0.001645 -0.004256 0.012924 0.004862 -0.000480
# 2 -0.001645 0.009583 -0.002061 -0.002419 0.000385 -0.000283
# 3 -0.004256 -0.002061 0.022981 0.006429 -0.003084 0.005156
# 4 0.012924 -0.002419 0.006429 0.093785 0.016145 0.022259
# 5 0.004862 0.000385 -0.003084 0.016145 0.025578 0.003450
# 6 -0.000480 -0.000283 0.005156 0.022259 0.003450 0.031321
#
#
# Mechanical properties :
#
#
# Convention : Reuss Voigt Hill
#
# Bulk Modulus (GPa) = 31.27241 37.78290 34.52766
# Shear Modulus (GPa) = 22.20594 33.99829 28.10212
#
# Velocity S-wave (km/s) = 3.09305 3.82720 3.47954
# Velocity P-wave (km/s) = 5.12143 5.98398 5.56943
#
# Compressibility (1/GPa) = 0.03197707
#
# Stress axis : x y z
#
# Youngs Moduli (GPa) = 65.21095 104.34839 43.51368
#
# Poissons Ratio (x) = 0.17162 0.18518
# Poissons Ratio (y) = 0.10725 0.08967
# Poissons Ratio (z) = 0.27751 0.21504
#
# Static dielectric constant tensor:
#      x y z
#    x 1.884240 0.019180 -0.043970 
#    y 0.019180 1.985400 -0.003810 
#    z -0.043970 -0.003810 1.929410 
# 
# From -- ./inp_files/212195.got.cif
#   From: 2010.05.17/outbox.cif.g08.bks.cpg/sg2_107_cif.got.tgz:212195.got - 2010.06.03 11:33:40.
