data_PCOD9058802
_publ_section_title
;
Structure prediction by ZEFSAII (Michael W. Deem and Ramdas Pophale) SiO2 
 PCOD9058802
Probable space group: P -1
;
_chemical_formula_sum "Si O2"
_cell_formula_units_Z 16
_cell_length_a 5.402436
_cell_length_b 9.389849
_cell_length_c 25.836274
_cell_angle_alpha 27.777613
_cell_angle_beta 82.986750
_cell_angle_gamma 79.580604
_cell_volume 598.674006
_symmetry_space_group_name_H-M "P -1"
_symmetry_group_IT_number 2
_symmetry_cell_setting 'triclinic'
loop_
_space_group_symop_operation_xyz
x,y,z
-x,-y,-z
loop_
_atom_site_type_symbol
_atom_site_label
_atom_site_fract_x
_atom_site_fract_y
_atom_site_fract_z
Si Si1 0.717250 0.632776 0.481854
Si Si2 0.222586 0.381524 0.395968
Si Si3 0.749182 0.360152 0.353574
Si Si4 0.706589 0.770832 0.017768
Si Si5 0.205802 0.879007 0.954414
Si Si6 0.857767 0.279235 0.261207
Si Si7 0.790344 0.150602 0.157456
Si Si8 0.737242 0.853108 0.787081
O O1 0.500000 0.500000 0.500000
O O2 0.711899 0.550798 0.568621
O O3 0.000000 0.500000 0.500000
O O4 0.696248 0.000654 0.358020
O O5 0.450247 0.482845 0.324376
O O6 0.938814 0.483090 0.349724
O O7 0.240026 0.005242 0.516669
O O8 0.860991 0.396214 0.282076
O O9 0.436251 0.968779 0.951582
O O10 0.739618 0.529528 0.141724
O O11 0.753737 0.528681 0.045399
O O12 0.920400 0.987376 0.944504
O O13 0.238808 0.513010 0.084110
O O14 0.230060 0.915247 0.881155
O O15 0.131983 0.138938 0.274974
O O16 0.557077 0.034567 0.230738
O O17 0.062467 0.038877 0.212417
#
# Coordination Sequence:
#
# PCOD9058802 Si02
#       8
#     2   2   2   2   2   2   2   2
#     4  11  23  36  52  67  89 118 151 194 231 269
#     4   9  18  32  48  70  83 108 147 177 230 271
#     4   9  17  30  50  65  89 110 137 191 218 266
#     4   9  16  23  36  55  82 112 148 178 204 255
#     4   9  14  22  34  52  78 115 154 171 194 245
#     4   9  20  32  45  68  91 118 156 186 229 264
#     4   9  14  22  34  52  78 115 154 171 194 245
#     4   9  16  23  36  55  82 112 148 178 204 255
#
# _framework density 26.725729999999999
#
# number of rings (size 3 to 8) (size 9 to 14) (size 15 to 20)
#    0.000    3.000    0.000    4.500    0.000   11.000 
#    0.000    0.000    0.000    0.000    0.000    0.000 
#    0.000    0.000    0.000    0.000    0.000 1830.000 
#
# Total GULP energy -89607.132062 kJ/mol
# GULP energy per Si atom -5600.445754 kJ/mol
# Density = 2.666490 g / cm^3
# Si number density = 26.725730 Si / 1000 Ang^3
#
#
#
# Elastic Constant Matrix: (Units=GPa)
#
#
# Indices 1 2 3 4 5 6 
#
# 1 231.6513 55.1212 48.7569 20.4326 -19.0158 40.0269
# 2 55.1212 105.0016 29.6259 18.9028 -4.0637 22.2337
# 3 48.7569 29.6259 119.9114 18.3296 -17.1819 -2.3266
# 4 20.4326 18.9028 18.3296 44.6526 -8.7117 4.1905
# 5 -19.0158 -4.0637 -17.1819 -8.7117 34.5063 -0.6248
# 6 40.0269 22.2337 -2.3266 4.1905 -0.6248 33.4402
#
#
#
# Elastic Compliance Matrix: (Units=1/GPa)
#
#
# Indices 1 2 3 4 5 6 
#
# 1 0.006463 -0.001135 -0.002097 -0.000544 0.002119 -0.007020
# 2 -0.001135 0.012885 -0.002517 -0.003516 -0.001375 -0.006969
# 3 -0.002097 -0.002517 0.010747 -0.002211 0.003436 0.005272
# 4 -0.000544 -0.003516 -0.002211 0.025997 0.004743 -0.000334
# 5 0.002119 -0.001375 0.003436 0.004743 0.032870 -0.001364
# 6 -0.007020 -0.006969 0.005272 -0.000334 -0.001364 0.043323
#
#
# Mechanical properties :
#
#
# Convention : Reuss Voigt Hill
#
# Bulk Modulus (GPa) = 53.77031 80.39692 67.08361
# Shear Modulus (GPa) = 33.33767 44.05718 38.69742
#
# Velocity S-wave (km/s) = 3.53569 4.06457 3.80932
# Velocity P-wave (km/s) = 6.06886 7.22324 6.67107
#
# Compressibility (1/GPa) = 0.01859763
#
# Stress axis : x y z
#
# Youngs Moduli (GPa) = 154.72384 77.61028 93.05330
#
# Poissons Ratio (x) = 0.08808 0.19513
# Poissons Ratio (y) = 0.17559 0.23419
# Poissons Ratio (z) = 0.32444 0.19532
#
# Static dielectric constant tensor:
#      x y z
#    x 2.013340 -0.022420 0.066280 
#    y -0.022420 2.146760 -0.085760 
#    z 0.066280 -0.085760 2.025210 
# 
# From -- ./inp_files/582267.got.cif
#   From: 2010.05.17/outbox.cif.g08.bks.cpg/sg2_292_cif.got.tgz:582267.got - 2010.06.03 11:33:40.
