data_PCOD9058261
_publ_section_title
;
Structure prediction by ZEFSAII (Michael W. Deem and Ramdas Pophale) SiO2 
 PCOD9058261
Probable space group: P -1
;
_chemical_formula_sum "Si O2"
_cell_formula_units_Z 12
_cell_length_a 10.876539
_cell_length_b 7.051599
_cell_length_c 6.953832
_cell_angle_alpha 118.329297
_cell_angle_beta 68.522249
_cell_angle_gamma 103.934803
_cell_volume 435.396139
_symmetry_space_group_name_H-M "P -1"
_symmetry_group_IT_number 2
_symmetry_cell_setting 'triclinic'
loop_
_space_group_symop_operation_xyz
x,y,z
-x,-y,-z
loop_
_atom_site_type_symbol
_atom_site_label
_atom_site_fract_x
_atom_site_fract_y
_atom_site_fract_z
Si Si1 0.467927 0.110713 0.871376
Si Si2 0.955998 0.304267 0.276942
Si Si3 0.234073 0.396989 0.173175
Si Si4 0.886290 0.243997 0.847040
Si Si5 0.815724 0.775164 0.493753
Si Si6 0.697538 0.056699 0.442356
O O1 0.599600 0.162945 0.696049
O O2 0.376055 0.941049 0.715564
O O3 0.375684 0.307622 0.024202
O O4 0.500000 0.000000 0.000000
O O5 0.847680 0.154943 0.382606
O O6 0.768834 0.587545 0.581101
O O7 0.104075 0.225570 0.126563
O O8 0.899947 0.307206 0.093433
O O9 0.000000 0.500000 0.500000
O O10 0.037622 0.248781 0.682639
O O11 0.821819 0.004773 0.716778
O O12 0.806610 0.420219 0.864230
O O13 0.713831 0.816532 0.402216
#
# Coordination Sequence:
#
# PCOD9058261 Si02
#       6
#     2   2   2   2   2   2
#     4  11  25  50  76 112 159 215 263 327 395 480
#     4  12  26  47  74 117 162 202 262 333 396 473
#     4  12  24  45  78 113 155 201 262 328 399 474
#     4  11  25  44  74 118 157 201 256 330 405 468
#     4  11  22  44  78 112 154 197 261 333 401 467
#     4  11  25  47  80 114 152 211 271 318 406 476
#
# _framework density 27.561108000000001
#
# number of rings (size 3 to 8) (size 9 to 14) (size 15 to 20)
#    0.000    0.667    1.667    7.000    0.000    3.333 
#    0.000    4.167    0.000    0.000    0.000    0.000 
#    0.000    0.000    0.000    0.000    0.000    0.000 
#
# Total GULP energy -67091.211887 kJ/mol
# GULP energy per Si atom -5590.934324 kJ/mol
# Density = 2.749838 g / cm^3
# Si number density = 27.561108 Si / 1000 Ang^3
#
#
#
# Elastic Constant Matrix: (Units=GPa)
#
#
# Indices 1 2 3 4 5 6 
#
# 1 125.5460 45.4302 47.7189 -3.5060 -7.9885 -33.0865
# 2 45.4302 229.1571 82.1918 -13.8317 2.6361 -63.9007
# 3 47.7189 82.1918 169.9686 -10.0542 -4.9761 -24.9666
# 4 -3.5060 -13.8317 -10.0542 49.9664 -16.1381 4.3444
# 5 -7.9885 2.6361 -4.9761 -16.1381 53.4969 3.6110
# 6 -33.0865 -63.9007 -24.9666 4.3444 3.6110 59.4948
#
#
#
# Elastic Compliance Matrix: (Units=1/GPa)
#
#
# Indices 1 2 3 4 5 6 
#
# 1 0.010058 0.000085 -0.002129 0.000231 0.001052 0.004711
# 2 0.000085 0.007152 -0.002486 0.000635 -0.000831 0.006690
# 3 -0.002129 -0.002486 0.007659 0.001057 0.000888 -0.000772
# 4 0.000231 0.000635 0.001057 0.022759 0.007023 -0.000834
# 5 0.001052 -0.000831 0.000888 0.007023 0.021209 -0.001735
# 6 0.004711 0.006690 -0.000772 -0.000834 -0.001735 0.026455
#
#
# Mechanical properties :
#
#
# Convention : Reuss Voigt Hill
#
# Bulk Modulus (GPa) = 63.25548 97.26150 80.25849
# Shear Modulus (GPa) = 45.61091 55.88033 50.74562
#
# Velocity S-wave (km/s) = 4.07246 4.50767 4.29558
# Velocity P-wave (km/s) = 6.71670 7.90305 7.33390
#
# Compressibility (1/GPa) = 0.01580891
#
# Stress axis : x y z
#
# Youngs Moduli (GPa) = 99.41916 139.81841 130.57166
#
# Poissons Ratio (x) = -0.01187 0.27792
# Poissons Ratio (y) = -0.00844 0.32467
# Poissons Ratio (z) = 0.21162 0.34766
#
# Static dielectric constant tensor:
#      x y z
#    x 2.173170 0.038160 0.026710 
#    y 0.038160 2.324270 0.074330 
#    z 0.026710 0.074330 2.434480 
# 
# From -- ./inp_files/250736.got.cif
#   From: 2010.05.17/outbox.cif.g08.bks.cpg/sg2_126_cif.got.tgz:250736.got - 2010.06.03 11:33:40.
