data_PCOD9058726
_publ_section_title
;
Structure prediction by ZEFSAII (Michael W. Deem and Ramdas Pophale) SiO2 
 PCOD9058726
Probable space group: P -1
;
_chemical_formula_sum "Si O2"
_cell_formula_units_Z 16
_cell_length_a 23.550729
_cell_length_b 11.622830
_cell_length_c 17.259952
_cell_angle_alpha 27.083045
_cell_angle_beta 159.375071
_cell_angle_gamma 151.523324
_cell_volume 726.223855
_symmetry_space_group_name_H-M "P -1"
_symmetry_group_IT_number 2
_symmetry_cell_setting 'triclinic'
loop_
_space_group_symop_operation_xyz
x,y,z
-x,-y,-z
loop_
_atom_site_type_symbol
_atom_site_label
_atom_site_fract_x
_atom_site_fract_y
_atom_site_fract_z
Si Si1 0.055347 0.642590 0.849337
Si Si2 0.667158 0.184610 0.781646
Si Si3 0.393927 0.097221 0.372437
Si Si4 0.923799 0.131140 0.414872
Si Si5 0.880379 0.048911 0.998475
Si Si6 0.867493 0.237921 0.452773
Si Si7 0.448229 0.718853 0.888951
Si Si8 0.288805 0.530594 0.642673
O O1 0.153897 0.787312 0.811860
O O2 0.187004 0.625227 0.095007
O O3 0.944276 0.836779 0.616893
O O4 0.936732 0.349474 0.859617
O O5 0.530804 0.274046 0.500711
O O6 0.562142 0.968771 0.837515
O O7 0.768678 0.054616 0.928401
O O8 0.304345 0.832344 0.464764
O O9 0.500000 0.000000 0.500000
O O10 0.239230 0.152467 0.095060
O O11 0.861425 0.209263 0.369594
O O12 0.112699 0.321436 0.533139
O O13 0.048522 0.978442 0.277037
O O14 0.682194 0.211775 0.262473
O O15 0.000000 0.500000 0.500000
O O16 0.337767 0.528925 0.796257
O O17 0.573560 0.562494 0.175291
#
# Coordination Sequence:
#
# PCOD9058726 Si02
#       8
#     2   2   2   2   2   2   2   2
#     4  11  22  40  71  94 129 172 218 267 308 398
#     4  10  20  39  64  95 120 168 214 264 314 377
#     4   9  20  33  60  96 125 152 214 276 308 366
#     4  11  22  40  65  99 127 167 223 260 324 381
#     4  11  22  41  67  99 128 165 221 266 324 379
#     4  12  25  40  64  98 135 169 209 275 329 377
#     4  10  21  35  63  90 126 166 208 265 325 368
#     4  10  17  37  62  91 122 162 215 263 312 378
#
# _framework density 22.031773999999999
#
# number of rings (size 3 to 8) (size 9 to 14) (size 15 to 20)
#    0.000    1.500    5.000    0.375    5.250    0.000 
#    0.000    6.875    0.000    0.000    0.000    0.000 
#    0.000    0.000    0.000    0.000    0.000    0.000 
#
# Total GULP energy -89266.496238 kJ/mol
# GULP energy per Si atom -5579.156015 kJ/mol
# Density = 2.198163 g / cm^3
# Si number density = 22.031774 Si / 1000 Ang^3
#
#
#
# Elastic Constant Matrix: (Units=GPa)
#
#
# Indices 1 2 3 4 5 6 
#
# 1 115.2932 13.5645 52.6255 -4.3006 7.6039 -7.5795
# 2 13.5645 57.7612 7.0326 0.8036 -2.2065 -0.7827
# 3 52.6255 7.0326 75.5882 19.0568 2.6178 -3.9501
# 4 -4.3006 0.8036 19.0568 32.1547 -9.5416 -11.2591
# 5 7.6039 -2.2065 2.6178 -9.5416 37.9675 11.2654
# 6 -7.5795 -0.7827 -3.9501 -11.2591 11.2654 27.5377
#
#
#
# Elastic Compliance Matrix: (Units=1/GPa)
#
#
# Indices 1 2 3 4 5 6 
#
# 1 0.016544 -0.002300 -0.014103 0.013105 -0.001710 0.008523
# 2 -0.002300 0.017913 -0.000022 -0.000621 0.001662 -0.001061
# 3 -0.014103 -0.000022 0.028295 -0.022119 -0.002339 -0.007910
# 4 0.013105 -0.000621 -0.022119 0.055031 0.006709 0.020172
# 5 -0.001710 0.001662 -0.002339 0.006709 0.031909 -0.011070
# 6 0.008523 -0.001061 -0.007910 0.020172 -0.011070 0.050271
#
#
# Mechanical properties :
#
#
# Convention : Reuss Voigt Hill
#
# Bulk Modulus (GPa) = 33.44374 43.89864 38.67119
# Shear Modulus (GPa) = 20.59482 31.22664 25.91073
#
# Velocity S-wave (km/s) = 3.06073 3.76885 3.43310
# Velocity P-wave (km/s) = 5.26341 6.23758 5.77109
#
# Compressibility (1/GPa) = 0.02990096
#
# Stress axis : x y z
#
# Youngs Moduli (GPa) = 60.44666 55.82473 35.34246
#
# Poissons Ratio (x) = 0.12840 0.49845
# Poissons Ratio (y) = 0.13903 0.00077
# Poissons Ratio (z) = 0.85250 0.00122
#
# Static dielectric constant tensor:
#      x y z
#    x 1.850900 -0.012860 -0.076120 
#    y -0.012860 1.813700 0.007070 
#    z -0.076120 0.007070 1.908070 
# 
# From -- ./inp_files/579150.got.cif
#   From: 2010.05.17/outbox.cif.g08.bks.cpg/sg2_290_cif.got.tgz:579150.got - 2010.06.03 11:33:40.
