data_PCOD9058008
_publ_section_title
;
Structure prediction by ZEFSAII (Michael W. Deem and Ramdas Pophale) SiO2 
 PCOD9058008
Probable space group: P -1
;
_chemical_formula_sum "Si O2"
_cell_formula_units_Z 16
_cell_length_a 15.249449
_cell_length_b 15.374289
_cell_length_c 12.360630
_cell_angle_alpha 65.522269
_cell_angle_beta 150.007581
_cell_angle_gamma 137.177345
_cell_volume 748.189884
_symmetry_space_group_name_H-M "P -1"
_symmetry_group_IT_number 2
_symmetry_cell_setting 'triclinic'
loop_
_space_group_symop_operation_xyz
x,y,z
-x,-y,-z
loop_
_atom_site_type_symbol
_atom_site_label
_atom_site_fract_x
_atom_site_fract_y
_atom_site_fract_z
Si Si1 0.180288 0.436298 0.484743
Si Si2 0.445263 0.329188 0.594678
Si Si3 0.991382 0.730529 0.972197
Si Si4 0.645624 0.197778 0.861650
Si Si5 0.718144 0.804258 0.280845
Si Si6 0.880997 0.686921 0.110322
Si Si7 0.941934 0.489901 0.318387
Si Si8 0.031860 0.816200 0.445214
O O1 0.526174 0.555791 0.774750
O O2 0.191349 0.549909 0.480132
O O3 0.027735 0.306366 0.486426
O O4 0.958007 0.332309 0.197359
O O5 0.745476 0.531818 0.810743
O O6 0.189700 0.261639 0.279130
O O7 0.540057 0.261638 0.705200
O O8 0.305929 0.267711 0.598536
O O9 0.065806 0.790026 0.144679
O O10 0.271655 0.818156 0.153701
O O11 0.368047 0.014363 0.715549
O O12 0.785275 0.776179 0.258354
O O13 0.386419 0.703747 0.966016
O O14 0.000000 0.000000 0.500000
O O15 0.909417 0.586604 0.211538
O O16 0.973993 0.776091 0.277144
O O17 0.000000 0.500000 0.500000
#
# Coordination Sequence:
#
# PCOD9058008 Si02
#       8
#     2   2   2   2   2   2   2   2
#     4  12  22  41  71  99 129 172 221 274 336 389
#     4  11  22  44  68  99 129 170 226 280 322 383
#     4  11  24  42  68  93 131 181 226 265 320 389
#     4  12  25  42  67  99 130 172 226 274 323 384
#     4  12  22  43  71 101 135 163 213 283 341 382
#     4  12  25  45  64  97 138 177 220 269 325 402
#     4  12  23  41  66 101 134 174 213 265 338 401
#     4  12  24  42  65  98 141 169 212 278 338 395
#
# _framework density 21.384944999999998
#
# number of rings (size 3 to 8) (size 9 to 14) (size 15 to 20)
#    0.000    0.250    6.250    4.125    0.000    2.500 
#    0.000    0.625    0.000    0.000    0.000    0.000 
#    0.000    0.000    0.000    0.000    0.000    0.000 
#
# Total GULP energy -89477.615220 kJ/mol
# GULP energy per Si atom -5592.350951 kJ/mol
# Density = 2.133627 g / cm^3
# Si number density = 21.384945 Si / 1000 Ang^3
#
#
#
# Elastic Constant Matrix: (Units=GPa)
#
#
# Indices 1 2 3 4 5 6 
#
# 1 150.9621 18.3847 32.6626 -28.9671 -3.4219 4.1884
# 2 18.3847 42.8091 28.4266 -6.5233 8.3599 0.4190
# 3 32.6626 28.4266 63.5909 -25.9755 -5.0286 -7.6573
# 4 -28.9671 -6.5233 -25.9755 24.3634 -0.5846 6.1759
# 5 -3.4219 8.3599 -5.0286 -0.5846 41.4890 -7.5735
# 6 4.1884 0.4190 -7.6573 6.1759 -7.5735 37.7984
#
#
#
# Elastic Compliance Matrix: (Units=1/GPa)
#
#
# Indices 1 2 3 4 5 6 
#
# 1 0.009155 -0.003452 0.001761 0.012475 0.001406 -0.002376
# 2 -0.003452 0.042577 -0.027552 -0.021159 -0.013395 -0.004898
# 3 0.001761 -0.027552 0.046424 0.043248 0.012850 0.005023
# 4 0.012475 -0.021159 0.043248 0.098168 0.010773 -0.006268
# 5 0.001406 -0.013395 0.012850 0.010773 0.029872 0.006821
# 6 -0.002376 -0.004898 0.005023 -0.006268 0.006821 0.030182
#
#
# Mechanical properties :
#
#
# Convention : Reuss Voigt Hill
#
# Bulk Modulus (GPa) = 25.20713 46.25667 35.73190
# Shear Modulus (GPa) = 15.23986 32.58937 23.91462
#
# Velocity S-wave (km/s) = 2.67244 3.90800 3.34772
# Velocity P-wave (km/s) = 4.61903 6.48388 5.62922
#
# Compressibility (1/GPa) = 0.03967132
#
# Stress axis : x y z
#
# Youngs Moduli (GPa) = 109.23133 23.48688 21.54059
#
# Poissons Ratio (x) = 0.08107 -0.03794
# Poissons Ratio (y) = 0.37704 0.59348
# Poissons Ratio (z) = -0.19240 0.64711
#
# Static dielectric constant tensor:
#      x y z
#    x 1.809980 -0.019640 0.000000 
#    y -0.019640 1.796980 -0.015060 
#    z 0.000000 -0.015060 1.754690 
# 
# From -- ./inp_files/455666.got.cif
#   From: 2010.05.17/outbox.cif.g08.bks.cpg/sg2_228_cif.got.tgz:455666.got - 2010.06.03 11:33:40.
