data_PCOD9058093
_publ_section_title
;
Structure prediction by ZEFSAII (Michael W. Deem and Ramdas Pophale) SiO2 
 PCOD9058093
Probable space group: P -1
;
_chemical_formula_sum "Si O2"
_cell_formula_units_Z 14
_cell_length_a 8.519595
_cell_length_b 5.878206
_cell_length_c 27.280506
_cell_angle_alpha 117.002869
_cell_angle_beta 148.183847
_cell_angle_gamma 57.335906
_cell_volume 606.315826
_symmetry_space_group_name_H-M "P -1"
_symmetry_group_IT_number 2
_symmetry_cell_setting 'triclinic'
loop_
_space_group_symop_operation_xyz
x,y,z
-x,-y,-z
loop_
_atom_site_type_symbol
_atom_site_label
_atom_site_fract_x
_atom_site_fract_y
_atom_site_fract_z
Si Si1 0.868181 0.903039 0.591695
Si Si2 0.741861 0.141903 0.403450
Si Si3 0.282076 0.634886 0.752257
Si Si4 0.952666 0.840131 0.021241
Si Si5 0.928759 0.417972 0.713983
Si Si6 0.724109 0.142231 0.792649
Si Si7 0.743741 0.897474 0.143705
O O1 0.052774 0.798488 0.580442
O O2 0.986404 0.679318 0.642822
O O3 0.500000 0.000000 0.500000
O O4 0.939528 0.157500 0.659329
O O5 0.438536 0.389870 0.365361
O O6 0.555382 0.957530 0.310772
O O7 0.000000 0.000000 0.500000
O O8 0.579238 0.465805 0.783720
O O9 0.337994 0.898835 0.812263
O O10 0.182630 0.518662 0.763450
O O11 0.600610 0.023635 0.963049
O O12 0.000000 0.500000 0.000000
O O13 0.179963 0.892131 0.128486
O O14 0.000000 0.000000 0.000000
O O15 0.049227 0.368957 0.797691
O O16 0.019994 0.042736 0.826174
#
# Coordination Sequence:
#
# PCOD9058093 Si02
#       7
#     2   2   2   2   2   2   2
#     4  11  26  41  68  99 138 195 246 302 376 433
#     4  12  27  44  72 107 146 195 250 306 373 452
#     4  11  22  44  70  99 145 184 241 301 370 444
#     4  12  28  50  82 115 153 202 255 315 387 459
#     4  11  24  45  72 101 144 190 245 308 369 456
#     4  12  25  47  75 106 149 193 246 312 378 450
#     4  11  25  46  74 110 142 191 243 306 376 455
#
# _framework density 23.090277
#
# number of rings (size 3 to 8) (size 9 to 14) (size 15 to 20)
#    0.000    0.571    4.286    3.000    6.000    2.857 
#    0.000    2.143    0.000    0.000    0.000    0.000 
#    0.000    0.000    0.000    0.000    0.000    0.000 
#
# Total GULP energy -77943.951325 kJ/mol
# GULP energy per Si atom -5567.425095 kJ/mol
# Density = 2.303772 g / cm^3
# Si number density = 23.090277 Si / 1000 Ang^3
#
#
#
# Elastic Constant Matrix: (Units=GPa)
#
#
# Indices 1 2 3 4 5 6 
#
# 1 103.4880 23.8798 33.3985 -4.6570 7.3249 -3.8991
# 2 23.8798 49.5657 16.4587 -7.8494 -5.4419 -6.6552
# 3 33.3985 16.4587 147.5655 -18.1012 -5.3341 5.1710
# 4 -4.6570 -7.8494 -18.1012 34.8048 -6.5400 3.5266
# 5 7.3249 -5.4419 -5.3341 -6.5400 48.0156 -11.6582
# 6 -3.8991 -6.6552 5.1710 3.5266 -11.6582 34.6003
#
#
#
# Elastic Compliance Matrix: (Units=1/GPa)
#
#
# Indices 1 2 3 4 5 6 
#
# 1 0.011819 -0.005492 -0.002332 -0.001398 -0.002928 -0.000220
# 2 -0.005492 0.025333 -0.000973 0.004952 0.005686 0.005810
# 3 -0.002332 -0.000973 0.008013 0.004043 0.001292 -0.001624
# 4 -0.001398 0.004952 0.004043 0.032912 0.005378 -0.001352
# 5 -0.002928 0.005686 0.001292 0.005378 0.024831 0.008389
# 6 -0.000220 0.005810 -0.001624 -0.001352 0.008389 0.033201
#
#
# Mechanical properties :
#
#
# Convention : Reuss Voigt Hill
#
# Bulk Modulus (GPa) = 36.27151 49.78814 43.02983
# Shear Modulus (GPa) = 30.69498 38.60961 34.65230
#
# Velocity S-wave (km/s) = 3.64998 4.09359 3.87813
# Velocity P-wave (km/s) = 5.78842 6.62967 6.22327
#
# Compressibility (1/GPa) = 0.02756984
#
# Stress axis : x y z
#
# Youngs Moduli (GPa) = 84.60965 39.47400 124.80426
#
# Poissons Ratio (x) = 0.21680 0.29105
# Poissons Ratio (y) = 0.46470 0.12145
# Poissons Ratio (z) = 0.19731 0.03841
#
# Static dielectric constant tensor:
#      x y z
#    x 1.791220 0.033540 -0.028330 
#    y 0.033540 2.065400 -0.079160 
#    z -0.028330 -0.079160 2.067750 
# 
# From -- ./inp_files/37690.got.cif
#   From: 2010.05.17/outbox.cif.g08.bks.cpg/sg2_19_cif.got.tgz:37690.got - 2010.06.03 11:33:40.
