data_PCOD9058618
_publ_section_title
;
Structure prediction by ZEFSAII (Michael W. Deem and Ramdas Pophale) SiO2 
 PCOD9058618
Probable space group: P -1
;
_chemical_formula_sum "Si O2"
_cell_formula_units_Z 14
_cell_length_a 9.487750
_cell_length_b 7.842732
_cell_length_c 16.385589
_cell_angle_alpha 35.896936
_cell_angle_beta 57.421042
_cell_angle_gamma 70.182113
_cell_volume 590.631941
_symmetry_space_group_name_H-M "P -1"
_symmetry_group_IT_number 2
_symmetry_cell_setting 'triclinic'
loop_
_space_group_symop_operation_xyz
x,y,z
-x,-y,-z
loop_
_atom_site_type_symbol
_atom_site_label
_atom_site_fract_x
_atom_site_fract_y
_atom_site_fract_z
Si Si1 0.530062 0.575108 0.271681
Si Si2 0.163429 0.368329 0.524153
Si Si3 0.504448 0.202282 0.220862
Si Si4 0.794803 0.276634 0.214011
Si Si5 0.983064 0.337996 0.891012
Si Si6 0.724163 0.400613 0.421029
Si Si7 0.602019 0.229123 0.000306
O O1 0.327658 0.486792 0.370632
O O2 0.629386 0.339065 0.292092
O O3 0.596684 0.574915 0.345387
O O4 0.594834 0.906290 0.090069
O O5 0.217638 0.468479 0.560223
O O6 0.000000 0.500000 0.500000
O O7 0.137103 0.013268 0.668419
O O8 0.700210 0.212516 0.181834
O O9 0.487117 0.171346 0.140425
O O10 0.376855 0.934458 0.406691
O O11 0.461375 0.523170 0.128760
O O12 0.941072 0.555726 0.084805
O O13 0.109273 0.547754 0.708002
O O14 0.792299 0.360078 0.920662
O O15 0.000000 0.000000 0.000000
#
# Coordination Sequence:
#
# PCOD9058618 Si02
#       7
#     2   2   2   2   2   2   2
#     4  11  22  46  74  96 140 185 231 277 347 416
#     4  12  26  42  69 110 136 173 238 295 333 405
#     4  11  25  43  74 101 133 191 230 278 341 421
#     4  11  25  43  72 101 136 184 233 282 344 414
#     4  11  25  45  68 104 139 179 225 291 345 402
#     4  11  23  46  72  96 137 192 223 274 352 415
#     4  11  24  46  69 101 144 180 229 282 347 408
#
# _framework density 23.703423000000001
#
# number of rings (size 3 to 8) (size 9 to 14) (size 15 to 20)
#    0.000    0.857    5.714    1.714    4.000    2.857 
#    2.571    0.000    0.000    0.000    0.000    0.000 
#    0.000    0.000    0.000    0.000    0.000    0.000 
#
# Total GULP energy -78334.439205 kJ/mol
# GULP energy per Si atom -5595.317086 kJ/mol
# Density = 2.364947 g / cm^3
# Si number density = 23.703423 Si / 1000 Ang^3
#
#
#
# Elastic Constant Matrix: (Units=GPa)
#
#
# Indices 1 2 3 4 5 6 
#
# 1 122.6666 34.2351 42.4915 -22.7919 1.1480 -24.6813
# 2 34.2351 86.9868 30.5128 -25.2841 7.7983 -2.4996
# 3 42.4915 30.5128 137.4481 -28.5108 -2.7541 -12.2607
# 4 -22.7919 -25.2841 -28.5108 52.2945 -8.2539 -0.6644
# 5 1.1480 7.7983 -2.7541 -8.2539 35.6802 -7.8324
# 6 -24.6813 -2.4996 -12.2607 -0.6644 -7.8324 52.5545
#
#
#
# Elastic Compliance Matrix: (Units=1/GPa)
#
#
# Indices 1 2 3 4 5 6 
#
# 1 0.011081 -0.002971 -0.001695 0.002834 0.001913 0.004988
# 2 -0.002971 0.014727 -0.001579 0.004553 -0.002494 -0.001377
# 3 -0.001695 -0.001579 0.009151 0.003882 0.002370 0.001666
# 4 0.002834 0.004553 0.003882 0.025662 0.005954 0.003665
# 5 0.001913 -0.002494 0.002370 0.005954 0.031407 0.006088
# 6 0.004988 -0.001377 0.001666 0.003665 0.006088 0.022647
#
#
# Mechanical properties :
#
#
# Convention : Reuss Voigt Hill
#
# Bulk Modulus (GPa) = 44.50551 62.39781 53.45166
# Shear Modulus (GPa) = 37.13192 44.09665 40.61428
#
# Velocity S-wave (km/s) = 3.96222 4.31786 4.14386
# Velocity P-wave (km/s) = 6.30468 7.15821 6.74496
#
# Compressibility (1/GPa) = 0.02246913
#
# Stress axis : x y z
#
# Youngs Moduli (GPa) = 90.24668 67.90410 109.27251
#
# Poissons Ratio (x) = 0.20173 0.18520
# Poissons Ratio (y) = 0.26810 0.17256
# Poissons Ratio (z) = 0.15296 0.10723
#
# Static dielectric constant tensor:
#      x y z
#    x 1.892370 0.074910 0.017370 
#    y 0.074910 2.025720 0.036890 
#    z 0.017370 0.036890 1.893600 
# 
# From -- ./inp_files/184478.got.cif
#   From: 2010.05.17/outbox.cif.g08.bks.cpg/sg2_93_cif.got.tgz:184478.got - 2010.06.03 11:33:40.
