data_PCOD9058878
_publ_section_title
;
Structure prediction by ZEFSAII (Michael W. Deem and Ramdas Pophale) SiO2 
 PCOD9058878
Probable space group: P -1
;
_chemical_formula_sum "Si O2"
_cell_formula_units_Z 15
_cell_length_a 10.305770
_cell_length_b 12.477165
_cell_length_c 9.863863
_cell_angle_alpha 105.104706
_cell_angle_beta 85.315604
_cell_angle_gamma 145.923943
_cell_volume 664.661630
_symmetry_space_group_name_H-M "P -1"
_symmetry_group_IT_number 2
_symmetry_cell_setting 'triclinic'
loop_
_space_group_symop_operation_xyz
x,y,z
-x,-y,-z
loop_
_atom_site_type_symbol
_atom_site_label
_atom_site_fract_x
_atom_site_fract_y
_atom_site_fract_z
Si Si1 0.503313 0.141167 0.270302
Si Si2 0.378884 0.197401 0.522325
Si Si3 0.059889 0.769139 0.057872
Si Si4 0.993541 0.554039 0.234851
Si Si5 0.006562 0.755321 0.513025
Si Si6 0.351109 0.607599 0.170137
Si Si7 0.315407 0.965083 0.816747
Si Si8 0.500000 0.500000 0.500000
O O1 0.544061 0.227101 0.438835
O O2 0.715067 0.327489 0.212944
O O3 0.519529 0.019840 0.236254
O O4 0.229613 0.973491 0.195801
O O5 0.513867 0.339200 0.691153
O O6 0.329444 0.267912 0.458521
O O7 0.156508 0.965334 0.510888
O O8 0.019193 0.635855 0.116965
O O9 0.223642 0.876190 0.945655
O O10 0.792479 0.591068 0.962700
O O11 0.064525 0.689599 0.393766
O O12 0.153858 0.558325 0.217526
O O13 0.727568 0.580847 0.475585
O O14 0.098996 0.808376 0.676318
O O15 0.540802 0.816924 0.138109
#
# Coordination Sequence:
#
# PCOD9058878 Si02
#       8
#     2   2   2   2   2   2   2   1
#     4  12  23  36  63  96 132 167 205 245 311 376
#     4  11  24  44  65  95 122 164 212 267 310 371
#     4  12  23  37  58  98 139 170 195 251 298 393
#     4  12  23  36  63  96 132 167 205 245 311 376
#     4  11  24  44  65  95 122 164 212 267 310 371
#     4  11  23  38  64  94 136 167 203 246 314 379
#     4  11  23  38  64  94 136 167 203 246 314 379
#     4  12  24  42  70  90 118 160 220 274 316 352
#
# _framework density 22.567874
#
# number of rings (size 3 to 8) (size 9 to 14) (size 15 to 20)
#    0.000    0.533    5.333    3.600    0.000    3.200 
#    0.000    0.000    0.000    6.400    0.000    0.000 
#    0.000    0.000    0.000    0.000    0.000    0.000 
#
# Total GULP energy -83508.638436 kJ/mol
# GULP energy per Si atom -5567.242562 kJ/mol
# Density = 2.251651 g / cm^3
# Si number density = 22.567874 Si / 1000 Ang^3
#
#
#
# Elastic Constant Matrix: (Units=GPa)
#
#
# Indices 1 2 3 4 5 6 
#
# 1 14.9065 2.2313 -3.4555 -10.0031 -11.5519 2.1245
# 2 2.2313 114.2859 12.6638 1.6489 1.0692 -3.1558
# 3 -3.4555 12.6638 60.1201 3.0367 5.4767 3.1663
# 4 -10.0031 1.6489 3.0367 42.2262 -0.5849 -5.0293
# 5 -11.5519 1.0692 5.4767 -0.5849 -11.0206 4.7090
# 6 2.1245 -3.1558 3.1663 -5.0293 4.7090 31.0177
#
#
#
# Elastic Compliance Matrix: (Units=1/GPa)
#
#
# Indices 1 2 3 4 5 6 
#
# 1 0.042810 -0.001111 0.005710 0.009702 -0.040885 0.004152
# 2 -0.001111 0.009025 -0.002126 -0.000331 0.001405 0.000944
# 3 0.005710 -0.002126 0.017429 -0.000110 0.001359 -0.002611
# 4 0.009702 -0.000331 -0.000110 0.026471 -0.009505 0.005048
# 5 -0.040885 0.001405 0.001359 -0.009505 -0.043223 0.007825
# 6 0.004152 0.000944 -0.002611 0.005048 0.007825 0.031948
#
#
# Mechanical properties :
#
#
# Convention : Reuss Voigt Hill
#
# Bulk Modulus (GPa) = 13.47537 23.57687 18.52612
# Shear Modulus (GPa) = 47.96173 24.30286 36.13229
#
# Velocity S-wave (km/s) = 4.61501 3.28514 4.00565
# Velocity P-wave (km/s) = 5.86360 4.98591 5.44248
#
# Compressibility (1/GPa) = 0.07420949
#
# Stress axis : x y z
#
# Youngs Moduli (GPa) = 23.35906 110.80379 57.37698
#
# Poissons Ratio (x) = 0.12315 -0.32764
# Poissons Ratio (y) = 0.02596 0.12198
# Poissons Ratio (z) = -0.13339 0.23556
#
# Static dielectric constant tensor:
#      x y z
#    x 1.787870 0.019700 0.024230 
#    y 0.019700 1.858830 0.064260 
#    z 0.024230 0.064260 1.870930 
# 
# From -- ./inp_files/273726.got.cif
#   From: 2010.05.17/outbox.cif.g08.bks.cpg/sg2_137_cif.got.tgz:273726.got - 2010.06.03 11:33:40.
