data_PCOD9058924
_publ_section_title
;
Structure prediction by ZEFSAII (Michael W. Deem and Ramdas Pophale) SiO2 
 PCOD9058924
Probable space group: P -1
;
_chemical_formula_sum "Si O2"
_cell_formula_units_Z 14
_cell_length_a 9.607058
_cell_length_b 12.941483
_cell_length_c 8.650824
_cell_angle_alpha 131.089312
_cell_angle_beta 118.163014
_cell_angle_gamma 90.950137
_cell_volume 622.254866
_symmetry_space_group_name_H-M "P -1"
_symmetry_group_IT_number 2
_symmetry_cell_setting 'triclinic'
loop_
_space_group_symop_operation_xyz
x,y,z
-x,-y,-z
loop_
_atom_site_type_symbol
_atom_site_label
_atom_site_fract_x
_atom_site_fract_y
_atom_site_fract_z
Si Si1 0.373981 0.830810 0.698053
Si Si2 0.487935 0.175893 0.562502
Si Si3 0.307537 0.499383 0.887797
Si Si4 0.002120 0.215271 0.591077
Si Si5 0.197692 0.032083 0.508249
Si Si6 0.394929 0.294613 0.139301
Si Si7 0.326241 0.362676 0.478684
O O1 0.412766 0.851495 0.555271
O O2 0.167769 0.783043 0.573972
O O3 0.446177 0.722868 0.707353
O O4 0.500000 0.000000 0.000000
O O5 0.342450 0.043836 0.469336
O O6 0.373477 0.245374 0.481133
O O7 0.635109 0.319664 0.884727
O O8 0.221905 0.415567 0.596994
O O9 0.170796 0.389859 0.840115
O O10 0.500000 0.500000 0.000000
O O11 0.072544 0.101825 0.443963
O O12 0.927555 0.133356 0.637611
O O13 0.305558 0.159837 0.829474
O O14 0.263443 0.288790 0.203422
O O15 0.493695 0.469319 0.294010
#
# Coordination Sequence:
#
# PCOD9058924 Si02
#       7
#     2   2   2   2   2   2   2
#     4  11  24  43  58  92 137 167 191 257 329 369
#     4  10  20  38  70  88 124 170 204 251 315 369
#     4  10  17  37  63  91 119 157 210 258 295 359
#     4  11  23  37  64  95 126 158 213 260 301 371
#     4  11  20  39  65  95 114 167 219 251 294 374
#     4  10  19  36  64  88 126 164 199 254 311 365
#     4   9  17  33  62  94 113 163 210 243 303 366
#
# _framework density 22.498819000000001
#
# number of rings (size 3 to 8) (size 9 to 14) (size 15 to 20)
#    0.000    1.714    5.714    0.857    0.000    1.143 
#    0.000    5.000    0.000    0.000    0.000    0.000 
#    0.000    0.000    0.000    0.000    0.000    0.000 
#
# Total GULP energy -78047.564117 kJ/mol
# GULP energy per Si atom -5574.826008 kJ/mol
# Density = 2.244761 g / cm^3
# Si number density = 22.498819 Si / 1000 Ang^3
#
#
#
# Elastic Constant Matrix: (Units=GPa)
#
#
# Indices 1 2 3 4 5 6 
#
# 1 110.2489 20.9195 39.2844 -7.3130 13.1200 12.5069
# 2 20.9195 88.5413 15.7992 6.9812 14.6779 21.9725
# 3 39.2844 15.7992 67.6613 -9.1111 1.3180 6.6452
# 4 -7.3130 6.9812 -9.1111 29.2188 14.1038 5.7390
# 5 13.1200 14.6779 1.3180 14.1038 38.6717 -0.0708
# 6 12.5069 21.9725 6.6452 5.7390 -0.0708 35.8915
#
#
#
# Elastic Compliance Matrix: (Units=1/GPa)
#
#
# Indices 1 2 3 4 5 6 
#
# 1 0.012804 -0.000387 -0.006187 0.004924 -0.005789 -0.003878
# 2 -0.000387 0.014807 -0.002303 -0.000078 -0.005397 -0.008502
# 3 -0.006187 -0.002303 0.019675 0.005099 0.000441 -0.000891
# 4 0.004924 -0.000078 0.005099 0.048541 -0.019537 -0.010412
# 5 -0.005789 -0.005397 0.000441 -0.019537 0.036997 0.008437
# 6 -0.003878 -0.008502 -0.000891 -0.010412 0.008437 0.036264
#
#
# Mechanical properties :
#
#
# Convention : Reuss Voigt Hill
#
# Bulk Modulus (GPa) = 33.86210 46.49528 40.17869
# Shear Modulus (GPa) = 25.42115 33.45296 29.43705
#
# Velocity S-wave (km/s) = 3.36503 3.86019 3.62108
# Velocity P-wave (km/s) = 5.49374 6.37013 5.94810
#
# Compressibility (1/GPa) = 0.02953154
#
# Stress axis : x y z
#
# Youngs Moduli (GPa) = 78.10167 67.53412 50.82607
#
# Poissons Ratio (x) = 0.02617 0.31445
# Poissons Ratio (y) = 0.03026 0.11705
# Poissons Ratio (z) = 0.48320 0.15553
#
# Static dielectric constant tensor:
#      x y z
#    x 1.891740 -0.023430 -0.039820 
#    y -0.023430 1.928790 -0.065350 
#    z -0.039820 -0.065350 1.875390 
# 
# From -- ./inp_files/201512.got.cif
#   From: 2010.05.17/outbox.cif.g08.bks.cpg/sg2_101_cif.got.tgz:201512.got - 2010.06.03 11:33:40.
