data_PCOD9058223
_publ_section_title
;
Structure prediction by ZEFSAII (Michael W. Deem and Ramdas Pophale) SiO2 
 PCOD9058223
Probable space group: P -1
;
_chemical_formula_sum "Si O2"
_cell_formula_units_Z 16
_cell_length_a 24.514970
_cell_length_b 14.824106
_cell_length_c 9.222150
_cell_angle_alpha 150.301155
_cell_angle_beta 134.067215
_cell_angle_gamma 27.887766
_cell_volume 737.934612
_symmetry_space_group_name_H-M "P -1"
_symmetry_group_IT_number 2
_symmetry_cell_setting 'triclinic'
loop_
_space_group_symop_operation_xyz
x,y,z
-x,-y,-z
loop_
_atom_site_type_symbol
_atom_site_label
_atom_site_fract_x
_atom_site_fract_y
_atom_site_fract_z
Si Si1 0.586675 0.139934 0.517029
Si Si2 0.952505 0.276069 0.722609
Si Si3 0.666914 0.765098 0.869118
Si Si4 0.282189 0.732258 0.137970
Si Si5 0.548878 0.867216 0.246683
Si Si6 0.930926 0.654090 0.743314
Si Si7 0.310456 0.658020 0.770620
Si Si8 0.014007 0.159398 0.337924
O O1 0.669285 0.160157 0.667844
O O2 0.448112 0.471354 0.749636
O O3 0.609728 0.941564 0.404943
O O4 0.601592 0.989599 0.192401
O O5 0.805715 0.575166 0.846406
O O6 0.005821 0.166379 0.505263
O O7 0.000000 0.000000 0.500000
O O8 0.996411 0.354380 0.020153
O O9 0.692555 0.501575 0.570939
O O10 0.566903 0.962078 0.831045
O O11 0.144460 0.997387 0.307864
O O12 0.360845 0.474241 0.041631
O O13 0.289656 0.614394 0.832348
O O14 0.500000 0.000000 0.500000
O O15 0.000000 0.500000 0.500000
O O16 0.915478 0.486104 0.550471
O O17 0.798736 0.996039 0.963008
O O18 0.000000 0.000000 0.000000
#
# Coordination Sequence:
#
# PCOD9058223 Si02
#       8
#     2   2   2   2   2   2   2   2
#     4  11  26  45  74 110 151 196 248 315 379 449
#     4  12  26  47  75 109 154 197 249 326 381 450
#     4  11  24  47  70 110 151 193 249 307 385 453
#     4  12  25  47  74 111 151 191 261 309 379 462
#     4  11  24  42  76 105 148 201 245 303 378 443
#     4  12  25  47  76 110 151 202 252 317 389 452
#     4  11  22  44  74 108 154 189 251 311 376 460
#     4  12  28  48  75 112 151 202 261 312 388 469
#
# _framework density 21.682136
#
# number of rings (size 3 to 8) (size 9 to 14) (size 15 to 20)
#    0.000    0.500    5.000    4.500    1.750    3.500 
#    0.000    0.000    0.000    0.000    0.000    0.000 
#    0.000    0.000    0.000    0.000    0.000    0.000 
#
# Total GULP energy -89356.399618 kJ/mol
# GULP energy per Si atom -5584.774976 kJ/mol
# Density = 2.163279 g / cm^3
# Si number density = 21.682136 Si / 1000 Ang^3
#
#
#
# Elastic Constant Matrix: (Units=GPa)
#
#
# Indices 1 2 3 4 5 6 
#
# 1 141.7848 58.4063 55.8738 2.0329 -6.0018 6.6207
# 2 58.4063 107.2071 56.1568 25.3250 8.9209 2.4857
# 3 55.8738 56.1568 148.3332 1.2190 -0.2309 5.7119
# 4 2.0329 25.3250 1.2190 41.6125 -1.1086 1.8612
# 5 -6.0018 8.9209 -0.2309 -1.1086 50.3128 10.1422
# 6 6.6207 2.4857 5.7119 1.8612 10.1422 34.9404
#
#
#
# Elastic Compliance Matrix: (Units=1/GPa)
#
#
# Indices 1 2 3 4 5 6 
#
# 1 0.010183 -0.005595 -0.001654 0.003127 0.002715 -0.002216
# 2 -0.005595 0.017566 -0.004557 -0.010513 -0.004524 0.002429
# 3 -0.001654 -0.004557 0.009119 0.002670 0.000969 -0.001277
# 4 0.003127 -0.010513 0.002670 0.030423 0.003508 -0.002920
# 5 0.002715 -0.004524 0.000969 0.003508 0.022509 -0.007072
# 6 -0.002216 0.002429 -0.001277 -0.002920 -0.007072 0.031284
#
#
# Mechanical properties :
#
#
# Convention : Reuss Voigt Hill
#
# Bulk Modulus (GPa) = 75.43371 82.02211 78.72791
# Shear Modulus (GPa) = 33.53157 40.49900 37.01529
#
# Velocity S-wave (km/s) = 3.93683 4.32655 4.13628
# Velocity P-wave (km/s) = 7.45192 7.92907 7.69420
#
# Compressibility (1/GPa) = 0.01325667
#
# Stress axis : x y z
#
# Youngs Moduli (GPa) = 98.20498 56.92687 109.66681
#
# Poissons Ratio (x) = 0.31848 0.18136
# Poissons Ratio (y) = 0.54941 0.49978
# Poissons Ratio (z) = 0.16241 0.25943
#
# Static dielectric constant tensor:
#      x y z
#    x 1.807340 -0.003270 0.048080 
#    y -0.003270 1.868970 0.016070 
#    z 0.048080 0.016070 1.857660 
# 
# From -- ./inp_files/354617.got.cif
#   From: 2010.05.17/outbox.cif.g08.bks.cpg/sg2_178_cif.got.tgz:354617.got - 2010.06.03 11:33:40.
