data_PCOD9058864
_publ_section_title
;
Structure prediction by ZEFSAII (Michael W. Deem and Ramdas Pophale) SiO2 
 PCOD9058864
Probable space group: P -1
;
_chemical_formula_sum "Si O2"
_cell_formula_units_Z 16
_cell_length_a 8.192935
_cell_length_b 10.702395
_cell_length_c 19.723902
_cell_angle_alpha 42.003185
_cell_angle_beta 139.113537
_cell_angle_gamma 139.463836
_cell_volume 675.542597
_symmetry_space_group_name_H-M "P -1"
_symmetry_group_IT_number 2
_symmetry_cell_setting 'triclinic'
loop_
_space_group_symop_operation_xyz
x,y,z
-x,-y,-z
loop_
_atom_site_type_symbol
_atom_site_label
_atom_site_fract_x
_atom_site_fract_y
_atom_site_fract_z
Si Si1 0.789648 0.547558 0.967979
Si Si2 0.261868 0.221105 0.013704
Si Si3 0.302915 0.223009 0.273121
Si Si4 0.066857 0.533490 0.588130
Si Si5 0.381691 0.875148 0.407865
Si Si6 0.329207 0.870708 0.723044
Si Si7 0.656526 0.688422 0.418359
Si Si8 0.263873 0.362630 0.336773
O O1 0.853838 0.650297 0.023985
O O2 0.772700 0.726241 0.844129
O O3 0.472442 0.358391 0.962174
O O4 0.000000 0.500000 0.000000
O O5 0.476277 0.174370 0.146438
O O6 0.000000 0.000000 0.000000
O O7 0.146008 0.294110 0.252135
O O8 0.618097 0.387825 0.326129
O O9 0.247565 0.986475 0.368945
O O10 0.857727 0.302690 0.640738
O O11 0.957491 0.696982 0.508283
O O12 0.000000 0.500000 0.500000
O O13 0.583487 0.780785 0.535771
O O14 0.546118 0.077398 0.333038
O O15 0.017119 0.690419 0.690141
O O16 0.322945 0.088485 0.651184
O O17 0.500000 0.500000 0.500000
O O18 0.491522 0.593475 0.334843
#
# Coordination Sequence:
#
# PCOD9058864 Si02
#       8
#     2   2   2   2   2   2   2   2
#     4  11  27  52  77 105 139 186 250 311 370 426
#     4  11  28  52  75 106 141 184 248 315 366 430
#     4  12  24  41  70  94 133 183 221 283 347 406
#     4  11  23  41  58  99 144 177 217 265 327 415
#     4  11  23  39  63  99 136 179 219 261 337 412
#     4  12  24  42  67  96 132 177 221 275 345 408
#     4  11  23  38  60  96 139 178 217 260 325 411
#     4  11  24  39  63 102 139 176 217 266 332 421
#
# _framework density 23.684663
#
# number of rings (size 3 to 8) (size 9 to 14) (size 15 to 20)
#    0.000    0.750    6.250    2.250    5.250    3.500 
#    0.000    0.000    0.000    0.000    0.000    0.000 
#    0.000    0.000    0.000    0.000    0.000    0.000 
#
# Total GULP energy -89113.529416 kJ/mol
# GULP energy per Si atom -5569.595589 kJ/mol
# Density = 2.363076 g / cm^3
# Si number density = 23.684663 Si / 1000 Ang^3
#
#
#
# Elastic Constant Matrix: (Units=GPa)
#
#
# Indices 1 2 3 4 5 6 
#
# 1 103.2455 19.8945 18.0895 -7.5309 9.9497 2.2422
# 2 19.8945 108.0214 6.9160 6.2836 13.6619 -3.1695
# 3 18.0895 6.9160 52.7311 -2.2275 -1.0225 -2.1023
# 4 -7.5309 6.2836 -2.2275 18.1044 1.3283 0.9699
# 5 9.9497 13.6619 -1.0225 1.3283 36.4113 -6.9477
# 6 2.2422 -3.1695 -2.1023 0.9699 -6.9477 48.8255
#
#
#
# Elastic Compliance Matrix: (Units=1/GPa)
#
#
# Indices 1 2 3 4 5 6 
#
# 1 0.011353 -0.001832 -0.003544 0.005210 -0.002956 -0.001317
# 2 -0.001832 0.010314 -0.000951 -0.004244 -0.003176 0.000345
# 3 -0.003544 -0.000951 0.020444 0.001150 0.002097 0.001257
# 4 0.005210 -0.004244 0.001150 0.059294 -0.002339 -0.001976
# 5 -0.002956 -0.003176 0.002097 -0.002339 0.030447 0.004399
# 6 -0.001317 0.000345 0.001257 -0.001976 0.004399 0.021283
#
#
# Mechanical properties :
#
#
# Convention : Reuss Voigt Hill
#
# Bulk Modulus (GPa) = 33.94834 39.31091 36.62962
# Shear Modulus (GPa) = 28.47221 35.27479 31.87350
#
# Velocity S-wave (km/s) = 3.47095 3.86340 3.67242
# Velocity P-wave (km/s) = 5.51615 6.04440 5.78631
#
# Compressibility (1/GPa) = 0.02945652
#
# Stress axis : x y z
#
# Youngs Moduli (GPa) = 88.08198 96.95219 48.91380
#
# Poissons Ratio (x) = 0.17760 0.17336
# Poissons Ratio (y) = 0.16135 0.04654
# Poissons Ratio (z) = 0.31218 0.09225
#
# Static dielectric constant tensor:
#      x y z
#    x 2.447070 -0.057010 -0.013910 
#    y -0.057010 2.010370 -0.077650 
#    z -0.013910 -0.077650 1.909240 
# 
# From -- ./inp_files/588982.got.cif
#   From: 2010.05.17/outbox.cif.g08.bks.cpg/sg2_295_cif.got.tgz:588982.got - 2010.06.03 11:33:40.
