data_PCOD9058116
_publ_section_title
;
Structure prediction by ZEFSAII (Michael W. Deem and Ramdas Pophale) SiO2 
 PCOD9058116
Probable space group: P -1
;
_chemical_formula_sum "Si O2"
_cell_formula_units_Z 12
_cell_length_a 8.404229
_cell_length_b 9.769468
_cell_length_c 9.089833
_cell_angle_alpha 119.166646
_cell_angle_beta 102.608582
_cell_angle_gamma 63.489818
_cell_volume 583.168241
_symmetry_space_group_name_H-M "P -1"
_symmetry_group_IT_number 2
_symmetry_cell_setting 'triclinic'
loop_
_space_group_symop_operation_xyz
x,y,z
-x,-y,-z
loop_
_atom_site_type_symbol
_atom_site_label
_atom_site_fract_x
_atom_site_fract_y
_atom_site_fract_z
Si Si1 0.646550 0.373546 0.846114
Si Si2 0.539280 0.942842 0.143362
Si Si3 0.501423 0.836749 0.504886
Si Si4 0.859589 0.032236 0.856111
Si Si5 0.116923 0.317949 0.362276
Si Si6 0.829667 0.605844 0.924078
O O1 0.563895 0.276168 0.669997
O O2 0.816468 0.217662 0.872031
O O3 0.500000 0.500000 0.000000
O O4 0.281126 0.511553 0.176459
O O5 0.347676 0.941952 0.146935
O O6 0.596048 0.071803 0.317609
O O7 0.701650 0.762295 0.079403
O O8 0.500000 0.000000 0.000000
O O9 0.694870 0.726171 0.546265
O O10 0.500000 0.000000 0.500000
O O11 0.932714 0.844360 0.695445
O O12 0.000000 0.000000 0.000000
O O13 0.130507 0.333249 0.195287
O O14 0.000000 0.500000 0.500000
O O15 0.000000 0.500000 0.000000
#
# Coordination Sequence:
#
# PCOD9058116 Si02
#       6
#     2   2   2   2   2   2
#     4  12  25  42  71 104 133 181 228 283 343 404
#     4  11  22  46  69  96 138 184 223 279 340 406
#     4  11  22  44  71  95 134 182 229 273 346 403
#     4  11  23  43  68  99 133 179 226 273 345 400
#     4  11  26  44  66  99 140 181 226 281 343 400
#     4  12  26  44  69 104 138 180 228 284 342 406
#
# _framework density 20.577252000000001
#
# number of rings (size 3 to 8) (size 9 to 14) (size 15 to 20)
#    0.000    0.667    8.333    1.000    7.000    0.667 
#    3.000    1.667    0.000    0.000    0.000    0.000 
#    0.000    0.000    0.000    0.000    0.000    0.000 
#
# Total GULP energy -66837.190170 kJ/mol
# GULP energy per Si atom -5569.765847 kJ/mol
# Density = 2.053042 g / cm^3
# Si number density = 20.577252 Si / 1000 Ang^3
#
#
#
# Elastic Constant Matrix: (Units=GPa)
#
#
# Indices 1 2 3 4 5 6 
#
# 1 34.6855 18.2732 28.1764 9.8239 14.1124 -2.7436
# 2 18.2732 160.1932 57.4233 19.3997 11.4391 -27.5022
# 3 28.1764 57.4233 148.3243 17.6124 34.0512 -12.2531
# 4 9.8239 19.3997 17.6124 56.1546 0.5402 4.7870
# 5 14.1124 11.4391 34.0512 0.5402 34.5595 -6.1907
# 6 -2.7436 -27.5022 -12.2531 4.7870 -6.1907 39.6310
#
#
#
# Elastic Compliance Matrix: (Units=1/GPa)
#
#
# Indices 1 2 3 4 5 6 
#
# 1 0.038754 -0.001940 -0.003369 -0.004853 -0.011964 -0.000988
# 2 -0.001940 0.008482 -0.002537 -0.002276 0.001501 0.005477
# 3 -0.003369 -0.002537 0.010421 -0.001742 -0.007991 0.000190
# 4 -0.004853 -0.002276 -0.001742 0.020332 0.003348 -0.004387
# 5 -0.011964 0.001501 -0.007991 0.003348 0.041840 0.003874
# 6 -0.000988 0.005477 0.000190 -0.004387 0.003874 0.030159
#
#
# Mechanical properties :
#
#
# Convention : Reuss Voigt Hill
#
# Bulk Modulus (GPa) = 23.83001 61.21653 42.52327
# Shear Modulus (GPa) = 27.82887 42.02435 34.92661
#
# Velocity S-wave (km/s) = 3.68150 4.52405 4.12435
# Velocity P-wave (km/s) = 5.44768 7.55669 6.58714
#
# Compressibility (1/GPa) = 0.04196390
#
# Stress axis : x y z
#
# Youngs Moduli (GPa) = 25.80367 117.89670 95.95655
#
# Poissons Ratio (x) = 0.22877 0.32331
# Poissons Ratio (y) = 0.05007 0.24345
# Poissons Ratio (z) = 0.08694 0.29911
#
# Static dielectric constant tensor:
#      x y z
#    x 1.889930 -0.064600 -0.100610 
#    y -0.064600 1.922800 0.115410 
#    z -0.100610 0.115410 1.844970 
# 
# From -- ./inp_files/190196.got.cif
#   From: 2010.05.17/outbox.cif.g08.bks.cpg/sg2_96_cif.got.tgz:190196.got - 2010.06.03 11:33:40.
