data_PCOD9058827
_publ_section_title
;
Structure prediction by ZEFSAII (Michael W. Deem and Ramdas Pophale) SiO2 
 PCOD9058827
Probable space group: P -1
;
_chemical_formula_sum "Si O2"
_cell_formula_units_Z 12
_cell_length_a 9.744442
_cell_length_b 12.197665
_cell_length_c 10.859749
_cell_angle_alpha 48.042208
_cell_angle_beta 28.183955
_cell_angle_gamma 49.201428
_cell_volume 445.741426
_symmetry_space_group_name_H-M "P -1"
_symmetry_group_IT_number 2
_symmetry_cell_setting 'triclinic'
loop_
_space_group_symop_operation_xyz
x,y,z
-x,-y,-z
loop_
_atom_site_type_symbol
_atom_site_label
_atom_site_fract_x
_atom_site_fract_y
_atom_site_fract_z
Si Si1 0.004590 0.650280 0.462796
Si Si2 0.389503 0.827650 0.753207
Si Si3 0.920541 0.427870 0.882046
Si Si4 0.614846 0.114646 0.019538
Si Si5 0.587641 0.369802 0.430295
Si Si6 0.143181 0.945212 0.591802
O O1 0.742190 0.776610 0.525316
O O2 0.921038 0.591039 0.705684
O O3 0.000000 0.500000 0.500000
O O4 0.298014 0.721553 0.190381
O O5 0.289306 0.897150 0.648305
O O6 0.266907 0.671811 0.973120
O O7 0.284971 0.917375 0.892448
O O8 0.261058 0.344316 0.668738
O O9 0.774673 0.429125 0.129792
O O10 0.810326 0.009092 0.845520
O O11 0.294950 0.069901 0.312163
O O12 0.500000 0.500000 0.500000
O O13 0.777798 0.208093 0.432418
#
# Coordination Sequence:
#
# PCOD9058827 Si02
#       6
#     2   2   2   2   2   2
#     4  12  24  38  60  93 141 176 202 230 301 388
#     4  11  23  37  60  94 137 170 197 241 300 384
#     4  11  24  40  66  95 125 163 212 252 308 375
#     4  12  24  36  59  91 139 167 197 243 300 377
#     4  11  25  47  71  89 114 158 218 284 317 345
#     4  11  24  38  60  93 124 162 214 252 309 361
#
# _framework density 26.92144
#
# number of rings (size 3 to 8) (size 9 to 14) (size 15 to 20)
#    0.000    0.667    3.333    6.000    4.667    0.000 
#    0.000    0.000    0.000    6.000    0.000    0.000 
#    0.000    0.000    0.000    0.000    0.000    0.000 
#
# Total GULP energy -67183.029172 kJ/mol
# GULP energy per Si atom -5598.585764 kJ/mol
# Density = 2.686017 g / cm^3
# Si number density = 26.921440 Si / 1000 Ang^3
#
#
#
# Elastic Constant Matrix: (Units=GPa)
#
#
# Indices 1 2 3 4 5 6 
#
# 1 53.9781 29.0011 22.9233 9.1228 6.2256 2.5532
# 2 29.0011 141.8636 51.6665 0.8739 11.8008 28.6131
# 3 22.9233 51.6665 202.9155 -5.0201 16.8814 -0.1309
# 4 9.1228 0.8739 -5.0201 66.5791 -4.4516 2.4891
# 5 6.2256 11.8008 16.8814 -4.4516 19.7383 8.7633
# 6 2.5532 28.6131 -0.1309 2.4891 8.7633 40.5134
#
#
#
# Elastic Compliance Matrix: (Units=1/GPa)
#
#
# Indices 1 2 3 4 5 6 
#
# 1 0.022421 -0.004331 -0.001035 -0.003597 -0.005792 0.003116
# 2 -0.004331 0.010067 -0.002094 0.000588 0.000360 -0.006957
# 3 -0.001035 -0.002094 0.005969 0.000216 -0.004608 0.002547
# 4 -0.003597 0.000588 0.000216 0.015956 0.005217 -0.002296
# 5 -0.005792 0.000360 -0.004608 0.005217 0.063600 -0.013981
# 6 0.003116 -0.006957 0.002547 -0.002296 -0.013981 0.032574
#
#
# Mechanical properties :
#
#
# Convention : Reuss Voigt Hill
#
# Bulk Modulus (GPa) = 42.48769 67.32655 54.90712
# Shear Modulus (GPa) = 28.84304 45.04393 36.94348
#
# Velocity S-wave (km/s) = 3.27674 4.09487 3.70844
# Velocity P-wave (km/s) = 5.48930 6.88622 6.22706
#
# Compressibility (1/GPa) = 0.02353623
#
# Stress axis : x y z
#
# Youngs Moduli (GPa) = 44.60060 99.33719 167.54319
#
# Poissons Ratio (x) = 0.43024 0.17345
# Poissons Ratio (y) = 0.19317 0.35080
# Poissons Ratio (z) = 0.04617 0.20799
#
# Static dielectric constant tensor:
#      x y z
#    x 2.233370 0.045210 0.005850 
#    y 0.045210 2.151610 -0.011800 
#    z 0.005850 -0.011800 2.090480 
# 
# From -- ./inp_files/23951.got.cif
#   From: 2010.05.17/outbox.cif.g08.bks.cpg/sg2_12_cif.got.tgz:23951.got - 2010.06.03 11:33:40.
