data_PCOD9058020
_publ_section_title
;
Structure prediction by ZEFSAII (Michael W. Deem and Ramdas Pophale) SiO2 
 PCOD9058020
Probable space group: P -1
;
_chemical_formula_sum "Si O2"
_cell_formula_units_Z 12
_cell_length_a 8.759533
_cell_length_b 7.352927
_cell_length_c 8.239735
_cell_angle_alpha 100.882548
_cell_angle_beta 70.933666
_cell_angle_gamma 109.961790
_cell_volume 469.670007
_symmetry_space_group_name_H-M "P -1"
_symmetry_group_IT_number 2
_symmetry_cell_setting 'triclinic'
loop_
_space_group_symop_operation_xyz
x,y,z
-x,-y,-z
loop_
_atom_site_type_symbol
_atom_site_label
_atom_site_fract_x
_atom_site_fract_y
_atom_site_fract_z
Si Si1 0.842528 0.760318 0.022091
Si Si2 0.315259 0.989022 0.703112
Si Si3 0.017698 0.600157 0.686154
Si Si4 0.425252 0.610039 0.903850
Si Si5 0.344743 0.103945 0.369716
Si Si6 0.150544 0.796709 0.141938
O O1 0.731179 0.903091 0.108254
O O2 0.734774 0.567182 0.120873
O O3 0.020977 0.835931 0.063660
O O4 0.884988 0.710006 0.815932
O O5 0.285981 0.110949 0.576529
O O6 0.197576 0.766381 0.677543
O O7 0.506764 0.994916 0.665597
O O8 0.000000 0.500000 0.500000
O O9 0.959518 0.412550 0.788243
O O10 0.560612 0.704501 0.733727
O O11 0.500000 0.500000 0.000000
O O12 0.330155 0.766365 0.018916
O O13 0.198691 0.957798 0.291818
#
# Coordination Sequence:
#
# PCOD9058020 Si02
#       6
#     2   2   2   2   2   2
#     4  11  25  44  71 105 140 187 240 293 349 423
#     4  11  24  45  72 108 142 184 239 292 361 421
#     4  11  22  44  69 101 140 186 231 289 352 420
#     4  11  24  44  68 101 140 188 238 286 357 425
#     4  11  24  44  72 103 146 188 231 300 355 426
#     4  11  23  44  72 103 139 187 236 295 357 414
#
# _framework density 25.549855000000001
#
# number of rings (size 3 to 8) (size 9 to 14) (size 15 to 20)
#    0.000    1.000    1.667    6.000    0.000    5.333 
#    6.000    0.000    0.000    0.000    0.000    0.000 
#    0.000    0.000    0.000    0.000    0.000    0.000 
#
# Total GULP energy -67052.586285 kJ/mol
# GULP energy per Si atom -5587.715524 kJ/mol
# Density = 2.549170 g / cm^3
# Si number density = 25.549855 Si / 1000 Ang^3
#
#
#
# Elastic Constant Matrix: (Units=GPa)
#
#
# Indices 1 2 3 4 5 6 
#
# 1 121.7905 21.9354 33.0407 10.6645 14.7373 -0.9935
# 2 21.9354 95.9777 40.6892 -7.5528 7.4216 15.2737
# 3 33.0407 40.6892 94.6463 12.5000 -1.0882 -1.2640
# 4 10.6645 -7.5528 12.5000 65.1916 -4.5178 -0.0463
# 5 14.7373 7.4216 -1.0882 -4.5178 25.0493 0.3780
# 6 -0.9935 15.2737 -1.2640 -0.0463 0.3780 45.4214
#
#
#
# Elastic Compliance Matrix: (Units=1/GPa)
#
#
# Indices 1 2 3 4 5 6 
#
# 1 0.010051 -0.000718 -0.003058 -0.001565 -0.006122 0.000426
# 2 -0.000718 0.014667 -0.006536 0.002815 -0.003622 -0.005097
# 3 -0.003058 -0.006536 0.014897 -0.002846 0.003832 0.002511
# 4 -0.001565 0.002815 -0.002846 0.016673 0.002986 -0.001068
# 5 -0.006122 -0.003622 0.003832 0.002986 0.045289 0.000817
# 6 0.000426 -0.005097 0.002511 -0.001068 0.000817 0.023801
#
#
# Mechanical properties :
#
#
# Convention : Reuss Voigt Hill
#
# Bulk Modulus (GPa) = 52.66012 55.97168 54.31590
# Shear Modulus (GPa) = 32.82277 41.58242 37.20260
#
# Velocity S-wave (km/s) = 3.58810 4.03861 3.82000
# Velocity P-wave (km/s) = 6.14991 6.61071 6.38447
#
# Compressibility (1/GPa) = 0.01898970
#
# Stress axis : x y z
#
# Youngs Moduli (GPa) = 99.49134 68.18060 67.12913
#
# Poissons Ratio (x) = 0.04897 0.20529
# Poissons Ratio (y) = 0.07145 0.43877
# Poissons Ratio (z) = 0.30425 0.44565
#
# Static dielectric constant tensor:
#      x y z
#    x 2.031210 -0.035850 0.009840 
#    y -0.035850 2.042250 -0.058750 
#    z 0.009840 -0.058750 2.111820 
# 
# From -- ./inp_files/145160.got.cif
#   From: 2010.05.17/outbox.cif.g08.bks.cpg/sg2_73_cif.got.tgz:145160.got - 2010.06.03 11:33:40.
