data_PCOD9058033
_publ_section_title
;
Structure prediction by ZEFSAII (Michael W. Deem and Ramdas Pophale) SiO2 
 PCOD9058033
Probable space group: P -1
;
_chemical_formula_sum "Si O2"
_cell_formula_units_Z 14
_cell_length_a 17.266632
_cell_length_b 9.926686
_cell_length_c 8.524325
_cell_angle_alpha 119.448891
_cell_angle_beta 33.068876
_cell_angle_gamma 122.563549
_cell_volume 669.277887
_symmetry_space_group_name_H-M "P -1"
_symmetry_group_IT_number 2
_symmetry_cell_setting 'triclinic'
loop_
_space_group_symop_operation_xyz
x,y,z
-x,-y,-z
loop_
_atom_site_type_symbol
_atom_site_label
_atom_site_fract_x
_atom_site_fract_y
_atom_site_fract_z
Si Si1 0.865332 0.881873 0.252668
Si Si2 0.970572 0.665471 0.208153
Si Si3 0.721134 0.270559 0.150761
Si Si4 0.678239 0.565485 0.236434
Si Si5 0.364781 0.979316 0.100245
Si Si6 0.518807 0.257054 0.771101
Si Si7 0.702259 0.534298 0.821147
O O1 0.928582 0.775707 0.208742
O O2 0.747898 0.750954 0.270868
O O3 0.773279 0.987683 0.557579
O O4 0.000000 0.000000 0.000000
O O5 0.841518 0.619205 0.528540
O O6 0.000000 0.500000 0.000000
O O7 0.123314 0.755956 0.082488
O O8 0.731400 0.457730 0.214127
O O9 0.607630 0.210076 0.449620
O O10 0.668247 0.188150 0.028824
O O11 0.500000 0.500000 0.500000
O O12 0.734186 0.535447 0.951583
O O13 0.413368 0.110547 0.956018
O O14 0.500000 0.000000 0.000000
O O15 0.633124 0.359977 0.762863
O O16 0.422329 0.370420 0.933706
#
# Coordination Sequence:
#
# PCOD9058033 Si02
#       7
#     2   2   2   2   2   2   2
#     4  12  29  49  72 107 153 192 238 306 367 425
#     4  12  25  49  72 104 145 190 242 294 358 439
#     4  12  26  44  76 103 141 190 240 293 364 436
#     4  12  24  46  75 106 139 191 249 294 355 430
#     4  12  28  47  70 107 148 184 239 305 363 426
#     4  11  22  44  69 106 137 185 238 293 356 425
#     4  11  23  40  77 100 137 186 241 293 351 430
#
# _framework density 20.918068000000002
#
# number of rings (size 3 to 8) (size 9 to 14) (size 15 to 20)
#    0.000    0.286    5.714    3.000    4.000    3.429 
#    0.000    0.000    0.000    0.000    0.000    0.000 
#    0.000    0.000    0.000    0.000    0.000    0.000 
#
# Total GULP energy -78335.589860 kJ/mol
# GULP energy per Si atom -5595.399276 kJ/mol
# Density = 2.087046 g / cm^3
# Si number density = 20.918068 Si / 1000 Ang^3
#
#
#
# Elastic Constant Matrix: (Units=GPa)
#
#
# Indices 1 2 3 4 5 6 
#
# 1 71.1727 -0.6528 30.4715 -8.0361 -0.0829 8.3405
# 2 -0.6528 75.2598 40.1455 -19.8173 10.3885 5.6955
# 3 30.4715 40.1455 153.1762 -28.9471 12.1192 10.0560
# 4 -8.0361 -19.8173 -28.9471 37.7340 -3.8846 5.9019
# 5 -0.0829 10.3885 12.1192 -3.8846 38.5598 -0.8720
# 6 8.3405 5.6955 10.0560 5.9019 -0.8720 40.1916
#
#
#
# Elastic Compliance Matrix: (Units=1/GPa)
#
#
# Indices 1 2 3 4 5 6 
#
# 1 0.016194 0.002845 -0.003204 0.003070 0.000508 -0.003402
# 2 0.002845 0.017771 -0.003314 0.007625 -0.003050 -0.003465
# 3 -0.003204 -0.003314 0.009181 0.004756 -0.001563 -0.001895
# 4 0.003070 0.007625 0.004756 0.036082 -0.000093 -0.008208
# 5 0.000508 -0.003050 -0.001563 -0.000093 0.027269 0.001323
# 6 -0.003402 -0.003465 -0.001895 -0.008208 0.001323 0.027786
#
#
# Mechanical properties :
#
#
# Convention : Reuss Voigt Hill
#
# Bulk Modulus (GPa) = 27.93229 48.83746 38.38487
# Shear Modulus (GPa) = 32.56037 38.60671 35.58354
#
# Velocity S-wave (km/s) = 3.94962 4.30072 4.12890
# Velocity P-wave (km/s) = 5.84649 6.93248 6.41252
#
# Compressibility (1/GPa) = 0.03580086
#
# Stress axis : x y z
#
# Youngs Moduli (GPa) = 61.75142 56.27265 108.91872
#
# Poissons Ratio (x) = -0.16011 0.34897
# Poissons Ratio (y) = -0.17569 0.36092
# Poissons Ratio (z) = 0.19785 0.18647
#
# Static dielectric constant tensor:
#      x y z
#    x 1.761830 0.023890 -0.011360 
#    y 0.023890 1.779930 0.014800 
#    z -0.011360 0.014800 1.705610 
# 
# From -- ./inp_files/157203.got.cif
#   From: 2010.05.17/outbox.cif.g08.bks.cpg/sg2_79_cif.got.tgz:157203.got - 2010.06.03 11:33:40.
