data_PCOD9058722
_publ_section_title
;
Structure prediction by ZEFSAII (Michael W. Deem and Ramdas Pophale) SiO2 
 PCOD9058722
Probable space group: P -1
;
_chemical_formula_sum "Si O2"
_cell_formula_units_Z 14
_cell_length_a 14.703161
_cell_length_b 14.279406
_cell_length_c 9.496694
_cell_angle_alpha 141.139093
_cell_angle_beta 152.223177
_cell_angle_gamma 39.917165
_cell_volume 561.864098
_symmetry_space_group_name_H-M "P -1"
_symmetry_group_IT_number 2
_symmetry_cell_setting 'triclinic'
loop_
_space_group_symop_operation_xyz
x,y,z
-x,-y,-z
loop_
_atom_site_type_symbol
_atom_site_label
_atom_site_fract_x
_atom_site_fract_y
_atom_site_fract_z
Si Si1 0.585516 0.497840 0.270049
Si Si2 0.368890 0.016274 0.480790
Si Si3 0.237179 0.270657 0.825704
Si Si4 0.127378 0.784088 0.556082
Si Si5 0.041358 0.084117 0.908892
Si Si6 0.016615 0.387123 0.102398
Si Si7 0.574943 0.209475 0.457661
O O1 0.660646 0.325702 0.230388
O O2 0.431881 0.618457 0.298764
O O3 0.788208 0.559772 0.618633
O O4 0.500000 0.500000 0.000000
O O5 0.316875 0.174531 0.683101
O O6 0.500000 0.000000 0.500000
O O7 0.467613 0.883019 0.571938
O O8 0.155273 0.004064 0.110071
O O9 0.151572 0.455496 0.905878
O O10 0.045359 0.221712 0.572449
O O11 0.414826 0.225871 0.132860
O O12 0.067171 0.702799 0.241202
O O13 0.131622 0.961613 0.765404
O O14 0.800283 0.119704 0.617712
O O15 0.081128 0.253055 0.149385
#
# Coordination Sequence:
#
# PCOD9058722 Si02
#       7
#     2   2   2   2   2   2   2
#     4  11  23  43  77 106 144 195 249 303 366 442
#     4  12  28  47  72 109 148 197 250 307 371 436
#     4  11  24  47  79 104 148 198 251 305 364 446
#     4  11  22  47  74 107 148 197 244 299 371 444
#     4  12  28  43  73 110 156 187 243 313 371 433
#     4  11  24  48  73 113 149 193 248 301 376 443
#     4  12  24  48  75 108 144 196 253 299 376 441
#
# _framework density 24.917059999999999
#
# number of rings (size 3 to 8) (size 9 to 14) (size 15 to 20)
#    0.000    0.571    4.286    3.857    4.000    2.286 
#    5.143    0.000    0.000    0.000    0.000    0.000 
#    0.000    0.000    0.000    0.000    0.000    0.000 
#
# Total GULP energy -78437.572935 kJ/mol
# GULP energy per Si atom -5602.683781 kJ/mol
# Density = 2.486035 g / cm^3
# Si number density = 24.917060 Si / 1000 Ang^3
#
#
#
# Elastic Constant Matrix: (Units=GPa)
#
#
# Indices 1 2 3 4 5 6 
#
# 1 83.7824 33.6110 18.1690 17.2387 -14.6018 -14.2085
# 2 33.6110 200.2612 53.1461 11.8324 -18.7497 -34.2953
# 3 18.1690 53.1461 117.3316 -10.3886 -37.0402 -7.8367
# 4 17.2387 11.8324 -10.3886 34.6341 3.6259 -5.9688
# 5 -14.6018 -18.7497 -37.0402 3.6259 46.5935 9.5791
# 6 -14.2085 -34.2953 -7.8367 -5.9688 9.5791 38.2098
#
#
#
# Elastic Compliance Matrix: (Units=1/GPa)
#
#
# Indices 1 2 3 4 5 6 
#
# 1 0.015186 -0.001017 -0.001330 -0.007544 0.003379 0.002436
# 2 -0.001017 0.006871 -0.003053 -0.001784 -0.000892 0.005108
# 3 -0.001330 -0.003053 0.013174 0.004363 0.008917 -0.002087
# 4 -0.007544 -0.001784 0.004363 0.035325 -0.002926 0.002740
# 5 0.003379 -0.000892 0.008917 -0.002926 0.030684 -0.005865
# 6 0.002436 0.005108 -0.002087 0.002740 -0.005865 0.033132
#
#
# Mechanical properties :
#
#
# Convention : Reuss Voigt Hill
#
# Bulk Modulus (GPa) = 40.93002 67.91417 54.42210
# Shear Modulus (GPa) = 32.61264 43.65075 38.13169
#
# Velocity S-wave (km/s) = 3.62172 4.19004 3.91621
# Velocity P-wave (km/s) = 5.82678 7.12207 6.50674
#
# Compressibility (1/GPa) = 0.02443194
#
# Stress axis : x y z
#
# Youngs Moduli (GPa) = 65.84920 145.53985 75.90964
#
# Poissons Ratio (x) = 0.14795 0.10093
# Poissons Ratio (y) = 0.06694 0.23177
# Poissons Ratio (z) = 0.08755 0.44437
#
# Static dielectric constant tensor:
#      x y z
#    x 2.020450 0.042910 0.044530 
#    y 0.042910 1.975270 0.013940 
#    z 0.044530 0.013940 1.949700 
# 
# From -- ./inp_files/190966.got.cif
#   From: 2010.05.17/outbox.cif.g08.bks.cpg/sg2_96_cif.got.tgz:190966.got - 2010.06.03 11:33:40.
