data_PCOD9058737
_publ_section_title
;
Structure prediction by ZEFSAII (Michael W. Deem and Ramdas Pophale) SiO2 
 PCOD9058737
Probable space group: P -1
;
_chemical_formula_sum "Si O2"
_cell_formula_units_Z 11
_cell_length_a 6.749850
_cell_length_b 10.041556
_cell_length_c 13.712381
_cell_angle_alpha 34.335028
_cell_angle_beta 97.333434
_cell_angle_gamma 75.509851
_cell_volume 401.356490
_symmetry_space_group_name_H-M "P -1"
_symmetry_group_IT_number 2
_symmetry_cell_setting 'triclinic'
loop_
_space_group_symop_operation_xyz
x,y,z
-x,-y,-z
loop_
_atom_site_type_symbol
_atom_site_label
_atom_site_fract_x
_atom_site_fract_y
_atom_site_fract_z
Si Si1 0.262197 0.165402 0.190645
Si Si2 0.640672 0.137744 0.947434
Si Si3 0.000000 0.500000 0.500000
Si Si4 0.170556 0.788100 0.286997
Si Si5 0.214015 0.116020 0.543129
Si Si6 0.738383 0.434606 0.188922
O O1 0.179979 0.981248 0.250537
O O2 0.504309 0.975602 0.393519
O O3 0.373192 0.256955 0.059534
O O4 0.000000 0.500000 0.000000
O O5 0.751798 0.171481 0.836998
O O6 0.451493 0.458897 0.796351
O O7 0.500000 0.000000 0.000000
O O8 0.878769 0.896965 0.182912
O O9 0.277641 0.461499 0.528607
O O10 0.065706 0.325032 0.501366
O O11 0.018950 0.296211 0.331133
O O12 0.248950 0.805874 0.730665
#
# Coordination Sequence:
#
# PCOD9058737 Si02
#       6
#     2   2   1   2   2   2
#     4  12  25  47  75 111 152 201 254 318 382 454
#     4  11  22  47  76 109 148 203 260 305 381 465
#     4  12  26  50  68 114 160 188 258 318 370 452
#     4  11  26  43  76 111 150 206 251 314 381 451
#     4  11  27  46  75 111 155 201 252 319 378 458
#     4  11  24  49  76 109 154 201 253 318 382 457
#
# _framework density 27.407056999999998
#
# number of rings (size 3 to 8) (size 9 to 14) (size 15 to 20)
#    0.000    0.727    1.818    4.909    5.091    1.455 
#    6.545    0.000    0.000    0.000    0.000    0.000 
#    0.000    0.000    0.000    0.000    0.000    0.000 
#
# Total GULP energy -61529.666435 kJ/mol
# GULP energy per Si atom -5593.606040 kJ/mol
# Density = 2.734468 g / cm^3
# Si number density = 27.407057 Si / 1000 Ang^3
#
#
#
# Elastic Constant Matrix: (Units=GPa)
#
#
# Indices 1 2 3 4 5 6 
#
# 1 120.5076 100.6807 52.0037 0.8541 3.3719 14.6196
# 2 100.6807 211.5570 49.4258 -37.3744 1.5819 45.0140
# 3 52.0037 49.4258 107.5923 -5.2211 20.2422 23.1178
# 4 0.8541 -37.3744 -5.2211 47.9303 9.5947 3.3711
# 5 3.3719 1.5819 20.2422 9.5947 71.9908 1.7724
# 6 14.6196 45.0140 23.1178 3.3711 1.7724 52.2731
#
#
#
# Elastic Compliance Matrix: (Units=1/GPa)
#
#
# Indices 1 2 3 4 5 6 
#
# 1 0.020217 -0.011735 -0.007215 -0.011412 0.002657 0.008288
# 2 -0.011735 0.014344 0.002397 0.012797 -0.001877 -0.010892
# 3 -0.007215 0.002397 0.014081 0.004817 -0.004157 -0.006443
# 4 -0.011412 0.012797 0.004817 0.033464 -0.005267 -0.011938
# 5 0.002657 -0.001877 -0.004157 -0.005267 0.015616 0.002522
# 6 0.008288 -0.010892 -0.006443 -0.011938 0.002522 0.029725
#
#
# Mechanical properties :
#
#
# Convention : Reuss Voigt Hill
#
# Bulk Modulus (GPa) = 64.36885 93.76412 79.06649
# Shear Modulus (GPa) = 30.16880 50.27529 40.22205
#
# Velocity S-wave (km/s) = 3.32138 4.28763 3.83506
# Velocity P-wave (km/s) = 6.18433 7.66796 6.96576
#
# Compressibility (1/GPa) = 0.01553546
#
# Stress axis : x y z
#
# Youngs Moduli (GPa) = 49.46213 69.71580 71.01778
#
# Poissons Ratio (x) = 0.81813 0.51242
# Poissons Ratio (y) = 0.58045 -0.17024
# Poissons Ratio (z) = 0.35689 -0.16712
#
# Static dielectric constant tensor:
#      x y z
#    x 1.917420 -0.213860 1.107080 
#    y -0.213860 1.975080 0.493500 
#    z 1.107080 0.493500 -0.679200 
# 
# From -- ./inp_files/22893.got.cif
#   From: 2010.05.17/outbox.cif.g08.bks.cpg/sg2_12_cif.got.tgz:22893.got - 2010.06.03 11:33:40.
