data_PCOD9058999
_publ_section_title
;
Structure prediction by ZEFSAII (Michael W. Deem and Ramdas Pophale) SiO2 
 PCOD9058999
Probable space group: P -1
;
_chemical_formula_sum "Si O2"
_cell_formula_units_Z 12
_cell_length_a 9.578598
_cell_length_b 18.488382
_cell_length_c 5.172507
_cell_angle_alpha 80.246839
_cell_angle_beta 104.220063
_cell_angle_gamma 43.085416
_cell_volume 515.566219
_symmetry_space_group_name_H-M "P -1"
_symmetry_group_IT_number 2
_symmetry_cell_setting 'triclinic'
loop_
_space_group_symop_operation_xyz
x,y,z
-x,-y,-z
loop_
_atom_site_type_symbol
_atom_site_label
_atom_site_fract_x
_atom_site_fract_y
_atom_site_fract_z
Si Si1 0.754202 0.937682 0.604496
Si Si2 0.306470 0.863248 0.479737
Si Si3 0.934996 0.462763 0.787965
Si Si4 0.466002 0.465635 0.253958
Si Si5 0.391659 0.294148 0.794882
Si Si6 0.946343 0.175226 0.691858
O O1 0.876426 0.870603 0.426135
O O2 0.500000 0.000000 0.500000
O O3 0.727337 0.037243 0.541134
O O4 0.943957 0.843306 0.977363
O O5 0.492292 0.782686 0.369997
O O6 0.081319 0.902294 0.281441
O O7 0.411014 0.784867 0.840399
O O8 0.803953 0.455819 0.899100
O O9 0.736721 0.576758 0.425339
O O10 0.168295 0.342842 0.800197
O O11 0.000000 0.500000 0.000000
O O12 0.500000 0.500000 0.500000
O O13 0.673928 0.317816 0.444339
O O14 0.500000 0.500000 0.000000
#
# Coordination Sequence:
#
# PCOD9058999 Si02
#       6
#     2   2   2   2   2   2
#     4  12  28  48  72 105 139 180 236 298 361 410
#     4  12  24  45  76 104 136 188 240 283 349 419
#     4  11  24  45  69 103 144 190 235 284 342 421
#     4  12  29  45  71 107 147 188 232 285 358 416
#     4  11  23  39  74 104 140 179 241 285 336 408
#     4  12  25  50  72  99 142 187 235 291 343 425
#
# _framework density 23.275379000000001
#
# number of rings (size 3 to 8) (size 9 to 14) (size 15 to 20)
#    0.000    0.333    3.333    4.500    7.000    4.000 
#    0.000    0.000    0.000    0.000    0.000    0.000 
#    0.000    0.000    0.000    0.000    0.000    0.000 
#
# Total GULP energy -67199.065322 kJ/mol
# GULP energy per Si atom -5599.922110 kJ/mol
# Density = 2.322240 g / cm^3
# Si number density = 23.275379 Si / 1000 Ang^3
#
#
#
# Elastic Constant Matrix: (Units=GPa)
#
#
# Indices 1 2 3 4 5 6 
#
# 1 145.8831 15.2330 7.3965 14.5162 -12.9074 -19.5481
# 2 15.2330 81.3519 2.3630 20.9279 -14.4545 -18.1558
# 3 7.3965 2.3630 102.5654 23.7466 -18.5654 3.1451
# 4 14.5162 20.9279 23.7466 31.3394 -13.3017 -5.7815
# 5 -12.9074 -14.4545 -18.5654 -13.3017 25.8492 11.5783
# 6 -19.5481 -18.1558 3.1451 -5.7815 11.5783 46.4298
#
#
#
# Elastic Compliance Matrix: (Units=1/GPa)
#
#
# Indices 1 2 3 4 5 6 
#
# 1 0.007566 0.000087 0.000269 -0.002654 0.001540 0.002486
# 2 0.000087 0.016546 0.002678 -0.010721 0.003903 0.004017
# 3 0.000269 0.002678 0.013282 -0.009238 0.007674 -0.002803
# 4 -0.002654 -0.010721 -0.009238 0.052947 0.014000 -0.001582
# 5 0.001540 0.003903 0.007674 0.014000 0.059474 -0.011433
# 6 0.002486 0.004017 -0.002803 -0.001582 -0.011433 0.027000
#
#
# Mechanical properties :
#
#
# Convention : Reuss Voigt Hill
#
# Bulk Modulus (GPa) = 23.00804 42.19839 32.60321
# Shear Modulus (GPa) = 26.99288 41.04419 34.01854
#
# Velocity S-wave (km/s) = 3.40916 4.20386 3.82719
# Velocity P-wave (km/s) = 5.04015 6.46008 5.79378
#
# Compressibility (1/GPa) = 0.04346308
#
# Stress axis : x y z
#
# Youngs Moduli (GPa) = 132.17662 60.43678 75.28725
#
# Poissons Ratio (x) = -0.00525 -0.02029
# Poissons Ratio (y) = -0.01148 -0.20162
# Poissons Ratio (z) = -0.03562 -0.16185
#
# Static dielectric constant tensor:
#      x y z
#    x 1.873930 0.014700 -0.013980 
#    y 0.014700 1.874890 -0.053510 
#    z -0.013980 -0.053510 1.808910 
# 
# From -- ./inp_files/43735.got.cif
#   From: 2010.05.17/outbox.cif.g08.bks.cpg/sg2_22_cif.got.tgz:43735.got - 2010.06.03 11:33:40.
