data_PCOD9058536
_publ_section_title
;
Structure prediction by ZEFSAII (Michael W. Deem and Ramdas Pophale) SiO2 
 PCOD9058536
Probable space group: P -1
;
_chemical_formula_sum "Si O2"
_cell_formula_units_Z 14
_cell_length_a 24.973088
_cell_length_b 10.230225
_cell_length_c 15.398493
_cell_angle_alpha 36.477454
_cell_angle_beta 163.766641
_cell_angle_gamma 142.562913
_cell_volume 648.062813
_symmetry_space_group_name_H-M "P -1"
_symmetry_group_IT_number 2
_symmetry_cell_setting 'triclinic'
loop_
_space_group_symop_operation_xyz
x,y,z
-x,-y,-z
loop_
_atom_site_type_symbol
_atom_site_label
_atom_site_fract_x
_atom_site_fract_y
_atom_site_fract_z
Si Si1 0.529954 0.778686 0.112307
Si Si2 0.190216 0.774783 0.948050
Si Si3 0.920585 0.047073 0.963162
Si Si4 0.017227 0.244810 0.186158
Si Si5 0.536583 0.010087 0.270337
Si Si6 0.088412 0.378542 0.904507
Si Si7 0.515090 0.456295 0.664454
O O1 0.758174 0.780132 0.455408
O O2 0.453180 0.582941 0.163390
O O3 0.445812 0.793124 0.877426
O O4 0.500000 0.000000 0.000000
O O5 0.347510 0.610460 0.309015
O O6 0.327768 0.975945 0.010599
O O7 0.052163 0.625172 0.744236
O O8 0.073871 0.820399 0.827671
O O9 0.711983 0.035541 0.597833
O O10 0.053179 0.241492 0.013649
O O11 0.913147 0.100598 0.023241
O O12 0.007232 0.816805 0.203991
O O13 0.000000 0.500000 0.000000
O O14 0.534880 0.783125 0.332415
O O15 0.293573 0.435536 0.144279
#
# Coordination Sequence:
#
# PCOD9058536 Si02
#       7
#     2   2   2   2   2   2   2
#     4  10  23  40  63  91 127 163 199 251 316 367
#     4  11  19  38  64  87 124 163 210 240 306 371
#     4  11  21  35  63  97 120 155 217 255 289 360
#     4  12  24  39  63  93 124 166 203 250 307 370
#     4  10  21  38  64  92 122 160 206 258 302 355
#     4  10  19  32  62  91 121 155 214 246 289 358
#     4  10  17  37  61  92 119 166 204 246 300 375
#
# _framework density 21.602846
#
# number of rings (size 3 to 8) (size 9 to 14) (size 15 to 20)
#    0.000    1.429    5.714    0.857    6.000    1.143 
#    0.000    1.429    3.143    0.000    0.000    0.000 
#    0.000    0.000    0.000    0.000    0.000    0.000 
#
# Total GULP energy -78043.498189 kJ/mol
# GULP energy per Si atom -5574.535585 kJ/mol
# Density = 2.155368 g / cm^3
# Si number density = 21.602846 Si / 1000 Ang^3
#
#
#
# Elastic Constant Matrix: (Units=GPa)
#
#
# Indices 1 2 3 4 5 6 
#
# 1 173.0196 41.3083 41.5277 5.1910 11.2162 -0.7087
# 2 41.3083 48.4856 19.5058 19.0925 -1.3402 2.7218
# 3 41.5277 19.5058 76.1746 0.8979 8.2051 -2.3747
# 4 5.1910 19.0925 0.8979 23.8979 1.8900 1.7202
# 5 11.2162 -1.3402 8.2051 1.8900 41.5174 2.2809
# 6 -0.7087 2.7218 -2.3747 1.7202 2.2809 42.6069
#
#
#
# Elastic Compliance Matrix: (Units=1/GPa)
#
#
# Indices 1 2 3 4 5 6 
#
# 1 0.008273 -0.008226 -0.002199 0.005008 -0.002319 0.000463
# 2 -0.008226 0.044028 -0.007192 -0.033479 0.006719 -0.002358
# 3 -0.002199 -0.007192 0.016488 0.005767 -0.003230 0.001282
# 4 0.005008 -0.033479 0.005767 0.067803 -0.006669 0.000163
# 5 -0.002319 0.006719 -0.003230 -0.006669 0.025969 -0.001769
# 6 0.000463 -0.002358 0.001282 0.000163 -0.001769 0.023788
#
#
# Mechanical properties :
#
#
# Convention : Reuss Voigt Hill
#
# Bulk Modulus (GPa) = 29.80144 55.81815 42.80979
# Shear Modulus (GPa) = 21.48058 34.62697 28.05378
#
# Velocity S-wave (km/s) = 3.15674 4.00795 3.60754
# Velocity P-wave (km/s) = 5.20689 6.87842 6.10018
#
# Compressibility (1/GPa) = 0.03355542
#
# Stress axis : x y z
#
# Youngs Moduli (GPa) = 120.86908 22.71288 60.65053
#
# Poissons Ratio (x) = 0.18684 0.13335
# Poissons Ratio (y) = 0.99429 0.43620
# Poissons Ratio (z) = 0.26575 0.16335
#
# Static dielectric constant tensor:
#      x y z
#    x 1.796600 0.005220 -0.031220 
#    y 0.005220 1.833320 -0.006910 
#    z -0.031220 -0.006910 1.853480 
# 
# From -- ./inp_files/542492.got.cif
#   From: 2010.05.17/outbox.cif.g08.bks.cpg/sg2_272_cif.got.tgz:542492.got - 2010.06.03 11:33:40.
