data_PCOD9058708
_publ_section_title
;
Structure prediction by ZEFSAII (Michael W. Deem and Ramdas Pophale) SiO2 
 PCOD9058708
Probable space group: P -1
;
_chemical_formula_sum "Si O2"
_cell_formula_units_Z 14
_cell_length_a 11.375299
_cell_length_b 9.181357
_cell_length_c 9.720753
_cell_angle_alpha 50.813003
_cell_angle_beta 61.376101
_cell_angle_gamma 55.008019
_cell_volume 633.671812
_symmetry_space_group_name_H-M "P -1"
_symmetry_group_IT_number 2
_symmetry_cell_setting 'triclinic'
loop_
_space_group_symop_operation_xyz
x,y,z
-x,-y,-z
loop_
_atom_site_type_symbol
_atom_site_label
_atom_site_fract_x
_atom_site_fract_y
_atom_site_fract_z
Si Si1 0.896581 0.851050 0.946224
Si Si2 0.314276 0.107439 0.726320
Si Si3 0.395603 0.676506 0.858818
Si Si4 0.809832 0.870256 0.668137
Si Si5 0.147773 0.558425 0.154663
Si Si6 0.977052 0.804382 0.337992
Si Si7 0.457049 0.695201 0.505868
O O1 0.871608 0.845000 0.802292
O O2 0.745974 0.905559 0.080268
O O3 0.962494 0.021534 0.831734
O O4 0.008504 0.643463 0.079720
O O5 0.174344 0.162160 0.672980
O O6 0.401400 0.251233 0.588815
O O7 0.417409 0.882970 0.751695
O O8 0.415612 0.632565 0.713543
O O9 0.500000 0.500000 0.000000
O O10 0.238155 0.691841 0.984921
O O11 0.763013 0.680662 0.779901
O O12 0.937966 0.823325 0.509838
O O13 0.680190 0.095066 0.587323
O O14 0.093810 0.605216 0.314642
O O15 0.500000 0.500000 0.500000
#
# Coordination Sequence:
#
# PCOD9058708 Si02
#       7
#     2   2   2   2   2   2   2
#     4  11  23  45  72 105 148 185 228 290 355 418
#     4  11  23  48  72  97 143 186 238 288 346 419
#     4  12  25  45  76 101 139 186 242 289 351 420
#     4  12  26  44  72 106 149 185 234 289 358 412
#     4  11  23  45  72 107 142 183 237 287 352 424
#     4  11  22  47  72 104 140 188 234 290 347 422
#     4  12  30  49  69 103 146 188 239 296 351 415
#
# _framework density 22.093454999999999
#
# number of rings (size 3 to 8) (size 9 to 14) (size 15 to 20)
#    0.000    0.571    4.286    3.429    6.000    0.571 
#   10.286    0.000    0.000    0.000    0.000    0.000 
#    0.000    0.000    0.000    0.000    0.000    0.000 
#
# Total GULP energy -78272.513757 kJ/mol
# GULP energy per Si atom -5590.893840 kJ/mol
# Density = 2.204317 g / cm^3
# Si number density = 22.093455 Si / 1000 Ang^3
#
#
#
# Elastic Constant Matrix: (Units=GPa)
#
#
# Indices 1 2 3 4 5 6 
#
# 1 39.8200 36.1897 14.3921 18.0473 -3.9072 1.1451
# 2 36.1897 148.0783 36.1488 7.5652 23.9453 19.0477
# 3 14.3921 36.1488 124.1967 38.4919 16.7707 4.2181
# 4 18.0473 7.5652 38.4919 45.0074 8.5894 0.3398
# 5 -3.9072 23.9453 16.7707 8.5894 41.5051 -6.5352
# 6 1.1451 19.0477 4.2181 0.3398 -6.5352 24.7368
#
#
#
# Elastic Compliance Matrix: (Units=1/GPa)
#
#
# Indices 1 2 3 4 5 6 
#
# 1 0.054578 -0.018849 0.003636 -0.026308 0.022782 0.017748
# 2 -0.018849 0.015758 -0.003267 0.010486 -0.014006 -0.014549
# 3 0.003636 -0.003267 0.012072 -0.011183 -0.000279 0.000369
# 4 -0.026308 0.010486 -0.011183 0.043401 -0.014464 -0.009367
# 5 0.022782 -0.014006 -0.000279 -0.014464 0.040688 0.020726
# 6 0.017748 -0.014549 0.000369 -0.009367 0.020726 0.056348
#
#
# Mechanical properties :
#
#
# Convention : Reuss Voigt Hill
#
# Bulk Modulus (GPa) = 22.00273 53.95067 37.97670
# Shear Modulus (GPa) = 18.18480 37.27415 27.72947
#
# Velocity S-wave (km/s) = 2.87206 4.11190 3.54658
# Velocity P-wave (km/s) = 4.58027 6.85682 5.83073
#
# Compressibility (1/GPa) = 0.04544890
#
# Stress axis : x y z
#
# Youngs Moduli (GPa) = 18.32231 63.45989 82.83438
#
# Poissons Ratio (x) = 1.19617 -0.30120
# Poissons Ratio (y) = 0.34536 0.27060
# Poissons Ratio (z) = -0.06662 0.20731
#
# Static dielectric constant tensor:
#      x y z
#    x 1.890150 -0.039690 0.029250 
#    y -0.039690 1.861940 0.000290 
#    z 0.029250 0.000290 1.828290 
# 
# From -- ./inp_files/202123.got.cif
#   From: 2010.05.17/outbox.cif.g08.bks.cpg/sg2_102_cif.got.tgz:202123.got - 2010.06.03 11:33:40.
