data_PCOD9058731
_publ_section_title
;
Structure prediction by ZEFSAII (Michael W. Deem and Ramdas Pophale) SiO2 
 PCOD9058731
Probable space group: P -1
;
_chemical_formula_sum "Si O2"
_cell_formula_units_Z 14
_cell_length_a 5.409514
_cell_length_b 25.334240
_cell_length_c 15.938819
_cell_angle_alpha 161.950112
_cell_angle_beta 95.117944
_cell_angle_gamma 77.589332
_cell_volume 611.281153
_symmetry_space_group_name_H-M "P -1"
_symmetry_group_IT_number 2
_symmetry_cell_setting 'triclinic'
loop_
_space_group_symop_operation_xyz
x,y,z
-x,-y,-z
loop_
_atom_site_type_symbol
_atom_site_label
_atom_site_fract_x
_atom_site_fract_y
_atom_site_fract_z
Si Si1 0.589622 0.362497 0.949841
Si Si2 0.714537 0.576820 0.397280
Si Si3 0.978645 0.656849 0.801977
Si Si4 0.494717 0.171883 0.814329
Si Si5 0.976956 0.024756 0.352001
Si Si6 0.077915 0.647434 0.276846
Si Si7 0.059962 0.783072 0.664618
O O1 0.454306 0.326118 0.974703
O O2 0.717108 0.164527 0.607909
O O3 0.806095 0.432649 0.102246
O O4 0.394661 0.519846 0.118627
O O5 0.389804 0.690099 0.545429
O O6 0.765448 0.453120 0.295448
O O7 0.887737 0.701859 0.595211
O O8 0.000000 0.500000 0.500000
O O9 0.730231 0.735929 0.981000
O O10 0.955920 0.844915 0.039163
O O11 0.500000 0.000000 0.500000
O O12 0.782550 0.074834 0.724705
O O13 0.006795 0.170052 0.508107
O O14 0.972072 0.735018 0.497745
O O15 0.000000 0.500000 0.000000
O O16 0.000000 0.000000 0.000000
#
# Coordination Sequence:
#
# PCOD9058731 Si02
#       7
#     2   2   2   2   2   2   2
#     4  11  22  47  75 107 143 193 252 308 375 447
#     4  11  24  48  74 106 145 197 256 307 366 456
#     4  12  28  45  70 105 150 195 240 312 377 443
#     4  12  23  45  74 104 140 194 253 300 368 453
#     4  12  25  43  71 109 142 183 247 309 379 436
#     4  11  25  44  70 109 147 189 242 318 379 437
#     4  11  26  48  76 104 146 205 254 303 372 462
#
# _framework density 22.902718
#
# number of rings (size 3 to 8) (size 9 to 14) (size 15 to 20)
#    0.000    0.571    2.857    5.571    2.000    2.857 
#    0.000    0.000    0.000    0.000    0.000    0.000 
#    0.000    0.000    0.000    0.000    0.000    0.000 
#
# Total GULP energy -78101.332749 kJ/mol
# GULP energy per Si atom -5578.666625 kJ/mol
# Density = 2.285059 g / cm^3
# Si number density = 22.902718 Si / 1000 Ang^3
#
#
#
# Elastic Constant Matrix: (Units=GPa)
#
#
# Indices 1 2 3 4 5 6 
#
# 1 55.4942 4.9116 33.2331 8.3861 21.8409 6.4950
# 2 4.9116 86.0097 37.6856 11.1409 19.9449 1.5655
# 3 33.2331 37.6856 204.9597 1.4811 39.9215 4.7661
# 4 8.3861 11.1409 1.4811 45.2349 2.3116 11.8987
# 5 21.8409 19.9449 39.9215 2.3116 43.4913 5.0515
# 6 6.4950 1.5655 4.7661 11.8987 5.0515 32.8146
#
#
#
# Elastic Compliance Matrix: (Units=1/GPa)
#
#
# Indices 1 2 3 4 5 6 
#
# 1 0.024226 0.002700 -0.002223 -0.004153 -0.010979 -0.001405
# 2 0.002700 0.014199 -0.001863 -0.004006 -0.006114 0.001453
# 3 -0.002223 -0.001863 0.006333 0.000893 -0.003877 -0.000118
# 4 -0.004153 -0.004006 0.000893 0.026058 0.002763 -0.008991
# 5 -0.010979 -0.006114 -0.003877 0.002763 0.035115 -0.003379
# 6 -0.001405 0.001453 -0.000118 -0.008991 -0.003379 0.034480
#
#
# Mechanical properties :
#
#
# Convention : Reuss Voigt Hill
#
# Bulk Modulus (GPa) = 23.81727 55.34714 39.58220
# Shear Modulus (GPa) = 31.81125 42.35038 37.08081
#
# Velocity S-wave (km/s) = 3.73094 4.30483 4.02812
# Velocity P-wave (km/s) = 5.38347 6.99481 6.24136
#
# Compressibility (1/GPa) = 0.04198634
#
# Stress axis : x y z
#
# Youngs Moduli (GPa) = 41.27880 70.42908 157.89491
#
# Poissons Ratio (x) = -0.19018 0.35105
# Poissons Ratio (y) = -0.11146 0.29409
# Poissons Ratio (z) = 0.09178 0.13118
#
# Static dielectric constant tensor:
#      x y z
#    x 2.025110 0.006190 0.085750 
#    y 0.006190 1.902980 -0.079580 
#    z 0.085750 -0.079580 1.995550 
# 
# From -- ./inp_files/485936.got.cif
#   From: 2010.05.17/outbox.cif.g08.bks.cpg/sg2_243_cif.got.tgz:485936.got - 2010.06.03 11:33:40.
