data_PCOD9058821
_publ_section_title
;
Structure prediction by ZEFSAII (Michael W. Deem and Ramdas Pophale) SiO2 
 PCOD9058821
Probable space group: P -1
;
_chemical_formula_sum "Si O2"
_cell_formula_units_Z 14
_cell_length_a 9.905945
_cell_length_b 19.098082
_cell_length_c 8.705208
_cell_angle_alpha 133.966384
_cell_angle_beta 104.719740
_cell_angle_gamma 38.638134
_cell_volume 567.930030
_symmetry_space_group_name_H-M "P -1"
_symmetry_group_IT_number 2
_symmetry_cell_setting 'triclinic'
loop_
_space_group_symop_operation_xyz
x,y,z
-x,-y,-z
loop_
_atom_site_type_symbol
_atom_site_label
_atom_site_fract_x
_atom_site_fract_y
_atom_site_fract_z
Si Si1 0.958568 0.584702 0.961564
Si Si2 0.302762 0.521264 0.791297
Si Si3 0.223371 0.623586 0.365415
Si Si4 0.607695 0.999667 0.688727
Si Si5 0.758855 0.909923 0.078227
Si Si6 0.851561 0.989505 0.976837
Si Si7 0.847310 0.475869 0.557857
O O1 0.943241 0.522995 0.713798
O O2 0.219720 0.497834 0.866028
O O3 0.647323 0.824076 0.232599
O O4 0.000000 0.500000 0.000000
O O5 0.335548 0.436380 0.514268
O O6 0.553804 0.445226 0.761515
O O7 0.023505 0.754337 0.032710
O O8 0.298224 0.482036 0.266749
O O9 0.938743 0.781900 0.425839
O O10 0.118041 0.754926 0.676669
O O11 0.639371 0.079920 0.922312
O O12 0.495875 0.981089 0.736151
O O13 0.868537 0.757016 0.762620
O O14 0.724143 0.032330 0.167014
O O15 0.000000 0.000000 0.000000
#
# Coordination Sequence:
#
# PCOD9058821 Si02
#       7
#     2   2   2   2   2   2   2
#     4  11  23  37  54  76 104 145 189 218 251 312
#     4   9  18  34  57  80 107 135 175 214 269 316
#     4   9  19  32  53  84 110 134 167 220 274 319
#     4   9  19  33  50  78 110 135 174 214 264 307
#     4   8  17  30  52  76 111 140 166 204 267 323
#     4   9  18  25  48  83 112 127 164 217 267 305
#     4   9  19  33  59  78 109 136 175 216 267 312
#
# _framework density 24.650925000000001
#
# number of rings (size 3 to 8) (size 9 to 14) (size 15 to 20)
#    1.714    1.143    0.000    1.286    2.000    0.000 
#    0.000    2.143    0.000    0.000    0.000    0.000 
#    0.000    0.000    0.000    0.000    0.000    0.000 
#
# Total GULP energy -78020.764880 kJ/mol
# GULP energy per Si atom -5572.911777 kJ/mol
# Density = 2.459482 g / cm^3
# Si number density = 24.650925 Si / 1000 Ang^3
#
#
#
# Elastic Constant Matrix: (Units=GPa)
#
#
# Indices 1 2 3 4 5 6 
#
# 1 216.7480 60.9657 47.1320 -8.4396 -61.9703 -8.5169
# 2 60.9657 129.1363 20.3615 -11.1625 -44.7737 2.0409
# 3 47.1320 20.3615 83.2276 -12.7700 -19.2732 -5.4132
# 4 -8.4396 -11.1625 -12.7700 28.6929 -1.7863 -5.5930
# 5 -61.9703 -44.7737 -19.2732 -1.7863 36.2405 10.3061
# 6 -8.5169 2.0409 -5.4132 -5.5930 10.3061 31.2386
#
#
#
# Elastic Compliance Matrix: (Units=1/GPa)
#
#
# Indices 1 2 3 4 5 6 
#
# 1 0.010594 0.003996 -0.000954 0.004846 0.024098 -0.004621
# 2 0.003996 0.017956 0.001824 0.009274 0.033002 -0.008995
# 3 -0.000954 0.001824 0.015483 0.008031 0.009037 0.000760
# 4 0.004846 0.009274 0.008031 0.045402 0.025759 0.001738
# 5 0.024098 0.033002 0.009037 0.025759 0.124299 -0.030416
# 6 -0.004621 -0.008995 0.000760 0.001738 -0.030416 0.041817
#
#
# Mechanical properties :
#
#
# Convention : Reuss Voigt Hill
#
# Bulk Modulus (GPa) = 18.59885 76.22558 47.41222
# Shear Modulus (GPa) = 18.95813 39.27791 29.11802
#
# Velocity S-wave (km/s) = 2.77621 3.99603 3.44061
# Velocity P-wave (km/s) = 4.22347 7.23050 5.92106
#
# Compressibility (1/GPa) = 0.05376675
#
# Stress axis : x y z
#
# Youngs Moduli (GPa) = 94.39254 55.69281 64.58526
#
# Poissons Ratio (x) = -0.22255 0.06159
# Poissons Ratio (y) = -0.37719 -0.11783
# Poissons Ratio (z) = 0.09001 -0.10161
#
# Static dielectric constant tensor:
#      x y z
#    x 1.994200 0.030510 0.052470 
#    y 0.030510 2.024430 0.002100 
#    z 0.052470 0.002100 2.128890 
# 
# From -- ./inp_files/203033.got.cif
#   From: 2010.05.17/outbox.cif.g08.bks.cpg/sg2_102_cif.got.tgz:203033.got - 2010.06.03 11:33:40.
