data_PCOD9058474
_publ_section_title
;
Structure prediction by ZEFSAII (Michael W. Deem and Ramdas Pophale) SiO2 
 PCOD9058474
Probable space group: P -1
;
_chemical_formula_sum "Si O2"
_cell_formula_units_Z 16
_cell_length_a 11.533330
_cell_length_b 12.578234
_cell_length_c 5.074670
_cell_angle_alpha 88.852889
_cell_angle_beta 101.269526
_cell_angle_gamma 59.615691
_cell_volume 616.641946
_symmetry_space_group_name_H-M "P -1"
_symmetry_group_IT_number 2
_symmetry_cell_setting 'triclinic'
loop_
_space_group_symop_operation_xyz
x,y,z
-x,-y,-z
loop_
_atom_site_type_symbol
_atom_site_label
_atom_site_fract_x
_atom_site_fract_y
_atom_site_fract_z
Si Si1 0.191622 0.935226 0.031315
Si Si2 0.052028 0.197303 0.223204
Si Si3 0.310878 0.412307 0.449910
Si Si4 0.740996 0.756470 0.928553
Si Si5 0.496758 0.803766 0.052704
Si Si6 0.974507 0.406124 0.818454
Si Si7 0.545827 0.397733 0.251937
Si Si8 0.843718 0.193453 0.480089
O O1 0.349975 0.902427 0.105201
O O2 0.177024 0.849180 0.244057
O O3 0.093724 0.074559 0.080070
O O4 0.158273 0.901271 0.733330
O O5 0.980871 0.194198 0.460867
O O6 0.192472 0.201219 0.270441
O O7 0.944472 0.322717 0.009374
O O8 0.394323 0.299902 0.692656
O O9 0.153307 0.520473 0.439232
O O10 0.424021 0.447867 0.414690
O O11 0.279767 0.351927 0.188820
O O12 0.588094 0.852648 0.955797
O O13 0.868297 0.693788 0.197280
O O14 0.457287 0.723469 0.850270
O O15 0.000000 0.500000 0.000000
O O16 0.709040 0.329984 0.377776
O O17 0.500000 0.500000 0.000000
#
# Coordination Sequence:
#
# PCOD9058474 Si02
#       8
#     2   2   2   2   2   2   2   2
#     4  11  24  44  69  94 131 170 219 269 321 382
#     4  10  21  41  64  93 127 170 217 262 324 386
#     4  10  17  37  61  86 126 161 207 265 322 381
#     4   8  20  38  58  91 121 165 209 258 325 377
#     4  10  21  38  62  89 127 165 211 269 322 380
#     4   8  17  36  61  87 126 162 206 263 317 382
#     4  10  21  37  61  90 126 167 214 264 326 385
#     4  11  23  45  66  97 130 171 215 272 322 378
#
# _framework density 25.946987
#
# number of rings (size 3 to 8) (size 9 to 14) (size 15 to 20)
#    0.750    1.500    1.250    1.500    0.000    1.500 
#    6.750    0.625    5.500    0.000    0.000    0.000 
#    0.000    0.000    0.000    0.000    0.000    0.000 
#
# Total GULP energy -89342.434567 kJ/mol
# GULP energy per Si atom -5583.902160 kJ/mol
# Density = 2.588793 g / cm^3
# Si number density = 25.946987 Si / 1000 Ang^3
#
#
#
# Elastic Constant Matrix: (Units=GPa)
#
#
# Indices 1 2 3 4 5 6 
#
# 1 228.3931 29.4181 34.3606 -5.8535 5.6970 -28.0192
# 2 29.4181 97.7021 5.3070 4.2780 4.2383 -13.9334
# 3 34.3606 5.3070 58.5930 -3.7690 -2.1673 -13.3352
# 4 -5.8535 4.2780 -3.7690 24.1587 1.6715 -3.1370
# 5 5.6970 4.2383 -2.1673 1.6715 34.6298 -2.9397
# 6 -28.0192 -13.9334 -13.3352 -3.1370 -2.9397 43.3924
#
#
#
# Elastic Compliance Matrix: (Units=1/GPa)
#
#
# Indices 1 2 3 4 5 6 
#
# 1 0.005223 -0.001143 -0.002362 0.001454 -0.000739 0.002335
# 2 -0.001143 0.011069 0.000127 -0.001812 -0.000845 0.002667
# 3 -0.002362 0.000127 0.019832 0.003012 0.001890 0.004956
# 4 0.001454 -0.001812 0.003012 0.043202 -0.001549 0.004301
# 5 -0.000739 -0.000845 0.001890 -0.001549 0.029440 0.001715
# 6 0.002335 0.002667 0.004956 0.004301 0.001715 0.027360
#
#
# Mechanical properties :
#
#
# Convention : Reuss Voigt Hill
#
# Bulk Modulus (GPa) = 34.05076 58.09550 46.07313
# Shear Modulus (GPa) = 32.75014 41.47634 37.11324
#
# Velocity S-wave (km/s) = 3.55659 4.00247 3.78610
# Velocity P-wave (km/s) = 5.47882 6.61803 6.07519
#
# Compressibility (1/GPa) = 0.02936792
#
# Stress axis : x y z
#
# Youngs Moduli (GPa) = 191.45695 90.34401 50.42335
#
# Poissons Ratio (x) = 0.10326 0.11910
# Poissons Ratio (y) = 0.21884 -0.00640
# Poissons Ratio (z) = 0.45220 -0.01146
#
# Static dielectric constant tensor:
#      x y z
#    x 2.139530 -0.024590 0.036770 
#    y -0.024590 2.113930 0.079580 
#    z 0.036770 0.079580 2.120580 
# 
# From -- ./inp_files/77671.got.cif
#   From: 2010.05.17/outbox.cif.g08.bks.cpg/sg2_39_cif.got.tgz:77671.got - 2010.06.03 11:33:40.
