data_PCOD9058302
_publ_section_title
;
Structure prediction by ZEFSAII (Michael W. Deem and Ramdas Pophale) SiO2 
 PCOD9058302
Probable space group: P -1
;
_chemical_formula_sum "Si O2"
_cell_formula_units_Z 15
_cell_length_a 12.392883
_cell_length_b 11.738195
_cell_length_c 13.316098
_cell_angle_alpha 37.069124
_cell_angle_beta 61.639253
_cell_angle_gamma 89.518163
_cell_volume 735.075822
_symmetry_space_group_name_H-M "P -1"
_symmetry_group_IT_number 2
_symmetry_cell_setting 'triclinic'
loop_
_space_group_symop_operation_xyz
x,y,z
-x,-y,-z
loop_
_atom_site_type_symbol
_atom_site_label
_atom_site_fract_x
_atom_site_fract_y
_atom_site_fract_z
Si Si1 0.538014 0.233488 0.762768
Si Si2 0.500000 0.500000 0.000000
Si Si3 0.623468 0.334258 0.427446
Si Si4 0.805101 0.346834 0.173222
Si Si5 0.661477 0.838529 0.480913
Si Si6 0.823438 0.801188 0.775520
Si Si7 0.198439 0.099067 0.062854
Si Si8 0.109056 0.193711 0.721070
O O1 0.549231 0.210027 0.655647
O O2 0.374959 0.191235 0.886854
O O3 0.720136 0.513937 0.522491
O O4 0.500000 0.000000 0.000000
O O5 0.416366 0.353803 0.253812
O O6 0.316669 0.278775 0.183520
O O7 0.698335 0.238741 0.400212
O O8 0.481758 0.279529 0.457738
O O9 0.773878 0.650050 0.153412
O O10 0.723267 0.108853 0.301913
O O11 0.791961 0.546371 0.996802
O O12 0.000000 0.500000 0.000000
O O13 0.814737 0.888263 0.326473
O O14 0.824046 0.922477 0.792308
O O15 0.000000 0.000000 0.500000
O O16 0.030946 0.845753 0.256840
O O17 0.000000 0.000000 0.000000
#
# Coordination Sequence:
#
# PCOD9058302 Si02
#       8
#     2   1   2   2   2   2   2   2
#     4  12  27  46  71 105 138 182 238 300 350 414
#     4  12  22  40  70  94 142 180 234 278 352 408
#     4  11  22  45  68  95 141 183 227 281 354 426
#     4  11  24  42  66 102 142 181 234 287 352 421
#     4  12  24  44  72 105 136 188 236 287 360 422
#     4  11  24  43  66 103 142 186 230 291 348 419
#     4  11  22  46  69  98 138 186 236 278 358 423
#     4  12  24  44  78  99 137 191 237 285 355 431
#
# _framework density 20.406057000000001
#
# number of rings (size 3 to 8) (size 9 to 14) (size 15 to 20)
#    0.000    0.533    5.333    4.800    0.000    3.733 
#    2.400    0.000    0.000    0.000    0.000    0.000 
#    0.000    0.000    0.000    0.000    0.000    0.000 
#
# Total GULP energy -83585.940030 kJ/mol
# GULP energy per Si atom -5572.396002 kJ/mol
# Density = 2.035961 g / cm^3
# Si number density = 20.406057 Si / 1000 Ang^3
#
#
#
# Elastic Constant Matrix: (Units=GPa)
#
#
# Indices 1 2 3 4 5 6 
#
# 1 94.1230 63.4493 50.2054 9.3545 -25.6074 33.2996
# 2 63.4493 143.4731 78.2494 26.6862 -6.1636 18.9249
# 3 50.2054 78.2494 132.3961 31.5398 -21.0212 10.0810
# 4 9.3545 26.6862 31.5398 43.9963 6.1584 4.7206
# 5 -25.6074 -6.1636 -21.0212 6.1584 42.1043 -2.2045
# 6 33.2996 18.9249 10.0810 4.7206 -2.2045 44.3104
#
#
#
# Elastic Compliance Matrix: (Units=1/GPa)
#
#
# Indices 1 2 3 4 5 6 
#
# 1 0.025615 -0.007772 -0.002163 0.000669 0.012483 -0.014888
# 2 -0.007772 0.013301 -0.005342 -0.002018 -0.005082 0.001337
# 3 -0.002163 -0.005342 0.014161 -0.007507 0.006164 0.001792
# 4 0.000669 -0.002018 -0.007507 0.030508 -0.008182 -0.001590
# 5 0.012483 -0.005082 0.006164 -0.008182 0.034558 -0.006022
# 6 -0.014888 0.001337 0.001792 -0.001590 -0.006022 0.032647
#
#
# Mechanical properties :
#
#
# Convention : Reuss Voigt Hill
#
# Bulk Modulus (GPa) = 44.40101 83.75561 64.07831
# Shear Modulus (GPa) = 26.47550 37.95473 32.21511
#
# Velocity S-wave (km/s) = 3.60590 4.31742 3.97760
# Velocity P-wave (km/s) = 6.25641 8.12324 7.25016
#
# Compressibility (1/GPa) = 0.02252201
#
# Stress axis : x y z
#
# Youngs Moduli (GPa) = 39.04003 75.18059 70.61475
#
# Poissons Ratio (x) = 0.58432 0.15276
# Poissons Ratio (y) = 0.30343 0.37723
# Poissons Ratio (z) = 0.08446 0.40162
#
# Static dielectric constant tensor:
#      x y z
#    x 1.739040 -0.013540 0.001670 
#    y -0.013540 1.754240 0.002720 
#    z 0.001670 0.002720 1.729400 
# 
# From -- ./inp_files/278886.got.cif
#   From: 2010.05.17/outbox.cif.g08.bks.cpg/sg2_140_cif.got.tgz:278886.got - 2010.06.03 11:33:40.
