data_PCOD9058428
_publ_section_title
;
Structure prediction by ZEFSAII (Michael W. Deem and Ramdas Pophale) SiO2 
 PCOD9058428
Probable space group: P -1
;
_chemical_formula_sum "Si O2"
_cell_formula_units_Z 14
_cell_length_a 11.249826
_cell_length_b 5.392491
_cell_length_c 17.005618
_cell_angle_alpha 89.541202
_cell_angle_beta 32.857381
_cell_angle_gamma 89.581011
_cell_volume 559.697089
_symmetry_space_group_name_H-M "P -1"
_symmetry_group_IT_number 2
_symmetry_cell_setting 'triclinic'
loop_
_space_group_symop_operation_xyz
x,y,z
-x,-y,-z
loop_
_atom_site_type_symbol
_atom_site_label
_atom_site_fract_x
_atom_site_fract_y
_atom_site_fract_z
Si Si1 0.650948 0.904568 0.986011
Si Si2 0.060295 0.259205 0.795361
Si Si3 0.644331 0.935504 0.241647
Si Si4 0.062361 0.427251 0.269179
Si Si5 0.345740 0.602473 0.251604
Si Si6 0.255402 0.580332 0.904870
Si Si7 0.849733 0.117827 0.513830
O O1 0.751244 0.652309 0.895235
O O2 0.860090 0.070985 0.889239
O O3 0.492436 0.839888 0.146199
O O4 0.500000 0.000000 0.000000
O O5 0.104100 0.414212 0.691402
O O6 0.263009 0.117665 0.722516
O O7 0.953823 0.433375 0.922211
O O8 0.698240 0.676155 0.166564
O O9 0.384999 0.995088 0.378820
O O10 0.763359 0.173406 0.137502
O O11 0.177681 0.575034 0.274577
O O12 0.971908 0.187289 0.365726
O O13 0.526155 0.390461 0.162438
O O14 0.223836 0.629720 0.401541
O O15 0.000000 0.000000 0.500000
#
# Coordination Sequence:
#
# PCOD9058428 Si02
#       7
#     2   2   2   2   2   2   2
#     4  12  23  42  68 107 141 180 236 296 359 417
#     4  12  25  42  70 103 149 183 232 297 362 426
#     4  11  27  46  73 105 144 194 240 289 358 430
#     4  12  25  41  69 105 142 182 237 297 363 413
#     4  11  22  45  73 104 138 186 244 294 353 427
#     4  11  23  45  73 106 142 188 239 296 353 425
#     4  11  25  47  72 101 139 191 244 293 351 430
#
# _framework density 25.013532000000001
#
# number of rings (size 3 to 8) (size 9 to 14) (size 15 to 20)
#    0.000    0.571    2.857    6.000    2.000    1.714 
#    0.000    0.714    0.000    0.000    0.000    0.000 
#    0.000    0.000    0.000    0.000    0.000    0.000 
#
# Total GULP energy -78276.888748 kJ/mol
# GULP energy per Si atom -5591.206339 kJ/mol
# Density = 2.495660 g / cm^3
# Si number density = 25.013532 Si / 1000 Ang^3
#
#
#
# Elastic Constant Matrix: (Units=GPa)
#
#
# Indices 1 2 3 4 5 6 
#
# 1 178.2057 46.7842 30.7303 -14.6106 -25.0435 -53.3314
# 2 46.7842 95.8180 12.3865 -13.0890 3.6017 -19.6449
# 3 30.7303 12.3865 70.6590 -9.4019 -7.0006 -10.9526
# 4 -14.6106 -13.0890 -9.4019 32.1508 -4.3120 1.5650
# 5 -25.0435 3.6017 -7.0006 -4.3120 32.1533 1.3560
# 6 -53.3314 -19.6449 -10.9526 1.5650 1.3560 65.6834
#
#
#
# Elastic Compliance Matrix: (Units=1/GPa)
#
#
# Indices 1 2 3 4 5 6 
#
# 1 0.010202 -0.003194 -0.001524 0.003654 0.008174 0.006818
# 2 -0.003194 0.012872 -0.000651 0.003044 -0.003712 0.001152
# 3 -0.001524 -0.000651 0.015912 0.004025 0.002845 0.001067
# 4 0.003654 0.003044 0.004025 0.036092 0.008073 0.003522
# 5 0.008174 -0.003712 0.002845 0.008073 0.039375 0.004996
# 6 0.006818 0.001152 0.001067 0.003522 0.004996 0.021095
#
#
# Mechanical properties :
#
#
# Convention : Reuss Voigt Hill
#
# Bulk Modulus (GPa) = 35.40251 58.27606 46.83929
# Shear Modulus (GPa) = 32.11244 42.98296 37.54770
#
# Velocity S-wave (km/s) = 3.58691 4.14984 3.87860
# Velocity P-wave (km/s) = 5.59809 6.80514 6.23091
#
# Compressibility (1/GPa) = 0.02824659
#
# Stress axis : x y z
#
# Youngs Moduli (GPa) = 98.02366 77.68919 62.84471
#
# Poissons Ratio (x) = 0.24816 0.09577
# Poissons Ratio (y) = 0.31312 0.04093
# Poissons Ratio (z) = 0.14937 0.05060
#
# Static dielectric constant tensor:
#      x y z
#    x 2.075520 0.004710 -0.042880 
#    y 0.004710 2.043120 0.016370 
#    z -0.042880 0.016370 1.951650 
# 
# From -- ./inp_files/81483.got.cif
#   From: 2010.05.17/outbox.cif.g08.bks.cpg/sg2_41_cif.got.tgz:81483.got - 2010.06.03 11:33:40.
