data_PCOD9058730
_publ_section_title
;
Structure prediction by ZEFSAII (Michael W. Deem and Ramdas Pophale) SiO2 
 PCOD9058730
Probable space group: P -1
;
_chemical_formula_sum "Si O2"
_cell_formula_units_Z 16
_cell_length_a 12.073817
_cell_length_b 8.871565
_cell_length_c 9.364385
_cell_angle_alpha 79.714863
_cell_angle_beta 91.157946
_cell_angle_gamma 48.338024
_cell_volume 724.037456
_symmetry_space_group_name_H-M "P -1"
_symmetry_group_IT_number 2
_symmetry_cell_setting 'triclinic'
loop_
_space_group_symop_operation_xyz
x,y,z
-x,-y,-z
loop_
_atom_site_type_symbol
_atom_site_label
_atom_site_fract_x
_atom_site_fract_y
_atom_site_fract_z
Si Si1 0.012325 0.099931 0.113961
Si Si2 0.105033 0.020576 0.418908
Si Si3 0.366692 0.276436 0.281057
Si Si4 0.561888 0.272223 0.518945
Si Si5 0.171168 0.235921 0.952577
Si Si6 0.043867 0.438092 0.347475
Si Si7 0.269528 0.464545 0.963701
Si Si8 0.533692 0.108508 0.828401
O O1 0.111331 0.946704 0.271795
O O2 0.842550 0.297639 0.126176
O O3 0.085540 0.185232 0.042368
O O4 0.000000 0.000000 0.000000
O O5 0.046894 0.250379 0.357750
O O6 0.269750 0.878371 0.514368
O O7 0.000000 0.000000 0.500000
O O8 0.457765 0.265512 0.415629
O O9 0.209261 0.351302 0.324743
O O10 0.459105 0.057368 0.233737
O O11 0.337642 0.428397 0.128594
O O12 0.500000 0.500000 0.500000
O O13 0.575464 0.186434 0.691337
O O14 0.174570 0.397713 0.000712
O O15 0.085505 0.353849 0.783507
O O16 0.345336 0.020782 0.017250
O O17 0.000000 0.500000 0.500000
O O18 0.382744 0.308451 0.867867
#
# Coordination Sequence:
#
# PCOD9058730 Si02
#       8
#     2   2   2   2   2   2   2   2
#     4  12  26  46  74 102 148 191 245 305 365 437
#     4  12  29  51  71 110 149 195 244 303 380 439
#     4  11  24  47  74 111 144 191 251 303 372 435
#     4  12  29  47  73 101 160 201 234 305 378 443
#     4  11  22  47  75 105 143 189 252 303 365 422
#     4  12  27  44  82 114 147 189 257 316 369 440
#     4  11  24  44  77 109 138 191 244 311 363 436
#     4  11  25  48  75 106 150 187 253 305 367 442
#
# _framework density 22.098303999999999
#
# number of rings (size 3 to 8) (size 9 to 14) (size 15 to 20)
#    0.000    0.500    5.000    3.000    8.750    1.000 
#    0.000    1.250    0.000    0.000    0.000    0.000 
#    0.000    0.000    0.000    0.000    0.000    0.000 
#
# Total GULP energy -89324.715790 kJ/mol
# GULP energy per Si atom -5582.794737 kJ/mol
# Density = 2.204801 g / cm^3
# Si number density = 22.098304 Si / 1000 Ang^3
#
#
#
# Elastic Constant Matrix: (Units=GPa)
#
#
# Indices 1 2 3 4 5 6 
#
# 1 124.5773 45.6839 63.5193 5.9300 5.6317 -14.0274
# 2 45.6839 96.7488 26.3296 10.5313 15.6842 -15.5816
# 3 63.5193 26.3296 140.8178 5.5316 14.6519 -7.7976
# 4 5.9300 10.5313 5.5316 38.6904 -1.9676 -7.4168
# 5 5.6317 15.6842 14.6519 -1.9676 31.9682 -6.0219
# 6 -14.0274 -15.5816 -7.7976 -7.4168 -6.0219 16.4966
#
#
#
# Elastic Compliance Matrix: (Units=1/GPa)
#
#
# Indices 1 2 3 4 5 6 
#
# 1 0.012604 -0.004310 -0.004944 0.001296 0.003395 0.006132
# 2 -0.004310 0.014572 0.000259 -0.002211 -0.005269 0.007304
# 3 -0.004944 0.000259 0.009671 -0.001164 -0.004020 -0.001379
# 4 0.001296 -0.002211 -0.001164 0.029351 0.005791 0.013774
# 5 0.003395 -0.005269 -0.004020 0.005791 0.037805 0.012414
# 6 0.006132 0.007304 -0.001379 0.013774 0.012414 0.082803
#
#
# Mechanical properties :
#
#
# Convention : Reuss Voigt Hill
#
# Bulk Modulus (GPa) = 53.03233 70.35657 61.69445
# Shear Modulus (GPa) = 23.68768 32.53846 28.11307
#
# Velocity S-wave (km/s) = 3.27758 3.84140 3.57064
# Velocity P-wave (km/s) = 6.19466 7.18208 6.70657
#
# Compressibility (1/GPa) = 0.01885642
#
# Stress axis : x y z
#
# Youngs Moduli (GPa) = 79.34195 68.62613 103.40528
#
# Poissons Ratio (x) = 0.29577 0.51123
# Poissons Ratio (y) = 0.34195 -0.02678
# Poissons Ratio (z) = 0.39227 -0.01777
#
# Static dielectric constant tensor:
#      x y z
#    x 1.869440 -0.049630 0.046200 
#    y -0.049630 1.849630 -0.028040 
#    z 0.046200 -0.028040 1.844230 
# 
# From -- ./inp_files/187810.got.cif
#   From: 2010.05.17/outbox.cif.g08.bks.cpg/sg2_94_cif.got.tgz:187810.got - 2010.06.03 11:33:40.
