data_PCOD9058195
_publ_section_title
;
Structure prediction by ZEFSAII (Michael W. Deem and Ramdas Pophale) SiO2 
 PCOD9058195
Probable space group: P -1
;
_chemical_formula_sum "Si O2"
_cell_formula_units_Z 16
_cell_length_a 9.112693
_cell_length_b 18.246649
_cell_length_c 11.673742
_cell_angle_alpha 150.357003
_cell_angle_beta 53.614224
_cell_angle_gamma 126.347656
_cell_volume 758.242271
_symmetry_space_group_name_H-M "P -1"
_symmetry_group_IT_number 2
_symmetry_cell_setting 'triclinic'
loop_
_space_group_symop_operation_xyz
x,y,z
-x,-y,-z
loop_
_atom_site_type_symbol
_atom_site_label
_atom_site_fract_x
_atom_site_fract_y
_atom_site_fract_z
Si Si1 0.427359 0.637540 0.368499
Si Si2 0.096938 0.675935 0.182840
Si Si3 0.055284 0.141358 0.317783
Si Si4 0.529722 0.838980 0.811980
Si Si5 0.130868 0.181667 0.954581
Si Si6 0.848564 0.290255 0.064136
Si Si7 0.484756 0.695612 0.158853
Si Si8 0.001414 0.371196 0.462142
O O1 0.523884 0.731105 0.557649
O O2 0.473194 0.713405 0.325532
O O3 0.207364 0.623262 0.470848
O O4 0.480835 0.473884 0.111037
O O5 0.292460 0.706468 0.201554
O O6 0.968169 0.776482 0.439859
O O7 0.128716 0.718009 0.093130
O O8 0.000000 0.500000 0.000000
O O9 0.270304 0.141090 0.195414
O O10 0.986706 0.244353 0.394093
O O11 0.940736 0.972886 0.154583
O O12 0.360296 0.771214 0.881206
O O13 0.500000 0.000000 0.000000
O O14 0.336247 0.195330 0.828298
O O15 0.116666 0.317083 0.232500
O O16 0.987000 0.201359 0.946633
O O17 0.906385 0.466338 0.311151
#
# Coordination Sequence:
#
# PCOD9058195 Si02
#       8
#     2   2   2   2   2   2   2   2
#     4  11  22  44  73  96 136 181 229 283 338 413
#     4  12  26  48  68 103 144 178 235 286 342 409
#     4  12  27  46  70  99 145 185 221 292 350 398
#     4  12  26  45  68 104 140 181 226 281 351 412
#     4  12  26  45  69 106 137 180 234 285 347 411
#     4  12  25  45  74 100 140 183 230 287 341 414
#     4  11  25  43  71 103 132 183 232 281 341 411
#     4  12  23  47  71 101 139 179 233 285 342 410
#
# _framework density 21.101437000000001
#
# number of rings (size 3 to 8) (size 9 to 14) (size 15 to 20)
#    0.000    0.250    6.250    2.250    5.250    2.500 
#    0.000    0.000    0.000    0.000    0.000    0.000 
#    0.000    0.000    0.000    0.000    0.000    0.000 
#
# Total GULP energy -89608.514154 kJ/mol
# GULP energy per Si atom -5600.532135 kJ/mol
# Density = 2.105341 g / cm^3
# Si number density = 21.101437 Si / 1000 Ang^3
#
#
#
# Elastic Constant Matrix: (Units=GPa)
#
#
# Indices 1 2 3 4 5 6 
#
# 1 66.8721 43.6481 -9.1358 1.6330 -17.3603 7.3456
# 2 43.6481 135.1385 10.0971 -1.7266 -3.8737 6.2838
# 3 -9.1358 10.0971 39.0856 -1.7758 -5.1011 0.3171
# 4 1.6330 -1.7266 -1.7758 39.3948 -8.8556 -2.6103
# 5 -17.3603 -3.8737 -5.1011 -8.8556 31.2019 -8.4179
# 6 7.3456 6.2838 0.3171 -2.6103 -8.4179 45.7025
#
#
#
# Elastic Compliance Matrix: (Units=1/GPa)
#
#
# Indices 1 2 3 4 5 6 
#
# 1 0.026198 -0.008763 0.010588 0.002595 0.015958 0.000008
# 2 -0.008763 0.010532 -0.005423 -0.000576 -0.004869 -0.000932
# 3 0.010588 -0.005423 0.031118 0.003407 0.011584 0.001156
# 4 0.002595 -0.000576 0.003407 0.028036 0.010755 0.003221
# 5 0.015958 -0.004869 0.011584 0.010755 0.047250 0.007342
# 6 0.000008 -0.000932 0.001156 0.003221 0.007342 0.023536
#
#
# Mechanical properties :
#
#
# Convention : Reuss Voigt Hill
#
# Bulk Modulus (GPa) = 16.48750 36.70168 26.59459
# Shear Modulus (GPa) = 25.76223 36.35895 31.06059
#
# Velocity S-wave (km/s) = 3.49789 4.15547 3.84078
# Velocity P-wave (km/s) = 4.91366 6.36040 5.68326
#
# Compressibility (1/GPa) = 0.06065201
#
# Stress axis : x y z
#
# Youngs Moduli (GPa) = 38.17039 94.95226 32.13608
#
# Poissons Ratio (x) = 0.83203 -0.34025
# Poissons Ratio (y) = 0.33447 0.17427
# Poissons Ratio (z) = -0.40414 0.51492
#
# Static dielectric constant tensor:
#      x y z
#    x 1.747980 -0.007300 0.013670 
#    y -0.007300 1.748750 -0.001450 
#    z 0.013670 -0.001450 1.749780 
# 
# From -- ./inp_files/190852.got.cif
#   From: 2010.05.17/outbox.cif.g08.bks.cpg/sg2_96_cif.got.tgz:190852.got - 2010.06.03 11:33:40.
