data_PCOD9058788
_publ_section_title
;
Structure prediction by ZEFSAII (Michael W. Deem and Ramdas Pophale) SiO2 
 PCOD9058788
Probable space group: P -1
;
_chemical_formula_sum "Si O2"
_cell_formula_units_Z 16
_cell_length_a 12.259498
_cell_length_b 11.967167
_cell_length_c 10.929245
_cell_angle_alpha 124.349092
_cell_angle_beta 146.818099
_cell_angle_gamma 55.821944
_cell_volume 710.162993
_symmetry_space_group_name_H-M "P -1"
_symmetry_group_IT_number 2
_symmetry_cell_setting 'triclinic'
loop_
_space_group_symop_operation_xyz
x,y,z
-x,-y,-z
loop_
_atom_site_type_symbol
_atom_site_label
_atom_site_fract_x
_atom_site_fract_y
_atom_site_fract_z
Si Si1 0.045429 0.541664 0.430494
Si Si2 0.797975 0.457791 0.912339
Si Si3 0.804293 0.157055 0.979411
Si Si4 0.220298 0.141153 0.228377
Si Si5 0.464115 0.360453 0.687755
Si Si6 0.154005 0.270561 0.988399
Si Si7 0.991579 0.140641 0.408914
Si Si8 0.264922 0.012049 0.767516
O O1 0.289154 0.494299 0.622414
O O2 0.976577 0.704783 0.455578
O O3 0.000000 0.500000 0.500000
O O4 0.933860 0.478163 0.174139
O O5 0.738318 0.609436 0.888657
O O6 0.606412 0.394858 0.733607
O O7 0.938086 0.357223 0.886240
O O8 0.630529 0.294655 0.904856
O O9 0.713209 0.021203 0.783363
O O10 0.921113 0.123949 0.195506
O O11 0.979652 0.170562 0.054929
O O12 0.336244 0.240851 0.472888
O O13 0.248661 0.184388 0.142104
O O14 0.153098 0.154877 0.814693
O O15 0.190540 0.031316 0.570172
O O16 0.815790 0.108507 0.313338
O O17 0.500000 0.000000 0.000000
#
# Coordination Sequence:
#
# PCOD9058788 Si02
#       8
#     2   2   2   2   2   2   2   2
#     4  12  26  45  68 102 148 184 232 289 349 420
#     4  11  25  45  72 101 143 184 234 298 348 413
#     4  11  24  45  71 101 141 179 232 293 346 418
#     4  11  23  45  69 104 137 176 231 297 351 407
#     4  12  24  44  70 105 132 191 241 274 356 419
#     4  11  22  50  69  98 145 177 232 303 346 405
#     4  11  25  46  70  99 138 187 226 289 352 408
#     4  11  26  48  72 103 136 185 238 286 352 423
#
# _framework density 22.530038999999999
#
# number of rings (size 3 to 8) (size 9 to 14) (size 15 to 20)
#    0.000    0.750    5.000    1.875    1.750    4.500 
#    9.000    0.000    0.000    0.000    0.000    0.000 
#    0.000    0.000    0.000    0.000    0.000    0.000 
#
# Total GULP energy -89396.506545 kJ/mol
# GULP energy per Si atom -5587.281659 kJ/mol
# Density = 2.247876 g / cm^3
# Si number density = 22.530039 Si / 1000 Ang^3
#
#
#
# Elastic Constant Matrix: (Units=GPa)
#
#
# Indices 1 2 3 4 5 6 
#
# 1 71.3727 28.7859 31.8316 -5.2229 1.9995 20.6035
# 2 28.7859 67.3789 6.0068 15.2693 12.0637 32.0468
# 3 31.8316 6.0068 80.0952 -4.0182 10.9734 14.7101
# 4 -5.2229 15.2693 -4.0182 40.0777 4.7636 -4.7797
# 5 1.9995 12.0637 10.9734 4.7636 33.8586 0.8802
# 6 20.6035 32.0468 14.7101 -4.7797 0.8802 41.2113
#
#
#
# Elastic Compliance Matrix: (Units=1/GPa)
#
#
# Indices 1 2 3 4 5 6 
#
# 1 0.022555 -0.012006 -0.008745 0.006275 0.004850 0.001805
# 2 -0.012006 0.039580 0.008061 -0.017835 -0.012731 -0.029450
# 3 -0.008745 0.008061 0.017803 -0.002528 -0.007552 -0.008383
# 4 0.006275 -0.017835 -0.002528 0.033972 0.001620 0.015539
# 5 0.004850 -0.012731 -0.007552 0.001620 0.035755 0.009595
# 6 0.001805 -0.029450 -0.008383 0.015539 0.009595 0.050854
#
#
# Mechanical properties :
#
#
# Convention : Reuss Voigt Hill
#
# Bulk Modulus (GPa) = 18.32819 39.12171 28.72495
# Shear Modulus (GPa) = 20.48476 33.17769 26.83123
#
# Velocity S-wave (km/s) = 3.01860 3.84161 3.45470
# Velocity P-wave (km/s) = 4.50576 6.08927 5.35636
#
# Compressibility (1/GPa) = 0.05456075
#
# Stress axis : x y z
#
# Youngs Moduli (GPa) = 44.33522 25.26524 56.16881
#
# Poissons Ratio (x) = 0.30332 0.49118
# Poissons Ratio (y) = 0.53227 -0.45279
# Poissons Ratio (z) = 0.38770 -0.20367
#
# Static dielectric constant tensor:
#      x y z
#    x 1.391210 0.076170 0.088340 
#    y 0.076170 1.841770 -0.023570 
#    z 0.088340 -0.023570 1.836820 
# 
# From -- ./inp_files/427941.got.cif
#   From: 2010.05.17/outbox.cif.g08.bks.cpg/sg2_214_cif.got.tgz:427941.got - 2010.06.03 11:33:40.
