data_PCOD9058497
_publ_section_title
;
Structure prediction by ZEFSAII (Michael W. Deem and Ramdas Pophale) SiO2 
 PCOD9058497
Probable space group: P -1
;
_chemical_formula_sum "Si O2"
_cell_formula_units_Z 16
_cell_length_a 12.891158
_cell_length_b 18.052977
_cell_length_c 8.891811
_cell_angle_alpha 80.201162
_cell_angle_beta 110.055699
_cell_angle_gamma 156.399318
_cell_volume 718.879912
_symmetry_space_group_name_H-M "P -1"
_symmetry_group_IT_number 2
_symmetry_cell_setting 'triclinic'
loop_
_space_group_symop_operation_xyz
x,y,z
-x,-y,-z
loop_
_atom_site_type_symbol
_atom_site_label
_atom_site_fract_x
_atom_site_fract_y
_atom_site_fract_z
Si Si1 0.290790 0.556181 0.495853
Si Si2 0.810788 0.443033 0.846129
Si Si3 0.328930 0.173115 0.118208
Si Si4 0.761946 0.057110 0.934674
Si Si5 0.365990 0.344296 0.571679
Si Si6 0.701641 0.510652 0.960482
Si Si7 0.344162 0.908447 0.615283
Si Si8 0.745231 0.000407 0.283139
O O1 0.157165 0.534660 0.325256
O O2 0.508009 0.718901 0.677673
O O3 0.492126 0.635174 0.454749
O O4 0.005157 0.329778 0.486979
O O5 0.874452 0.562028 0.917401
O O6 0.479746 0.207720 0.792789
O O7 0.000000 0.500000 0.000000
O O8 0.305489 0.070533 0.101904
O O9 0.537012 0.355160 0.052084
O O10 0.000000 0.000000 0.000000
O O11 0.501273 0.948099 0.791729
O O12 0.815672 0.086275 0.131111
O O13 0.060995 0.280000 0.935412
O O14 0.500000 0.500000 0.500000
O O15 0.466320 0.402802 0.773164
O O16 0.022099 0.135965 0.450519
O O17 0.379401 0.014034 0.664384
O O18 0.500000 0.000000 0.500000
#
# Coordination Sequence:
#
# PCOD9058497 Si02
#       8
#     2   2   2   2   2   2   2   2
#     4  11  26  46  70 108 147 186 242 304 363 429
#     4  11  24  44  75 107 140 187 243 302 353 428
#     4  12  29  47  70 108 150 193 237 295 369 436
#     4  12  25  48  73 101 147 192 240 300 355 437
#     4  11  22  45  78 105 137 187 246 304 356 423
#     4  11  25  46  72 105 143 187 246 295 354 431
#     4  12  27  45  72 106 145 189 244 299 371 434
#     4  12  23  44  77 106 139 191 246 295 365 430
#
# _framework density 22.256847
#
# number of rings (size 3 to 8) (size 9 to 14) (size 15 to 20)
#    0.000    0.500    3.750    4.125    3.500    2.000 
#    0.000    0.000    0.000    0.000    0.000    0.000 
#    0.000    0.000    0.000    0.000    0.000    0.000 
#
# Total GULP energy -89511.345359 kJ/mol
# GULP energy per Si atom -5594.459085 kJ/mol
# Density = 2.220619 g / cm^3
# Si number density = 22.256847 Si / 1000 Ang^3
#
#
#
# Elastic Constant Matrix: (Units=GPa)
#
#
# Indices 1 2 3 4 5 6 
#
# 1 73.6530 20.4991 30.2287 -2.9509 2.1418 -6.6978
# 2 20.4991 106.2518 24.8086 1.3558 -2.2097 -21.0804
# 3 30.2287 24.8086 134.9461 1.8505 10.1047 -0.7530
# 4 -2.9509 1.3558 1.8505 38.4021 5.4610 3.2481
# 5 2.1418 -2.2097 10.1047 5.4610 34.7621 2.4797
# 6 -6.6978 -21.0804 -0.7530 3.2481 2.4797 32.2378
#
#
#
# Elastic Compliance Matrix: (Units=1/GPa)
#
#
# Indices 1 2 3 4 5 6 
#
# 1 0.015632 -0.001961 -0.003110 0.001343 -0.000523 0.001798
# 2 -0.001961 0.011664 -0.001726 -0.001239 0.001043 0.007224
# 3 -0.003110 -0.001726 0.008590 -0.000149 -0.002293 -0.001383
# 4 0.001343 -0.001239 -0.000149 0.027034 -0.004155 -0.002939
# 5 -0.000523 0.001043 -0.002293 -0.004155 0.030284 -0.001391
# 6 0.001798 0.007224 -0.001383 -0.002939 -0.001391 0.036487
#
#
# Mechanical properties :
#
#
# Convention : Reuss Voigt Hill
#
# Bulk Modulus (GPa) = 44.85975 51.76931 48.31453
# Shear Modulus (GPa) = 33.17496 37.03469 35.10483
#
# Velocity S-wave (km/s) = 3.86495 4.08360 3.97578
# Velocity P-wave (km/s) = 6.33375 6.74869 6.54451
#
# Compressibility (1/GPa) = 0.02229170
#
# Stress axis : x y z
#
# Youngs Moduli (GPa) = 63.97134 85.73704 116.40872
#
# Poissons Ratio (x) = 0.16813 0.36208
# Poissons Ratio (y) = 0.12545 0.20090
# Poissons Ratio (z) = 0.19898 0.14796
#
# Static dielectric constant tensor:
#      x y z
#    x 1.812320 -0.010680 -0.002490 
#    y -0.010680 1.850300 -0.056230 
#    z -0.002490 -0.056230 1.794830 
# 
# From -- ./inp_files/319340.got.cif
#   From: 2010.05.17/outbox.cif.g08.bks.cpg/sg2_160_cif.got.tgz:319340.got - 2010.06.03 11:33:40.
