data_PCOD9058294
_publ_section_title
;
Structure prediction by ZEFSAII (Michael W. Deem and Ramdas Pophale) SiO2 
 PCOD9058294
Probable space group: P -1
;
_chemical_formula_sum "Si O2"
_cell_formula_units_Z 14
_cell_length_a 13.544889
_cell_length_b 23.339644
_cell_length_c 16.315848
_cell_angle_alpha 18.858125
_cell_angle_beta 145.218453
_cell_angle_gamma 156.474929
_cell_volume 621.060730
_symmetry_space_group_name_H-M "P -1"
_symmetry_group_IT_number 2
_symmetry_cell_setting 'triclinic'
loop_
_space_group_symop_operation_xyz
x,y,z
-x,-y,-z
loop_
_atom_site_type_symbol
_atom_site_label
_atom_site_fract_x
_atom_site_fract_y
_atom_site_fract_z
Si Si1 0.344077 0.640829 0.317307
Si Si2 0.109145 0.551599 0.121589
Si Si3 0.473270 0.601228 0.192187
Si Si4 0.323575 0.531018 0.864384
Si Si5 0.522650 0.047819 0.354451
Si Si6 0.091203 0.254093 0.253136
Si Si7 0.154068 0.720093 0.231371
O O1 0.100932 0.489747 0.294897
O O2 0.384663 0.462537 0.592662
O O3 0.276772 0.668273 0.323442
O O4 0.599604 0.948953 0.037494
O O5 0.324900 0.590785 0.177150
O O6 0.840267 0.321693 0.198325
O O7 0.143250 0.789748 0.828564
O O8 0.265349 0.369093 0.297002
O O9 0.615641 0.876903 0.870610
O O10 0.065920 0.343041 0.885568
O O11 0.451313 0.825120 0.552332
O O12 0.500000 0.500000 0.000000
O O13 0.256800 0.459051 0.012462
O O14 0.500000 0.000000 0.500000
O O15 0.000000 0.000000 0.500000
O O16 0.000000 0.500000 0.500000
#
# Coordination Sequence:
#
# PCOD9058294 Si02
#       7
#     2   2   2   2   2   2   2
#     4  11  25  50  71 106 151 185 246 295 359 444
#     4  11  24  46  70 101 142 189 231 300 363 423
#     4  11  25  42  71 101 135 196 230 292 368 421
#     4  12  27  44  70 105 140 181 239 304 355 427
#     4  11  22  45  68 102 141 175 241 298 350 425
#     4  11  23  42  70 102 137 185 240 289 355 427
#     4  11  27  48  74 106 147 193 237 300 365 425
#
# _framework density 22.542079000000001
#
# number of rings (size 3 to 8) (size 9 to 14) (size 15 to 20)
#    0.000    0.857    4.286    3.000   12.000    0.000 
#    0.000    1.429    0.000    0.000    0.000    0.000 
#    0.000    0.000    0.000    0.000    0.000    0.000 
#
# Total GULP energy -78139.150333 kJ/mol
# GULP energy per Si atom -5581.367881 kJ/mol
# Density = 2.249077 g / cm^3
# Si number density = 22.542079 Si / 1000 Ang^3
#
#
#
# Elastic Constant Matrix: (Units=GPa)
#
#
# Indices 1 2 3 4 5 6 
#
# 1 116.6899 8.5336 39.2527 -7.2552 9.1802 5.8043
# 2 8.5336 77.1298 24.2865 5.8646 21.2027 -1.6981
# 3 39.2527 24.2865 127.0343 -1.6840 26.7268 11.1540
# 4 -7.2552 5.8646 -1.6840 35.3313 2.3199 8.8488
# 5 9.1802 21.2027 26.7268 2.3199 63.8869 4.3411
# 6 5.8043 -1.6981 11.1540 8.8488 4.3411 34.5734
#
#
#
# Elastic Compliance Matrix: (Units=1/GPa)
#
#
# Indices 1 2 3 4 5 6 
#
# 1 0.009745 -0.000378 -0.002769 0.002272 -0.000108 -0.001329
# 2 -0.000378 0.015135 -0.002199 -0.003134 -0.004128 0.002837
# 3 -0.002769 -0.002199 0.010024 0.001169 -0.002917 -0.002810
# 4 0.002272 -0.003134 0.001169 0.031612 -0.000314 -0.008964
# 5 -0.000108 -0.004128 -0.002917 -0.000314 0.018370 -0.001469
# 6 -0.001329 0.002837 -0.002810 -0.008964 -0.001469 0.032672
#
#
# Mechanical properties :
#
#
# Convention : Reuss Voigt Hill
#
# Bulk Modulus (GPa) = 41.30366 51.66662 46.48514
# Shear Modulus (GPa) = 36.67855 43.34375 40.01115
#
# Velocity S-wave (km/s) = 4.03813 4.38972 4.21759
# Velocity P-wave (km/s) = 6.33282 6.97587 6.66211
#
# Compressibility (1/GPa) = 0.02421093
#
# Stress axis : x y z
#
# Youngs Moduli (GPa) = 102.61913 66.07291 99.76173
#
# Poissons Ratio (x) = 0.02500 0.27625
# Poissons Ratio (y) = 0.03883 0.21935
# Poissons Ratio (z) = 0.28416 0.14528
#
# Static dielectric constant tensor:
#      x y z
#    x 1.872750 0.033860 -0.098980 
#    y 0.033860 1.796870 -0.081310 
#    z -0.098980 -0.081310 2.020750 
# 
# From -- ./inp_files/524012.got.cif
#   From: 2010.05.17/outbox.cif.g08.bks.cpg/sg2_263_cif.got.tgz:524012.got - 2010.06.03 11:33:40.
