data_PCOD9058339
_publ_section_title
;
Structure prediction by ZEFSAII (Michael W. Deem and Ramdas Pophale) SiO2 
 PCOD9058339
Probable space group: P -1
;
_chemical_formula_sum "Si O2"
_cell_formula_units_Z 16
_cell_length_a 7.043006
_cell_length_b 12.918337
_cell_length_c 16.916643
_cell_angle_alpha 149.627650
_cell_angle_beta 59.935405
_cell_angle_gamma 116.261127
_cell_volume 673.332409
_symmetry_space_group_name_H-M "P -1"
_symmetry_group_IT_number 2
_symmetry_cell_setting 'triclinic'
loop_
_space_group_symop_operation_xyz
x,y,z
-x,-y,-z
loop_
_atom_site_type_symbol
_atom_site_label
_atom_site_fract_x
_atom_site_fract_y
_atom_site_fract_z
Si Si1 0.643470 0.922407 0.648563
Si Si2 0.624584 0.508033 0.586494
Si Si3 0.640222 0.141204 0.951702
Si Si4 0.492516 0.721594 0.191375
Si Si5 0.982965 0.276742 0.637302
Si Si6 0.992305 0.439199 0.334538
Si Si7 0.263856 0.866583 0.901481
Si Si8 0.806257 0.567134 0.142178
O O1 0.499426 0.100012 0.757414
O O2 0.509183 0.708392 0.528432
O O3 0.873368 0.909598 0.545940
O O4 0.700928 0.987224 0.768071
O O5 0.792561 0.511190 0.479696
O O6 0.448767 0.687447 0.740673
O O7 0.343841 0.632288 0.937725
O O8 0.788972 0.123844 0.987938
O O9 0.215095 0.468309 0.356158
O O10 0.397571 0.068076 0.979917
O O11 0.678138 0.729549 0.224359
O O12 0.267244 0.747318 0.302268
O O13 0.500000 0.500000 0.000000
O O14 0.996514 0.433836 0.664878
O O15 0.104112 0.358984 0.744385
O O16 0.922726 0.210759 0.170360
O O17 0.000000 0.500000 0.000000
#
# Coordination Sequence:
#
# PCOD9058339 Si02
#       8
#     2   2   2   2   2   2   2   2
#     4  12  24  47  75 108 149 194 246 304 363 435
#     4  11  24  45  70 106 149 190 242 300 362 438
#     4  11  23  41  76 104 141 193 239 297 370 434
#     4  12  27  48  73 104 148 190 244 306 364 433
#     4  12  26  46  76 106 145 196 245 301 365 436
#     4  11  23  42  73 103 143 192 238 296 365 431
#     4  11  22  45  70 102 146 189 239 299 367 436
#     4  12  25  50  73 104 145 194 243 304 368 429
#
# _framework density 23.762409000000002
#
# number of rings (size 3 to 8) (size 9 to 14) (size 15 to 20)
#    0.000    0.500    6.250    1.500    3.500    0.500 
#    9.000    3.750    0.000    0.000    0.000    0.000 
#    0.000    0.000    0.000    0.000    0.000    0.000 
#
# Total GULP energy -89656.404107 kJ/mol
# GULP energy per Si atom -5603.525257 kJ/mol
# Density = 2.370832 g / cm^3
# Si number density = 23.762409 Si / 1000 Ang^3
#
#
#
# Elastic Constant Matrix: (Units=GPa)
#
#
# Indices 1 2 3 4 5 6 
#
# 1 136.0509 15.8583 54.8256 -14.9395 17.8302 -19.4427
# 2 15.8583 100.4819 40.9034 -8.6008 3.3033 -8.7314
# 3 54.8256 40.9034 133.5301 -22.4668 11.3083 -12.2736
# 4 -14.9395 -8.6008 -22.4668 41.2848 -8.2846 13.6403
# 5 17.8302 3.3033 11.3083 -8.2846 44.3117 -11.6093
# 6 -19.4427 -8.7314 -12.2736 13.6403 -11.6093 30.3567
#
#
#
# Elastic Compliance Matrix: (Units=1/GPa)
#
#
# Indices 1 2 3 4 5 6 
#
# 1 0.009549 0.000328 -0.003502 -0.000127 -0.001918 0.004118
# 2 0.000328 0.011504 -0.003497 -0.000054 0.000501 0.002321
# 3 -0.003502 -0.003497 0.010628 0.003994 -0.000546 -0.000955
# 4 -0.000127 -0.000054 0.003994 0.030491 0.001717 -0.011526
# 5 -0.001918 0.000501 -0.000546 0.001717 0.025804 0.007791
# 6 0.004118 0.002321 -0.000955 -0.011526 0.007791 0.044020
#
#
# Mechanical properties :
#
#
# Convention : Reuss Voigt Hill
#
# Bulk Modulus (GPa) = 54.52237 65.91526 60.21881
# Shear Modulus (GPa) = 33.01416 40.42235 36.71825
#
# Velocity S-wave (km/s) = 3.73143 4.12892 3.93520
# Velocity P-wave (km/s) = 6.44666 7.10846 6.78563
#
# Compressibility (1/GPa) = 0.01834110
#
# Stress axis : x y z
#
# Youngs Moduli (GPa) = 104.72373 86.92343 94.08734
#
# Poissons Ratio (x) = -0.02855 0.32947
# Poissons Ratio (y) = -0.03439 0.32903
# Poissons Ratio (z) = 0.36671 0.30397
#
# Static dielectric constant tensor:
#      x y z
#    x 1.557400 -0.259140 0.397200 
#    y -0.259140 1.731560 0.321270 
#    z 0.397200 0.321270 1.469040 
# 
# From -- ./inp_files/500937.got.cif
#   From: 2010.05.17/outbox.cif.g08.bks.cpg/sg2_251_cif.got.tgz:500937.got - 2010.06.03 11:33:40.
