data_PCOD9058117
_publ_section_title
;
Structure prediction by ZEFSAII (Michael W. Deem and Ramdas Pophale) SiO2 
 PCOD9058117
Probable space group: P -1
;
_chemical_formula_sum "Si O2"
_cell_formula_units_Z 16
_cell_length_a 14.046139
_cell_length_b 11.948595
_cell_length_c 14.818820
_cell_angle_alpha 42.585262
_cell_angle_beta 66.630853
_cell_angle_gamma 33.034991
_cell_volume 735.366808
_symmetry_space_group_name_H-M "P -1"
_symmetry_group_IT_number 2
_symmetry_cell_setting 'triclinic'
loop_
_space_group_symop_operation_xyz
x,y,z
-x,-y,-z
loop_
_atom_site_type_symbol
_atom_site_label
_atom_site_fract_x
_atom_site_fract_y
_atom_site_fract_z
Si Si1 0.019993 0.978922 0.898616
Si Si2 0.519854 0.230228 0.100619
Si Si3 0.114407 0.165399 0.667965
Si Si4 0.693738 0.303525 0.690279
Si Si5 0.553872 0.793476 0.334102
Si Si6 0.116274 0.234575 0.192749
Si Si7 0.353029 0.618938 0.758620
Si Si8 0.282199 0.400474 0.808639
O O1 0.967955 0.238155 0.732172
O O2 0.269124 0.596346 0.006087
O O3 0.871862 0.065358 0.843990
O O4 0.000000 0.000000 0.000000
O O5 0.674509 0.101989 0.189861
O O6 0.576901 0.956943 0.240215
O O7 0.523213 0.310351 0.953104
O O8 0.000000 0.500000 0.500000
O O9 0.192934 0.967829 0.663601
O O10 0.661516 0.528772 0.526036
O O11 0.477924 0.536010 0.681007
O O12 0.762922 0.085326 0.713354
O O13 0.660014 0.612310 0.303857
O O14 0.300969 0.091666 0.250451
O O15 0.925923 0.428062 0.212360
O O16 0.000000 0.500000 0.000000
O O17 0.239535 0.614288 0.764500
O O18 0.500000 0.000000 0.000000
#
# Coordination Sequence:
#
# PCOD9058117 Si02
#       8
#     2   2   2   2   2   2   2   2
#     4  11  23  44  71  96 128 182 233 279 343 416
#     4  11  23  44  69  95 135 180 231 280 342 418
#     4  11  24  44  67 101 135 175 230 290 351 400
#     4  12  25  43  68 104 139 171 232 296 345 405
#     4  12  26  45  66 107 145 176 229 291 347 405
#     4  12  23  43  69 100 139 188 235 272 342 422
#     4  11  22  44  71  95 136 186 229 281 342 414
#     4  12  23  44  72 101 140 186 230 282 338 420
#
# _framework density 21.757850000000001
#
# number of rings (size 3 to 8) (size 9 to 14) (size 15 to 20)
#    0.000    0.500    3.750    6.375    0.000    1.500 
#    9.000    2.500    0.000    0.000    0.000    0.000 
#    0.000    0.000    0.000    0.000    0.000    0.000 
#
# Total GULP energy -89570.722298 kJ/mol
# GULP energy per Si atom -5598.170144 kJ/mol
# Density = 2.170833 g / cm^3
# Si number density = 21.757850 Si / 1000 Ang^3
#
#
#
# Elastic Constant Matrix: (Units=GPa)
#
#
# Indices 1 2 3 4 5 6 
#
# 1 87.5505 17.0663 -4.7012 -5.6946 -5.3606 0.2031
# 2 17.0663 99.1457 29.3182 18.2244 -9.9909 -11.5685
# 3 -4.7012 29.3182 90.6809 7.7226 -24.3124 6.9767
# 4 -5.6946 18.2244 7.7226 29.4303 3.9324 -8.7431
# 5 -5.3606 -9.9909 -24.3124 3.9324 45.6471 -7.3866
# 6 0.2031 -11.5685 6.9767 -8.7431 -7.3866 34.7405
#
#
#
# Elastic Compliance Matrix: (Units=1/GPa)
#
#
# Indices 1 2 3 4 5 6 
#
# 1 0.012472 -0.003248 0.001760 0.003698 0.001325 -0.000296
# 2 -0.003248 0.013743 -0.003801 -0.007221 0.001861 0.003937
# 3 0.001760 -0.003801 0.014747 -0.003159 0.006926 -0.003560
# 4 0.003698 -0.007221 -0.003159 0.043051 -0.005255 0.007926
# 5 0.001325 0.001861 0.006926 -0.005255 0.027208 0.003684
# 6 -0.000296 0.003937 -0.003560 0.007926 0.003684 0.033590
#
#
# Mechanical properties :
#
#
# Convention : Reuss Voigt Hill
#
# Bulk Modulus (GPa) = 32.91131 40.08262 36.49696
# Shear Modulus (GPa) = 30.20824 37.67651 33.94237
#
# Velocity S-wave (km/s) = 3.73014 4.16580 3.95398
# Velocity P-wave (km/s) = 5.80612 6.44986 6.13643
#
# Compressibility (1/GPa) = 0.03038469
#
# Stress axis : x y z
#
# Youngs Moduli (GPa) = 80.18025 72.76233 67.80859
#
# Poissons Ratio (x) = 0.23632 -0.11932
# Poissons Ratio (y) = 0.26042 0.25772
# Poissons Ratio (z) = -0.14109 0.27655
#
# Static dielectric constant tensor:
#      x y z
#    x 1.821850 0.010420 0.009650 
#    y 0.010420 1.775010 -0.001840 
#    z 0.009650 -0.001840 1.815240 
# 
# From -- ./inp_files/206196.got.cif
#   From: 2010.05.17/outbox.cif.g08.bks.cpg/sg2_104_cif.got.tgz:206196.got - 2010.06.03 11:33:40.
