data_PCOD9058279
_publ_section_title
;
Structure prediction by ZEFSAII (Michael W. Deem and Ramdas Pophale) SiO2 
 PCOD9058279
Probable space group: P -1
;
_chemical_formula_sum "Si O2"
_cell_formula_units_Z 16
_cell_length_a 9.220705
_cell_length_b 11.366698
_cell_length_c 11.693550
_cell_angle_alpha 52.905419
_cell_angle_beta 126.659071
_cell_angle_gamma 89.929089
_cell_volume 647.207111
_symmetry_space_group_name_H-M "P -1"
_symmetry_group_IT_number 2
_symmetry_cell_setting 'triclinic'
loop_
_space_group_symop_operation_xyz
x,y,z
-x,-y,-z
loop_
_atom_site_type_symbol
_atom_site_label
_atom_site_fract_x
_atom_site_fract_y
_atom_site_fract_z
Si Si1 0.414999 0.231868 0.701711
Si Si2 0.695675 0.693407 0.895292
Si Si3 0.556038 0.849909 0.987856
Si Si4 0.016265 0.690261 0.662411
Si Si5 0.069663 0.128637 0.091629
Si Si6 0.808513 0.183536 0.160661
Si Si7 0.718264 0.269918 0.666595
Si Si8 0.605110 0.407783 0.282664
O O1 0.356644 0.269040 0.786749
O O2 0.525670 0.315883 0.637859
O O3 0.206570 0.273425 0.509826
O O4 0.580733 0.014350 0.909701
O O5 0.778960 0.812006 0.821266
O O6 0.488129 0.710397 0.729599
O O7 0.651907 0.747726 0.975727
O O8 0.885378 0.483973 0.107585
O O9 0.297835 0.927824 0.814969
O O10 0.018169 0.835347 0.656422
O O11 0.188301 0.645518 0.667240
O O12 0.908022 0.152460 0.101123
O O13 0.198937 0.927938 0.224291
O O14 0.914686 0.252947 0.841014
O O15 0.595117 0.387819 0.955457
O O16 0.655721 0.381281 0.456096
#
# Coordination Sequence:
#
# PCOD9058279 Si02
#       8
#     2   2   2   2   2   2   2   2
#     4  11  26  40  66  97 128 164 211 263 308 375
#     4  11  23  45  66  91 128 170 211 257 312 375
#     4  11  22  45  66  88 130 167 212 259 308 368
#     4  11  25  42  66  97 125 164 213 263 312 370
#     4  11  26  43  66  90 128 175 204 257 320 372
#     4  11  23  45  66  91 128 170 211 257 312 375
#     4  11  26  44  60  97 134 160 211 263 312 373
#     4  11  25  42  66  95 131 160 209 269 310 370
#
# _framework density 24.721606000000001
#
# number of rings (size 3 to 8) (size 9 to 14) (size 15 to 20)
#    0.000    1.000    5.000    0.750    7.000    5.000 
#    0.000    0.000    0.000    0.000    0.000    0.000 
#    0.000    0.000    0.000    0.000    0.000    0.000 
#
# Total GULP energy -89581.130752 kJ/mol
# GULP energy per Si atom -5598.820672 kJ/mol
# Density = 2.466534 g / cm^3
# Si number density = 24.721606 Si / 1000 Ang^3
#
#
#
# Elastic Constant Matrix: (Units=GPa)
#
#
# Indices 1 2 3 4 5 6 
#
# 1 89.6364 8.3700 3.1328 1.2524 -0.2020 9.7821
# 2 8.3700 77.6552 -4.3820 11.1853 1.9628 3.7281
# 3 3.1328 -4.3820 78.7017 25.5746 -4.5833 -1.4754
# 4 1.2524 11.1853 25.5746 31.0464 4.2307 -7.3003
# 5 -0.2020 1.9628 -4.5833 4.2307 33.3170 9.1747
# 6 9.7821 3.7281 -1.4754 -7.3003 9.1747 41.0645
#
#
#
# Elastic Compliance Matrix: (Units=1/GPa)
#
#
# Indices 1 2 3 4 5 6 
#
# 1 0.011607 -0.001046 -0.000289 -0.000705 0.001017 -0.003033
# 2 -0.001046 0.014678 0.003976 -0.009459 0.001704 -0.003003
# 3 -0.000289 0.003976 0.019502 -0.019353 0.006115 -0.004398
# 4 -0.000705 -0.009459 -0.019353 0.056468 -0.012931 0.013259
# 5 0.001017 0.001704 0.006115 -0.012931 0.035255 -0.010353
# 6 -0.003033 -0.003003 -0.004398 0.013259 -0.010353 0.029859
#
#
# Mechanical properties :
#
#
# Convention : Reuss Voigt Hill
#
# Bulk Modulus (GPa) = 19.58131 28.91499 24.24815
# Shear Modulus (GPa) = 27.91586 37.01038 32.46312
#
# Velocity S-wave (km/s) = 3.36402 3.87342 3.62767
# Velocity P-wave (km/s) = 4.79862 5.63259 5.23225
#
# Compressibility (1/GPa) = 0.05106912
#
# Stress axis : x y z
#
# Youngs Moduli (GPa) = 86.15432 68.12862 51.27798
#
# Poissons Ratio (x) = 0.07125 0.01480
# Poissons Ratio (y) = 0.09010 -0.20387
# Poissons Ratio (z) = 0.02487 -0.27086
#
# Static dielectric constant tensor:
#      x y z
#    x 1.922750 0.030110 0.000320 
#    y 0.030110 1.998950 -0.034030 
#    z 0.000320 -0.034030 1.970010 
# 
# From -- ./inp_files/186834.got.cif
#   From: 2010.05.17/outbox.cif.g08.bks.cpg/sg2_94_cif.got.tgz:186834.got - 2010.06.03 11:33:40.
