data_PCOD9058240
_publ_section_title
;
Structure prediction by ZEFSAII (Michael W. Deem and Ramdas Pophale) SiO2 
 PCOD9058240
Probable space group: P -1
;
_chemical_formula_sum "Si O2"
_cell_formula_units_Z 15
_cell_length_a 9.256660
_cell_length_b 9.849023
_cell_length_c 12.102328
_cell_angle_alpha 75.172585
_cell_angle_beta 77.746622
_cell_angle_gamma 39.660054
_cell_volume 680.541095
_symmetry_space_group_name_H-M "P -1"
_symmetry_group_IT_number 2
_symmetry_cell_setting 'triclinic'
loop_
_space_group_symop_operation_xyz
x,y,z
-x,-y,-z
loop_
_atom_site_type_symbol
_atom_site_label
_atom_site_fract_x
_atom_site_fract_y
_atom_site_fract_z
Si Si1 0.894663 0.157470 0.881320
Si Si2 0.866901 0.876925 0.560598
Si Si3 0.419687 0.461288 0.808540
Si Si4 0.000000 0.500000 0.500000
Si Si5 0.953415 0.646462 0.233869
Si Si6 0.850109 0.118004 0.328283
Si Si7 0.457662 0.915975 0.237109
Si Si8 0.042671 0.349059 0.113518
O O1 0.627238 0.320878 0.886881
O O2 0.937556 0.293164 0.847752
O O3 0.009104 0.025658 0.773833
O O4 0.000000 0.000000 0.000000
O O5 0.992775 0.648815 0.546006
O O6 0.012951 0.864945 0.625455
O O7 0.810499 0.016037 0.436605
O O8 0.644417 0.997767 0.641658
O O9 0.380651 0.638912 0.720262
O O10 0.480500 0.291067 0.750889
O O11 0.174749 0.595245 0.868086
O O12 0.987059 0.606530 0.366703
O O13 0.686077 0.840100 0.208942
O O14 0.046269 0.439143 0.205029
O O15 0.274798 0.095494 0.137265
O O16 0.000000 0.500000 0.000000
#
# Coordination Sequence:
#
# PCOD9058240 Si02
#       8
#     2   2   2   1   2   2   2   2
#     4  12  28  47  69 103 150 183 238 289 354 425
#     4  11  22  44  76 101 144 179 236 299 342 431
#     4  11  24  45  73  99 138 189 236 285 347 427
#     4  12  22  48  68 108 146 176 244 288 360 412
#     4  11  27  43  71 108 141 187 229 301 350 420
#     4  11  24  47  69 107 138 188 238 283 362 415
#     4  11  23  46  72 103 138 186 237 289 352 415
#     4  11  25  45  74 101 136 184 245 287 350 420
#
# _framework density 22.041284000000001
#
# number of rings (size 3 to 8) (size 9 to 14) (size 15 to 20)
#    0.000    0.800    5.333    0.800    5.600    4.800 
#    0.000    0.000    0.000    0.000    0.000    0.000 
#    0.000    0.000    0.000    0.000    0.000    0.000 
#
# Total GULP energy -83620.093493 kJ/mol
# GULP energy per Si atom -5574.672900 kJ/mol
# Density = 2.199112 g / cm^3
# Si number density = 22.041284 Si / 1000 Ang^3
#
#
#
# Elastic Constant Matrix: (Units=GPa)
#
#
# Indices 1 2 3 4 5 6 
#
# 1 77.2482 12.0030 5.6776 -2.1605 -10.0957 18.3324
# 2 12.0030 73.5172 13.3356 -18.0431 -3.3219 10.6205
# 3 5.6776 13.3356 104.5618 -33.7599 -4.5309 -2.0235
# 4 -2.1605 -18.0431 -33.7599 38.6737 10.7438 -1.6075
# 5 -10.0957 -3.3219 -4.5309 10.7438 22.8660 -2.6509
# 6 18.3324 10.6205 -2.0235 -1.6075 -2.6509 22.5679
#
#
#
# Elastic Compliance Matrix: (Units=1/GPa)
#
#
# Indices 1 2 3 4 5 6 
#
# 1 0.017218 -0.001200 -0.001977 -0.003911 0.007365 -0.013013
# 2 -0.001200 0.016646 0.000480 0.008633 -0.002830 -0.006533
# 3 -0.001977 0.000480 0.013833 0.013434 -0.004014 0.003106
# 4 -0.003911 0.008633 0.013434 0.046922 -0.019701 0.001347
# 5 0.007365 -0.002830 -0.004014 -0.019701 0.055041 0.000051
# 6 -0.013013 -0.006533 0.003106 0.001347 0.000051 0.058337
#
#
# Mechanical properties :
#
#
# Convention : Reuss Voigt Hill
#
# Bulk Modulus (GPa) = 23.63819 35.26216 29.45018
# Shear Modulus (GPa) = 21.97880 31.77560 26.87720
#
# Velocity S-wave (km/s) = 3.16122 3.80101 3.49578
# Velocity P-wave (km/s) = 4.90634 5.94109 5.44834
#
# Compressibility (1/GPa) = 0.04230442
#
# Stress axis : x y z
#
# Youngs Moduli (GPa) = 58.07723 60.07550 72.28955
#
# Poissons Ratio (x) = 0.07207 0.14294
# Poissons Ratio (y) = 0.06967 -0.03473
# Poissons Ratio (z) = 0.11484 -0.02886
#
# Static dielectric constant tensor:
#      x y z
#    x 1.810130 -0.016410 0.010900 
#    y -0.016410 1.841000 -0.003960 
#    z 0.010900 -0.003960 1.856270 
# 
# From -- ./inp_files/381940.got.cif
#   From: 2010.05.17/outbox.cif.g08.bks.cpg/sg2_191_cif.got.tgz:381940.got - 2010.06.03 11:33:40.
