data_PCOD9058884
_publ_section_title
;
Structure prediction by ZEFSAII (Michael W. Deem and Ramdas Pophale) SiO2 
 PCOD9058884
Probable space group: P -1
;
_chemical_formula_sum "Si O2"
_cell_formula_units_Z 16
_cell_length_a 11.875434
_cell_length_b 9.103315
_cell_length_c 9.107295
_cell_angle_alpha 50.586260
_cell_angle_beta 76.820969
_cell_angle_gamma 92.986588
_cell_volume 714.801672
_symmetry_space_group_name_H-M "P -1"
_symmetry_group_IT_number 2
_symmetry_cell_setting 'triclinic'
loop_
_space_group_symop_operation_xyz
x,y,z
-x,-y,-z
loop_
_atom_site_type_symbol
_atom_site_label
_atom_site_fract_x
_atom_site_fract_y
_atom_site_fract_z
Si Si1 0.322734 0.312543 0.392858
Si Si2 0.204044 0.598727 0.782424
Si Si3 0.938024 0.840608 0.902908
Si Si4 0.676882 0.283501 0.011068
Si Si5 0.203754 0.986588 0.394402
Si Si6 0.814813 0.962764 0.148368
Si Si7 0.566228 0.897307 0.926549
Si Si8 0.565985 0.492472 0.331267
O O1 0.302779 0.523309 0.219744
O O2 0.464842 0.349935 0.350748
O O3 0.266969 0.155258 0.384224
O O4 0.261165 0.221853 0.619839
O O5 0.103630 0.394166 0.952492
O O6 0.158251 0.778375 0.619915
O O7 0.311768 0.570884 0.663516
O O8 0.267332 0.652208 0.887411
O O9 0.866578 0.895212 0.028935
O O10 0.075293 0.925918 0.851414
O O11 0.896747 0.944137 0.709462
O O12 0.534712 0.184114 0.115309
O O13 0.738186 0.117646 0.040604
O O14 0.311409 0.975328 0.258823
O O15 0.594065 0.707363 0.113471
O O16 0.500000 0.000000 0.000000
O O17 0.500000 0.500000 0.500000
#
# Coordination Sequence:
#
# PCOD9058884 Si02
#       8
#     2   2   2   2   2   2   2   2
#     4  11  24  43  66 101 133 172 222 276 328 394
#     4  12  24  42  68 100 132 177 219 274 334 389
#     4  11  26  48  67  96 137 171 227 278 326 400
#     4  11  24  43  66 101 133 172 222 276 328 394
#     4  12  24  42  68 100 132 177 219 274 334 389
#     4  11  26  46  71  94 131 183 217 276 338 392
#     4  11  23  38  64  99 140 175 213 270 330 401
#     4  11  23  38  64  99 140 175 213 270 330 401
#
# _framework density 22.38383
#
# number of rings (size 3 to 8) (size 9 to 14) (size 15 to 20)
#    0.000    0.750    3.750    3.000    3.500    8.000 
#    0.000    2.500    0.000    0.000    0.000    0.000 
#    0.000    0.000    0.000    0.000    0.000    0.000 
#
# Total GULP energy -89643.327877 kJ/mol
# GULP energy per Si atom -5602.707992 kJ/mol
# Density = 2.233288 g / cm^3
# Si number density = 22.383830 Si / 1000 Ang^3
#
#
#
# Elastic Constant Matrix: (Units=GPa)
#
#
# Indices 1 2 3 4 5 6 
#
# 1 89.1087 19.3264 37.0564 -26.7880 11.5472 14.5795
# 2 19.3264 68.0469 34.9519 4.8656 16.1447 7.1542
# 3 37.0564 34.9519 118.9499 -35.4305 9.6293 0.2168
# 4 -26.7880 4.8656 -35.4305 35.4551 -12.7647 -3.4748
# 5 11.5472 16.1447 9.6293 -12.7647 26.6677 3.3653
# 6 14.5795 7.1542 0.2168 -3.4748 3.3653 43.1453
#
#
#
# Elastic Compliance Matrix: (Units=1/GPa)
#
#
# Indices 1 2 3 4 5 6 
#
# 1 0.017423 -0.008109 0.001792 0.017760 0.005668 -0.003564
# 2 -0.008109 0.037119 -0.018034 -0.041011 -0.031553 -0.004166
# 3 0.001792 -0.018034 0.021120 0.031441 0.017127 0.003475
# 4 0.017760 -0.041011 0.031441 0.097850 0.052059 0.004461
# 5 0.005668 -0.031553 0.017127 0.052059 0.072659 0.001756
# 6 -0.003564 -0.004166 0.003475 0.004461 0.001756 0.025277
#
#
# Mechanical properties :
#
#
# Convention : Reuss Voigt Hill
#
# Bulk Modulus (GPa) = 37.09219 50.97501 44.03360
# Shear Modulus (GPa) = 15.19129 33.37166 24.28148
#
# Velocity S-wave (km/s) = 2.60796 3.86538 3.29717
# Velocity P-wave (km/s) = 5.06711 6.53790 5.84892
#
# Compressibility (1/GPa) = 0.02695985
#
# Stress axis : x y z
#
# Youngs Moduli (GPa) = 57.39520 26.94064 47.34893
#
# Poissons Ratio (x) = 0.21847 -0.08487
# Poissons Ratio (y) = 0.46543 0.85390
# Poissons Ratio (z) = -0.10288 0.48585
#
# Static dielectric constant tensor:
#      x y z
#    x 1.798420 0.001700 -0.003910 
#    y 0.001700 1.850030 0.031630 
#    z -0.003910 0.031630 1.800240 
# 
# From -- ./inp_files/187242.got.cif
#   From: 2010.05.17/outbox.cif.g08.bks.cpg/sg2_94_cif.got.tgz:187242.got - 2010.06.03 11:33:40.
