data_PCOD9058479
_publ_section_title
;
Structure prediction by ZEFSAII (Michael W. Deem and Ramdas Pophale) SiO2 
 PCOD9058479
Probable space group: P -1
;
_chemical_formula_sum "Si O2"
_cell_formula_units_Z 16
_cell_length_a 18.281167
_cell_length_b 7.473672
_cell_length_c 14.711687
_cell_angle_alpha 96.125792
_cell_angle_beta 20.128459
_cell_angle_gamma 92.051733
_cell_volume 675.462171
_symmetry_space_group_name_H-M "P -1"
_symmetry_group_IT_number 2
_symmetry_cell_setting 'triclinic'
loop_
_space_group_symop_operation_xyz
x,y,z
-x,-y,-z
loop_
_atom_site_type_symbol
_atom_site_label
_atom_site_fract_x
_atom_site_fract_y
_atom_site_fract_z
Si Si1 0.534912 0.085278 0.713113
Si Si2 0.143852 0.288510 0.070091
Si Si3 0.007798 0.960467 0.095169
Si Si4 0.678803 0.400696 0.214781
Si Si5 0.572927 0.670960 0.876449
Si Si6 0.971355 0.846398 0.450674
Si Si7 0.422086 0.719257 0.867973
Si Si8 0.206546 0.827965 0.424539
O O1 0.620772 0.201027 0.697635
O O2 0.756476 0.963718 0.410978
O O3 0.381687 0.210785 0.828772
O O4 0.406291 0.938084 0.895475
O O5 0.968009 0.299439 0.358212
O O6 0.164497 0.465323 0.997292
O O7 0.076862 0.132400 0.075713
O O8 0.174430 0.778972 0.921415
O O9 0.000000 0.000000 0.000000
O O10 0.500000 0.500000 0.500000
O O11 0.556532 0.351069 0.263423
O O12 0.774519 0.741156 0.687962
O O13 0.500000 0.500000 0.000000
O O14 0.592739 0.646773 0.743503
O O15 0.356533 0.817137 0.160217
O O16 0.187414 0.696085 0.176470
O O17 0.922525 0.963206 0.420088
O O18 0.000000 0.000000 0.500000
#
# Coordination Sequence:
#
# PCOD9058479 Si02
#       8
#     2   2   2   2   2   2   2   2
#     4  11  22  45  76 103 145 195 245 307 375 447
#     4  11  26  47  77 110 150 192 252 312 380 455
#     4  11  26  49  76 107 144 194 251 315 381 449
#     4  12  29  50  76 114 151 200 252 315 383 448
#     4  12  29  42  68 110 155 195 248 310 376 453
#     4  12  23  44  73 103 143 199 254 304 377 450
#     4  12  25  46  74 102 151 199 246 312 374 450
#     4  11  23  43  70 108 138 194 249 296 373 453
#
# _framework density 23.687484000000001
#
# number of rings (size 3 to 8) (size 9 to 14) (size 15 to 20)
#    0.000    0.500    5.000    2.625    5.250    2.000 
#    2.250    0.000    0.000    0.000    0.000    0.000 
#    0.000    0.000    0.000    0.000    0.000    0.000 
#
# Total GULP energy -89435.820335 kJ/mol
# GULP energy per Si atom -5589.738771 kJ/mol
# Density = 2.363357 g / cm^3
# Si number density = 23.687484 Si / 1000 Ang^3
#
#
#
# Elastic Constant Matrix: (Units=GPa)
#
#
# Indices 1 2 3 4 5 6 
#
# 1 147.0384 29.9185 38.7157 2.0204 -5.6004 8.8261
# 2 29.9185 100.1512 16.0826 -28.3063 -8.4148 -0.8179
# 3 38.7157 16.0826 115.6975 -9.8869 -3.2744 17.6381
# 4 2.0204 -28.3063 -9.8869 36.1408 0.6394 4.2100
# 5 -5.6004 -8.4148 -3.2744 0.6394 39.9866 -0.3186
# 6 8.8261 -0.8179 17.6381 4.2100 -0.3186 28.9032
#
#
#
# Elastic Compliance Matrix: (Units=1/GPa)
#
#
# Indices 1 2 3 4 5 6 
#
# 1 0.008162 -0.002974 -0.002518 -0.003418 0.000361 -0.000538
# 2 -0.002974 0.014270 0.000111 0.011376 0.002411 -0.000386
# 3 -0.002518 0.000111 0.010790 0.003914 0.000441 -0.006378
# 4 -0.003418 0.011376 0.003914 0.038585 0.001566 -0.006626
# 5 0.000361 0.002411 0.000441 0.001566 0.025575 -0.000257
# 6 -0.000538 -0.000386 -0.006378 -0.006626 -0.000257 0.039606
#
#
# Mechanical properties :
#
#
# Convention : Reuss Voigt Hill
#
# Bulk Modulus (GPa) = 44.52406 59.14674 51.83540
# Shear Modulus (GPa) = 32.20888 39.55080 35.87984
#
# Velocity S-wave (km/s) = 3.69147 4.09062 3.89616
# Velocity P-wave (km/s) = 6.08330 6.88002 6.49389
#
# Compressibility (1/GPa) = 0.02245976
#
# Stress axis : x y z
#
# Youngs Moduli (GPa) = 122.51835 70.07660 92.68232
#
# Poissons Ratio (x) = 0.20841 0.23334
# Poissons Ratio (y) = 0.36438 -0.01026
# Poissons Ratio (z) = 0.30846 -0.00776
#
# Static dielectric constant tensor:
#      x y z
#    x 2.067820 0.120690 0.154260 
#    y 0.120690 2.097630 0.203810 
#    z 0.154260 0.203810 2.157510 
# 
# From -- ./inp_files/537382.got.cif
#   From: 2010.05.17/outbox.cif.g08.bks.cpg/sg2_269_cif.got.tgz:537382.got - 2010.06.03 11:33:40.
