data_PCOD9058626
_publ_section_title
;
Structure prediction by ZEFSAII (Michael W. Deem and Ramdas Pophale) SiO2 
 PCOD9058626
Probable space group: P -1
;
_chemical_formula_sum "Si O2"
_cell_formula_units_Z 14
_cell_length_a 7.412857
_cell_length_b 11.975253
_cell_length_c 9.687402
_cell_angle_alpha 140.764705
_cell_angle_beta 92.523664
_cell_angle_gamma 87.331355
_cell_volume 543.296471
_symmetry_space_group_name_H-M "P -1"
_symmetry_group_IT_number 2
_symmetry_cell_setting 'triclinic'
loop_
_space_group_symop_operation_xyz
x,y,z
-x,-y,-z
loop_
_atom_site_type_symbol
_atom_site_label
_atom_site_fract_x
_atom_site_fract_y
_atom_site_fract_z
Si Si1 0.365518 0.280135 0.787208
Si Si2 0.269162 0.750631 0.662152
Si Si3 0.143350 0.244721 0.297958
Si Si4 0.842221 0.475872 0.200864
Si Si5 0.261943 0.407677 0.191552
Si Si6 0.683931 0.105788 0.922744
Si Si7 0.360980 0.931858 0.574942
O O1 0.246918 0.413781 0.820909
O O2 0.551822 0.225721 0.664363
O O3 0.277129 0.087700 0.627867
O O4 0.378026 0.358639 0.016013
O O5 0.345983 0.568241 0.431184
O O6 0.243960 0.866232 0.634250
O O7 0.071003 0.725695 0.693780
O O8 0.382505 0.828796 0.865195
O O9 0.205556 0.403060 0.550753
O O10 0.225582 0.258806 0.161856
O O11 0.183155 0.057988 0.191646
O O12 0.060518 0.466701 0.190873
O O13 0.772682 0.276591 0.020510
O O14 0.531604 0.019727 0.741754
#
# Coordination Sequence:
#
# PCOD9058626 Si02
#       7
#     2   2   2   2   2   2   2
#     4  11  26  49  65 100 152 188 231 285 345 434
#     4  11  23  43  74 105 141 179 237 294 349 408
#     4  11  22  46  75 108 138 177 241 300 341 407
#     4  11  23  45  73 107 139 178 244 288 348 410
#     4  11  23  45  75 107 139 181 235 299 349 406
#     4  12  23  43  75 106 140 184 233 295 346 411
#     4  11  27  45  68 102 146 194 230 275 361 423
#
# _framework density 25.768621
#
# number of rings (size 3 to 8) (size 9 to 14) (size 15 to 20)
#    0.000    0.857    4.286    3.000    2.000    4.571 
#    0.000    4.286    0.000    0.000    0.000    0.000 
#    0.000    0.000    0.000    0.000    0.000    0.000 
#
# Total GULP energy -78457.532429 kJ/mol
# GULP energy per Si atom -5604.109459 kJ/mol
# Density = 2.570997 g / cm^3
# Si number density = 25.768621 Si / 1000 Ang^3
#
#
#
# Elastic Constant Matrix: (Units=GPa)
#
#
# Indices 1 2 3 4 5 6 
#
# 1 72.8945 29.3525 46.2560 -3.3522 -2.7941 -9.6048
# 2 29.3525 144.1832 44.1113 -6.4778 -12.5104 6.9701
# 3 46.2560 44.1113 169.8041 -1.3966 -19.5155 -1.4231
# 4 -3.3522 -6.4778 -1.3966 44.6413 2.9583 -2.5682
# 5 -2.7941 -12.5104 -19.5155 2.9583 27.0524 6.5477
# 6 -9.6048 6.9701 -1.4231 -2.5682 6.5477 30.3538
#
#
#
# Elastic Compliance Matrix: (Units=1/GPa)
#
#
# Indices 1 2 3 4 5 6 
#
# 1 0.018944 -0.003108 -0.004852 0.001595 -0.005019 0.007698
# 2 -0.003108 0.008377 -0.000928 0.000493 0.003728 -0.003713
# 3 -0.004852 -0.000928 0.008059 -0.000737 0.005495 -0.002192
# 4 0.001595 0.000493 -0.000737 0.022968 -0.003384 0.003030
# 5 -0.005019 0.003728 0.005495 -0.003384 0.045478 -0.012283
# 6 0.007698 -0.003713 -0.002192 0.003030 -0.012283 0.039037
#
#
# Mechanical properties :
#
#
# Convention : Reuss Voigt Hill
#
# Bulk Modulus (GPa) = 56.80601 69.59127 63.19864
# Shear Modulus (GPa) = 30.02848 38.22030 34.12439
#
# Velocity S-wave (km/s) = 3.41737 3.85543 3.64299
# Velocity P-wave (km/s) = 6.13708 6.84718 6.50183
#
# Compressibility (1/GPa) = 0.01760377
#
# Stress axis : x y z
#
# Youngs Moduli (GPa) = 52.78589 119.36791 124.08262
#
# Poissons Ratio (x) = 0.37101 0.60210
# Poissons Ratio (y) = 0.16406 0.11517
# Poissons Ratio (z) = 0.25614 0.11079
#
# Static dielectric constant tensor:
#      x y z
#    x 1.971450 0.002220 0.003920 
#    y 0.002220 2.092360 0.021900 
#    z 0.003920 0.021900 2.046530 
# 
# From -- ./inp_files/191150.got.cif
#   From: 2010.05.17/outbox.cif.g08.bks.cpg/sg2_96_cif.got.tgz:191150.got - 2010.06.03 11:33:40.
