data_PCOD9058533
_publ_section_title
;
Structure prediction by ZEFSAII (Michael W. Deem and Ramdas Pophale) SiO2 
 PCOD9058533
Probable space group: P -1
;
_chemical_formula_sum "Si O2"
_cell_formula_units_Z 16
_cell_length_a 19.081230
_cell_length_b 8.883944
_cell_length_c 14.602131
_cell_angle_alpha 129.700431
_cell_angle_beta 21.180601
_cell_angle_gamma 127.994182
_cell_volume 686.331544
_symmetry_space_group_name_H-M "P -1"
_symmetry_group_IT_number 2
_symmetry_cell_setting 'triclinic'
loop_
_space_group_symop_operation_xyz
x,y,z
-x,-y,-z
loop_
_atom_site_type_symbol
_atom_site_label
_atom_site_fract_x
_atom_site_fract_y
_atom_site_fract_z
Si Si1 0.076889 0.552149 0.027846
Si Si2 0.138262 0.403916 0.221166
Si Si3 0.861599 0.042141 0.947008
Si Si4 0.220481 0.955355 0.741049
Si Si5 0.397382 0.283100 0.545391
Si Si6 0.328219 0.065178 0.359629
Si Si7 0.500775 0.693034 0.929788
Si Si8 0.172009 0.560197 0.546993
O O1 0.198002 0.764429 0.959397
O O2 0.917656 0.558162 0.302216
O O3 0.182203 0.359597 0.848196
O O4 0.000000 0.500000 0.000000
O O5 0.000000 0.500000 0.500000
O O6 0.003211 0.400175 0.293182
O O7 0.190985 0.185253 0.099828
O O8 0.334960 0.543120 0.029713
O O9 0.096460 0.058393 0.654570
O O10 0.793713 0.073879 0.145194
O O11 0.261410 0.764607 0.558321
O O12 0.386733 0.124016 0.577136
O O13 0.000000 0.000000 0.000000
O O14 0.500000 0.500000 0.500000
O O15 0.416266 0.174589 0.384018
O O16 0.398145 0.181391 0.228081
O O17 0.397725 0.846868 0.178990
O O18 0.658500 0.572595 0.744409
#
# Coordination Sequence:
#
# PCOD9058533 Si02
#       8
#     2   2   2   2   2   2   2   2
#     4  12  21  43  72 103 136 187 233 289 367 430
#     4  12  27  47  71 105 146 190 241 299 350 423
#     4  12  22  44  72 103 142 182 238 299 361 421
#     4  12  21  42  73 101 137 189 230 294 373 417
#     4  12  26  42  68 106 139 181 238 293 358 428
#     4  11  22  46  69  98 146 185 234 299 353 418
#     4  11  27  46  72 103 141 191 241 292 352 428
#     4  12  24  46  78 103 144 190 240 294 364 429
#
# _framework density 23.312348
#
# number of rings (size 3 to 8) (size 9 to 14) (size 15 to 20)
#    0.000    0.250    8.750    0.000    3.500    1.500 
#    2.250    4.375    0.000    0.000    0.000    0.000 
#    0.000    0.000    0.000    0.000    0.000    0.000 
#
# Total GULP energy -89416.124166 kJ/mol
# GULP energy per Si atom -5588.507760 kJ/mol
# Density = 2.325929 g / cm^3
# Si number density = 23.312348 Si / 1000 Ang^3
#
#
#
# Elastic Constant Matrix: (Units=GPa)
#
#
# Indices 1 2 3 4 5 6 
#
# 1 44.6641 35.5134 34.5846 6.6737 5.1201 4.0399
# 2 35.5134 195.7342 35.7129 1.9626 6.0678 6.1873
# 3 34.5846 35.7129 49.2998 5.6148 14.2514 6.3610
# 4 6.6737 1.9626 5.6148 54.1417 0.1358 1.3642
# 5 5.1201 6.0678 14.2514 0.1358 29.8532 2.6568
# 6 4.0399 6.1873 6.3610 1.3642 2.6568 33.0543
#
#
#
# Elastic Compliance Matrix: (Units=1/GPa)
#
#
# Indices 1 2 3 4 5 6 
#
# 1 0.053201 -0.003079 -0.037600 -0.002587 0.009404 0.000661
# 2 -0.003079 0.006097 -0.002391 0.000414 0.000460 -0.000359
# 3 -0.037600 -0.002391 0.054381 -0.000773 -0.018676 -0.003889
# 4 -0.002587 0.000414 -0.000773 0.018864 0.000683 -0.000446
# 5 0.009404 0.000460 -0.018676 0.000683 0.040788 -0.000948
# 6 0.000661 -0.000359 -0.003889 -0.000446 -0.000948 0.031083
#
#
# Mechanical properties :
#
#
# Convention : Reuss Voigt Hill
#
# Bulk Modulus (GPa) = 36.31016 55.70220 46.00618
# Shear Modulus (GPa) = 16.68159 35.66900 26.17529
#
# Velocity S-wave (km/s) = 2.67791 3.91583 3.35447
# Velocity P-wave (km/s) = 5.01707 6.66263 5.89753
#
# Compressibility (1/GPa) = 0.02754050
#
# Stress axis : x y z
#
# Youngs Moduli (GPa) = 18.79675 164.02422 18.38861
#
# Poissons Ratio (x) = 0.50498 0.69141
# Poissons Ratio (y) = 0.05787 0.04396
# Poissons Ratio (z) = 0.70676 0.39211
#
# Static dielectric constant tensor:
#      x y z
#    x 1.910430 -0.008740 -0.109810 
#    y -0.008740 1.858850 0.011790 
#    z -0.109810 0.011790 1.923380 
# 
# From -- ./inp_files/540557.got.cif
#   From: 2010.05.17/outbox.cif.g08.bks.cpg/sg2_271_cif.got.tgz:540557.got - 2010.06.03 11:33:40.
