data_PCOD9058830
_publ_section_title
;
Structure prediction by ZEFSAII (Michael W. Deem and Ramdas Pophale) SiO2 
 PCOD9058830
Probable space group: P -1
;
_chemical_formula_sum "Si O2"
_cell_formula_units_Z 12
_cell_length_a 8.478465
_cell_length_b 9.478179
_cell_length_c 12.797045
_cell_angle_alpha 145.395386
_cell_angle_beta 113.431071
_cell_angle_gamma 85.967336
_cell_volume 466.171740
_symmetry_space_group_name_H-M "P -1"
_symmetry_group_IT_number 2
_symmetry_cell_setting 'triclinic'
loop_
_space_group_symop_operation_xyz
x,y,z
-x,-y,-z
loop_
_atom_site_type_symbol
_atom_site_label
_atom_site_fract_x
_atom_site_fract_y
_atom_site_fract_z
Si Si1 0.005613 0.299348 0.036366
Si Si2 0.170359 0.917089 0.509840
Si Si3 0.460344 0.707865 0.867484
Si Si4 0.649333 0.510183 0.636087
Si Si5 0.020572 0.257459 0.423329
Si Si6 0.553686 0.161354 0.821014
O O1 0.783773 0.251596 0.935105
O O2 0.004225 0.032806 0.813795
O O3 0.126293 0.645654 0.257980
O O4 0.109715 0.317875 0.190442
O O5 0.120459 0.827350 0.565019
O O6 0.393022 0.187685 0.720653
O O7 0.000000 0.000000 0.500000
O O8 0.610313 0.635028 0.806269
O O9 0.247075 0.441774 0.628662
O O10 0.480704 0.762487 0.026904
O O11 0.500000 0.000000 0.000000
O O12 0.500000 0.500000 0.500000
O O13 0.559258 0.178765 0.426500
O O14 0.000000 0.500000 0.500000
#
# Coordination Sequence:
#
# PCOD9058830 Si02
#       6
#     2   2   2   2   2   2
#     4  11  25  45  70 104 143 189 239 293 354 427
#     4  11  27  50  74 104 142 190 241 295 356 425
#     4  12  22  39  63 100 142 183 227 288 349 422
#     4  11  23  37  61  97 142 184 228 286 355 419
#     4  12  26  44  73 108 145 189 234 292 364 423
#     4  11  23  42  67  98 136 183 236 292 350 415
#
# _framework density 25.741585000000001
#
# number of rings (size 3 to 8) (size 9 to 14) (size 15 to 20)
#    0.000    0.667    5.000    3.000    2.333    2.667 
#    0.000    0.833    0.000    0.000    0.000    0.000 
#    0.000    0.000    0.000    0.000    0.000    0.000 
#
# Total GULP energy -66800.782421 kJ/mol
# GULP energy per Si atom -5566.731868 kJ/mol
# Density = 2.568300 g / cm^3
# Si number density = 25.741585 Si / 1000 Ang^3
#
#
#
# Elastic Constant Matrix: (Units=GPa)
#
#
# Indices 1 2 3 4 5 6 
#
# 1 127.4194 20.5767 82.2370 -19.7130 4.4415 -22.9807
# 2 20.5767 39.0652 29.4863 8.2626 -8.3039 -22.3934
# 3 82.2370 29.4863 249.1791 -14.5456 11.1476 -22.5730
# 4 -19.7130 8.2626 -14.5456 31.1200 -21.6202 10.1090
# 5 4.4415 -8.3039 11.1476 -21.6202 94.1826 -10.5752
# 6 -22.9807 -22.3934 -22.5730 10.1090 -10.5752 28.5374
#
#
#
# Elastic Compliance Matrix: (Units=1/GPa)
#
#
# Indices 1 2 3 4 5 6 
#
# 1 0.011861 -0.004912 -0.002822 0.008054 0.001314 0.001099
# 2 -0.004912 0.097727 -0.005292 -0.056416 0.006745 0.091030
# 3 -0.002822 -0.005292 0.005461 0.002755 -0.000724 -0.003350
# 4 0.008054 -0.056416 0.002755 0.076853 0.005120 -0.060931
# 5 0.001314 0.006745 -0.000724 0.005120 0.013415 0.008936
# 6 0.001099 0.091030 -0.003350 -0.060931 0.008936 0.129603
#
#
# Mechanical properties :
#
#
# Convention : Reuss Voigt Hill
#
# Bulk Modulus (GPa) = 11.23643 75.58486 43.41065
# Shear Modulus (GPa) = 12.79959 49.65891 31.22925
#
# Velocity S-wave (km/s) = 2.23229 4.39695 3.48686
# Velocity P-wave (km/s) = 3.31945 7.42996 5.75426
#
# Compressibility (1/GPa) = 0.08899622
#
# Stress axis : x y z
#
# Youngs Moduli (GPa) = 84.30728 10.23260 183.12984
#
# Poissons Ratio (x) = 0.05026 0.51688
# Poissons Ratio (y) = 0.41410 0.96913
# Poissons Ratio (z) = 0.23796 0.05415
#
# Static dielectric constant tensor:
#      x y z
#    x 2.423300 -0.494920 0.190530 
#    y -0.494920 2.542890 -0.175250 
#    z 0.190530 -0.175250 2.053850 
# 
# From -- ./inp_files/499581.got.cif
#   From: 2010.05.17/outbox.cif.g08.bks.cpg/sg2_250_cif.got.tgz:499581.got - 2010.06.03 11:33:40.
