data_PCOD9058271
_publ_section_title
;
Structure prediction by ZEFSAII (Michael W. Deem and Ramdas Pophale) SiO2 
 PCOD9058271
Probable space group: P -1
;
_chemical_formula_sum "Si O2"
_cell_formula_units_Z 16
_cell_length_a 10.914907
_cell_length_b 10.761647
_cell_length_c 16.295711
_cell_angle_alpha 34.062126
_cell_angle_beta 142.824071
_cell_angle_gamma 129.827182
_cell_volume 646.737661
_symmetry_space_group_name_H-M "P -1"
_symmetry_group_IT_number 2
_symmetry_cell_setting 'triclinic'
loop_
_space_group_symop_operation_xyz
x,y,z
-x,-y,-z
loop_
_atom_site_type_symbol
_atom_site_label
_atom_site_fract_x
_atom_site_fract_y
_atom_site_fract_z
Si Si1 0.604057 0.225201 0.918354
Si Si2 0.250231 0.976750 0.061123
Si Si3 0.950804 0.746496 0.595481
Si Si4 0.003348 0.300580 0.174720
Si Si5 0.208907 0.853366 0.462168
Si Si6 0.671697 0.508140 0.155183
Si Si7 0.797729 0.123620 0.733581
Si Si8 0.808392 0.622322 0.429732
O O1 0.409257 0.394803 0.719350
O O2 0.691971 0.182704 0.897038
O O3 0.769168 0.242700 0.068252
O O4 0.500000 0.000000 0.000000
O O5 0.322549 0.901365 0.232452
O O6 0.307937 0.236867 0.943153
O O7 0.005033 0.972333 0.933324
O O8 0.928732 0.639489 0.730915
O O9 0.133621 0.605674 0.726190
O O10 0.781169 0.750418 0.432134
O O11 0.000000 0.000000 0.500000
O O12 0.147968 0.087113 0.344483
O O13 0.000000 0.500000 0.000000
O O14 0.350037 0.674805 0.684784
O O15 0.290720 0.912766 0.383748
O O16 0.985189 0.735103 0.409979
O O17 0.500000 0.500000 0.000000
O O18 0.866109 0.372849 0.623904
#
# Coordination Sequence:
#
# PCOD9058271 Si02
#       8
#     2   2   2   2   2   2   2   2
#     4  12  25  44  71 107 135 176 243 289 333 416
#     4  11  25  42  69 100 134 178 231 287 342 404
#     4  11  22  45  65  96 134 188 225 271 349 419
#     4  12  27  42  70 102 144 180 225 287 357 408
#     4  11  22  45  70  99 130 189 231 279 347 420
#     4  11  26  42  70  98 136 178 231 283 342 418
#     4  11  23  43  69  96 135 172 229 288 345 400
#     4  11  23  41  74  96 133 180 232 286 339 414
#
# _framework density 24.739550000000001
#
# number of rings (size 3 to 8) (size 9 to 14) (size 15 to 20)
#    0.000    0.750    7.500    0.375    8.750    0.500 
#    2.250    0.625    0.000    0.000    0.000    0.000 
#    0.000    0.000    0.000    0.000    0.000    0.000 
#
# Total GULP energy -89324.327769 kJ/mol
# GULP energy per Si atom -5582.770486 kJ/mol
# Density = 2.468324 g / cm^3
# Si number density = 24.739550 Si / 1000 Ang^3
#
#
#
# Elastic Constant Matrix: (Units=GPa)
#
#
# Indices 1 2 3 4 5 6 
#
# 1 77.4146 1.9256 35.5158 -0.5750 -40.1687 -23.8293
# 2 1.9256 55.8336 13.0584 4.6062 -0.4035 -18.2786
# 3 35.5158 13.0584 113.5213 11.6289 -26.3992 -12.6577
# 4 -0.5750 4.6062 11.6289 46.4426 0.3752 -8.7340
# 5 -40.1687 -0.4035 -26.3992 0.3752 45.2086 10.8205
# 6 -23.8293 -18.2786 -12.6577 -8.7340 10.8205 32.0339
#
#
#
# Elastic Compliance Matrix: (Units=1/GPa)
#
#
# Indices 1 2 3 4 5 6 
#
# 1 0.031473 0.005949 -0.003911 0.004237 0.021080 0.019296
# 2 0.005949 0.024003 -0.002943 0.001740 -0.000441 0.017582
# 3 -0.003911 -0.002943 0.011282 -0.003021 0.003634 -0.002182
# 4 0.004237 0.001740 -0.003021 0.023989 -0.000494 0.009659
# 5 0.021080 -0.000441 0.003634 -0.000494 0.042395 0.002410
# 6 0.019296 0.017582 -0.002182 0.009659 0.002410 0.056560
#
#
# Mechanical properties :
#
#
# Convention : Reuss Voigt Hill
#
# Bulk Modulus (GPa) = 15.39688 38.64102 27.01895
# Shear Modulus (GPa) = 23.45651 37.82166 30.63908
#
# Velocity S-wave (km/s) = 3.08253 3.91422 3.52300
# Velocity P-wave (km/s) = 4.34815 6.00676 5.24345
#
# Compressibility (1/GPa) = 0.06494824
#
# Stress axis : x y z
#
# Youngs Moduli (GPa) = 31.77347 41.66230 88.63377
#
# Poissons Ratio (x) = -0.24785 0.34667
# Poissons Ratio (y) = -0.18902 0.26081
# Poissons Ratio (z) = 0.12427 0.12259
#
# Static dielectric constant tensor:
#      x y z
#    x 2.042490 -0.058410 -0.039880 
#    y -0.058410 2.097720 0.099580 
#    z -0.039880 0.099580 2.163340 
# 
# From -- ./inp_files/539272.got.cif
#   From: 2010.05.17/outbox.cif.g08.bks.cpg/sg2_270_cif.got.tgz:539272.got - 2010.06.03 11:33:40.
