data_PCOD9058063
_publ_section_title
;
Structure prediction by ZEFSAII (Michael W. Deem and Ramdas Pophale) SiO2 
 PCOD9058063
Probable space group: P -1
;
_chemical_formula_sum "Si O2"
_cell_formula_units_Z 14
_cell_length_a 14.674708
_cell_length_b 10.773442
_cell_length_c 20.145695
_cell_angle_alpha 33.131897
_cell_angle_beta 19.415795
_cell_angle_gamma 29.340821
_cell_volume 516.508975
_symmetry_space_group_name_H-M "P -1"
_symmetry_group_IT_number 2
_symmetry_cell_setting 'triclinic'
loop_
_space_group_symop_operation_xyz
x,y,z
-x,-y,-z
loop_
_atom_site_type_symbol
_atom_site_label
_atom_site_fract_x
_atom_site_fract_y
_atom_site_fract_z
Si Si1 0.793049 0.058016 0.415024
Si Si2 0.623711 0.360058 0.046682
Si Si3 0.741811 0.788579 0.034287
Si Si4 0.144465 0.497129 0.669579
Si Si5 0.109055 0.183048 0.941085
Si Si6 0.405325 0.327969 0.345946
Si Si7 0.116817 0.780997 0.439977
O O1 0.503144 0.331483 0.485085
O O2 0.712872 0.874619 0.504628
O O3 0.851008 0.982867 0.486524
O O4 0.100506 0.070233 0.177289
O O5 0.937449 0.375933 0.835658
O O6 0.500000 0.500000 0.000000
O O7 0.411086 0.466372 0.210145
O O8 0.717443 0.060555 0.115891
O O9 0.696339 0.899910 0.089139
O O10 0.431710 0.806395 0.209617
O O11 0.000000 0.500000 0.000000
O O12 0.095785 0.444624 0.803538
O O13 0.049139 0.744955 0.579298
O O14 0.762363 0.217535 0.172979
O O15 0.202104 0.518680 0.457148
#
# Coordination Sequence:
#
# PCOD9058063 Si02
#       7
#     2   2   2   2   2   2   2
#     4  12  24  45  71 102 139 177 236 288 339 406
#     4  11  23  41  70 107 139 177 230 287 349 407
#     4  12  26  47  69  99 144 190 227 279 345 419
#     4  11  23  43  69 100 138 175 228 291 340 402
#     4  11  23  44  71  99 142 182 224 285 356 398
#     4  11  22  44  70 102 136 176 234 289 341 404
#     4  12  27  45  69 106 136 188 233 280 348 412
#
# _framework density 27.105048
#
# number of rings (size 3 to 8) (size 9 to 14) (size 15 to 20)
#    0.000    0.571    5.714    2.571    4.000    1.714 
#    0.000    0.714    0.000    0.000    0.000    0.000 
#    0.000    0.000    0.000    0.000    0.000    0.000 
#
# Total GULP energy -78461.967363 kJ/mol
# GULP energy per Si atom -5604.426240 kJ/mol
# Density = 2.704336 g / cm^3
# Si number density = 27.105048 Si / 1000 Ang^3
#
#
#
# Elastic Constant Matrix: (Units=GPa)
#
#
# Indices 1 2 3 4 5 6 
#
# 1 132.0539 22.9929 40.7785 -12.8782 -14.3380 -28.3015
# 2 22.9929 92.4849 15.6448 -8.8617 0.1866 -19.0463
# 3 40.7785 15.6448 151.1625 -23.3598 -16.3684 -9.4427
# 4 -12.8782 -8.8617 -23.3598 34.9954 -8.4704 1.9306
# 5 -14.3380 0.1866 -16.3684 -8.4704 57.9520 -3.4878
# 6 -28.3015 -19.0463 -9.4427 1.9306 -3.4878 45.8434
#
#
#
# Elastic Compliance Matrix: (Units=1/GPa)
#
#
# Indices 1 2 3 4 5 6 
#
# 1 0.009957 -0.000803 -0.001517 0.002814 0.002785 0.005594
# 2 -0.000803 0.012213 -0.000377 0.002367 0.000268 0.004422
# 3 -0.001517 -0.000377 0.008253 0.005500 0.002796 0.000588
# 4 0.002814 0.002367 0.005500 0.035563 0.007617 0.002935
# 5 0.002785 0.000268 0.002796 0.007617 0.020064 0.003613
# 6 0.005594 0.004422 0.000588 0.002935 0.003613 0.027376
#
#
# Mechanical properties :
#
#
# Convention : Reuss Voigt Hill
#
# Bulk Modulus (GPa) = 39.95215 59.39266 49.67240
# Shear Modulus (GPa) = 39.32009 47.51049 43.41529
#
# Velocity S-wave (km/s) = 3.81288 4.19122 4.00652
# Velocity P-wave (km/s) = 5.84430 6.73657 6.30623
#
# Compressibility (1/GPa) = 0.02502994
#
# Stress axis : x y z
#
# Youngs Moduli (GPa) = 100.43532 81.88255 121.16783
#
# Poissons Ratio (x) = 0.06572 0.18381
# Poissons Ratio (y) = 0.08062 0.04562
# Poissons Ratio (z) = 0.15236 0.03083
#
# Static dielectric constant tensor:
#      x y z
#    x 2.186230 0.051810 0.069480 
#    y 0.051810 2.122900 -0.053580 
#    z 0.069480 -0.053580 2.088180 
# 
# From -- ./inp_files/261399.got.cif
#   From: 2010.05.17/outbox.cif.g08.bks.cpg/sg2_131_cif.got.tgz:261399.got - 2010.06.03 11:33:40.
