data_PCOD9058942
_publ_section_title
;
Structure prediction by ZEFSAII (Michael W. Deem and Ramdas Pophale) SiO2 
 PCOD9058942
Probable space group: P -1
;
_chemical_formula_sum "Si O2"
_cell_formula_units_Z 14
_cell_length_a 6.154308
_cell_length_b 20.877114
_cell_length_c 11.860682
_cell_angle_alpha 28.134849
_cell_angle_beta 124.790482
_cell_angle_gamma 116.386642
_cell_volume 583.317283
_symmetry_space_group_name_H-M "P -1"
_symmetry_group_IT_number 2
_symmetry_cell_setting 'triclinic'
loop_
_space_group_symop_operation_xyz
x,y,z
-x,-y,-z
loop_
_atom_site_type_symbol
_atom_site_label
_atom_site_fract_x
_atom_site_fract_y
_atom_site_fract_z
Si Si1 0.450502 0.731002 0.197639
Si Si2 0.629372 0.287657 0.412126
Si Si3 0.588017 0.192618 0.306718
Si Si4 0.098753 0.064822 0.269725
Si Si5 0.063841 0.122109 0.908604
Si Si6 0.100884 0.455670 0.974565
Si Si7 0.464291 0.561351 0.242476
O O1 0.706345 0.801774 0.197312
O O2 0.533098 0.653108 0.224533
O O3 0.403115 0.597338 0.464883
O O4 0.193415 0.849767 0.925385
O O5 0.690052 0.200803 0.450729
O O6 0.312102 0.320723 0.267553
O O7 0.775017 0.216783 0.672956
O O8 0.750721 0.427056 0.215158
O O9 0.323402 0.122561 0.320752
O O10 0.821327 0.101363 0.443426
O O11 0.502321 0.349205 0.996779
O O12 0.146554 0.090558 0.110645
O O13 0.000000 0.000000 0.000000
O O14 0.000000 0.500000 0.000000
O O15 0.853835 0.439396 0.847964
#
# Coordination Sequence:
#
# PCOD9058942 Si02
#       7
#     2   2   2   2   2   2   2
#     4  11  26  45  68 102 134 182 224 283 337 403
#     4  11  24  40  65  96 137 171 219 275 338 385
#     4  11  23  46  69 101 131 183 227 279 331 408
#     4  11  26  45  70  96 139 178 231 272 340 403
#     4  12  25  45  67  99 138 177 221 277 340 412
#     4  11  23  39  64  97 132 172 218 276 331 399
#     4  11  23  44  70  98 139 170 235 279 331 403
#
# _framework density 24.000661000000001
#
# number of rings (size 3 to 8) (size 9 to 14) (size 15 to 20)
#    0.000    0.857    5.714    0.857    2.000    2.857 
#    0.000    0.000    0.000    0.000    0.000    0.000 
#    0.000    0.000    0.000    0.000    0.000    0.000 
#
# Total GULP energy -78227.711819 kJ/mol
# GULP energy per Si atom -5587.693701 kJ/mol
# Density = 2.394603 g / cm^3
# Si number density = 24.000661 Si / 1000 Ang^3
#
#
#
# Elastic Constant Matrix: (Units=GPa)
#
#
# Indices 1 2 3 4 5 6 
#
# 1 23.7195 22.5425 11.7472 -16.2377 18.0807 -0.4751
# 2 22.5425 117.9910 29.9299 -17.3023 2.3717 29.0040
# 3 11.7472 29.9299 93.7675 7.4989 17.2426 -7.6465
# 4 -16.2377 -17.3023 7.4989 35.7870 -4.3778 6.3215
# 5 18.0807 2.3717 17.2426 -4.3778 42.1673 7.2897
# 6 -0.4751 29.0040 -7.6465 6.3215 7.2897 30.2814
#
#
#
# Elastic Compliance Matrix: (Units=1/GPa)
#
#
# Indices 1 2 3 4 5 6 
#
# 1 0.149178 -0.036795 0.007626 0.030842 -0.070462 0.050033
# 2 -0.036795 0.032177 -0.015963 0.013890 0.029803 -0.045502
# 3 0.007626 -0.015963 0.021692 -0.016024 -0.017837 0.028525
# 4 0.030842 0.013890 -0.016024 0.057727 0.003692 -0.029806
# 5 -0.070462 0.029803 -0.017837 0.003692 0.068831 -0.051496
# 6 0.050033 -0.045502 0.028525 -0.029806 -0.051496 0.103213
#
#
# Mechanical properties :
#
#
# Convention : Reuss Voigt Hill
#
# Bulk Modulus (GPa) = 8.86654 40.43525 24.65089
# Shear Modulus (GPa) = 8.91782 33.06437 20.99109
#
# Velocity S-wave (km/s) = 1.92969 3.71569 2.96058
# Velocity P-wave (km/s) = 2.94402 5.94076 4.68828
#
# Compressibility (1/GPa) = 0.11278362
#
# Stress axis : x y z
#
# Youngs Moduli (GPa) = 6.70341 31.07817 46.09983
#
# Poissons Ratio (x) = 1.14353 -0.35157
# Poissons Ratio (y) = 0.24665 0.73587
# Poissons Ratio (z) = -0.05112 0.49609
#
# Static dielectric constant tensor:
#      x y z
#    x 1.940210 -0.037540 0.007440 
#    y -0.037540 1.883950 -0.022460 
#    z 0.007440 -0.022460 2.003660 
# 
# From -- ./inp_files/68622.got.cif
#   From: 2010.05.17/outbox.cif.g08.bks.cpg/sg2_35_cif.got.tgz:68622.got - 2010.06.03 11:33:40.
