data_PCOD9058544
_publ_section_title
;
Structure prediction by ZEFSAII (Michael W. Deem and Ramdas Pophale) SiO2 
 PCOD9058544
Probable space group: P -1
;
_chemical_formula_sum "Si O2"
_cell_formula_units_Z 11
_cell_length_a 7.450788
_cell_length_b 10.193551
_cell_length_c 9.802047
_cell_angle_alpha 41.579065
_cell_angle_beta 101.821521
_cell_angle_gamma 101.539989
_cell_volume 482.330694
_symmetry_space_group_name_H-M "P -1"
_symmetry_group_IT_number 2
_symmetry_cell_setting 'triclinic'
loop_
_space_group_symop_operation_xyz
x,y,z
-x,-y,-z
loop_
_atom_site_type_symbol
_atom_site_label
_atom_site_fract_x
_atom_site_fract_y
_atom_site_fract_z
Si Si1 0.616343 0.824722 0.100612
Si Si2 0.500000 0.000000 0.500000
Si Si3 0.426427 0.538969 0.807321
Si Si4 0.006187 0.428214 0.903513
Si Si5 0.850455 0.970728 0.768788
Si Si6 0.896902 0.636643 0.482797
O O1 0.519695 0.640045 0.143198
O O2 0.721145 0.720343 0.319559
O O3 0.760534 0.933399 0.932274
O O4 0.500000 0.000000 0.000000
O O5 0.524207 0.229373 0.394168
O O6 0.312251 0.057073 0.345485
O O7 0.205510 0.499028 0.817089
O O8 0.500000 0.500000 0.000000
O O9 0.863470 0.516796 0.710359
O O10 0.001477 0.193021 0.092840
O O11 0.000000 0.500000 0.000000
O O12 0.961424 0.177967 0.609378
O O13 0.000000 0.500000 0.500000
#
# Coordination Sequence:
#
# PCOD9058544 Si02
#       6
#     2   1   2   2   2   2
#     4  11  25  45  72 107 142 187 239 300 355 432
#     4  12  20  42  76  98 138 192 228 290 366 408
#     4  11  22  46  70  97 147 184 236 293 359 419
#     4  11  25  43  69 103 135 182 240 293 345 426
#     4  11  24  43  71  98 142 188 231 295 354 426
#     4  12  23  47  72  97 142 191 232 289 366 419
#
# _framework density 22.80593
#
# number of rings (size 3 to 8) (size 9 to 14) (size 15 to 20)
#    0.000    0.727    9.091    0.545    0.000    3.636 
#    0.000    1.818    0.000    0.000    0.000    0.000 
#    0.000    0.000    0.000    0.000    0.000    0.000 
#
# Total GULP energy -61247.261570 kJ/mol
# GULP energy per Si atom -5567.932870 kJ/mol
# Density = 2.275402 g / cm^3
# Si number density = 22.805930 Si / 1000 Ang^3
#
#
#
# Elastic Constant Matrix: (Units=GPa)
#
#
# Indices 1 2 3 4 5 6 
#
# 1 53.3270 46.3838 36.2069 -3.4292 12.8680 -5.6483
# 2 46.3838 171.1045 74.4346 -29.7170 12.8132 -14.0722
# 3 36.2069 74.4346 165.5189 -4.6116 42.2233 -3.6427
# 4 -3.4292 -29.7170 -4.6116 59.1269 7.0371 7.9387
# 5 12.8680 12.8132 42.2233 7.0371 34.8969 0.3388
# 6 -5.6483 -14.0722 -3.6427 7.9387 0.3388 43.7062
#
#
#
# Elastic Compliance Matrix: (Units=1/GPa)
#
#
# Indices 1 2 3 4 5 6 
#
# 1 0.026637 -0.006175 -0.001715 -0.001282 -0.005237 0.001585
# 2 -0.006175 0.009585 -0.003342 0.003782 0.002026 0.001307
# 3 -0.001715 -0.003342 0.010809 0.000462 -0.011308 -0.000393
# 4 -0.001282 0.003782 0.000462 0.019752 -0.005434 -0.002455
# 5 -0.005237 0.002026 -0.011308 -0.005434 0.044624 -0.000326
# 6 0.001585 0.001307 -0.000393 -0.002455 -0.000326 0.023921
#
#
# Mechanical properties :
#
#
# Convention : Reuss Voigt Hill
#
# Bulk Modulus (GPa) = 40.70694 78.22234 59.46464
# Shear Modulus (GPa) = 30.12423 43.07433 36.59928
#
# Velocity S-wave (km/s) = 3.63835 4.35067 4.01036
# Velocity P-wave (km/s) = 5.96139 7.72084 6.89745
#
# Compressibility (1/GPa) = 0.02456584
#
# Stress axis : x y z
#
# Youngs Moduli (GPa) = 37.54241 104.33060 92.51920
#
# Poissons Ratio (x) = 0.64424 0.15864
# Poissons Ratio (y) = 0.23182 0.30924
# Poissons Ratio (z) = 0.06437 0.34872
#
# Static dielectric constant tensor:
#      x y z
#    x 1.879470 0.006020 0.025220 
#    y 0.006020 1.854700 -0.001330 
#    z 0.025220 -0.001330 1.879360 
# 
# From -- ./inp_files/148774.got.cif
#   From: 2010.05.17/outbox.cif.g08.bks.cpg/sg2_75_cif.got.tgz:148774.got - 2010.06.03 11:33:40.
