data_PCOD9058113
_publ_section_title
;
Structure prediction by ZEFSAII (Michael W. Deem and Ramdas Pophale) SiO2 
 PCOD9058113
Probable space group: P -1
;
_chemical_formula_sum "Si O2"
_cell_formula_units_Z 16
_cell_length_a 17.330296
_cell_length_b 12.983323
_cell_length_c 5.348099
_cell_angle_alpha 99.538588
_cell_angle_beta 89.564667
_cell_angle_gamma 30.436210
_cell_volume 573.244508
_symmetry_space_group_name_H-M "P -1"
_symmetry_group_IT_number 2
_symmetry_cell_setting 'triclinic'
loop_
_space_group_symop_operation_xyz
x,y,z
-x,-y,-z
loop_
_atom_site_type_symbol
_atom_site_label
_atom_site_fract_x
_atom_site_fract_y
_atom_site_fract_z
Si Si1 0.017079 0.139305 0.996956
Si Si2 0.718567 0.009440 0.039969
Si Si3 0.207250 0.737748 0.592168
Si Si4 0.241011 0.379650 0.892316
Si Si5 0.522979 0.414845 0.685037
Si Si6 0.812061 0.904291 0.510207
Si Si7 0.618274 0.580203 0.963273
Si Si8 0.127780 0.438619 0.413578
O O1 0.903108 0.210770 0.216152
O O2 0.911245 0.362143 0.009379
O O3 0.181296 0.002440 0.023741
O O4 0.086863 0.978707 0.721380
O O5 0.792610 0.873945 0.229421
O O6 0.533223 0.252520 0.149364
O O7 0.738382 0.925778 0.747462
O O8 0.382856 0.601341 0.526963
O O9 0.240360 0.635816 0.293791
O O10 0.373323 0.308379 0.925031
O O11 0.217026 0.331617 0.105229
O O12 0.240989 0.327818 0.600494
O O13 0.685339 0.149550 0.577909
O O14 0.500000 0.500000 0.000000
O O15 0.395500 0.467601 0.797041
O O16 0.998849 0.688649 0.485822
O O17 0.000000 0.500000 0.500000
#
# Coordination Sequence:
#
# PCOD9058113 Si02
#       8
#     2   2   2   2   2   2   2   2
#     4  11  23  44  67 107 147 204 247 321 360 432
#     4  11  23  43  73 102 141 204 250 299 375 438
#     4  11  24  43  64 104 155 196 268 301 360 431
#     4  12  25  47  76 106 150 192 245 311 387 454
#     4  11  24  43  65 106 151 204 259 301 363 433
#     4  11  22  44  71 106 144 188 249 309 370 445
#     4  11  26  45  72 103 152 213 253 304 375 446
#     4  12  26  48  82 114 142 188 249 318 398 469
#
# _framework density 27.911299
#
# number of rings (size 3 to 8) (size 9 to 14) (size 15 to 20)
#    0.000    0.750    5.000    1.875    0.000    1.000 
#    9.000    0.000    0.000   11.250    0.000    0.000 
#    0.000    0.000    0.000    0.000    0.000    0.000 
#
# Total GULP energy -89208.933244 kJ/mol
# GULP energy per Si atom -5575.558328 kJ/mol
# Density = 2.784777 g / cm^3
# Si number density = 27.911299 Si / 1000 Ang^3
#
#
#
# Elastic Constant Matrix: (Units=GPa)
#
#
# Indices 1 2 3 4 5 6 
#
# 1 209.9007 41.5641 105.5528 6.7979 -0.4981 -27.6446
# 2 41.5641 75.9373 16.6379 -15.8436 -0.5429 -34.8074
# 3 105.5528 16.6379 226.1809 5.9707 -27.9581 -13.1611
# 4 6.7979 -15.8436 5.9707 58.4008 6.5557 -3.0383
# 5 -0.4981 -0.5429 -27.9581 6.5557 62.4770 -10.7556
# 6 -27.6446 -34.8074 -13.1611 -3.0383 -10.7556 56.1222
#
#
#
# Elastic Compliance Matrix: (Units=1/GPa)
#
#
# Indices 1 2 3 4 5 6 
#
# 1 0.007091 -0.003251 -0.003158 -0.001229 -0.001179 0.000444
# 2 -0.003251 0.022233 0.000717 0.006791 0.002033 0.013113
# 3 -0.003158 0.000717 0.006274 -0.000367 0.002984 0.000912
# 4 -0.001229 0.006791 -0.000367 0.019530 -0.001423 0.004305
# 5 -0.001179 0.002033 0.002984 -0.001423 0.018328 0.004815
# 6 0.000444 0.013113 0.000912 0.004305 0.004815 0.027539
#
#
# Mechanical properties :
#
#
# Convention : Reuss Voigt Hill
#
# Bulk Modulus (GPa) = 41.29804 93.28096 67.28950
# Shear Modulus (GPa) = 41.51083 58.61759 50.06421
#
# Velocity S-wave (km/s) = 3.86066 4.58770 4.23979
# Velocity P-wave (km/s) = 5.89077 7.84574 6.93747
#
# Compressibility (1/GPa) = 0.02421422
#
# Stress axis : x y z
#
# Youngs Moduli (GPa) = 141.01844 44.97779 159.39381
#
# Poissons Ratio (x) = 0.14623 0.50332
# Poissons Ratio (y) = 0.45846 -0.11425
# Poissons Ratio (z) = 0.44529 -0.03224
#
# Static dielectric constant tensor:
#      x y z
#    x 2.054050 0.451870 -0.257690 
#    y 0.451870 1.304920 0.579650 
#    z -0.257690 0.579650 1.946220 
# 
# From -- ./inp_files/110999.got.cif
#   From: 2010.05.17/outbox.cif.g08.bks.cpg/sg2_56_cif.got.tgz:110999.got - 2010.06.03 11:33:40.
