data_PCOD9058801
_publ_section_title
;
Structure prediction by ZEFSAII (Michael W. Deem and Ramdas Pophale) SiO2 
 PCOD9058801
Probable space group: P -1
;
_chemical_formula_sum "Si O2"
_cell_formula_units_Z 14
_cell_length_a 19.196856
_cell_length_b 15.650818
_cell_length_c 10.656067
_cell_angle_alpha 155.019359
_cell_angle_beta 136.105653
_cell_angle_gamma 27.144213
_cell_volume 552.003787
_symmetry_space_group_name_H-M "P -1"
_symmetry_group_IT_number 2
_symmetry_cell_setting 'triclinic'
loop_
_space_group_symop_operation_xyz
x,y,z
-x,-y,-z
loop_
_atom_site_type_symbol
_atom_site_label
_atom_site_fract_x
_atom_site_fract_y
_atom_site_fract_z
Si Si1 0.779403 0.332439 0.412372
Si Si2 0.226777 0.577744 0.870661
Si Si3 0.573667 0.213155 0.812192
Si Si4 0.489644 0.559722 0.419279
Si Si5 0.100292 0.094613 0.224319
Si Si6 0.826149 0.685266 0.055902
Si Si7 0.918142 0.290992 0.881920
O O1 0.598445 0.583514 0.569145
O O2 0.798546 0.239932 0.171512
O O3 0.811356 0.511672 0.719283
O O4 0.907938 0.958810 0.146573
O O5 0.134377 0.942687 0.202614
O O6 0.427251 0.275223 0.691277
O O7 0.207390 0.580942 0.000726
O O8 0.098010 0.617647 0.692273
O O9 0.556402 0.298343 0.051032
O O10 0.781257 0.900065 0.640794
O O11 0.500000 0.500000 0.000000
O O12 0.500000 0.500000 0.500000
O O13 0.305390 0.926393 0.626789
O O14 0.829870 0.595996 0.083515
O O15 0.000000 0.500000 0.000000
O O16 0.000000 0.000000 0.500000
#
# Coordination Sequence:
#
# PCOD9058801 Si02
#       7
#     2   2   2   2   2   2   2
#     4   9  19  37  55  79 119 144 185 239 290 342
#     4   9  16  30  58  80 110 151 190 233 293 342
#     4   9  19  34  57  87 112 148 199 239 286 355
#     4  11  23  36  60  85 113 154 192 242 298 343
#     4   8  16  31  53  86 110 146 192 238 281 347
#     4  11  23  35  55  84 116 148 194 239 289 352
#     4   9  19  33  57  82 113 147 190 239 286 346
#
# _framework density 25.362144000000001
#
# number of rings (size 3 to 8) (size 9 to 14) (size 15 to 20)
#    0.000    2.571    0.000    1.286   10.000    0.000 
#    0.000    0.000    3.143    3.429    0.000    0.000 
#    0.000    0.000    0.000    0.000    0.000    0.000 
#
# Total GULP energy -77985.407750 kJ/mol
# GULP energy per Si atom -5570.386268 kJ/mol
# Density = 2.530442 g / cm^3
# Si number density = 25.362144 Si / 1000 Ang^3
#
#
#
# Elastic Constant Matrix: (Units=GPa)
#
#
# Indices 1 2 3 4 5 6 
#
# 1 149.6246 67.4348 18.7755 -2.7134 -7.5236 -5.2886
# 2 67.4348 132.5596 27.0369 -7.5180 4.2826 -20.5062
# 3 18.7755 27.0369 46.1312 -12.7881 -0.1165 5.1970
# 4 -2.7134 -7.5180 -12.7881 37.7881 9.6686 -2.5976
# 5 -7.5236 4.2826 -0.1165 9.6686 23.2472 5.6347
# 6 -5.2886 -20.5062 5.1970 -2.5976 5.6347 83.5761
#
#
#
# Elastic Compliance Matrix: (Units=1/GPa)
#
#
# Indices 1 2 3 4 5 6 
#
# 1 0.009210 -0.004823 -0.001388 -0.002099 0.004956 -0.000914
# 2 -0.004823 0.011767 -0.004769 0.001984 -0.005378 0.003303
# 3 -0.001388 -0.004769 0.027759 0.008804 -0.002477 -0.002544
# 4 -0.002099 0.001984 0.008804 0.033787 -0.015514 0.001903
# 5 0.004956 -0.005378 -0.002477 -0.015514 0.053244 -0.004924
# 6 -0.000914 0.003303 -0.002544 0.001903 -0.004924 0.013267
#
#
# Mechanical properties :
#
#
# Convention : Reuss Voigt Hill
#
# Bulk Modulus (GPa) = 37.34871 61.64555 49.49713
# Shear Modulus (GPa) = 27.79020 43.26014 35.52517
#
# Velocity S-wave (km/s) = 3.31378 4.13449 3.74667
# Velocity P-wave (km/s) = 5.42215 6.86665 6.18670
#
# Compressibility (1/GPa) = 0.02677469
#
# Stress axis : x y z
#
# Youngs Moduli (GPa) = 108.57788 84.98338 36.02483
#
# Poissons Ratio (x) = 0.40983 0.05002
# Poissons Ratio (y) = 0.52362 0.17182
# Poissons Ratio (z) = 0.15076 0.40532
#
# Static dielectric constant tensor:
#      x y z
#    x 2.110450 0.027660 0.016280 
#    y 0.027660 2.084110 -0.033150 
#    z 0.016280 -0.033150 1.831850 
# 
# From -- ./inp_files/178360.got.cif
#   From: 2010.05.17/outbox.cif.g08.bks.cpg/sg2_90_cif.got.tgz:178360.got - 2010.06.03 11:33:40.
