data_PCOD9058255
_publ_section_title
;
Structure prediction by ZEFSAII (Michael W. Deem and Ramdas Pophale) SiO2 
 PCOD9058255
Probable space group: P -1
;
_chemical_formula_sum "Si O2"
_cell_formula_units_Z 14
_cell_length_a 14.828425
_cell_length_b 20.632201
_cell_length_c 12.106164
_cell_angle_alpha 28.519228
_cell_angle_beta 20.243709
_cell_angle_gamma 25.866573
_cell_volume 544.383968
_symmetry_space_group_name_H-M "P -1"
_symmetry_group_IT_number 2
_symmetry_cell_setting 'triclinic'
loop_
_space_group_symop_operation_xyz
x,y,z
-x,-y,-z
loop_
_atom_site_type_symbol
_atom_site_label
_atom_site_fract_x
_atom_site_fract_y
_atom_site_fract_z
Si Si1 0.477243 0.503856 0.890654
Si Si2 0.376332 0.171105 0.070353
Si Si3 0.706085 0.735114 0.207360
Si Si4 0.112855 0.245995 0.795298
Si Si5 0.073232 0.970387 0.184715
Si Si6 0.264689 0.458987 0.890651
Si Si7 0.530665 0.236892 0.129278
O O1 0.576398 0.617679 0.551579
O O2 0.500000 0.500000 0.000000
O O3 0.674626 0.334601 0.873472
O O4 0.126428 0.581878 0.160629
O O5 0.160206 0.095045 0.450552
O O6 0.454776 0.158310 0.870111
O O7 0.670345 0.105684 0.904026
O O8 0.204428 0.349463 0.038818
O O9 0.724492 0.807934 0.193509
O O10 0.027036 0.623009 0.960393
O O11 0.327907 0.229237 0.472045
O O12 0.950783 0.147393 0.089680
O O13 0.245784 0.922015 0.942374
O O14 0.500000 0.500000 0.500000
O O15 0.368265 0.349655 0.044332
#
# Coordination Sequence:
#
# PCOD9058255 Si02
#       7
#     2   2   2   2   2   2   2
#     4  12  24  42  72 107 144 181 240 302 369 429
#     4  11  26  47  73 106 143 197 242 301 358 431
#     4  12  24  42  73 104 145 186 244 302 365 431
#     4  12  27  45  69 108 144 194 238 300 369 430
#     4  11  28  49  74 103 150 194 250 293 361 435
#     4  11  22  44  77 108 145 186 246 303 366 427
#     4  11  22  47  71 104 143 188 243 301 360 435
#
# _framework density 25.717141000000002
#
# number of rings (size 3 to 8) (size 9 to 14) (size 15 to 20)
#    0.000    0.571    2.857    5.571    4.000    2.286 
#    0.000    4.286    0.000    0.000    0.000    0.000 
#    0.000    0.000    0.000    0.000    0.000    0.000 
#
# Total GULP energy -78358.682026 kJ/mol
# GULP energy per Si atom -5597.048716 kJ/mol
# Density = 2.565861 g / cm^3
# Si number density = 25.717141 Si / 1000 Ang^3
#
#
#
# Elastic Constant Matrix: (Units=GPa)
#
#
# Indices 1 2 3 4 5 6 
#
# 1 161.6959 27.3616 37.6702 5.9995 24.4787 19.5373
# 2 27.3616 93.9384 25.1714 -1.5281 -8.2820 25.5119
# 3 37.6702 25.1714 167.2868 -0.8944 7.4699 21.2866
# 4 5.9995 -1.5281 -0.8944 33.8992 9.8097 -15.1015
# 5 24.4787 -8.2820 7.4699 9.8097 43.4637 -4.2281
# 6 19.5373 25.5119 21.2866 -15.1015 -4.2281 46.9508
#
#
#
# Elastic Compliance Matrix: (Units=1/GPa)
#
#
# Indices 1 2 3 4 5 6 
#
# 1 0.007749 -0.001676 -0.000953 -0.001396 -0.004471 -0.002733
# 2 -0.001676 0.013559 -0.000963 -0.003306 0.003763 -0.006958
# 3 -0.000953 -0.000963 0.006673 -0.000477 -0.000914 -0.002342
# 4 -0.001396 -0.003306 -0.000477 0.037900 -0.006938 0.014159
# 5 -0.004471 0.003763 -0.000914 -0.006938 0.028016 0.000521
# 6 -0.002733 -0.006958 -0.002342 0.014159 0.000521 0.031880
#
#
# Mechanical properties :
#
#
# Convention : Reuss Voigt Hill
#
# Bulk Modulus (GPa) = 48.08287 67.03639 57.55963
# Shear Modulus (GPa) = 35.74111 47.04393 41.39252
#
# Velocity S-wave (km/s) = 3.73202 4.28165 4.01625
# Velocity P-wave (km/s) = 6.10803 7.11103 6.62853
#
# Compressibility (1/GPa) = 0.02079743
#
# Stress axis : x y z
#
# Youngs Moduli (GPa) = 129.05010 73.75052 149.84782
#
# Poissons Ratio (x) = 0.12363 0.14276
# Poissons Ratio (y) = 0.21633 0.14431
# Poissons Ratio (z) = 0.12295 0.07103
#
# Static dielectric constant tensor:
#      x y z
#    x 2.003510 -0.017390 0.050610 
#    y -0.017390 2.085260 -0.016800 
#    z 0.050610 -0.016800 1.929580 
# 
# From -- ./inp_files/83122.got.cif
#   From: 2010.05.17/outbox.cif.g08.bks.cpg/sg2_42_cif.got.tgz:83122.got - 2010.06.03 11:33:40.
