data_PCOD9058762
_publ_section_title
;
Structure prediction by ZEFSAII (Michael W. Deem and Ramdas Pophale) SiO2 
 PCOD9058762
Probable space group: P -1
;
_chemical_formula_sum "Si O2"
_cell_formula_units_Z 15
_cell_length_a 16.994892
_cell_length_b 9.398469
_cell_length_c 8.945138
_cell_angle_alpha 65.334997
_cell_angle_beta 29.544803
_cell_angle_gamma 64.279798
_cell_volume 632.182455
_symmetry_space_group_name_H-M "P -1"
_symmetry_group_IT_number 2
_symmetry_cell_setting 'triclinic'
loop_
_space_group_symop_operation_xyz
x,y,z
-x,-y,-z
loop_
_atom_site_type_symbol
_atom_site_label
_atom_site_fract_x
_atom_site_fract_y
_atom_site_fract_z
Si Si1 0.776307 0.582243 0.259770
Si Si2 0.119601 0.556326 0.158181
Si Si3 0.076121 0.915192 0.059859
Si Si4 0.587420 0.493204 0.094220
Si Si5 0.800673 0.309950 0.561801
Si Si6 0.000000 0.000000 0.500000
Si Si7 0.475842 0.838318 0.033166
Si Si8 0.368460 0.076000 0.562996
O O1 0.589625 0.550456 0.572149
O O2 0.851795 0.448995 0.313860
O O3 0.756828 0.768923 0.246807
O O4 0.857136 0.548849 0.980967
O O5 0.054335 0.735639 0.148038
O O6 0.000000 0.500000 0.500000
O O7 0.294142 0.555733 0.943837
O O8 0.012164 0.966255 0.309632
O O9 0.262195 0.945288 0.745261
O O10 0.000000 0.000000 0.000000
O O11 0.576355 0.681854 0.007824
O O12 0.669912 0.405401 0.850133
O O13 0.704087 0.202890 0.661984
O O14 0.920640 0.186223 0.514764
O O15 0.534161 0.861340 0.759333
O O16 0.500000 0.000000 0.000000
O O17 0.500000 0.000000 0.500000
#
# Coordination Sequence:
#
# PCOD9058762 Si02
#       8
#     2   2   2   2   2   1   2   2
#     4  11  24  47  79 108 148 201 261 326 393 463
#     4  12  29  47  72 108 155 204 264 314 391 482
#     4  12  30  50  74 113 159 205 260 323 395 476
#     4  11  22  48  74 110 148 196 256 324 385 472
#     4  11  22  48  75 109 148 203 252 317 398 470
#     4  12  26  48  78 100 162 208 248 320 402 464
#     4  11  25  41  75 110 149 189 257 321 386 465
#     4  12  26  46  75 111 149 196 261 322 394 468
#
# _framework density 23.727328
#
# number of rings (size 3 to 8) (size 9 to 14) (size 15 to 20)
#    0.000    0.533    4.000    3.600   11.200    0.000 
#    0.000    2.000    0.000    0.000    0.000    0.000 
#    0.000    0.000    0.000    0.000    0.000    0.000 
#
# Total GULP energy -83749.633358 kJ/mol
# GULP energy per Si atom -5583.308891 kJ/mol
# Density = 2.367332 g / cm^3
# Si number density = 23.727328 Si / 1000 Ang^3
#
#
#
# Elastic Constant Matrix: (Units=GPa)
#
#
# Indices 1 2 3 4 5 6 
#
# 1 126.4517 39.7445 31.9823 -3.2746 13.5129 -21.4117
# 2 39.7445 184.7303 42.7229 -17.2637 12.6389 -17.5332
# 3 31.9823 42.7229 95.6045 -6.3096 16.4004 -5.4742
# 4 -3.2746 -17.2637 -6.3096 20.3725 9.4770 -1.8857
# 5 13.5129 12.6389 16.4004 9.4770 41.8475 -6.6601
# 6 -21.4117 -17.5332 -5.4742 -1.8857 -6.6601 49.5548
#
#
#
# Elastic Compliance Matrix: (Units=1/GPa)
#
#
# Indices 1 2 3 4 5 6 
#
# 1 0.009552 -0.001019 -0.002201 0.001053 -0.001620 0.003346
# 2 -0.001019 0.006980 -0.001880 0.006355 -0.002200 0.001768
# 3 -0.002201 -0.001880 0.013138 0.004371 -0.004966 -0.000666
# 4 0.001053 0.006355 0.004371 0.064720 -0.018118 0.003214
# 5 -0.001620 -0.002200 -0.004966 -0.018118 0.031372 0.001500
# 6 0.003346 0.001768 -0.000666 0.003214 0.001500 0.022501
#
#
# Mechanical properties :
#
#
# Convention : Reuss Voigt Hill
#
# Bulk Modulus (GPa) = 51.36155 70.63175 60.99665
# Shear Modulus (GPa) = 30.31158 41.84410 36.07784
#
# Velocity S-wave (km/s) = 3.57809 4.20401 3.90361
# Velocity P-wave (km/s) = 6.22606 7.30737 6.78828
#
# Compressibility (1/GPa) = 0.01946982
#
# Stress axis : x y z
#
# Youngs Moduli (GPa) = 104.68859 143.27469 76.11259
#
# Poissons Ratio (x) = 0.14604 0.16752
# Poissons Ratio (y) = 0.10671 0.14309
# Poissons Ratio (z) = 0.23042 0.26935
#
# Static dielectric constant tensor:
#      x y z
#    x 1.886960 0.036340 -0.024110 
#    y 0.036340 1.884210 0.047390 
#    z -0.024110 0.047390 1.965230 
# 
# From -- ./inp_files/328526.got.cif
#   From: 2010.05.17/outbox.cif.g08.bks.cpg/sg2_165_cif.got.tgz:328526.got - 2010.06.03 11:33:40.
