data_PCOD9058495
_publ_section_title
;
Structure prediction by ZEFSAII (Michael W. Deem and Ramdas Pophale) SiO2 
 PCOD9058495
Probable space group: P -1
;
_chemical_formula_sum "Si O2"
_cell_formula_units_Z 16
_cell_length_a 8.776519
_cell_length_b 14.962996
_cell_length_c 16.050533
_cell_angle_alpha 38.631036
_cell_angle_beta 31.558338
_cell_angle_gamma 39.062672
_cell_volume 647.890553
_symmetry_space_group_name_H-M "P -1"
_symmetry_group_IT_number 2
_symmetry_cell_setting 'triclinic'
loop_
_space_group_symop_operation_xyz
x,y,z
-x,-y,-z
loop_
_atom_site_type_symbol
_atom_site_label
_atom_site_fract_x
_atom_site_fract_y
_atom_site_fract_z
Si Si1 0.758563 0.114924 0.661169
Si Si2 0.294739 0.395160 0.173980
Si Si3 0.413533 0.689504 0.069451
Si Si4 0.448100 0.607457 0.673428
Si Si5 0.312463 0.403760 0.740084
Si Si6 0.822444 0.799369 0.916935
Si Si7 0.721700 0.839150 0.296701
Si Si8 0.552074 0.920978 0.621915
O O1 0.605794 0.278939 0.654433
O O2 0.542732 0.112017 0.685795
O O3 0.109967 0.091668 0.491667
O O4 0.771749 0.976773 0.817497
O O5 0.434254 0.250532 0.272011
O O6 0.940114 0.494815 0.280507
O O7 0.500000 0.500000 0.000000
O O8 0.346408 0.329251 0.103777
O O9 0.431632 0.525338 0.217036
O O10 0.062123 0.777593 0.144347
O O11 0.528653 0.776707 0.024249
O O12 0.393075 0.517094 0.683682
O O13 0.659681 0.705932 0.477309
O O14 0.123967 0.722159 0.775690
O O15 0.145166 0.301850 0.942262
O O16 0.689290 0.978300 0.272675
O O17 0.500000 0.000000 0.500000
#
# Coordination Sequence:
#
# PCOD9058495 Si02
#       8
#     2   2   2   2   2   2   2   2
#     4  12  27  47  75 105 149 197 245 301 373 439
#     4  12  26  44  73 102 151 188 242 301 365 434
#     4  11  24  44  72 112 140 190 250 306 355 437
#     4  11  22  45  78 101 148 199 242 300 371 432
#     4  11  24  44  72 112 140 190 250 306 355 437
#     4  11  22  45  78 101 148 199 242 300 371 432
#     4  12  27  47  75 105 149 197 245 301 373 439
#     4  12  31  49  73 109 150 194 246 307 368 442
#
# _framework density 24.695529000000001
#
# number of rings (size 3 to 8) (size 9 to 14) (size 15 to 20)
#    0.000    0.500    3.750    4.125    7.000    6.000 
#    0.000    0.000    0.000    0.000    0.000    0.000 
#    0.000    0.000    0.000    0.000    0.000    0.000 
#
# Total GULP energy -89711.345655 kJ/mol
# GULP energy per Si atom -5606.959103 kJ/mol
# Density = 2.463932 g / cm^3
# Si number density = 24.695529 Si / 1000 Ang^3
#
#
#
# Elastic Constant Matrix: (Units=GPa)
#
#
# Indices 1 2 3 4 5 6 
#
# 1 59.5492 27.1142 -3.7378 1.6609 -0.8537 -10.5514
# 2 27.1142 149.4101 37.6758 -12.4895 0.3691 -12.6454
# 3 -3.7378 37.6758 89.5799 -23.4550 3.6280 -14.9282
# 4 1.6609 -12.4895 -23.4550 53.3373 -9.1342 3.8678
# 5 -0.8537 0.3691 3.6280 -9.1342 32.3910 1.5604
# 6 -10.5514 -12.6454 -14.9282 3.8678 1.5604 26.0315
#
#
#
# Elastic Compliance Matrix: (Units=1/GPa)
#
#
# Indices 1 2 3 4 5 6 
#
# 1 0.020387 -0.003982 0.003830 -0.000583 -0.000427 0.008637
# 2 -0.003982 0.008373 -0.003492 0.000582 0.000338 0.000344
# 3 0.003830 -0.003492 0.015513 0.005216 -0.000511 0.008008
# 4 -0.000583 0.000582 0.005216 0.022215 0.005687 -0.000604
# 5 -0.000427 0.000338 -0.000511 0.005687 0.032668 -0.003105
# 6 0.008637 0.000344 0.008008 -0.000604 -0.003105 0.046951
#
#
# Mechanical properties :
#
#
# Convention : Reuss Voigt Hill
#
# Bulk Modulus (GPa) = 27.03851 46.73817 36.88834
# Shear Modulus (GPa) = 30.17082 38.18442 34.17762
#
# Velocity S-wave (km/s) = 3.49909 3.93645 3.72420
# Velocity P-wave (km/s) = 5.22469 6.29505 5.78468
#
# Compressibility (1/GPa) = 0.03698429
#
# Stress axis : x y z
#
# Youngs Moduli (GPa) = 49.05112 119.43077 64.46403
#
# Poissons Ratio (x) = 0.47557 -0.24687
# Poissons Ratio (y) = 0.19532 0.22508
# Poissons Ratio (z) = -0.18784 0.41701
#
# Static dielectric constant tensor:
#      x y z
#    x 1.959890 0.012050 0.037350 
#    y 0.012050 1.941910 -0.030670 
#    z 0.037350 -0.030670 1.931110 
# 
# From -- ./inp_files/561362.got.cif
#   From: 2010.05.17/outbox.cif.g08.bks.cpg/sg2_281_cif.got.tgz:561362.got - 2010.06.03 11:33:40.
