data_PCOD9058982
_publ_section_title
;
Structure prediction by ZEFSAII (Michael W. Deem and Ramdas Pophale) SiO2 
 PCOD9058982
Probable space group: P -1
;
_chemical_formula_sum "Si O2"
_cell_formula_units_Z 16
_cell_length_a 14.409388
_cell_length_b 8.838709
_cell_length_c 25.938512
_cell_angle_alpha 48.950136
_cell_angle_beta 21.354977
_cell_angle_gamma 40.784051
_cell_volume 769.299258
_symmetry_space_group_name_H-M "P -1"
_symmetry_group_IT_number 2
_symmetry_cell_setting 'triclinic'
loop_
_space_group_symop_operation_xyz
x,y,z
-x,-y,-z
loop_
_atom_site_type_symbol
_atom_site_label
_atom_site_fract_x
_atom_site_fract_y
_atom_site_fract_z
Si Si1 0.138088 0.663096 0.643057
Si Si2 0.771039 0.461218 0.660663
Si Si3 0.190428 0.619616 0.100933
Si Si4 0.689302 0.225607 0.094663
Si Si5 0.204790 0.133452 0.332095
Si Si6 0.854526 0.964771 0.374044
Si Si7 0.712053 0.071184 0.305457
Si Si8 0.668837 0.359709 0.633723
O O1 0.500000 0.500000 0.500000
O O2 0.984015 0.514652 0.767614
O O3 0.013792 0.773238 0.625657
O O4 0.057082 0.871933 0.678311
O O5 0.476655 0.684666 0.784681
O O6 0.695646 0.322276 0.689406
O O7 0.000000 0.500000 0.500000
O O8 0.912053 0.305033 0.672924
O O9 0.500000 0.500000 0.000000
O O10 0.250487 0.612372 0.010308
O O11 0.972750 0.892916 0.171575
O O12 0.471674 0.179897 0.182264
O O13 0.000000 0.000000 0.000000
O O14 0.983747 0.282440 0.460358
O O15 0.365575 0.851656 0.322209
O O16 0.545949 0.993898 0.548754
O O17 0.830778 0.009682 0.316049
O O18 0.558394 0.356685 0.317079
#
# Coordination Sequence:
#
# PCOD9058982 Si02
#       8
#     2   2   2   2   2   2   2   2
#     4  12  24  43  72 108 140 186 248 299 352 426
#     4  12  22  42  70 101 134 184 238 290 348 428
#     4  12  26  46  71 100 152 195 232 295 374 434
#     4  12  27  45  69 103 145 194 236 285 372 439
#     4  11  24  44  68 108 143 183 236 304 361 415
#     4  11  23  39  69 104 136 174 248 303 344 409
#     4  11  23  42  67 105 138 188 237 295 359 428
#     4  11  23  41  73 100 140 175 239 307 346 412
#
# _framework density 20.798148000000001
#
# number of rings (size 3 to 8) (size 9 to 14) (size 15 to 20)
#    0.000    0.500    6.250    2.250    1.750    3.000 
#    0.000    7.500    0.000    0.000    0.000    0.000 
#    0.000    0.000    0.000    0.000    0.000    0.000 
#
# Total GULP energy -89233.765823 kJ/mol
# GULP energy per Si atom -5577.110364 kJ/mol
# Density = 2.075081 g / cm^3
# Si number density = 20.798148 Si / 1000 Ang^3
#
#
#
# Elastic Constant Matrix: (Units=GPa)
#
#
# Indices 1 2 3 4 5 6 
#
# 1 79.2094 33.9558 35.9895 7.8337 -7.7057 -6.9370
# 2 33.9558 133.6297 46.9950 4.8226 3.7023 5.0305
# 3 35.9895 46.9950 106.5797 13.0567 4.5907 4.2143
# 4 7.8337 4.8226 13.0567 34.3159 3.1064 5.2157
# 5 -7.7057 3.7023 4.5907 3.1064 32.6800 1.2503
# 6 -6.9370 5.0305 4.2143 5.2157 1.2503 36.2533
#
#
#
# Elastic Compliance Matrix: (Units=1/GPa)
#
#
# Indices 1 2 3 4 5 6 
#
# 1 0.017124 -0.002968 -0.004513 -0.002915 0.005115 0.004456
# 2 -0.002968 0.009405 -0.003135 0.000913 -0.001351 -0.001593
# 3 -0.004513 -0.003135 0.012805 -0.002990 -0.002169 -0.001412
# 4 -0.002915 0.000913 -0.002990 0.031837 -0.003213 -0.004807
# 5 0.005115 -0.001351 -0.002169 -0.003213 0.032540 0.000758
# 6 0.004456 -0.001593 -0.001412 -0.004807 0.000758 0.029487
#
#
# Mechanical properties :
#
#
# Convention : Reuss Voigt Hill
#
# Bulk Modulus (GPa) = 55.24804 61.47769 58.36286
# Shear Modulus (GPa) = 31.15975 34.14841 32.65408
#
# Velocity S-wave (km/s) = 3.87486 4.05643 3.96668
# Velocity P-wave (km/s) = 6.82942 7.18073 7.00727
#
# Compressibility (1/GPa) = 0.01810019
#
# Stress axis : x y z
#
# Youngs Moduli (GPa) = 58.39816 106.32993 78.09722
#
# Poissons Ratio (x) = 0.31563 0.35244
# Poissons Ratio (y) = 0.17335 0.24485
# Poissons Ratio (z) = 0.26354 0.33337
#
# Static dielectric constant tensor:
#      x y z
#    x 1.782100 0.006940 -0.001870 
#    y 0.006940 1.798890 0.027580 
#    z -0.001870 0.027580 1.779770 
# 
# From -- ./inp_files/619251.got.cif
#   From: 2010.05.17/outbox.cif.g08.bks.cpg/sg2_310_cif.got.tgz:619251.got - 2010.06.03 11:33:40.
