data_PCOD9058614
_publ_section_title
;
Structure prediction by ZEFSAII (Michael W. Deem and Ramdas Pophale) SiO2 
 PCOD9058614
Probable space group: P -1
;
_chemical_formula_sum "Si O2"
_cell_formula_units_Z 16
_cell_length_a 9.743744
_cell_length_b 15.353510
_cell_length_c 11.702452
_cell_angle_alpha 44.473124
_cell_angle_beta 112.488081
_cell_angle_gamma 140.979713
_cell_volume 711.133554
_symmetry_space_group_name_H-M "P -1"
_symmetry_group_IT_number 2
_symmetry_cell_setting 'triclinic'
loop_
_space_group_symop_operation_xyz
x,y,z
-x,-y,-z
loop_
_atom_site_type_symbol
_atom_site_label
_atom_site_fract_x
_atom_site_fract_y
_atom_site_fract_z
Si Si1 0.782772 0.187684 0.924489
Si Si2 0.226487 0.923154 0.736409
Si Si3 0.619364 0.737253 0.867560
Si Si4 0.275404 0.334821 0.258096
Si Si5 0.937303 0.542251 0.550707
Si Si6 0.930924 0.030487 0.061596
Si Si7 0.562247 0.698597 0.441798
Si Si8 0.596198 0.012823 0.637626
O O1 0.861292 0.380376 0.760852
O O2 0.871567 0.192963 0.067733
O O3 0.500000 0.000000 0.000000
O O4 0.868910 0.134231 0.916372
O O5 0.007625 0.830750 0.679320
O O6 0.393393 0.147003 0.614674
O O7 0.389792 0.921225 0.742451
O O8 0.641345 0.715912 0.760517
O O9 0.628843 0.888460 0.751540
O O10 0.395281 0.533169 0.052764
O O11 0.844318 0.823797 0.920085
O O12 0.360368 0.357921 0.391669
O O13 0.711324 0.481713 0.511053
O O14 0.000000 0.500000 0.500000
O O15 0.160601 0.762996 0.459399
O O16 0.723038 0.827627 0.259468
O O17 0.000000 0.000000 0.000000
O O18 0.500000 0.000000 0.500000
#
# Coordination Sequence:
#
# PCOD9058614 Si02
#       8
#     2   2   2   2   2   2   2   2
#     4  11  22  46  74 105 141 201 251 297 371 453
#     4  11  23  46  76 103 146 194 246 305 369 452
#     4  11  27  46  70 111 146 198 245 310 378 443
#     4  11  25  48  79 103 147 202 252 295 384 463
#     4  12  26  45  79 109 145 200 252 298 376 455
#     4  11  26  44  72 104 153 190 244 322 372 431
#     4  11  23  46  76 110 141 202 252 303 372 459
#     4  12  29  47  72 111 153 185 247 322 368 436
#
# _framework density 22.499289000000001
#
# number of rings (size 3 to 8) (size 9 to 14) (size 15 to 20)
#    0.000    0.750    6.250    1.125    8.750    0.500 
#    2.250    1.250    2.750    0.000    0.000    0.000 
#    0.000    0.000    0.000    0.000    0.000    0.000 
#
# Total GULP energy -89502.067481 kJ/mol
# GULP energy per Si atom -5593.879218 kJ/mol
# Density = 2.244808 g / cm^3
# Si number density = 22.499289 Si / 1000 Ang^3
#
#
#
# Elastic Constant Matrix: (Units=GPa)
#
#
# Indices 1 2 3 4 5 6 
#
# 1 109.6281 61.7009 25.3127 -18.7996 20.2095 3.1576
# 2 61.7009 131.1830 54.0809 -6.2422 3.0101 10.2732
# 3 25.3127 54.0809 79.2040 -8.4031 15.8665 -4.2653
# 4 -18.7996 -6.2422 -8.4031 37.1927 0.4894 6.4176
# 5 20.2095 3.0101 15.8665 0.4894 36.4376 -2.5878
# 6 3.1576 10.2732 -4.2653 6.4176 -2.5878 34.8925
#
#
#
# Elastic Compliance Matrix: (Units=1/GPa)
#
#
# Indices 1 2 3 4 5 6 
#
# 1 0.016241 -0.008323 0.003263 0.007817 -0.009903 -0.000793
# 2 -0.008323 0.015687 -0.010111 -0.003277 0.007487 -0.003944
# 3 0.003263 -0.010111 0.021132 0.004210 -0.009966 0.003751
# 4 0.007817 -0.003277 0.004210 0.032306 -0.006735 -0.005669
# 5 -0.009903 0.007487 -0.009966 -0.006735 0.036851 0.001445
# 6 -0.000793 -0.003944 0.003751 -0.005669 0.001445 0.031501
#
#
# Mechanical properties :
#
#
# Convention : Reuss Voigt Hill
#
# Bulk Modulus (GPa) = 44.01810 66.91158 55.46484
# Shear Modulus (GPa) = 26.09143 33.63260 29.86201
#
# Velocity S-wave (km/s) = 3.40907 3.87050 3.64709
# Velocity P-wave (km/s) = 5.92472 7.05537 6.51462
#
# Compressibility (1/GPa) = 0.02271793
#
# Stress axis : x y z
#
# Youngs Moduli (GPa) = 61.57069 63.74696 47.32145
#
# Poissons Ratio (x) = 0.53056 -0.15439
# Poissons Ratio (y) = 0.51244 0.47847
# Poissons Ratio (z) = -0.20088 0.64455
#
# Static dielectric constant tensor:
#      x y z
#    x 1.876830 -0.031710 0.085800 
#    y -0.031710 1.825390 -0.008700 
#    z 0.085800 -0.008700 1.883520 
# 
# From -- ./inp_files/398636.got.cif
#   From: 2010.05.17/outbox.cif.g08.bks.cpg/sg2_200_cif.got.tgz:398636.got - 2010.06.03 11:33:40.
