data_PCOD9058909
_publ_section_title
;
Structure prediction by ZEFSAII (Michael W. Deem and Ramdas Pophale) SiO2 
 PCOD9058909
Probable space group: P -1
;
_chemical_formula_sum "Si O2"
_cell_formula_units_Z 14
_cell_length_a 5.202004
_cell_length_b 17.762210
_cell_length_c 11.160355
_cell_angle_alpha 34.548056
_cell_angle_beta 105.240441
_cell_angle_gamma 115.133341
_cell_volume 521.778206
_symmetry_space_group_name_H-M "P -1"
_symmetry_group_IT_number 2
_symmetry_cell_setting 'triclinic'
loop_
_space_group_symop_operation_xyz
x,y,z
-x,-y,-z
loop_
_atom_site_type_symbol
_atom_site_label
_atom_site_fract_x
_atom_site_fract_y
_atom_site_fract_z
Si Si1 0.638088 0.389015 0.699951
Si Si2 0.997710 0.802124 0.450859
Si Si3 0.393302 0.013487 0.613314
Si Si4 0.884425 0.326209 0.600026
Si Si5 0.789318 0.050658 0.051482
Si Si6 0.705621 0.292511 0.088197
Si Si7 0.711886 0.710203 0.770174
O O1 0.500000 0.500000 0.500000
O O2 0.622183 0.297542 0.698480
O O3 0.969027 0.502150 0.609324
O O4 0.571805 0.324151 0.907796
O O5 0.105187 0.717888 0.476995
O O6 0.744412 0.705783 0.635676
O O7 0.277626 0.882594 0.458458
O O8 0.918239 0.927953 0.218131
O O9 0.280236 0.948069 0.817860
O O10 0.383528 0.879713 0.708613
O O11 0.226443 0.119567 0.425800
O O12 0.999338 0.211412 0.828179
O O13 0.500000 0.000000 0.000000
O O14 0.579583 0.351963 0.106737
O O15 0.049466 0.341726 0.077075
#
# Coordination Sequence:
#
# PCOD9058909 Si02
#       7
#     2   2   2   2   2   2   2
#     4  11  29  46  73  99 137 199 239 298 349 421
#     4  11  25  42  72 107 146 183 234 300 371 427
#     4  11  23  39  70 108 142 186 229 301 364 427
#     4  11  25  47  67 102 145 179 248 292 357 427
#     4  11  23  38  69 111 144 185 227 298 377 431
#     4  12  26  45  73 101 150 185 246 288 356 431
#     4  11  26  45  70 108 143 189 232 299 365 426
#
# _framework density 26.831323000000001
#
# number of rings (size 3 to 8) (size 9 to 14) (size 15 to 20)
#    0.000    0.857    4.286    1.286   12.000    0.000 
#    0.000    1.429    0.000    0.000    0.000    0.000 
#    0.000    0.000    0.000    0.000    0.000    0.000 
#
# Total GULP energy -78171.627536 kJ/mol
# GULP energy per Si atom -5583.687681 kJ/mol
# Density = 2.677025 g / cm^3
# Si number density = 26.831323 Si / 1000 Ang^3
#
#
#
# Elastic Constant Matrix: (Units=GPa)
#
#
# Indices 1 2 3 4 5 6 
#
# 1 122.7677 32.1098 19.6274 13.6275 25.2750 -39.1126
# 2 32.1098 129.2335 24.0108 10.4613 4.0675 -49.4887
# 3 19.6274 24.0108 103.9295 20.4102 12.7933 -12.6697
# 4 13.6275 10.4613 20.4102 37.1747 7.7510 -8.0371
# 5 25.2750 4.0675 12.7933 7.7510 39.0026 2.5770
# 6 -39.1126 -49.4887 -12.6697 -8.0371 2.5770 46.5923
#
#
#
# Elastic Compliance Matrix: (Units=1/GPa)
#
#
# Indices 1 2 3 4 5 6 
#
# 1 0.014743 0.002793 -0.000080 -0.000478 -0.010770 0.015834
# 2 0.002793 0.013906 -0.001215 0.000259 -0.004040 0.017053
# 3 -0.000080 -0.001215 0.011362 -0.005110 -0.002599 0.000995
# 4 -0.000478 0.000259 -0.005110 0.031679 -0.004615 0.004204
# 5 -0.010770 -0.004040 -0.002599 -0.004615 0.035921 -0.016822
# 6 0.015834 0.017053 0.000995 0.004204 -0.016822 0.054794
#
#
# Mechanical properties :
#
#
# Convention : Reuss Voigt Hill
#
# Bulk Modulus (GPa) = 23.25139 56.38076 39.81608
# Shear Modulus (GPa) = 28.77789 43.23278 36.00533
#
# Velocity S-wave (km/s) = 3.27853 4.01843 3.66719
# Velocity P-wave (km/s) = 4.79753 6.52603 5.72736
#
# Compressibility (1/GPa) = 0.04300818
#
# Stress axis : x y z
#
# Youngs Moduli (GPa) = 67.83043 71.91059 88.00976
#
# Poissons Ratio (x) = -0.20084 0.00700
# Poissons Ratio (y) = -0.18945 0.10692
# Poissons Ratio (z) = 0.00540 0.08736
#
# Static dielectric constant tensor:
#      x y z
#    x 2.846750 0.309970 -0.541620 
#    y 0.309970 2.315270 -0.230960 
#    z -0.541620 -0.230960 2.522280 
# 
# From -- ./inp_files/369274.got.cif
#   From: 2010.05.17/outbox.cif.g08.bks.cpg/sg2_185_cif.got.tgz:369274.got - 2010.06.03 11:33:40.
