data_PCOD9058751
_publ_section_title
;
Structure prediction by ZEFSAII (Michael W. Deem and Ramdas Pophale) SiO2 
 PCOD9058751
Probable space group: P -1
;
_chemical_formula_sum "Si O2"
_cell_formula_units_Z 14
_cell_length_a 10.569353
_cell_length_b 9.977329
_cell_length_c 7.405830
_cell_angle_alpha 89.615009
_cell_angle_beta 115.840141
_cell_angle_gamma 120.988482
_cell_volume 578.083293
_symmetry_space_group_name_H-M "P -1"
_symmetry_group_IT_number 2
_symmetry_cell_setting 'triclinic'
loop_
_space_group_symop_operation_xyz
x,y,z
-x,-y,-z
loop_
_atom_site_type_symbol
_atom_site_label
_atom_site_fract_x
_atom_site_fract_y
_atom_site_fract_z
Si Si1 0.392100 0.493754 0.765624
Si Si2 0.126715 0.446681 0.098257
Si Si3 0.257886 0.946582 0.626107
Si Si4 0.100260 0.926550 0.142788
Si Si5 0.949098 0.618025 0.542904
Si Si6 0.498958 0.712543 0.284447
Si Si7 0.486528 0.157743 0.312477
O O1 0.191207 0.395603 0.676058
O O2 0.419829 0.389693 0.638480
O O3 0.462050 0.676722 0.754166
O O4 0.500000 0.500000 0.000000
O O5 0.148996 0.444596 0.327748
O O6 0.303807 0.580690 0.113096
O O7 0.000000 0.500000 0.000000
O O8 0.027754 0.264572 0.968450
O O9 0.155065 0.951376 0.388631
O O10 0.383654 0.891329 0.653312
O O11 0.113320 0.801604 0.661233
O O12 0.379979 0.132072 0.769427
O O13 0.286939 0.013471 0.163101
O O14 0.000000 0.000000 0.000000
O O15 0.000000 0.500000 0.500000
O O16 0.493510 0.794988 0.463900
#
# Coordination Sequence:
#
# PCOD9058751 Si02
#       7
#     2   2   2   2   2   2   2
#     4  12  28  43  71 103 145 181 232 293 353 402
#     4  12  25  44  76 105 136 183 238 282 344 422
#     4  11  25  47  72 100 144 186 227 284 352 416
#     4  11  25  41  71 107 138 173 238 292 339 409
#     4  12  26  47  70 103 143 187 230 287 351 417
#     4  11  24  45  72 102 136 183 233 284 344 411
#     4  11  22  48  71  98 138 190 231 278 347 421
#
# _framework density 24.217965
#
# number of rings (size 3 to 8) (size 9 to 14) (size 15 to 20)
#    0.000    0.571    2.857    5.571   10.000    1.714 
#    0.000    2.143    0.000    0.000    0.000    0.000 
#    0.000    0.000    0.000    0.000    0.000    0.000 
#
# Total GULP energy -78373.375594 kJ/mol
# GULP energy per Si atom -5598.098257 kJ/mol
# Density = 2.416284 g / cm^3
# Si number density = 24.217965 Si / 1000 Ang^3
#
#
#
# Elastic Constant Matrix: (Units=GPa)
#
#
# Indices 1 2 3 4 5 6 
#
# 1 60.0856 27.0689 26.0417 9.2127 38.3971 2.6967
# 2 27.0689 190.8785 31.9576 25.4691 27.4456 11.4926
# 3 26.0417 31.9576 60.5985 18.5623 31.5337 5.0148
# 4 9.2127 25.4691 18.5623 52.8106 0.9808 14.5491
# 5 38.3971 27.4456 31.5337 0.9808 49.2020 -3.6355
# 6 2.6967 11.4926 5.0148 14.5491 -3.6355 50.0283
#
#
#
# Elastic Compliance Matrix: (Units=1/GPa)
#
#
# Indices 1 2 3 4 5 6 
#
# 1 0.035140 -0.000317 0.001700 -0.005359 -0.028414 -0.002498
# 2 -0.000317 0.006178 -0.001020 -0.002293 -0.002560 -0.000819
# 3 0.001700 -0.001020 0.029509 -0.009398 -0.019594 -0.001506
# 4 -0.005359 -0.002293 -0.009398 0.025422 0.010618 -0.004864
# 5 -0.028414 -0.002560 -0.019594 0.010618 0.056651 0.005113
# 6 -0.002498 -0.000819 -0.001506 -0.004864 0.005113 0.022249
#
#
# Mechanical properties :
#
#
# Convention : Reuss Voigt Hill
#
# Bulk Modulus (GPa) = 13.97551 53.52211 33.74881
# Shear Modulus (GPa) = 25.21778 45.50782 35.36280
#
# Velocity S-wave (km/s) = 3.23039 4.33955 3.82539
# Velocity P-wave (km/s) = 4.43815 6.87438 5.78594
#
# Compressibility (1/GPa) = 0.07155374
#
# Stress axis : x y z
#
# Youngs Moduli (GPa) = 28.45736 161.86685 33.88819
#
# Poissons Ratio (x) = 0.05131 -0.05761
# Poissons Ratio (y) = 0.00902 0.03455
# Poissons Ratio (z) = -0.04837 0.16503
#
# Static dielectric constant tensor:
#      x y z
#    x 1.978170 0.024230 -0.097180 
#    y 0.024230 1.927290 -0.016640 
#    z -0.097180 -0.016640 2.090220 
# 
# From -- ./inp_files/157173.got.cif
#   From: 2010.05.17/outbox.cif.g08.bks.cpg/sg2_79_cif.got.tgz:157173.got - 2010.06.03 11:33:40.
