data_PCOD9058289
_publ_section_title
;
Structure prediction by ZEFSAII (Michael W. Deem and Ramdas Pophale) SiO2 
 PCOD9058289
Probable space group: P -1
;
_chemical_formula_sum "Si O2"
_cell_formula_units_Z 16
_cell_length_a 7.792698
_cell_length_b 9.606850
_cell_length_c 14.876610
_cell_angle_alpha 127.935366
_cell_angle_beta 116.185410
_cell_angle_gamma 93.211836
_cell_volume 698.885372
_symmetry_space_group_name_H-M "P -1"
_symmetry_group_IT_number 2
_symmetry_cell_setting 'triclinic'
loop_
_space_group_symop_operation_xyz
x,y,z
-x,-y,-z
loop_
_atom_site_type_symbol
_atom_site_label
_atom_site_fract_x
_atom_site_fract_y
_atom_site_fract_z
Si Si1 0.880575 0.158927 0.269261
Si Si2 0.844343 0.093537 0.024306
Si Si3 0.772370 0.829284 0.352665
Si Si4 0.307186 0.285661 0.901492
Si Si5 0.454082 0.030747 0.358197
Si Si6 0.553434 0.269023 0.295295
Si Si7 0.664921 0.691637 0.461309
Si Si8 0.022001 0.700169 0.043995
O O1 0.886533 0.159101 0.162819
O O2 0.789432 0.309823 0.335337
O O3 0.109781 0.217986 0.394072
O O4 0.706094 0.933059 0.171406
O O5 0.907673 0.262697 0.029038
O O6 0.610652 0.910013 0.877038
O O7 0.000000 0.000000 0.000000
O O8 0.816503 0.758006 0.239154
O O9 0.701392 0.677353 0.358151
O O10 0.600281 0.917507 0.344604
O O11 0.000000 0.000000 0.500000
O O12 0.199719 0.304705 0.976738
O O13 0.500000 0.500000 0.000000
O O14 0.529827 0.188314 0.357866
O O15 0.439978 0.159530 0.489613
O O16 0.212574 0.874496 0.212522
O O17 0.521328 0.464211 0.366355
O O18 0.000000 0.500000 0.000000
#
# Coordination Sequence:
#
# PCOD9058289 Si02
#       8
#     2   2   2   2   2   2   2   2
#     4  12  23  48  70 102 145 182 232 296 343 415
#     4  11  24  44  72  99 141 182 226 289 350 411
#     4  12  24  44  70 100 140 187 232 286 349 406
#     4  12  25  43  72 100 140 178 231 288 355 409
#     4  11  22  45  68 100 142 184 228 294 343 408
#     4  11  25  42  71 102 136 184 234 283 350 412
#     4  12  25  44  69 101 139 185 236 285 344 417
#     4  11  24  44  71 105 137 180 233 288 352 417
#
# _framework density 22.893594
#
# number of rings (size 3 to 8) (size 9 to 14) (size 15 to 20)
#    0.000    0.500    5.000    3.000    3.500    2.000 
#    0.000    1.250    0.000    0.000    0.000    0.000 
#    0.000    0.000    0.000    0.000    0.000    0.000 
#
# Total GULP energy -89269.971267 kJ/mol
# GULP energy per Si atom -5579.373204 kJ/mol
# Density = 2.284149 g / cm^3
# Si number density = 22.893594 Si / 1000 Ang^3
#
#
#
# Elastic Constant Matrix: (Units=GPa)
#
#
# Indices 1 2 3 4 5 6 
#
# 1 58.7825 4.3833 4.0316 1.7162 2.4933 8.9318
# 2 4.3833 130.1622 37.2383 2.4110 -5.3293 23.7652
# 3 4.0316 37.2383 56.2252 -8.9558 -2.0982 24.4684
# 4 1.7162 2.4110 -8.9558 25.2878 1.9247 -5.0164
# 5 2.4933 -5.3293 -2.0982 1.9247 31.1942 -7.3469
# 6 8.9318 23.7652 24.4684 -5.0164 -7.3469 39.4687
#
#
#
# Elastic Compliance Matrix: (Units=1/GPa)
#
#
# Indices 1 2 3 4 5 6 
#
# 1 0.017908 0.000134 0.000462 -0.001892 -0.002466 -0.005119
# 2 0.000134 0.009988 -0.006049 -0.003687 0.000905 -0.002594
# 3 0.000462 -0.006049 0.029044 0.008284 -0.002915 -0.013957
# 4 -0.001892 -0.003687 0.008284 0.043643 -0.001981 0.002691
# 5 -0.002466 0.000905 -0.002915 -0.001981 0.034204 0.007936
# 6 -0.005119 -0.002594 -0.013957 0.002691 0.007936 0.038529
#
#
# Mechanical properties :
#
#
# Convention : Reuss Voigt Hill
#
# Bulk Modulus (GPa) = 21.72424 37.38625 29.55525
# Shear Modulus (GPa) = 25.05418 32.49125 28.77271
#
# Velocity S-wave (km/s) = 3.31172 3.77135 3.54899
# Velocity P-wave (km/s) = 4.91255 5.94391 5.45267
#
# Compressibility (1/GPa) = 0.04603152
#
# Stress axis : x y z
#
# Youngs Moduli (GPa) = 55.84127 100.12168 34.43085
#
# Poissons Ratio (x) = -0.01337 -0.01590
# Poissons Ratio (y) = -0.00746 0.20828
# Poissons Ratio (z) = -0.02578 0.60565
#
# Static dielectric constant tensor:
#      x y z
#    x 2.009920 -0.007150 -0.065360 
#    y -0.007150 1.905430 -0.013760 
#    z -0.065360 -0.013760 1.938340 
# 
# From -- ./inp_files/495654.got.cif
#   From: 2010.05.17/outbox.cif.g08.bks.cpg/sg2_248_cif.got.tgz:495654.got - 2010.06.03 11:33:40.
