data_PCOD9058952
_publ_section_title
;
Structure prediction by ZEFSAII (Michael W. Deem and Ramdas Pophale) SiO2 
 PCOD9058952
Probable space group: P -1
;
_chemical_formula_sum "Si O2"
_cell_formula_units_Z 16
_cell_length_a 19.396815
_cell_length_b 9.469794
_cell_length_c 13.391080
_cell_angle_alpha 42.243667
_cell_angle_beta 38.837124
_cell_angle_gamma 71.867876
_cell_volume 805.690136
_symmetry_space_group_name_H-M "P -1"
_symmetry_group_IT_number 2
_symmetry_cell_setting 'triclinic'
loop_
_space_group_symop_operation_xyz
x,y,z
-x,-y,-z
loop_
_atom_site_type_symbol
_atom_site_label
_atom_site_fract_x
_atom_site_fract_y
_atom_site_fract_z
Si Si1 0.159308 0.105758 0.785377
Si Si2 0.165546 0.668597 0.129565
Si Si3 0.157575 0.811358 0.272681
Si Si4 0.406553 0.680183 0.767630
Si Si5 0.641193 0.558381 0.273029
Si Si6 0.705370 0.284985 0.666965
Si Si7 0.404674 0.244130 0.310245
Si Si8 0.400922 0.901638 0.322631
O O1 0.246716 0.416542 0.561024
O O2 0.250471 0.144884 0.565220
O O3 0.162276 0.895436 0.959942
O O4 0.000000 0.000000 0.000000
O O5 0.224672 0.782718 0.114018
O O6 0.008006 0.387430 0.458548
O O7 0.257750 0.596251 0.014429
O O8 0.181726 0.699611 0.401099
O O9 0.230604 0.123394 0.039394
O O10 0.388382 0.560385 0.742615
O O11 0.498802 0.650611 0.754069
O O12 0.500000 0.000000 0.500000
O O13 0.500000 0.500000 0.500000
O O14 0.657117 0.390990 0.421445
O O15 0.684157 0.145241 0.657786
O O16 0.561496 0.096458 0.995073
O O17 0.389832 0.022288 0.373243
O O18 0.500000 0.500000 0.000000
#
# Coordination Sequence:
#
# PCOD9058952 Si02
#       8
#     2   2   2   2   2   2   2   2
#     4  12  24  42  70  98 133 177 216 271 335 397
#     4  11  24  45  68  95 135 174 223 272 330 394
#     4  11  24  41  67  96 131 178 219 272 329 395
#     4  12  24  42  69  97 127 172 222 274 324 391
#     4  12  24  39  66  94 131 173 221 270 327 388
#     4  11  23  39  65  97 131 171 220 272 328 394
#     4  12  26  42  68 100 133 170 223 273 328 390
#     4  11  23  41  63  95 133 169 221 274 326 385
#
# _framework density 19.858751000000002
#
# number of rings (size 3 to 8) (size 9 to 14) (size 15 to 20)
#    0.000    0.500    6.250    2.250    3.500    0.500 
#    0.000    0.625    2.750    0.000    0.000    0.000 
#    0.000    0.000    0.000    0.000    0.000    0.000 
#
# Total GULP energy -89225.629741 kJ/mol
# GULP energy per Si atom -5576.601859 kJ/mol
# Density = 1.981355 g / cm^3
# Si number density = 19.858751 Si / 1000 Ang^3
#
#
#
# Elastic Constant Matrix: (Units=GPa)
#
#
# Indices 1 2 3 4 5 6 
#
# 1 100.5778 42.8491 28.3255 11.3675 -1.3854 21.3770
# 2 42.8491 112.3327 49.4172 3.3208 -2.9090 25.5726
# 3 28.3255 49.4172 100.8244 -5.2652 3.8851 3.6676
# 4 11.3675 3.3208 -5.2652 46.9844 -7.1548 2.4326
# 5 -1.3854 -2.9090 3.8851 -7.1548 24.9775 -1.2645
# 6 21.3770 25.5726 3.6676 2.4326 -1.2645 37.1865
#
#
#
# Elastic Compliance Matrix: (Units=1/GPa)
#
#
# Indices 1 2 3 4 5 6 
#
# 1 0.013231 -0.002732 -0.002330 -0.003050 -0.000364 -0.005310
# 2 -0.002732 0.014450 -0.006131 -0.000346 0.001998 -0.007671
# 3 -0.002330 -0.006131 0.013620 0.001982 -0.002191 0.004008
# 4 -0.003050 -0.000346 0.001982 0.023179 0.006147 0.000488
# 5 -0.000364 0.001998 -0.002191 0.006147 0.042355 0.000090
# 6 -0.005310 -0.007671 0.004008 0.000488 0.000090 0.034795
#
#
# Mechanical properties :
#
#
# Convention : Reuss Voigt Hill
#
# Bulk Modulus (GPa) = 52.86936 61.65761 57.26348
# Shear Modulus (GPa) = 29.35663 34.70590 32.03126
#
# Velocity S-wave (km/s) = 3.84900 4.18501 4.02052
# Velocity P-wave (km/s) = 6.81422 7.38024 7.10287
#
# Compressibility (1/GPa) = 0.01891455
#
# Stress axis : x y z
#
# Youngs Moduli (GPa) = 75.57952 69.20635 73.42301
#
# Poissons Ratio (x) = 0.18910 0.17107
# Poissons Ratio (y) = 0.20652 0.45012
# Poissons Ratio (z) = 0.17610 0.42427
#
# Static dielectric constant tensor:
#      x y z
#    x 1.768140 -0.159290 -0.093710 
#    y -0.159290 1.771520 0.100480 
#    z -0.093710 0.100480 1.734150 
# 
# From -- ./inp_files/209300.got.cif
#   From: 2010.05.17/outbox.cif.g08.bks.cpg/sg2_105_cif.got.tgz:209300.got - 2010.06.03 11:33:40.
