data_PCOD9058678
_publ_section_title
;
Structure prediction by ZEFSAII (Michael W. Deem and Ramdas Pophale) SiO2 
 PCOD9058678
Probable space group: P -1
;
_chemical_formula_sum "Si O2"
_cell_formula_units_Z 14
_cell_length_a 13.525037
_cell_length_b 21.810827
_cell_length_c 8.449800
_cell_angle_alpha 43.775342
_cell_angle_beta 137.085949
_cell_angle_gamma 160.502646
_cell_volume 560.942559
_symmetry_space_group_name_H-M "P -1"
_symmetry_group_IT_number 2
_symmetry_cell_setting 'triclinic'
loop_
_space_group_symop_operation_xyz
x,y,z
-x,-y,-z
loop_
_atom_site_type_symbol
_atom_site_label
_atom_site_fract_x
_atom_site_fract_y
_atom_site_fract_z
Si Si1 0.309324 0.027990 0.671568
Si Si2 0.959723 0.700177 0.672398
Si Si3 0.345103 0.647028 0.960613
Si Si4 0.522727 0.885645 0.929264
Si Si5 0.899541 0.734108 0.217326
Si Si6 0.931019 0.356611 0.584358
Si Si7 0.594361 0.740587 0.774151
O O1 0.355483 0.039844 0.889302
O O2 0.634777 0.187481 0.665213
O O3 0.235911 0.091838 0.434512
O O4 0.065805 0.830100 0.680662
O O5 0.779991 0.645860 0.415607
O O6 0.265438 0.821486 0.729934
O O7 0.805960 0.529805 0.877408
O O8 0.149194 0.618368 0.697172
O O9 0.623801 0.781163 0.917838
O O10 0.412161 0.726826 0.059307
O O11 0.781104 0.042923 0.810572
O O12 0.976954 0.687800 0.298722
O O13 0.695710 0.694599 0.957916
O O14 0.236296 0.553229 0.661917
#
# Coordination Sequence:
#
# PCOD9058678 Si02
#       7
#     2   2   2   2   2   2   2
#     4  11  25  44  76  97 136 172 235 274 338 391
#     4  12  24  43  71 105 130 178 224 286 327 402
#     4  11  25  44  76  97 136 172 235 274 338 391
#     4  12  24  43  71 105 130 178 224 286 327 402
#     4  12  26  42  70  97 146 174 226 270 346 396
#     4  11  22  47  69 101 133 181 223 285 324 406
#     4  11  26  46  65 102 136 187 215 280 335 408
#
# _framework density 24.957992999999998
#
# number of rings (size 3 to 8) (size 9 to 14) (size 15 to 20)
#    0.000    0.571    2.857    6.857    4.000    3.429 
#    0.000    0.000    0.000    0.000    0.000    0.000 
#    0.000    0.000    0.000    0.000    0.000    0.000 
#
# Total GULP energy -78412.657476 kJ/mol
# GULP energy per Si atom -5600.904105 kJ/mol
# Density = 2.490119 g / cm^3
# Si number density = 24.957993 Si / 1000 Ang^3
#
#
#
# Elastic Constant Matrix: (Units=GPa)
#
#
# Indices 1 2 3 4 5 6 
#
# 1 104.4215 22.9586 49.0701 -9.5396 7.9655 -39.3542
# 2 22.9586 68.7607 28.6124 -21.2668 4.6902 -30.4602
# 3 49.0701 28.6124 143.5920 -28.0536 21.1355 -12.3535
# 4 -9.5396 -21.2668 -28.0536 29.2945 -2.0027 9.9300
# 5 7.9655 4.6902 21.1355 -2.0027 43.9206 -3.5798
# 6 -39.3542 -30.4602 -12.3535 9.9300 -3.5798 48.7077
#
#
#
# Elastic Compliance Matrix: (Units=1/GPa)
#
#
# Indices 1 2 3 4 5 6 
#
# 1 0.016722 0.001903 -0.005588 -0.003231 0.000445 0.013975
# 2 0.001903 0.024611 -0.001994 0.011812 -0.000335 0.013990
# 3 -0.005588 -0.001994 0.011182 0.008865 -0.004161 -0.005039
# 4 -0.003231 0.011812 0.008865 0.051178 -0.002903 -0.003622
# 5 0.000445 -0.000335 -0.004161 -0.002903 0.024716 0.001503
# 6 0.013975 0.013990 -0.005039 -0.003622 0.001503 0.040142
#
#
# Mechanical properties :
#
#
# Convention : Reuss Voigt Hill
#
# Bulk Modulus (GPa) = 24.29705 57.56181 40.92943
# Shear Modulus (GPa) = 25.82284 38.79343 32.30813
#
# Velocity S-wave (km/s) = 3.22009 3.94680 3.60182
# Velocity P-wave (km/s) = 4.85609 6.62444 5.80796
#
# Compressibility (1/GPa) = 0.04115726
#
# Stress axis : x y z
#
# Youngs Moduli (GPa) = 59.80194 40.63223 89.42971
#
# Poissons Ratio (x) = -0.07732 0.49974
# Poissons Ratio (y) = -0.11381 0.17830
# Poissons Ratio (z) = 0.33418 0.08101
#
# Static dielectric constant tensor:
#      x y z
#    x 1.961690 -0.001710 0.024640 
#    y -0.001710 2.034240 0.029980 
#    z 0.024640 0.029980 1.966820 
# 
# From -- ./inp_files/320018.got.cif
#   From: 2010.05.17/outbox.cif.g08.bks.cpg/sg2_161_cif.got.tgz:320018.got - 2010.06.03 11:33:40.
