data_PCOD9058592
_publ_section_title
;
Structure prediction by ZEFSAII (Michael W. Deem and Ramdas Pophale) SiO2 
 PCOD9058592
Probable space group: P -1
;
_chemical_formula_sum "Si O2"
_cell_formula_units_Z 14
_cell_length_a 11.474637
_cell_length_b 7.689676
_cell_length_c 7.877098
_cell_angle_alpha 64.686593
_cell_angle_beta 90.737213
_cell_angle_gamma 113.290320
_cell_volume 566.807665
_symmetry_space_group_name_H-M "P -1"
_symmetry_group_IT_number 2
_symmetry_cell_setting 'triclinic'
loop_
_space_group_symop_operation_xyz
x,y,z
-x,-y,-z
loop_
_atom_site_type_symbol
_atom_site_label
_atom_site_fract_x
_atom_site_fract_y
_atom_site_fract_z
Si Si1 0.697955 0.033134 0.235969
Si Si2 0.494447 0.395507 0.760768
Si Si3 0.493459 0.765167 0.799170
Si Si4 0.231664 0.479275 0.448593
Si Si5 0.014768 0.157772 0.778717
Si Si6 0.093735 0.588512 0.122820
Si Si7 0.220160 0.908977 0.416809
O O1 0.617432 0.806941 0.242695
O O2 0.588261 0.101210 0.273802
O O3 0.783598 0.065713 0.391666
O O4 0.785334 0.197872 0.026881
O O5 0.453306 0.580671 0.735103
O O6 0.376288 0.523684 0.382586
O O7 0.529297 0.327359 0.972529
O O8 0.645073 0.906689 0.720953
O O9 0.151742 0.450286 0.282615
O O10 0.226312 0.688443 0.449204
O O11 0.153345 0.270405 0.646571
O O12 0.991094 0.352136 0.772663
O O13 0.898280 0.062453 0.682864
O O14 0.000000 0.000000 0.000000
O O15 0.000000 0.500000 0.000000
#
# Coordination Sequence:
#
# PCOD9058592 Si02
#       7
#     2   2   2   2   2   2   2
#     4  12  23  46  75 109 156 197 238 304 374 439
#     4  11  24  43  74 112 149 196 244 303 370 439
#     4  11  24  44  70 114 152 193 250 296 364 451
#     4  11  22  46  73 104 147 195 248 302 372 448
#     4  11  26  48  73 105 145 190 251 318 365 438
#     4  11  23  44  75 105 142 199 248 296 373 442
#     4  11  24  46  73 105 149 194 250 300 368 448
#
# _framework density 24.699738
#
# number of rings (size 3 to 8) (size 9 to 14) (size 15 to 20)
#    0.000    0.857    2.857    6.000    0.000    2.857 
#   10.286    2.143    0.000    0.000    0.000    0.000 
#    0.000    0.000    0.000    0.000    0.000    0.000 
#
# Total GULP energy -78500.532106 kJ/mol
# GULP energy per Si atom -5607.180865 kJ/mol
# Density = 2.464352 g / cm^3
# Si number density = 24.699738 Si / 1000 Ang^3
#
#
#
# Elastic Constant Matrix: (Units=GPa)
#
#
# Indices 1 2 3 4 5 6 
#
# 1 109.8244 61.9434 40.3206 -2.4543 -8.4614 7.2854
# 2 61.9434 162.8455 53.6444 13.1132 2.9825 -4.1563
# 3 40.3206 53.6444 159.4916 -0.0278 -17.4276 16.5430
# 4 -2.4543 13.1132 -0.0278 48.0708 16.4107 -10.0902
# 5 -8.4614 2.9825 -17.4276 16.4107 44.3785 -5.1173
# 6 7.2854 -4.1563 16.5430 -10.0902 -5.1173 36.7761
#
#
#
# Elastic Compliance Matrix: (Units=1/GPa)
#
#
# Indices 1 2 3 4 5 6 
#
# 1 0.012334 -0.004428 -0.001255 0.000886 0.001608 -0.001913
# 2 -0.004428 0.008772 -0.002217 -0.001667 -0.001433 0.002209
# 3 -0.001255 -0.002217 0.008040 -0.001263 0.003127 -0.003530
# 4 0.000886 -0.001667 -0.001263 0.025632 -0.009003 0.005984
# 5 0.001608 -0.001433 0.003127 -0.009003 0.027432 -0.000541
# 6 -0.001913 0.002209 -0.003530 0.005984 -0.000541 0.030975
#
#
# Mechanical properties :
#
#
# Convention : Reuss Voigt Hill
#
# Bulk Modulus (GPa) = 74.92000 82.66423 78.79212
# Shear Modulus (GPa) = 37.47179 44.26195 40.86687
#
# Velocity S-wave (km/s) = 3.89921 4.23780 4.07202
# Velocity P-wave (km/s) = 7.11828 7.58192 7.35376
#
# Compressibility (1/GPa) = 0.01334757
#
# Stress axis : x y z
#
# Youngs Moduli (GPa) = 81.07574 113.99369 124.37046
#
# Poissons Ratio (x) = 0.50477 0.15603
# Poissons Ratio (y) = 0.35901 0.27575
# Poissons Ratio (z) = 0.10171 0.25274
#
# Static dielectric constant tensor:
#      x y z
#    x 1.936040 -0.013620 0.053110 
#    y -0.013620 1.964380 0.005990 
#    z 0.053110 0.005990 2.027430 
# 
# From -- ./inp_files/242663.got.cif
#   From: 2010.05.17/outbox.cif.g08.bks.cpg/sg2_122_cif.got.tgz:242663.got - 2010.06.03 11:33:40.
