data_PCOD9058849
_publ_section_title
;
Structure prediction by ZEFSAII (Michael W. Deem and Ramdas Pophale) SiO2 
 PCOD9058849
Probable space group: P -1
;
_chemical_formula_sum "Si O2"
_cell_formula_units_Z 14
_cell_length_a 5.444250
_cell_length_b 24.059584
_cell_length_c 14.700372
_cell_angle_alpha 20.869373
_cell_angle_beta 60.466830
_cell_angle_gamma 64.864266
_cell_volume 592.829008
_symmetry_space_group_name_H-M "P -1"
_symmetry_group_IT_number 2
_symmetry_cell_setting 'triclinic'
loop_
_space_group_symop_operation_xyz
x,y,z
-x,-y,-z
loop_
_atom_site_type_symbol
_atom_site_label
_atom_site_fract_x
_atom_site_fract_y
_atom_site_fract_z
Si Si1 0.799958 0.326702 0.957044
Si Si2 0.898995 0.169761 0.763184
Si Si3 0.566858 0.521886 0.060025
Si Si4 0.041123 0.651464 0.336573
Si Si5 0.597949 0.787417 0.951158
Si Si6 0.907918 0.257251 0.429687
Si Si7 0.290507 0.085114 0.083006
O O1 0.564535 0.213120 0.115368
O O2 0.899860 0.474516 0.645773
O O3 0.083832 0.257963 0.044980
O O4 0.654222 0.400383 0.956806
O O5 0.002676 0.269734 0.678237
O O6 0.995890 0.252198 0.526145
O O7 0.560250 0.137771 0.889685
O O8 0.000000 0.000000 0.000000
O O9 0.857558 0.641447 0.828279
O O10 0.500000 0.500000 0.000000
O O11 0.634134 0.350921 0.340303
O O12 0.379338 0.664921 0.236279
O O13 0.909079 0.775144 0.104741
O O14 0.623084 0.928762 0.804768
O O15 0.850120 0.081492 0.671996
#
# Coordination Sequence:
#
# PCOD9058849 Si02
#       7
#     2   2   2   2   2   2   2
#     4  12  26  44  72 102 144 185 247 286 350 429
#     4  11  23  37  68 110 147 180 224 292 369 426
#     4  11  28  47  73  98 137 195 237 299 349 416
#     4  11  23  40  69 107 145 187 226 296 359 421
#     4  11  26  44  69 105 143 190 233 295 356 420
#     4  11  25  46  68 104 143 181 245 288 359 427
#     4  11  24  42  69 104 146 182 232 292 363 423
#
# _framework density 23.615577999999999
#
# number of rings (size 3 to 8) (size 9 to 14) (size 15 to 20)
#    0.000    0.857    2.857    3.000   14.000    0.000 
#    0.000    1.429    0.000    0.000    0.000    0.000 
#    0.000    0.000    0.000    0.000    0.000    0.000 
#
# Total GULP energy -78246.458159 kJ/mol
# GULP energy per Si atom -5589.032726 kJ/mol
# Density = 2.356183 g / cm^3
# Si number density = 23.615578 Si / 1000 Ang^3
#
#
#
# Elastic Constant Matrix: (Units=GPa)
#
#
# Indices 1 2 3 4 5 6 
#
# 1 121.3092 43.4624 14.9387 -11.9728 -1.1427 -2.4770
# 2 43.4624 124.5604 1.5956 -4.1252 -3.0306 -13.7030
# 3 14.9387 1.5956 50.6944 -16.1959 0.0852 -5.8170
# 4 -11.9728 -4.1252 -16.1959 28.4753 6.4664 -4.3814
# 5 -1.1427 -3.0306 0.0852 6.4664 30.6689 -3.2918
# 6 -2.4770 -13.7030 -5.8170 -4.3814 -3.2918 54.6573
#
#
#
# Elastic Compliance Matrix: (Units=1/GPa)
#
#
# Indices 1 2 3 4 5 6 
#
# 1 0.009965 -0.003429 -0.002055 0.002580 -0.000555 -0.000453
# 2 -0.003429 0.009532 0.001261 0.000835 0.000902 0.002490
# 3 -0.002055 0.001261 0.025584 0.015115 -0.002782 0.003990
# 4 0.002580 0.000835 0.015115 0.047856 -0.009395 0.005205
# 5 -0.000555 0.000902 -0.002782 -0.009395 0.034797 0.001248
# 6 -0.000453 0.002490 0.003990 0.005205 0.001248 0.019817
#
#
# Mechanical properties :
#
#
# Convention : Reuss Voigt Hill
#
# Bulk Modulus (GPa) = 27.29615 46.28417 36.79016
# Shear Modulus (GPa) = 29.72530 38.53147 34.12838
#
# Velocity S-wave (km/s) = 3.55169 4.04370 3.80566
# Velocity P-wave (km/s) = 5.32944 6.43767 5.90959
#
# Compressibility (1/GPa) = 0.03663521
#
# Stress axis : x y z
#
# Youngs Moduli (GPa) = 100.35011 104.91055 39.08765
#
# Poissons Ratio (x) = 0.35970 0.08034
# Poissons Ratio (y) = 0.34407 -0.04930
# Poissons Ratio (z) = 0.20625 -0.13232
#
# Static dielectric constant tensor:
#      x y z
#    x 1.969170 -0.021310 -0.024840 
#    y -0.021310 1.906550 -0.018300 
#    z -0.024840 -0.018300 1.886340 
# 
# From -- ./inp_files/68879.got.cif
#   From: 2010.05.17/outbox.cif.g08.bks.cpg/sg2_35_cif.got.tgz:68879.got - 2010.06.03 11:33:40.
