data_PCOD9058314
_publ_section_title
;
Structure prediction by ZEFSAII (Michael W. Deem and Ramdas Pophale) SiO2 
 PCOD9058314
Probable space group: P -1
;
_chemical_formula_sum "Si O2"
_cell_formula_units_Z 14
_cell_length_a 18.292662
_cell_length_b 17.842419
_cell_length_c 6.191339
_cell_angle_alpha 59.892218
_cell_angle_beta 130.430540
_cell_angle_gamma 157.678464
_cell_volume 549.401798
_symmetry_space_group_name_H-M "P -1"
_symmetry_group_IT_number 2
_symmetry_cell_setting 'triclinic'
loop_
_space_group_symop_operation_xyz
x,y,z
-x,-y,-z
loop_
_atom_site_type_symbol
_atom_site_label
_atom_site_fract_x
_atom_site_fract_y
_atom_site_fract_z
Si Si1 0.834044 0.015359 0.540197
Si Si2 0.805363 0.787774 0.304093
Si Si3 0.830546 0.482104 0.624026
Si Si4 0.198497 0.611251 0.844883
Si Si5 0.599936 0.943900 0.859587
Si Si6 0.084462 0.755956 0.345121
Si Si7 0.564771 0.422902 0.384051
O O1 0.612177 0.774448 0.518971
O O2 0.875899 0.114855 0.678124
O O3 0.768517 0.013598 0.197490
O O4 0.058285 0.141855 0.740222
O O5 0.689747 0.609390 0.455503
O O6 0.598009 0.676581 0.979895
O O7 0.000000 0.000000 0.500000
O O8 0.608755 0.266905 0.377000
O O9 0.753860 0.513302 0.516524
O O10 0.062698 0.685997 0.632232
O O11 0.846486 0.431779 0.928342
O O12 0.447486 0.852539 0.903007
O O13 0.000000 0.500000 0.500000
O O14 0.157561 0.476766 0.885213
O O15 0.740731 0.115715 0.705844
#
# Coordination Sequence:
#
# PCOD9058314 Si02
#       7
#     2   2   2   2   2   2   2
#     4  12  23  44  70 101 142 185 245 287 358 426
#     4  11  26  42  67 107 144 188 241 299 354 418
#     4  11  22  45  69 101 136 187 235 288 358 425
#     4  11  26  46  70 104 142 181 234 298 359 426
#     4  11  23  42  72 102 135 184 234 290 353 427
#     4  11  24  40  75 100 135 186 234 288 357 424
#     4  11  23  44  68  99 145 182 239 297 345 419
#
# _framework density 25.482261000000001
#
# number of rings (size 3 to 8) (size 9 to 14) (size 15 to 20)
#    0.000    0.857    4.286    2.143    0.000    3.429 
#    0.000    3.571    0.000    0.000    0.000    0.000 
#    0.000    0.000    0.000    0.000    0.000    0.000 
#
# Total GULP energy -78230.606567 kJ/mol
# GULP energy per Si atom -5587.900469 kJ/mol
# Density = 2.542426 g / cm^3
# Si number density = 25.482261 Si / 1000 Ang^3
#
#
#
# Elastic Constant Matrix: (Units=GPa)
#
#
# Indices 1 2 3 4 5 6 
#
# 1 82.2205 48.4608 33.8273 -9.9219 1.7435 9.2125
# 2 48.4608 194.9477 48.8556 -24.0167 -3.7810 27.7453
# 3 33.8273 48.8556 107.0707 -10.0157 1.5222 5.0631
# 4 -9.9219 -24.0167 -10.0157 47.6531 1.4478 -19.8417
# 5 1.7435 -3.7810 1.5222 1.4478 32.4442 1.8760
# 6 9.2125 27.7453 5.0631 -19.8417 1.8760 59.2410
#
#
#
# Elastic Compliance Matrix: (Units=1/GPa)
#
#
# Indices 1 2 3 4 5 6 
#
# 1 0.015428 -0.002808 -0.003472 0.000910 -0.001008 -0.000450
# 2 -0.002808 0.006842 -0.002007 0.001526 0.001097 -0.002120
# 3 -0.003472 -0.002007 0.011419 0.001052 -0.000681 0.000878
# 4 0.000910 0.001526 0.001052 0.025374 -0.001492 0.007600
# 5 -0.001008 0.001097 -0.000681 -0.001492 0.031206 -0.001787
# 6 -0.000450 -0.002120 0.000878 0.007600 -0.001787 0.020470
#
#
# Mechanical properties :
#
#
# Convention : Reuss Voigt Hill
#
# Bulk Modulus (GPa) = 58.43378 71.83625 65.13502
# Shear Modulus (GPa) = 37.58890 44.74068 41.16479
#
# Velocity S-wave (km/s) = 3.84487 4.19472 4.02360
# Velocity P-wave (km/s) = 6.53388 7.19116 6.87039
#
# Compressibility (1/GPa) = 0.01711339
#
# Stress axis : x y z
#
# Youngs Moduli (GPa) = 64.81821 146.16473 87.57370
#
# Poissons Ratio (x) = 0.41047 0.30405
# Poissons Ratio (y) = 0.18203 0.17578
# Poissons Ratio (z) = 0.22505 0.29338
#
# Static dielectric constant tensor:
#      x y z
#    x 2.127190 0.001540 -0.048150 
#    y 0.001540 2.045990 -0.047740 
#    z -0.048150 -0.047740 2.007530 
# 
# From -- ./inp_files/120358.got.cif
#   From: 2010.05.17/outbox.cif.g08.bks.cpg/sg2_61_cif.got.tgz:120358.got - 2010.06.03 11:33:40.
