data_PCOD9058083
_publ_section_title
;
Structure prediction by ZEFSAII (Michael W. Deem and Ramdas Pophale) SiO2 
 PCOD9058083
Probable space group: P -1
;
_chemical_formula_sum "Si O2"
_cell_formula_units_Z 16
_cell_length_a 8.941879
_cell_length_b 11.735817
_cell_length_c 9.716876
_cell_angle_alpha 58.713723
_cell_angle_beta 103.631750
_cell_angle_gamma 123.625865
_cell_volume 723.666717
_symmetry_space_group_name_H-M "P -1"
_symmetry_group_IT_number 2
_symmetry_cell_setting 'triclinic'
loop_
_space_group_symop_operation_xyz
x,y,z
-x,-y,-z
loop_
_atom_site_type_symbol
_atom_site_label
_atom_site_fract_x
_atom_site_fract_y
_atom_site_fract_z
Si Si1 0.368062 0.228839 0.179120
Si Si2 0.208194 0.339132 0.860169
Si Si3 0.432124 0.657250 0.572399
Si Si4 0.997356 0.906955 0.247851
Si Si5 0.928245 0.356014 0.467552
Si Si6 0.569898 0.160437 0.056819
Si Si7 0.944749 0.435540 0.876872
Si Si8 0.367565 0.119135 0.766522
O O1 0.414768 0.271745 0.321177
O O2 0.532432 0.223932 0.147053
O O3 0.334985 0.342718 0.006020
O O4 0.185886 0.063841 0.216881
O O5 0.327695 0.469723 0.689368
O O6 0.083008 0.169514 0.871642
O O7 0.076956 0.386601 0.870940
O O8 0.283435 0.704065 0.546746
O O9 0.510896 0.727262 0.395932
O O10 0.837189 0.924110 0.266534
O O11 0.029907 0.773666 0.397670
O O12 0.000000 0.500000 0.500000
O O13 0.032145 0.429538 0.302683
O O14 0.588633 0.012705 0.186541
O O15 0.747883 0.286000 0.937442
O O16 0.414793 0.129821 0.932695
O O17 0.000000 0.500000 0.000000
#
# Coordination Sequence:
#
# PCOD9058083 Si02
#       8
#     2   2   2   2   2   2   2   2
#     4  12  26  44  72  99 139 178 223 278 342 392
#     4  11  24  45  71  98 139 179 225 268 343 402
#     4  11  25  45  69 101 136 176 224 281 333 398
#     4  12  25  44  72  99 133 183 223 278 330 405
#     4  11  22  44  70  97 133 181 221 268 336 405
#     4  11  24  42  68  98 135 173 227 278 324 406
#     4  11  24  41  68 100 135 175 221 277 335 395
#     4  11  26  42  68 101 132 174 230 276 330 392
#
# _framework density 22.109625000000001
#
# number of rings (size 3 to 8) (size 9 to 14) (size 15 to 20)
#    0.000    0.750    3.750    4.500    3.500    6.000 
#    0.000    0.000    0.000    0.000    0.000    0.000 
#    0.000    0.000    0.000    0.000    0.000    0.000 
#
# Total GULP energy -89439.542210 kJ/mol
# GULP energy per Si atom -5589.971388 kJ/mol
# Density = 2.205930 g / cm^3
# Si number density = 22.109625 Si / 1000 Ang^3
#
#
#
# Elastic Constant Matrix: (Units=GPa)
#
#
# Indices 1 2 3 4 5 6 
#
# 1 78.0008 19.8408 31.4028 -13.7129 8.1186 8.8557
# 2 19.8408 59.9033 20.9500 -1.1567 6.8626 21.0213
# 3 31.4028 20.9500 91.1604 -8.3196 13.6518 10.5336
# 4 -13.7129 -1.1567 -8.3196 30.6699 0.6227 1.1298
# 5 8.1186 6.8626 13.6518 0.6227 42.6195 -0.6324
# 6 8.8557 21.0213 10.5336 1.1298 -0.6324 19.6006
#
#
#
# Elastic Compliance Matrix: (Units=1/GPa)
#
#
# Indices 1 2 3 4 5 6 
#
# 1 0.016764 -0.002887 -0.003964 0.006446 -0.001594 -0.002771
# 2 -0.002887 0.028832 -0.001649 0.000495 -0.004000 -0.028889
# 3 -0.003964 -0.001649 0.013922 0.002167 -0.003532 -0.004161
# 4 0.006446 0.000495 0.002167 0.036397 -0.002634 -0.006790
# 5 -0.001594 -0.004000 -0.003532 -0.002634 0.025698 0.007890
# 6 -0.002771 -0.028889 -0.004161 -0.006790 0.007890 0.086135
#
#
# Mechanical properties :
#
#
# Convention : Reuss Voigt Hill
#
# Bulk Modulus (GPa) = 23.51988 41.49465 32.50727
# Shear Modulus (GPa) = 20.92734 29.03606 24.98170
#
# Velocity S-wave (km/s) = 3.07990 3.62785 3.36505
# Velocity P-wave (km/s) = 4.82791 6.02966 5.46194
#
# Compressibility (1/GPa) = 0.04251722
#
# Stress axis : x y z
#
# Youngs Moduli (GPa) = 59.65014 34.68379 71.82977
#
# Poissons Ratio (x) = 0.10012 0.28476
# Poissons Ratio (y) = 0.17219 0.11847
# Poissons Ratio (z) = 0.23648 0.05720
#
# Static dielectric constant tensor:
#      x y z
#    x 1.802820 0.033140 0.025880 
#    y 0.033140 1.843710 -0.013770 
#    z 0.025880 -0.013770 1.799080 
# 
# From -- ./inp_files/185126.got.cif
#   From: 2010.05.17/outbox.cif.g08.bks.cpg/sg2_93_cif.got.tgz:185126.got - 2010.06.03 11:33:40.
