data_PCOD9058893
_publ_section_title
;
Structure prediction by ZEFSAII (Michael W. Deem and Ramdas Pophale) SiO2 
 PCOD9058893
Probable space group: P -1
;
_chemical_formula_sum "Si O2"
_cell_formula_units_Z 16
_cell_length_a 13.415568
_cell_length_b 8.680231
_cell_length_c 5.270714
_cell_angle_alpha 95.280596
_cell_angle_beta 105.013547
_cell_angle_gamma 98.583943
_cell_volume 580.668724
_symmetry_space_group_name_H-M "P -1"
_symmetry_group_IT_number 2
_symmetry_cell_setting 'triclinic'
loop_
_space_group_symop_operation_xyz
x,y,z
-x,-y,-z
loop_
_atom_site_type_symbol
_atom_site_label
_atom_site_fract_x
_atom_site_fract_y
_atom_site_fract_z
Si Si1 0.567866 0.483826 0.793934
Si Si2 0.560471 0.914815 0.831420
Si Si3 0.074418 0.078654 0.291725
Si Si4 0.790744 0.628854 0.104683
Si Si5 0.888422 0.558979 0.647041
Si Si6 0.138781 0.782529 0.546328
Si Si7 0.786522 0.949403 0.039267
Si Si8 0.635942 0.199948 0.576172
O O1 0.500000 0.500000 0.500000
O O2 0.619371 0.325252 0.798458
O O3 0.500000 0.500000 0.000000
O O4 0.675546 0.608434 0.905741
O O5 0.464693 0.783602 0.661177
O O6 0.606559 0.025271 0.643419
O O7 0.667412 0.905119 0.039807
O O8 0.500000 0.000000 0.000000
O O9 0.052583 0.258906 0.320920
O O10 0.078291 0.923150 0.441561
O O11 0.190034 0.097898 0.237934
O O12 0.000000 0.000000 0.000000
O O13 0.796329 0.553037 0.372281
O O14 0.835889 0.815354 0.200851
O O15 0.856428 0.556582 0.921559
O O16 0.923951 0.393245 0.578525
O O17 0.249999 0.779690 0.472190
O O18 0.177661 0.864915 0.854999
#
# Coordination Sequence:
#
# PCOD9058893 Si02
#       8
#     2   2   2   2   2   2   2   2
#     4  12  27  41  63  99 147 201 252 309 362 436
#     4  11  23  38  65  99 142 192 249 303 359 445
#     4  11  27  53  77 110 150 194 253 319 393 468
#     4  11  24  45  69 102 151 194 251 305 374 450
#     4  11  26  47  77 111 144 196 249 312 387 461
#     4  12  24  46  77 108 150 197 251 315 384 452
#     4  11  24  43  75 101 147 199 244 310 382 440
#     4  11  25  40  63 103 144 198 259 301 368 445
#
# _framework density 27.554438999999999
#
# number of rings (size 3 to 8) (size 9 to 14) (size 15 to 20)
#    0.000    0.750    5.000    1.500    7.000    2.000 
#    0.000    0.625    0.000    0.000    0.000    0.000 
#    0.000    0.000    0.000    0.000    0.000    0.000 
#
# Total GULP energy -89202.238311 kJ/mol
# GULP energy per Si atom -5575.139894 kJ/mol
# Density = 2.749172 g / cm^3
# Si number density = 27.554439 Si / 1000 Ang^3
#
#
#
# Elastic Constant Matrix: (Units=GPa)
#
#
# Indices 1 2 3 4 5 6 
#
# 1 123.8084 55.5519 19.7700 29.9099 -7.0275 -16.2683
# 2 55.5519 185.7934 44.7547 51.8279 -10.0475 -23.7149
# 3 19.7700 44.7547 86.3576 18.0534 -3.4758 -10.0283
# 4 29.9099 51.8279 18.0534 54.3921 -8.0352 -17.2128
# 5 -7.0275 -10.0475 -3.4758 -8.0352 48.0193 12.9667
# 6 -16.2683 -23.7149 -10.0283 -17.2128 12.9667 40.7135
#
#
#
# Elastic Compliance Matrix: (Units=1/GPa)
#
#
# Indices 1 2 3 4 5 6 
#
# 1 0.009905 -0.001779 -0.000525 -0.003103 0.000132 0.001439
# 2 -0.001779 0.008257 -0.002556 -0.005704 0.000046 0.001043
# 3 -0.000525 -0.002556 0.013439 -0.001425 -0.000164 0.001061
# 4 -0.003103 -0.005704 -0.001425 0.028284 0.001181 0.006668
# 5 0.000132 0.000046 -0.000164 0.001181 0.022860 -0.006742
# 6 0.001439 0.001043 0.001061 0.006668 -0.006742 0.030972
#
#
# Mechanical properties :
#
#
# Convention : Reuss Voigt Hill
#
# Bulk Modulus (GPa) = 45.70159 70.67918 58.19039
# Shear Modulus (GPa) = 38.24651 47.01717 42.63184
#
# Velocity S-wave (km/s) = 3.72968 4.13527 3.93770
# Velocity P-wave (km/s) = 5.93037 6.96470 6.46824
#
# Compressibility (1/GPa) = 0.02188108
#
# Stress axis : x y z
#
# Youngs Moduli (GPa) = 100.95846 121.11296 74.40918
#
# Poissons Ratio (x) = 0.21545 0.03904
# Poissons Ratio (y) = 0.17960 0.19022
# Poissons Ratio (z) = 0.05297 0.30961
#
# Static dielectric constant tensor:
#      x y z
#    x 2.144390 -1.365910 -0.780410 
#    y -1.365910 -4.513560 -4.656930 
#    z -0.780410 -4.656930 -0.723710 
# 
# From -- ./inp_files/39691.got.cif
#   From: 2010.05.17/outbox.cif.g08.bks.cpg/sg2_20_cif.got.tgz:39691.got - 2010.06.03 11:33:40.
