data_PCOD9058236
_publ_section_title
;
Structure prediction by ZEFSAII (Michael W. Deem and Ramdas Pophale) SiO2 
 PCOD9058236
Probable space group: P -1
;
_chemical_formula_sum "Si O2"
_cell_formula_units_Z 16
_cell_length_a 16.924589
_cell_length_b 11.422771
_cell_length_c 9.124000
_cell_angle_alpha 127.152403
_cell_angle_beta 48.495276
_cell_angle_gamma 146.834720
_cell_volume 717.423462
_symmetry_space_group_name_H-M "P -1"
_symmetry_group_IT_number 2
_symmetry_cell_setting 'triclinic'
loop_
_space_group_symop_operation_xyz
x,y,z
-x,-y,-z
loop_
_atom_site_type_symbol
_atom_site_label
_atom_site_fract_x
_atom_site_fract_y
_atom_site_fract_z
Si Si1 0.313415 0.874884 0.763374
Si Si2 0.661066 0.683293 0.352494
Si Si3 0.177937 0.995671 0.839105
Si Si4 0.831580 0.586317 0.913210
Si Si5 0.872393 0.362456 0.920258
Si Si6 0.352814 0.647882 0.335340
Si Si7 0.796739 0.782622 0.748413
Si Si8 0.889384 0.059299 0.585809
O O1 0.299011 0.704709 0.570244
O O2 0.203689 0.874099 0.807704
O O3 0.479136 0.120646 0.734090
O O4 0.279313 0.814605 0.929075
O O5 0.500000 0.500000 0.500000
O O6 0.681743 0.830765 0.314591
O O7 0.788997 0.866029 0.448993
O O8 0.723733 0.599977 0.133186
O O9 0.177535 0.128145 0.055134
O O10 0.008278 0.818370 0.841284
O O11 0.853129 0.480213 0.926959
O O12 0.753286 0.457164 0.759579
O O13 0.895659 0.240019 0.703331
O O14 0.000000 0.500000 0.000000
O O15 0.348088 0.474386 0.265185
O O16 0.937303 0.824985 0.550754
O O17 0.806045 0.932118 0.744957
#
# Coordination Sequence:
#
# PCOD9058236 Si02
#       8
#     2   2   2   2   2   2   2   2
#     4  11  27  46  70 104 145 190 238 294 360 433
#     4  12  29  45  71 110 146 183 236 304 366 420
#     4  12  24  48  74 105 143 188 248 295 351 436
#     4  12  26  48  77 104 144 193 240 298 357 433
#     4  12  25  46  71 105 145 186 240 291 359 424
#     4  11  27  45  70 103 142 192 237 295 361 429
#     4  11  22  44  75  98 141 187 239 294 355 425
#     4  11  25  42  69 109 138 185 238 296 353 427
#
# _framework density 22.302030999999999
#
# number of rings (size 3 to 8) (size 9 to 14) (size 15 to 20)
#    0.000    0.500    5.000    1.875    8.750    2.500 
#    0.000    0.000    0.000    0.000    0.000    0.000 
#    0.000    0.000    0.000    0.000    0.000    0.000 
#
# Total GULP energy -89438.049902 kJ/mol
# GULP energy per Si atom -5589.878119 kJ/mol
# Density = 2.225127 g / cm^3
# Si number density = 22.302031 Si / 1000 Ang^3
#
#
#
# Elastic Constant Matrix: (Units=GPa)
#
#
# Indices 1 2 3 4 5 6 
#
# 1 42.0569 7.0547 -14.0588 -8.2392 7.2461 -7.6933
# 2 7.0547 102.9987 19.0274 -6.1829 3.4537 0.9620
# 3 -14.0588 19.0274 61.3701 -5.9332 3.9060 10.6303
# 4 -8.2392 -6.1829 -5.9332 39.6702 -6.9061 17.2274
# 5 7.2461 3.4537 3.9060 -6.9061 31.8420 3.1260
# 6 -7.6933 0.9620 10.6303 17.2274 3.1260 36.1120
#
#
#
# Elastic Compliance Matrix: (Units=1/GPa)
#
#
# Indices 1 2 3 4 5 6 
#
# 1 0.029505 -0.003049 0.008191 0.004752 -0.006579 0.002258
# 2 -0.003049 0.010675 -0.003974 0.000453 0.000121 0.000009
# 3 0.008191 -0.003974 0.021604 0.007459 -0.001688 -0.007921
# 4 0.004752 0.000453 0.007459 0.037322 0.007982 -0.019691
# 5 -0.006579 0.000121 -0.001688 0.007982 0.035593 -0.007797
# 6 0.002258 0.000009 -0.007921 -0.019691 -0.007797 0.040573
#
#
# Mechanical properties :
#
#
# Convention : Reuss Voigt Hill
#
# Bulk Modulus (GPa) = 15.59577 25.60801 20.60189
# Shear Modulus (GPa) = 25.73248 34.48499 30.10873
#
# Velocity S-wave (km/s) = 3.40047 3.93653 3.67828
# Velocity P-wave (km/s) = 4.73559 5.67177 5.22469
#
# Compressibility (1/GPa) = 0.06411994
#
# Stress axis : x y z
#
# Youngs Moduli (GPa) = 33.89298 93.67806 46.28846
#
# Poissons Ratio (x) = 0.28566 -0.37917
# Poissons Ratio (y) = 0.10335 0.18393
# Poissons Ratio (z) = -0.27763 0.37225
#
# Static dielectric constant tensor:
#      x y z
#    x 1.844270 -0.010960 0.003580 
#    y -0.010960 1.859030 -0.043320 
#    z 0.003580 -0.043320 1.831610 
# 
# From -- ./inp_files/316036.got.cif
#   From: 2010.05.17/outbox.cif.g08.bks.cpg/sg2_159_cif.got.tgz:316036.got - 2010.06.03 11:33:40.
