data_PCOD9058407
_publ_section_title
;
Structure prediction by ZEFSAII (Michael W. Deem and Ramdas Pophale) SiO2 
 PCOD9058407
Probable space group: P -1
;
_chemical_formula_sum "Si O2"
_cell_formula_units_Z 16
_cell_length_a 16.052196
_cell_length_b 6.519262
_cell_length_c 13.911914
_cell_angle_alpha 105.617283
_cell_angle_beta 29.932601
_cell_angle_gamma 101.180968
_cell_volume 697.272702
_symmetry_space_group_name_H-M "P -1"
_symmetry_group_IT_number 2
_symmetry_cell_setting 'triclinic'
loop_
_space_group_symop_operation_xyz
x,y,z
-x,-y,-z
loop_
_atom_site_type_symbol
_atom_site_label
_atom_site_fract_x
_atom_site_fract_y
_atom_site_fract_z
Si Si1 0.164812 0.462631 0.983367
Si Si2 0.740441 0.881728 0.490457
Si Si3 0.139550 0.792893 0.326979
Si Si4 0.776189 0.649856 0.883314
Si Si5 0.098805 0.896572 0.183494
Si Si6 0.537592 0.125655 0.879740
Si Si7 0.886628 0.151306 0.204518
Si Si8 0.679771 0.511332 0.364462
O O1 0.218808 0.398630 0.814527
O O2 0.272403 0.403743 0.964317
O O3 0.146620 0.721302 0.032795
O O4 0.996659 0.344254 0.152018
O O5 0.691786 0.668474 0.461391
O O6 0.905665 0.850512 0.388491
O O7 0.587154 0.979560 0.719365
O O8 0.808115 0.030820 0.356854
O O9 0.106743 0.545395 0.306444
O O10 0.213371 0.841641 0.154403
O O11 0.283730 0.782880 0.261094
O O12 0.000000 0.000000 0.500000
O O13 0.878122 0.857639 0.821398
O O14 0.616208 0.711362 0.982238
O O15 0.500000 0.000000 0.000000
O O16 0.742400 0.274162 0.302535
O O17 0.000000 0.000000 0.000000
O O18 0.500000 0.500000 0.500000
#
# Coordination Sequence:
#
# PCOD9058407 Si02
#       8
#     2   2   2   2   2   2   2   2
#     4  11  24  44  75 106 151 194 247 306 381 443
#     4  12  26  46  75 111 147 197 259 300 372 453
#     4  11  24  48  72 107 145 194 252 309 371 444
#     4  11  26  44  77 110 143 199 246 313 380 448
#     4  11  22  45  72 110 141 193 254 305 363 449
#     4  12  27  50  73 107 159 198 247 316 378 442
#     4  12  24  46  76 103 144 198 252 308 368 444
#     4  12  29  45  70 112 155 194 242 315 377 445
#
# _framework density 22.946546000000001
#
# number of rings (size 3 to 8) (size 9 to 14) (size 15 to 20)
#    0.000    0.500    6.250    1.500    3.500    1.000 
#    2.250    0.000    0.000    0.000    0.000    0.000 
#    0.000    0.000    0.000    0.000    0.000    0.000 
#
# Total GULP energy -89180.396946 kJ/mol
# GULP energy per Si atom -5573.774809 kJ/mol
# Density = 2.289432 g / cm^3
# Si number density = 22.946546 Si / 1000 Ang^3
#
#
#
# Elastic Constant Matrix: (Units=GPa)
#
#
# Indices 1 2 3 4 5 6 
#
# 1 116.8650 24.0204 38.1538 31.5097 -11.2323 -2.8043
# 2 24.0204 108.0874 45.1793 38.2665 4.3265 20.8769
# 3 38.1538 45.1793 95.3118 25.2598 13.2165 -0.8728
# 4 31.5097 38.2665 25.2598 34.2795 -2.4490 6.2113
# 5 -11.2323 4.3265 13.2165 -2.4490 49.8239 3.5344
# 6 -2.8043 20.8769 -0.8728 6.2113 3.5344 43.2187
#
#
#
# Elastic Compliance Matrix: (Units=1/GPa)
#
#
# Indices 1 2 3 4 5 6 
#
# 1 0.012698 0.002561 -0.003542 -0.011889 0.002926 0.000985
# 2 0.002561 0.018364 -0.004976 -0.018075 -0.000146 -0.006196
# 3 -0.003542 -0.004976 0.016072 -0.004027 -0.005075 0.003492
# 4 -0.011889 -0.018075 -0.004027 0.063754 0.003201 -0.001546
# 5 0.002926 -0.000146 -0.005075 0.003201 0.022398 -0.002134
# 6 0.000985 -0.006196 0.003492 -0.001546 -0.002134 0.026662
#
#
# Mechanical properties :
#
#
# Convention : Reuss Voigt Hill
#
# Bulk Modulus (GPa) = 28.39459 59.44123 43.91791
# Shear Modulus (GPa) = 27.23259 39.65845 33.44552
#
# Velocity S-wave (km/s) = 3.44871 4.16179 3.82192
# Velocity P-wave (km/s) = 5.31594 7.00389 6.21746
#
# Compressibility (1/GPa) = 0.03521797
#
# Stress axis : x y z
#
# Youngs Moduli (GPa) = 78.75534 54.45305 62.22069
#
# Poissons Ratio (x) = -0.13944 0.22042
# Poissons Ratio (y) = -0.20168 0.30962
# Poissons Ratio (z) = 0.27899 0.27097
#
# Static dielectric constant tensor:
#      x y z
#    x 1.895050 -0.018150 0.000700 
#    y -0.018150 1.930740 0.015270 
#    z 0.000700 0.015270 1.900120 
# 
# From -- ./inp_files/536391.got.cif
#   From: 2010.05.17/outbox.cif.g08.bks.cpg/sg2_269_cif.got.tgz:536391.got - 2010.06.03 11:33:40.
