data_PCOD9058119
_publ_section_title
;
Structure prediction by ZEFSAII (Michael W. Deem and Ramdas Pophale) SiO2 
 PCOD9058119
Probable space group: P -1
;
_chemical_formula_sum "Si O2"
_cell_formula_units_Z 16
_cell_length_a 9.255344
_cell_length_b 8.271311
_cell_length_c 17.883570
_cell_angle_alpha 40.837490
_cell_angle_beta 92.142041
_cell_angle_gamma 113.227051
_cell_volume 741.038652
_symmetry_space_group_name_H-M "P -1"
_symmetry_group_IT_number 2
_symmetry_cell_setting 'triclinic'
loop_
_space_group_symop_operation_xyz
x,y,z
-x,-y,-z
loop_
_atom_site_type_symbol
_atom_site_label
_atom_site_fract_x
_atom_site_fract_y
_atom_site_fract_z
Si Si1 0.101412 0.101057 0.887881
Si Si2 0.018185 0.305368 0.374809
Si Si3 0.636746 0.133597 0.742313
Si Si4 0.964432 0.139123 0.269929
Si Si5 0.252880 0.836403 0.880254
Si Si6 0.687042 0.314478 0.389814
Si Si7 0.799173 0.790853 0.873805
Si Si8 0.666824 0.495564 0.486980
O O1 0.256669 0.452800 0.759581
O O2 0.178599 0.914789 0.922992
O O3 0.954227 0.027081 0.849249
O O4 0.000000 0.000000 0.000000
O O5 0.019741 0.344487 0.271211
O O6 0.843273 0.268297 0.413989
O O7 0.194510 0.584855 0.314402
O O8 0.000000 0.000000 0.500000
O O9 0.647041 0.217917 0.625882
O O10 0.457984 0.078680 0.788368
O O11 0.650216 0.853160 0.852220
O O12 0.859081 0.186385 0.186574
O O13 0.123237 0.155429 0.226675
O O14 0.831343 0.802722 0.412864
O O15 0.238719 0.527978 0.994585
O O16 0.691355 0.488738 0.402137
O O17 0.500000 0.000000 0.500000
O O18 0.500000 0.500000 0.500000
#
# Coordination Sequence:
#
# PCOD9058119 Si02
#       8
#     2   2   2   2   2   2   2   2
#     4  11  24  46  73 103 144 192 243 297 352 432
#     4  12  27  42  68 107 150 178 228 301 372 420
#     4  12  25  44  71 108 146 178 234 303 364 418
#     4  11  22  44  71  96 135 191 235 278 352 432
#     4  11  25  46  75  98 138 195 246 285 353 439
#     4  12  27  44  71 111 144 184 246 292 358 437
#     4  11  25  44  69 101 137 188 244 289 358 423
#     4  12  22  44  72 101 138 187 231 290 355 432
#
# _framework density 21.591315999999999
#
# number of rings (size 3 to 8) (size 9 to 14) (size 15 to 20)
#    0.000    0.500    6.250    2.625    7.000    1.000 
#    0.000    3.750    0.000    0.000    0.000    0.000 
#    0.000    0.000    0.000    0.000    0.000    0.000 
#
# Total GULP energy -89431.462659 kJ/mol
# GULP energy per Si atom -5589.466416 kJ/mol
# Density = 2.154217 g / cm^3
# Si number density = 21.591316 Si / 1000 Ang^3
#
#
#
# Elastic Constant Matrix: (Units=GPa)
#
#
# Indices 1 2 3 4 5 6 
#
# 1 153.7879 43.3596 50.2046 7.2494 -5.1526 -14.7287
# 2 43.3596 67.4548 40.1737 8.6769 -13.6973 -2.0625
# 3 50.2046 40.1737 125.8085 -7.5645 -1.9643 -8.0704
# 4 7.2494 8.6769 -7.5645 38.2761 -8.9741 -11.6046
# 5 -5.1526 -13.6973 -1.9643 -8.9741 48.0490 -7.1309
# 6 -14.7287 -2.0625 -8.0704 -11.6046 -7.1309 27.1864
#
#
#
# Elastic Compliance Matrix: (Units=1/GPa)
#
#
# Indices 1 2 3 4 5 6 
#
# 1 0.008708 -0.004388 -0.001794 0.000276 0.000261 0.004038
# 2 -0.004388 0.022677 -0.006010 -0.005676 0.004127 -0.003781
# 3 -0.001794 -0.006010 0.011163 0.005195 0.000135 0.004139
# 4 0.000276 -0.005676 0.005195 0.035977 0.008126 0.018749
# 5 0.000261 0.004127 0.000135 0.008126 0.025105 0.010548
# 6 0.004038 -0.003781 0.004139 0.018749 0.010548 0.050683
#
#
# Mechanical properties :
#
#
# Convention : Reuss Voigt Hill
#
# Bulk Modulus (GPa) = 55.05097 68.28079 61.66588
# Shear Modulus (GPa) = 27.06346 36.92319 31.99332
#
# Velocity S-wave (km/s) = 3.54424 4.13981 3.85355
# Velocity P-wave (km/s) = 6.50392 7.38536 6.95861
#
# Compressibility (1/GPa) = 0.01816498
#
# Stress axis : x y z
#
# Youngs Moduli (GPa) = 114.84004 44.09736 89.57788
#
# Poissons Ratio (x) = 0.19350 0.16069
# Poissons Ratio (y) = 0.50393 0.53833
# Poissons Ratio (z) = 0.20601 0.26501
#
# Static dielectric constant tensor:
#      x y z
#    x 1.760410 0.003900 0.011790 
#    y 0.003900 1.775570 -0.027650 
#    z 0.011790 -0.027650 1.863170 
# 
# From -- ./inp_files/296133.got.cif
#   From: 2010.05.17/outbox.cif.g08.bks.cpg/sg2_149_cif.got.tgz:296133.got - 2010.06.03 11:33:40.
