data_PCOD9058485
_publ_section_title
;
Structure prediction by ZEFSAII (Michael W. Deem and Ramdas Pophale) SiO2 
 PCOD9058485
Probable space group: P -1
;
_chemical_formula_sum "Si O2"
_cell_formula_units_Z 16
_cell_length_a 8.086717
_cell_length_b 24.252533
_cell_length_c 9.439115
_cell_angle_alpha 29.738874
_cell_angle_beta 108.190777
_cell_angle_gamma 116.601260
_cell_volume 808.747329
_symmetry_space_group_name_H-M "P -1"
_symmetry_group_IT_number 2
_symmetry_cell_setting 'triclinic'
loop_
_space_group_symop_operation_xyz
x,y,z
-x,-y,-z
loop_
_atom_site_type_symbol
_atom_site_label
_atom_site_fract_x
_atom_site_fract_y
_atom_site_fract_z
Si Si1 0.969310 0.033980 0.258005
Si Si2 0.831172 0.013378 0.834113
Si Si3 0.400091 0.092822 0.748720
Si Si4 0.002991 0.281773 0.314810
Si Si5 0.410991 0.329895 0.232330
Si Si6 0.895060 0.692489 0.383322
Si Si7 0.947006 0.476332 0.375258
Si Si8 0.487303 0.587201 0.603176
O O1 0.770848 0.961009 0.289259
O O2 0.000000 0.000000 0.500000
O O3 0.129569 0.011977 0.256989
O O4 0.001888 0.172899 0.943467
O O5 0.841969 0.149072 0.554240
O O6 0.662804 0.910540 0.095441
O O7 0.000000 0.000000 0.000000
O O8 0.497058 0.232828 0.427105
O O9 0.500000 0.000000 0.000000
O O10 0.184640 0.267802 0.318955
O O11 0.046608 0.310744 0.428347
O O12 0.991993 0.397433 0.975861
O O13 0.466057 0.375041 0.305417
O O14 0.466383 0.448615 0.889365
O O15 0.670267 0.661505 0.395226
O O16 0.958388 0.604041 0.502074
O O17 0.720209 0.412701 0.465742
O O18 0.000000 0.500000 0.500000
#
# Coordination Sequence:
#
# PCOD9058485 Si02
#       8
#     2   2   2   2   2   2   2   2
#     4  11  24  41  65  93 125 175 211 259 328 383
#     4  10  17  37  61  87 116 165 213 247 303 385
#     4  11  22  36  62  97 126 162 215 266 308 379
#     4  10  18  38  64  87 118 162 214 252 303 373
#     4   9  17  35  62  88 121 156 208 260 304 363
#     4  11  22  42  66  90 123 166 217 259 310 385
#     4  11  26  39  60  95 130 165 203 265 326 375
#     4   9  21  38  62  90 119 166 206 259 313 370
#
# _framework density 19.783681999999999
#
# number of rings (size 3 to 8) (size 9 to 14) (size 15 to 20)
#    0.000    1.750    5.000    1.875    3.500    1.500 
#    0.000    1.875    0.000    0.000    0.000    0.000 
#    0.000    0.000    0.000    0.000    0.000    0.000 
#
# Total GULP energy -89118.074198 kJ/mol
# GULP energy per Si atom -5569.879637 kJ/mol
# Density = 1.973865 g / cm^3
# Si number density = 19.783682 Si / 1000 Ang^3
#
#
#
# Elastic Constant Matrix: (Units=GPa)
#
#
# Indices 1 2 3 4 5 6 
#
# 1 52.3161 24.3963 14.1146 1.6571 14.1450 -13.9221
# 2 24.3963 64.8708 51.8906 8.1141 3.0811 -18.0567
# 3 14.1146 51.8906 97.5457 -2.2971 -0.5915 -12.8505
# 4 1.6571 8.1141 -2.2971 40.7553 -10.4279 -1.7185
# 5 14.1450 3.0811 -0.5915 -10.4279 17.7815 -6.0210
# 6 -13.9221 -18.0567 -12.8505 -1.7185 -6.0210 31.5902
#
#
#
# Elastic Compliance Matrix: (Units=1/GPa)
#
#
# Indices 1 2 3 4 5 6 
#
# 1 0.031312 -0.009371 0.000632 -0.005727 -0.025423 0.003543
# 2 -0.009371 0.035707 -0.016633 -0.007441 -0.000604 0.008994
# 3 0.000632 -0.016633 0.019216 0.006077 0.006645 0.000185
# 4 -0.005727 -0.007441 0.006077 0.033500 0.026567 0.002581
# 5 -0.025423 -0.000604 0.006645 0.026567 0.096061 0.010908
# 6 0.003543 0.008994 0.000185 0.002581 0.010908 0.040653
#
#
# Mechanical properties :
#
#
# Convention : Reuss Voigt Hill
#
# Bulk Modulus (GPa) = 28.17606 43.94842 36.06224
# Shear Modulus (GPa) = 15.67284 26.31413 20.99348
#
# Velocity S-wave (km/s) = 2.81768 3.65100 3.26107
# Velocity P-wave (km/s) = 4.98585 6.32738 5.69625
#
# Compressibility (1/GPa) = 0.03549112
#
# Stress axis : x y z
#
# Youngs Moduli (GPa) = 31.93661 28.00560 52.03994
#
# Poissons Ratio (x) = 0.26245 -0.03290
# Poissons Ratio (y) = 0.29929 0.86557
# Poissons Ratio (z) = -0.02019 0.46581
#
# Static dielectric constant tensor:
#      x y z
#    x 1.750260 0.018790 0.044390 
#    y 0.018790 1.694680 -0.039100 
#    z 0.044390 -0.039100 1.685330 
# 
# From -- ./inp_files/225183.got.cif
#   From: 2010.05.17/outbox.cif.g08.bks.cpg/sg2_113_cif.got.tgz:225183.got - 2010.06.03 11:33:40.
