data_PCOD9058532
_publ_section_title
;
Structure prediction by ZEFSAII (Michael W. Deem and Ramdas Pophale) SiO2 
 PCOD9058532
Probable space group: P -1
;
_chemical_formula_sum "Si O2"
_cell_formula_units_Z 16
_cell_length_a 12.847199
_cell_length_b 9.505056
_cell_length_c 12.655393
_cell_angle_alpha 88.132638
_cell_angle_beta 32.695761
_cell_angle_gamma 109.010304
_cell_volume 631.080289
_symmetry_space_group_name_H-M "P -1"
_symmetry_group_IT_number 2
_symmetry_cell_setting 'triclinic'
loop_
_space_group_symop_operation_xyz
x,y,z
-x,-y,-z
loop_
_atom_site_type_symbol
_atom_site_label
_atom_site_fract_x
_atom_site_fract_y
_atom_site_fract_z
Si Si1 0.527315 0.677333 0.437832
Si Si2 0.027094 0.501479 0.101017
Si Si3 0.140241 0.808771 0.117862
Si Si4 0.740427 0.793862 0.702896
Si Si5 0.540797 0.157498 0.891679
Si Si6 0.221613 0.282283 0.982568
Si Si7 0.783056 0.515836 0.604870
Si Si8 0.235013 0.127500 0.563487
O O1 0.500000 0.500000 0.500000
O O2 0.264875 0.608680 0.610947
O O3 0.742946 0.774024 0.161116
O O4 0.584007 0.798048 0.490841
O O5 0.193858 0.712638 0.992813
O O6 0.000000 0.500000 0.000000
O O7 0.146712 0.410018 0.031546
O O8 0.022049 0.670714 0.323060
O O9 0.911404 0.799335 0.280185
O O10 0.364831 0.023168 0.948268
O O11 0.551817 0.764991 0.951222
O O12 0.780912 0.647036 0.683466
O O13 0.677489 0.800749 0.633799
O O14 0.000000 0.000000 0.500000
O O15 0.787734 0.351692 0.630413
O O16 0.500000 0.000000 0.000000
O O17 0.499855 0.399880 0.795709
O O18 0.983523 0.095487 0.248516
#
# Coordination Sequence:
#
# PCOD9058532 Si02
#       8
#     2   2   2   2   2   2   2   2
#     4  12  22  44  69  99 143 186 230 292 359 415
#     4  12  26  41  70 105 139 189 240 287 354 428
#     4  11  23  47  68  99 146 183 234 295 352 425
#     4  11  22  46  69  98 135 182 237 287 349 421
#     4  12  27  44  70 107 139 186 238 296 357 423
#     4  12  24  44  72 105 138 189 235 287 364 425
#     4  11  23  46  75  97 140 191 232 289 366 421
#     4  11  23  42  74  97 139 187 232 297 353 424
#
# _framework density 25.353352000000001
#
# number of rings (size 3 to 8) (size 9 to 14) (size 15 to 20)
#    0.000    0.500    7.500    1.500    1.750    2.000 
#    0.000    0.000    0.000    0.000    0.000    0.000 
#    0.000    0.000    0.000    0.000    0.000    0.000 
#
# Total GULP energy -89443.202682 kJ/mol
# GULP energy per Si atom -5590.200168 kJ/mol
# Density = 2.529565 g / cm^3
# Si number density = 25.353352 Si / 1000 Ang^3
#
#
#
# Elastic Constant Matrix: (Units=GPa)
#
#
# Indices 1 2 3 4 5 6 
#
# 1 75.2705 51.4725 17.3585 -5.1437 -11.9863 -2.2115
# 2 51.4725 180.4299 45.6448 -14.8452 8.2122 15.5352
# 3 17.3585 45.6448 80.1830 -23.4846 0.1319 3.4244
# 4 -5.1437 -14.8452 -23.4846 59.9340 2.5608 1.4660
# 5 -11.9863 8.2122 0.1319 2.5608 41.6488 -8.7637
# 6 -2.2115 15.5352 3.4244 1.4660 -8.7637 43.3141
#
#
#
# Elastic Compliance Matrix: (Units=1/GPa)
#
#
# Indices 1 2 3 4 5 6 
#
# 1 0.018910 -0.005921 -0.001155 -0.000740 0.007659 0.004755
# 2 -0.005921 0.008656 -0.003281 0.000632 -0.004289 -0.004037
# 3 -0.001155 -0.003281 0.016203 0.005453 -0.000152 -0.000378
# 4 -0.000740 0.000632 0.005453 0.019038 -0.001888 -0.001722
# 5 0.007659 -0.004289 -0.000152 -0.001888 0.028826 0.007838
# 6 0.004755 -0.004037 -0.000378 -0.001722 0.007838 0.026452
#
#
# Mechanical properties :
#
#
# Convention : Reuss Voigt Hill
#
# Bulk Modulus (GPa) = 43.37759 62.75946 53.06852
# Shear Modulus (GPa) = 34.13324 43.73990 38.93657
#
# Velocity S-wave (km/s) = 3.67318 4.15807 3.92312
# Velocity P-wave (km/s) = 5.92756 6.91812 6.44191
#
# Compressibility (1/GPa) = 0.02305338
#
# Stress axis : x y z
#
# Youngs Moduli (GPa) = 52.88244 115.52184 61.71719
#
# Poissons Ratio (x) = 0.68403 0.07131
# Poissons Ratio (y) = 0.31313 0.20251
# Poissons Ratio (z) = 0.06110 0.37905
#
# Static dielectric constant tensor:
#      x y z
#    x 2.225090 0.002410 0.032360 
#    y 0.002410 2.036550 0.043810 
#    z 0.032360 0.043810 2.168680 
# 
# From -- ./inp_files/529764.got.cif
#   From: 2010.05.17/outbox.cif.g08.bks.cpg/sg2_265_cif.got.tgz:529764.got - 2010.06.03 11:33:40.
