data_PCOD9058002
_publ_section_title
;
Structure prediction by ZEFSAII (Michael W. Deem and Ramdas Pophale) SiO2 
 PCOD9058002
Probable space group: P -1
;
_chemical_formula_sum "Si O2"
_cell_formula_units_Z 15
_cell_length_a 9.453250
_cell_length_b 8.444422
_cell_length_c 14.729160
_cell_angle_alpha 54.608507
_cell_angle_beta 76.307096
_cell_angle_gamma 114.317227
_cell_volume 671.392713
_symmetry_space_group_name_H-M "P -1"
_symmetry_group_IT_number 2
_symmetry_cell_setting 'triclinic'
loop_
_space_group_symop_operation_xyz
x,y,z
-x,-y,-z
loop_
_atom_site_type_symbol
_atom_site_label
_atom_site_fract_x
_atom_site_fract_y
_atom_site_fract_z
Si Si1 0.983783 0.206613 0.151983
Si Si2 0.286189 0.404800 0.557795
Si Si3 0.369980 0.106264 0.335680
Si Si4 0.164699 0.535676 0.844365
Si Si5 0.380689 0.496714 0.100531
Si Si6 0.500000 0.000000 0.000000
Si Si7 0.293802 0.737258 0.303551
Si Si8 0.887203 0.425042 0.358140
O O1 0.840626 0.259096 0.173751
O O2 0.184739 0.414149 0.112920
O O3 0.880963 0.912635 0.293991
O O4 0.053804 0.284006 0.011366
O O5 0.500000 0.500000 0.500000
O O6 0.268241 0.506897 0.433201
O O7 0.258502 0.542739 0.592920
O O8 0.605351 0.313230 0.256255
O O9 0.317834 0.273371 0.255796
O O10 0.339501 0.936666 0.309013
O O11 0.231631 0.887243 0.508233
O O12 0.055577 0.469910 0.787439
O O13 0.507009 0.780807 0.034651
O O14 0.500000 0.500000 0.000000
O O15 0.456171 0.884887 0.150208
O O16 0.083895 0.599067 0.332935
#
# Coordination Sequence:
#
# PCOD9058002 Si02
#       8
#     2   2   2   2   2   1   2   2
#     4  11  23  44  67  97 140 183 228 289 358 412
#     4  11  25  43  67  99 140 182 229 294 351 411
#     4  11  22  44  68  94 138 188 225 283 358 413
#     4  11  24  41  66  98 136 182 231 284 352 417
#     4  12  23  43  70 101 137 184 230 290 349 413
#     4  12  26  40  72 106 138 172 248 286 342 424
#     4  11  23  44  67  99 135 182 233 286 346 420
#     4  11  24  41  68  99 134 181 234 282 346 423
#
# _framework density 22.341619999999999
#
# number of rings (size 3 to 8) (size 9 to 14) (size 15 to 20)
#    0.000    0.800    2.667    6.000    0.000    5.867 
#    0.000    2.667    0.000    0.000    0.000    0.000 
#    0.000    0.000    0.000    0.000    0.000    0.000 
#
# Total GULP energy -83710.376887 kJ/mol
# GULP energy per Si atom -5580.691792 kJ/mol
# Density = 2.229077 g / cm^3
# Si number density = 22.341620 Si / 1000 Ang^3
#
#
#
# Elastic Constant Matrix: (Units=GPa)
#
#
# Indices 1 2 3 4 5 6 
#
# 1 94.6507 24.9298 27.6747 7.4459 17.9748 10.3820
# 2 24.9298 59.2356 30.5527 1.0783 12.5951 -9.6864
# 3 27.6747 30.5527 118.3791 -3.3231 43.2455 -1.6858
# 4 7.4459 1.0783 -3.3231 28.4210 -1.4652 10.2571
# 5 17.9748 12.5951 43.2455 -1.4652 33.3820 -5.2221
# 6 10.3820 -9.6864 -1.6858 10.2571 -5.2221 25.6683
#
#
#
# Elastic Compliance Matrix: (Units=1/GPa)
#
#
# Indices 1 2 3 4 5 6 
#
# 1 0.014705 -0.006647 0.001293 -0.000279 -0.008664 -0.010022
# 2 -0.006647 0.024422 -0.006392 -0.004884 0.004681 0.014389
# 3 0.001293 -0.006392 0.018130 0.003684 -0.022839 -0.007863
# 4 -0.000279 -0.004884 0.003684 0.042648 -0.003932 -0.019331
# 5 -0.008664 0.004681 -0.022839 -0.003932 0.065181 0.018603
# 6 -0.010022 0.014389 -0.007863 -0.019331 0.018603 0.059435
#
#
# Mechanical properties :
#
#
# Convention : Reuss Voigt Hill
#
# Bulk Modulus (GPa) = 29.61625 48.73109 39.17367
# Shear Modulus (GPa) = 19.28511 30.10146 24.69329
#
# Velocity S-wave (km/s) = 2.94120 3.67458 3.32815
# Velocity P-wave (km/s) = 4.98187 6.31368 5.68690
#
# Compressibility (1/GPa) = 0.03376525
#
# Stress axis : x y z
#
# Youngs Moduli (GPa) = 68.00599 40.94631 55.15752
#
# Poissons Ratio (x) = 0.27216 -0.07129
# Poissons Ratio (y) = 0.45201 0.35254
# Poissons Ratio (z) = -0.08790 0.26171
#
# Static dielectric constant tensor:
#      x y z
#    x 1.810430 0.014610 -0.025780 
#    y 0.014610 1.814320 0.000160 
#    z -0.025780 0.000160 1.860110 
# 
# From -- ./inp_files/494389.got.cif
#   From: 2010.05.17/outbox.cif.g08.bks.cpg/sg2_248_cif.got.tgz:494389.got - 2010.06.03 11:33:40.
