data_PCOD9058318
_publ_section_title
;
Structure prediction by ZEFSAII (Michael W. Deem and Ramdas Pophale) SiO2 
 PCOD9058318
Probable space group: P -1
;
_chemical_formula_sum "Si O2"
_cell_formula_units_Z 14
_cell_length_a 23.259746
_cell_length_b 17.116135
_cell_length_c 8.309452
_cell_angle_alpha 146.618526
_cell_angle_beta 34.964897
_cell_angle_gamma 157.315981
_cell_volume 682.918369
_symmetry_space_group_name_H-M "P -1"
_symmetry_group_IT_number 2
_symmetry_cell_setting 'triclinic'
loop_
_space_group_symop_operation_xyz
x,y,z
-x,-y,-z
loop_
_atom_site_type_symbol
_atom_site_label
_atom_site_fract_x
_atom_site_fract_y
_atom_site_fract_z
Si Si1 0.553417 0.647904 0.280577
Si Si2 0.629668 0.029572 0.790632
Si Si3 0.319420 0.493152 0.825134
Si Si4 0.112370 0.515994 0.172303
Si Si5 0.921922 0.282503 0.907244
Si Si6 0.421065 0.049972 0.849672
Si Si7 0.849758 0.909005 0.262236
O O1 0.418490 0.530829 0.518138
O O2 0.706916 0.760508 0.211297
O O3 0.596380 0.849595 0.466900
O O4 0.500000 0.500000 0.000000
O O5 0.782372 0.260100 0.776570
O O6 0.500000 0.000000 0.000000
O O7 0.616040 0.998778 0.959218
O O8 0.211696 0.257176 0.739913
O O9 0.216082 0.515844 0.037181
O O10 0.447927 0.686578 0.992874
O O11 0.000000 0.500000 0.500000
O O12 0.027720 0.350551 0.932060
O O13 0.892668 0.114593 0.572252
O O14 0.000000 0.500000 0.000000
O O15 0.755402 0.131701 0.115140
O O16 0.500000 0.000000 0.500000
O O17 0.000000 0.000000 0.000000
#
# Coordination Sequence:
#
# PCOD9058318 Si02
#       7
#     2   2   2   2   2   2   2
#     4  11  25  47  74 100 141 186 233 289 351 423
#     4  11  22  45  69 104 138 175 237 291 339 416
#     4  11  26  49  67 104 145 185 241 286 348 431
#     4  12  26  43  72 107 144 181 235 294 351 416
#     4  12  26  46  72 103 144 184 234 294 350 416
#     4  11  23  42  73 100 135 185 233 287 345 417
#     4  12  29  48  71 103 146 189 233 295 356 418
#
# _framework density 20.500254000000002
#
# number of rings (size 3 to 8) (size 9 to 14) (size 15 to 20)
#    0.000    0.571    7.143    1.286    8.000    2.857 
#    0.000    0.000    0.000    0.000    0.000    0.000 
#    0.000    0.000    0.000    0.000    0.000    0.000 
#
# Total GULP energy -78068.878394 kJ/mol
# GULP energy per Si atom -5576.348457 kJ/mol
# Density = 2.045359 g / cm^3
# Si number density = 20.500254 Si / 1000 Ang^3
#
#
#
# Elastic Constant Matrix: (Units=GPa)
#
#
# Indices 1 2 3 4 5 6 
#
# 1 61.3883 44.7125 38.4810 14.8111 -9.9775 17.7275
# 2 44.7125 152.5145 74.7604 -1.6256 -2.6276 3.8475
# 3 38.4810 74.7604 161.8782 -1.5661 3.3253 14.9438
# 4 14.8111 -1.6256 -1.5661 49.1960 8.2129 -6.8749
# 5 -9.9775 -2.6276 3.3253 8.2129 31.2768 4.8821
# 6 17.7275 3.8475 14.9438 -6.8749 4.8821 29.9307
#
#
#
# Elastic Compliance Matrix: (Units=1/GPa)
#
#
# Indices 1 2 3 4 5 6 
#
# 1 0.045429 -0.010517 -0.003623 -0.022977 0.025199 -0.033134
# 2 -0.010517 0.010966 -0.003192 0.005414 -0.004834 0.008446
# 3 -0.003623 -0.003192 0.008673 0.001557 -0.002600 -0.000992
# 4 -0.022977 0.005414 0.001557 0.033973 -0.019572 0.023132
# 5 0.025199 -0.004834 -0.002600 -0.019572 0.049001 -0.025494
# 6 -0.033134 0.008446 -0.000992 0.023132 -0.025494 0.061917
#
#
# Mechanical properties :
#
#
# Convention : Reuss Voigt Hill
#
# Bulk Modulus (GPa) = 32.89177 76.85432 54.87305
# Shear Modulus (GPa) = 19.62646 36.60249 28.11448
#
# Velocity S-wave (km/s) = 3.09751 4.23006 3.70729
# Velocity P-wave (km/s) = 5.37328 7.83765 6.71941
#
# Compressibility (1/GPa) = 0.03040274
#
# Stress axis : x y z
#
# Youngs Moduli (GPa) = 22.01249 91.18844 115.29731
#
# Poissons Ratio (x) = 0.95904 0.41774
# Poissons Ratio (y) = 0.23151 0.36808
# Poissons Ratio (z) = 0.07976 0.29111
#
# Static dielectric constant tensor:
#      x y z
#    x 1.738840 0.112990 0.042160 
#    y 0.112990 1.808630 -0.037970 
#    z 0.042160 -0.037970 1.616140 
# 
# From -- ./inp_files/158772.got.cif
#   From: 2010.05.17/outbox.cif.g08.bks.cpg/sg2_80_cif.got.tgz:158772.got - 2010.06.03 11:33:40.
