data_PCOD9058491
_publ_section_title
;
Structure prediction by ZEFSAII (Michael W. Deem and Ramdas Pophale) SiO2 
 PCOD9058491
Probable space group: P -1
;
_chemical_formula_sum "Si O2"
_cell_formula_units_Z 14
_cell_length_a 8.450259
_cell_length_b 23.496099
_cell_length_c 8.752508
_cell_angle_alpha 31.511054
_cell_angle_beta 49.738613
_cell_angle_gamma 38.141731
_cell_volume 559.379168
_symmetry_space_group_name_H-M "P -1"
_symmetry_group_IT_number 2
_symmetry_cell_setting 'triclinic'
loop_
_space_group_symop_operation_xyz
x,y,z
-x,-y,-z
loop_
_atom_site_type_symbol
_atom_site_label
_atom_site_fract_x
_atom_site_fract_y
_atom_site_fract_z
Si Si1 0.229285 0.560716 0.610179
Si Si2 0.728528 0.039207 0.524387
Si Si3 0.800898 0.195883 0.914333
Si Si4 0.340937 0.001727 0.903997
Si Si5 0.534595 0.277845 0.569193
Si Si6 0.915094 0.457178 0.915915
Si Si7 0.080225 0.176911 0.356948
O O1 0.500000 0.500000 0.500000
O O2 0.097193 0.717485 0.299691
O O3 0.096619 0.499387 0.756440
O O4 0.215243 0.545279 0.837785
O O5 0.791419 0.919524 0.646569
O O6 0.511693 0.052754 0.733964
O O7 0.000000 0.000000 0.500000
O O8 0.636359 0.174832 0.181175
O O9 0.631359 0.262814 0.716207
O O10 0.069955 0.054167 0.032084
O O11 0.228369 0.079030 0.633470
O O12 0.497437 0.841126 0.163160
O O13 0.297962 0.425648 0.330638
O O14 0.780754 0.237353 0.408733
O O15 0.067929 0.310590 0.078176
#
# Coordination Sequence:
#
# PCOD9058491 Si02
#       7
#     2   2   2   2   2   2   2
#     4  11  27  47  74 104 151 190 235 296 362 428
#     4  12  28  43  73 112 142 183 247 305 354 425
#     4  11  24  48  70 104 145 190 240 297 365 420
#     4  11  23  46  75  99 141 195 235 297 362 426
#     4  11  22  45  77 103 141 195 241 289 357 434
#     4  11  26  48  73 106 145 195 238 292 360 429
#     4  11  22  48  73 101 143 193 239 291 358 430
#
# _framework density 25.027747999999999
#
# number of rings (size 3 to 8) (size 9 to 14) (size 15 to 20)
#    0.000    0.857    5.714    1.714    4.000    2.857 
#    0.000    1.429    0.000    0.000    0.000    0.000 
#    0.000    0.000    0.000    0.000    0.000    0.000 
#
# Total GULP energy -78334.101877 kJ/mol
# GULP energy per Si atom -5595.292991 kJ/mol
# Density = 2.497078 g / cm^3
# Si number density = 25.027748 Si / 1000 Ang^3
#
#
#
# Elastic Constant Matrix: (Units=GPa)
#
#
# Indices 1 2 3 4 5 6 
#
# 1 103.9642 21.5488 58.8666 2.5405 -18.9466 -14.1925
# 2 21.5488 58.1217 43.8891 1.5833 1.3121 -4.1807
# 3 58.8666 43.8891 172.4790 -6.6241 -36.1099 0.5025
# 4 2.5405 1.5833 -6.6241 51.8448 -6.1108 -13.8414
# 5 -18.9466 1.3121 -36.1099 -6.1108 46.2625 -5.8288
# 6 -14.1925 -4.1807 0.5025 -13.8414 -5.8288 33.0860
#
#
#
# Elastic Compliance Matrix: (Units=1/GPa)
#
#
# Indices 1 2 3 4 5 6 
#
# 1 0.013535 -0.002299 -0.003121 0.001338 0.004214 0.006865
# 2 -0.002299 0.023382 -0.006768 -0.002369 -0.007225 -0.000193
# 3 -0.003121 -0.006768 0.010187 0.002499 0.007190 -0.000036
# 4 0.001338 -0.002369 0.002499 0.023468 0.007090 0.011303
# 5 0.004214 -0.007225 0.007190 0.007090 0.031262 0.009259
# 6 0.006865 -0.000193 -0.000036 0.011303 0.009259 0.039505
#
#
# Mechanical properties :
#
#
# Convention : Reuss Voigt Hill
#
# Bulk Modulus (GPa) = 43.99996 64.79710 54.39853
# Shear Modulus (GPa) = 28.85333 40.25602 34.55468
#
# Velocity S-wave (km/s) = 3.39905 4.01491 3.71975
# Velocity P-wave (km/s) = 5.74660 6.88759 6.34280
#
# Compressibility (1/GPa) = 0.02272729
#
# Stress axis : x y z
#
# Youngs Moduli (GPa) = 73.88444 42.76732 98.16870
#
# Poissons Ratio (x) = 0.09834 0.30635
# Poissons Ratio (y) = 0.16989 0.66442
# Poissons Ratio (z) = 0.23056 0.28946
#
# Static dielectric constant tensor:
#      x y z
#    x 2.017450 0.079680 0.014310 
#    y 0.079680 2.133810 -0.005580 
#    z 0.014310 -0.005580 2.046440 
# 
# From -- ./inp_files/225795.got.cif
#   From: 2010.05.17/outbox.cif.g08.bks.cpg/sg2_113_cif.got.tgz:225795.got - 2010.06.03 11:33:40.
