data_PCOD9058327
_publ_section_title
;
Structure prediction by ZEFSAII (Michael W. Deem and Ramdas Pophale) SiO2 
 PCOD9058327
Probable space group: P -1
;
_chemical_formula_sum "Si O2"
_cell_formula_units_Z 14
_cell_length_a 12.627819
_cell_length_b 11.511526
_cell_length_c 9.144428
_cell_angle_alpha 50.890682
_cell_angle_beta 62.510364
_cell_angle_gamma 43.625248
_cell_volume 711.606312
_symmetry_space_group_name_H-M "P -1"
_symmetry_group_IT_number 2
_symmetry_cell_setting 'triclinic'
loop_
_space_group_symop_operation_xyz
x,y,z
-x,-y,-z
loop_
_atom_site_type_symbol
_atom_site_label
_atom_site_fract_x
_atom_site_fract_y
_atom_site_fract_z
Si Si1 0.722403 0.095333 0.744559
Si Si2 0.435621 0.315201 0.951461
Si Si3 0.598433 0.064618 0.335476
Si Si4 0.850111 0.682044 0.871732
Si Si5 0.928394 0.694807 0.475466
Si Si6 0.024538 0.943946 0.198418
Si Si7 0.702316 0.248916 0.321174
O O1 0.553430 0.206172 0.829156
O O2 0.829326 0.087958 0.803655
O O3 0.717111 0.203673 0.518968
O O4 0.796518 0.880121 0.819603
O O5 0.380980 0.529218 0.829400
O O6 0.524836 0.192489 0.136911
O O7 0.287404 0.327692 0.018741
O O8 0.611865 0.182365 0.356709
O O9 0.500000 0.000000 0.500000
O O10 0.772175 0.871114 0.355898
O O11 0.885408 0.684256 0.676701
O O12 0.000000 0.500000 0.000000
O O13 0.000000 0.500000 0.500000
O O14 0.036389 0.755534 0.359958
O O15 0.871977 0.114064 0.248814
O O16 0.000000 0.000000 0.000000
#
# Coordination Sequence:
#
# PCOD9058327 Si02
#       7
#     2   2   2   2   2   2   2
#     4  12  24  47  69 102 141 178 231 290 345 402
#     4  12  26  43  70 103 138 183 230 281 349 414
#     4  11  22  45  69  96 142 180 226 286 339 405
#     4  12  27  46  71 101 139 185 227 286 345 413
#     4  11  26  46  69 104 135 180 232 278 345 410
#     4  11  25  44  73  99 137 185 231 284 341 411
#     4  11  24  44  67 102 139 181 231 283 347 405
#
# _framework density 19.6738
#
# number of rings (size 3 to 8) (size 9 to 14) (size 15 to 20)
#    0.000    0.571    4.286    4.286    8.000    1.143 
#    0.000    0.000    0.000    0.000    0.000    0.000 
#    0.000    0.000    0.000    0.000    0.000    0.000 
#
# Total GULP energy -78366.041489 kJ/mol
# GULP energy per Si atom -5597.574392 kJ/mol
# Density = 1.962902 g / cm^3
# Si number density = 19.673800 Si / 1000 Ang^3
#
#
#
# Elastic Constant Matrix: (Units=GPa)
#
#
# Indices 1 2 3 4 5 6 
#
# 1 144.4337 65.5590 61.5680 -5.3622 -8.2550 -3.7037
# 2 65.5590 122.6528 69.8649 -18.0032 -8.1653 22.9892
# 3 61.5680 69.8649 154.0519 -1.9210 4.8702 -1.8974
# 4 -5.3622 -18.0032 -1.9210 49.7395 0.0246 -5.2658
# 5 -8.2550 -8.1653 4.8702 0.0246 41.8132 -9.6036
# 6 -3.7037 22.9892 -1.8974 -5.2658 -9.6036 31.0450
#
#
#
# Elastic Compliance Matrix: (Units=1/GPa)
#
#
# Indices 1 2 3 4 5 6 
#
# 1 0.010497 -0.005724 -0.001609 -0.000356 0.002548 0.006121
# 2 -0.005724 0.017650 -0.005828 0.004124 -0.000093 -0.013439
# 3 -0.001609 -0.005828 0.009861 -0.001483 -0.001696 0.003950
# 4 -0.000356 0.004124 -0.001483 0.021587 0.001081 0.000809
# 5 0.002548 -0.000093 -0.001696 0.001081 0.026591 0.008679
# 6 0.006121 -0.013439 0.003950 0.000809 0.008679 0.045957
#
#
# Mechanical properties :
#
#
# Convention : Reuss Voigt Hill
#
# Bulk Modulus (GPa) = 85.56935 90.56912 88.06924
# Shear Modulus (GPa) = 30.79564 39.46265 35.12914
#
# Velocity S-wave (km/s) = 3.96069 4.48353 4.23020
# Velocity P-wave (km/s) = 8.03148 8.54038 8.28983
#
# Compressibility (1/GPa) = 0.01168643
#
# Stress axis : x y z
#
# Youngs Moduli (GPa) = 95.26588 56.65570 101.40675
#
# Poissons Ratio (x) = 0.32430 0.16315
# Poissons Ratio (y) = 0.54531 0.59102
# Poissons Ratio (z) = 0.15327 0.33020
#
# Static dielectric constant tensor:
#      x y z
#    x 1.679710 -0.005300 -0.008460 
#    y -0.005300 1.660620 0.005740 
#    z -0.008460 0.005740 1.673330 
# 
# From -- ./inp_files/151373.got.cif
#   From: 2010.05.17/outbox.cif.g08.bks.cpg/sg2_76_cif.got.tgz:151373.got - 2010.06.03 11:33:40.
