data_PCOD9058576
_publ_section_title
;
Structure prediction by ZEFSAII (Michael W. Deem and Ramdas Pophale) SiO2 
 PCOD9058576
Probable space group: P -1
;
_chemical_formula_sum "Si O2"
_cell_formula_units_Z 16
_cell_length_a 11.204854
_cell_length_b 12.156652
_cell_length_c 10.968883
_cell_angle_alpha 69.352907
_cell_angle_beta 126.043471
_cell_angle_gamma 145.906020
_cell_volume 646.624070
_symmetry_space_group_name_H-M "P -1"
_symmetry_group_IT_number 2
_symmetry_cell_setting 'triclinic'
loop_
_space_group_symop_operation_xyz
x,y,z
-x,-y,-z
loop_
_atom_site_type_symbol
_atom_site_label
_atom_site_fract_x
_atom_site_fract_y
_atom_site_fract_z
Si Si1 0.780681 0.576808 0.871679
Si Si2 0.357891 0.884938 0.087796
Si Si3 0.239817 0.000293 0.584022
Si Si4 0.946127 0.759572 0.160966
Si Si5 0.341171 0.233518 0.899187
Si Si6 0.468411 0.176756 0.220137
Si Si7 0.221157 0.779831 0.471265
Si Si8 0.136252 0.182797 0.352231
O O1 0.536464 0.345091 0.862318
O O2 0.707342 0.613182 0.701400
O O3 0.834851 0.683684 0.988241
O O4 0.048087 0.683082 0.964633
O O5 0.492710 0.864927 0.245604
O O6 0.426411 0.038451 0.158252
O O7 0.500000 0.000000 0.000000
O O8 0.162580 0.840963 0.512948
O O9 0.011676 0.868446 0.596720
O O10 0.263898 0.141051 0.475330
O O11 0.764797 0.705122 0.169504
O O12 0.030579 0.684517 0.283377
O O13 0.209957 0.008633 0.211694
O O14 0.466565 0.281683 0.084403
O O15 0.095648 0.993710 0.814381
O O16 0.716507 0.306344 0.399877
O O17 0.500000 0.000000 0.500000
#
# Coordination Sequence:
#
# PCOD9058576 Si02
#       8
#     2   2   2   2   2   2   2   2
#     4  11  24  37  60  91 121 154 206 248 293 359
#     4  10  17  37  62  80 114 155 191 243 294 345
#     4  10  20  37  65  87 116 161 200 240 301 360
#     4  10  19  37  57  86 122 157 199 247 296 353
#     4  12  21  38  59  91 122 158 199 246 301 355
#     4   9  19  32  58  87 114 153 200 238 297 353
#     4   9  18  33  61  92 113 155 201 244 295 355
#     4  11  22  40  62  88 120 158 198 244 302 356
#
# _framework density 24.743898000000002
#
# number of rings (size 3 to 8) (size 9 to 14) (size 15 to 20)
#    0.000    1.750    5.000    1.500    0.000    0.000 
#    0.000    6.875    0.000    0.000    0.000    0.000 
#    0.000    0.000    0.000    0.000    0.000    0.000 
#
# Total GULP energy -89461.892780 kJ/mol
# GULP energy per Si atom -5591.368299 kJ/mol
# Density = 2.468758 g / cm^3
# Si number density = 24.743898 Si / 1000 Ang^3
#
#
#
# Elastic Constant Matrix: (Units=GPa)
#
#
# Indices 1 2 3 4 5 6 
#
# 1 97.0489 4.9780 14.4329 5.8406 1.1734 21.4135
# 2 4.9780 61.7683 26.8525 -10.4274 11.9985 22.0918
# 3 14.4329 26.8525 152.7403 -32.2222 33.9864 11.9075
# 4 5.8406 -10.4274 -32.2222 38.0208 -1.5609 -0.5735
# 5 1.1734 11.9985 33.9864 -1.5609 41.9162 1.4025
# 6 21.4135 22.0918 11.9075 -0.5735 1.4025 30.3987
#
#
#
# Elastic Compliance Matrix: (Units=1/GPa)
#
#
# Indices 1 2 3 4 5 6 
#
# 1 0.012891 0.002949 -0.001516 -0.002606 0.000285 -0.010692
# 2 0.002949 0.025444 -0.000767 0.005333 -0.005879 -0.019896
# 3 -0.001516 -0.000767 0.010557 0.008615 -0.007911 -0.001982
# 4 -0.002606 0.005333 0.008615 0.035112 -0.006983 -0.004430
# 5 0.000285 -0.005879 -0.007911 -0.006983 0.031499 0.005586
# 6 -0.010692 -0.019896 -0.001982 -0.004430 0.005586 0.055322
#
#
# Mechanical properties :
#
#
# Convention : Reuss Voigt Hill
#
# Bulk Modulus (GPa) = 19.91121 44.89826 32.40474
# Shear Modulus (GPa) = 26.84770 39.75343 33.30056
#
# Velocity S-wave (km/s) = 3.29754 4.01258 3.67251
# Velocity P-wave (km/s) = 4.75003 6.29701 5.57741
#
# Compressibility (1/GPa) = 0.05022296
#
# Stress axis : x y z
#
# Youngs Moduli (GPa) = 77.57418 39.30247 94.71943
#
# Poissons Ratio (x) = -0.11591 0.14361
# Poissons Ratio (y) = -0.22877 0.07270
# Poissons Ratio (z) = 0.11762 0.03016
#
# Static dielectric constant tensor:
#      x y z
#    x 1.898890 -0.019620 0.011310 
#    y -0.019620 2.024390 0.009810 
#    z 0.011310 0.009810 2.007740 
# 
# From -- ./inp_files/406758.got.cif
#   From: 2010.05.17/outbox.cif.g08.bks.cpg/sg2_204_cif.got.tgz:406758.got - 2010.06.03 11:33:40.
