data_PCOD9058242
_publ_section_title
;
Structure prediction by ZEFSAII (Michael W. Deem and Ramdas Pophale) SiO2 
 PCOD9058242
Probable space group: P -1
;
_chemical_formula_sum "Si O2"
_cell_formula_units_Z 16
_cell_length_a 8.671364
_cell_length_b 12.153562
_cell_length_c 18.929066
_cell_angle_alpha 129.336712
_cell_angle_beta 149.966968
_cell_angle_gamma 58.622419
_cell_volume 770.193977
_symmetry_space_group_name_H-M "P -1"
_symmetry_group_IT_number 2
_symmetry_cell_setting 'triclinic'
loop_
_space_group_symop_operation_xyz
x,y,z
-x,-y,-z
loop_
_atom_site_type_symbol
_atom_site_label
_atom_site_fract_x
_atom_site_fract_y
_atom_site_fract_z
Si Si1 0.838162 0.894554 0.181817
Si Si2 0.869212 0.647478 0.483703
Si Si3 0.255372 0.922174 0.488241
Si Si4 0.122301 0.594213 0.153760
Si Si5 0.950784 0.863247 0.727675
Si Si6 0.822772 0.767299 0.363841
Si Si7 0.707089 0.396849 0.996544
Si Si8 0.170742 0.876391 0.975884
O O1 0.522961 0.915652 0.106951
O O2 0.097163 0.949531 0.362452
O O3 0.923467 0.733626 0.134404
O O4 0.869118 0.987372 0.161414
O O5 0.490400 0.633743 0.322570
O O6 0.004904 0.754221 0.641945
O O7 0.962992 0.704688 0.465493
O O8 0.000000 0.500000 0.500000
O O9 0.589586 0.877148 0.587732
O O10 0.060241 0.800804 0.406889
O O11 0.281911 0.073918 0.599406
O O12 0.000000 0.500000 0.000000
O O13 0.006473 0.492415 0.130179
O O14 0.019322 0.829469 0.821934
O O15 0.525609 0.666099 0.182324
O O16 0.809589 0.260446 0.022927
O O17 0.500000 0.500000 0.000000
O O18 0.000000 0.000000 0.000000
#
# Coordination Sequence:
#
# PCOD9058242 Si02
#       8
#     2   2   2   2   2   2   2   2
#     4  12  24  49  72 107 139 190 247 289 356 440
#     4  12  28  46  68 108 146 186 232 299 371 417
#     4  11  22  44  76 103 132 182 243 293 348 424
#     4  12  26  44  77 102 140 195 243 288 354 441
#     4  12  27  45  73 106 146 178 237 306 363 419
#     4  11  23  43  75 100 139 184 238 294 349 430
#     4  12  25  47  72 102 145 191 247 290 350 439
#     4  12  29  47  71 109 147 189 238 299 366 418
#
# _framework density 20.773987000000002
#
# number of rings (size 3 to 8) (size 9 to 14) (size 15 to 20)
#    0.000    0.250    6.250    2.250    7.000    2.000 
#    0.000    1.250    0.000    0.000    0.000    0.000 
#    0.000    0.000    0.000    0.000    0.000    0.000 
#
# Total GULP energy -89363.340485 kJ/mol
# GULP energy per Si atom -5585.208780 kJ/mol
# Density = 2.072670 g / cm^3
# Si number density = 20.773987 Si / 1000 Ang^3
#
#
#
# Elastic Constant Matrix: (Units=GPa)
#
#
# Indices 1 2 3 4 5 6 
#
# 1 71.2865 39.6956 3.8816 -0.2938 -6.0526 3.3440
# 2 39.6956 129.3184 15.8817 -2.5870 -17.8756 2.8933
# 3 3.8816 15.8817 79.2238 -1.6169 -19.4660 -11.5211
# 4 -0.2938 -2.5870 -1.6169 36.5413 2.4641 -3.9401
# 5 -6.0526 -17.8756 -19.4660 2.4641 42.5783 -4.8341
# 6 3.3440 2.8933 -11.5211 -3.9401 -4.8341 43.1176
#
#
#
# Elastic Compliance Matrix: (Units=1/GPa)
#
#
# Indices 1 2 3 4 5 6 
#
# 1 0.016966 -0.005180 0.000112 -0.000341 0.000200 -0.000947
# 2 -0.005180 0.009861 -0.001030 0.000397 0.002890 -0.000175
# 3 0.000112 -0.001030 0.015314 0.000666 0.007115 0.005011
# 4 -0.000341 0.000397 0.000666 0.027763 -0.000887 0.002615
# 5 0.000200 0.002890 0.007115 -0.000887 0.028579 0.004815
# 6 -0.000947 -0.000175 0.005011 0.002615 0.004815 0.025395
#
#
# Mechanical properties :
#
#
# Convention : Reuss Voigt Hill
#
# Bulk Modulus (GPa) = 33.39530 44.30518 38.85024
# Shear Modulus (GPa) = 34.23359 39.13877 36.68618
#
# Velocity S-wave (km/s) = 4.06385 4.34525 4.20690
# Velocity P-wave (km/s) = 6.17497 6.82264 6.50687
#
# Compressibility (1/GPa) = 0.02994434
#
# Stress axis : x y z
#
# Youngs Moduli (GPa) = 58.94117 101.41394 65.29938
#
# Poissons Ratio (x) = 0.52528 -0.00729
# Poissons Ratio (y) = 0.30529 0.06728
# Poissons Ratio (z) = -0.00658 0.10449
#
# Static dielectric constant tensor:
#      x y z
#    x 1.621330 -0.559360 0.304300 
#    y -0.559360 0.080830 0.906010 
#    z 0.304300 0.906010 1.274660 
# 
# From -- ./inp_files/391956.got.cif
#   From: 2010.05.17/outbox.cif.g08.bks.cpg/sg2_196_cif.got.tgz:391956.got - 2010.06.03 11:33:40.
