data_PCOD9058111
_publ_section_title
;
Structure prediction by ZEFSAII (Michael W. Deem and Ramdas Pophale) SiO2 
 PCOD9058111
Probable space group: P -1
;
_chemical_formula_sum "Si O2"
_cell_formula_units_Z 15
_cell_length_a 8.729659
_cell_length_b 9.139930
_cell_length_c 14.990427
_cell_angle_alpha 110.569446
_cell_angle_beta 46.938104
_cell_angle_gamma 131.302562
_cell_volume 645.638614
_symmetry_space_group_name_H-M "P -1"
_symmetry_group_IT_number 2
_symmetry_cell_setting 'triclinic'
loop_
_space_group_symop_operation_xyz
x,y,z
-x,-y,-z
loop_
_atom_site_type_symbol
_atom_site_label
_atom_site_fract_x
_atom_site_fract_y
_atom_site_fract_z
Si Si1 0.718809 0.424939 0.564470
Si Si2 0.175307 0.413205 0.975417
Si Si3 0.456490 0.326289 0.278942
Si Si4 0.065999 0.857421 0.315434
Si Si5 0.475066 0.883790 0.280889
Si Si6 0.777367 0.223229 0.935452
Si Si7 0.514135 0.769596 0.570877
Si Si8 0.000000 0.000000 0.000000
O O1 0.720365 0.610020 0.609111
O O2 0.527979 0.258281 0.677483
O O3 0.649564 0.339007 0.475089
O O4 0.000000 0.500000 0.500000
O O5 0.384695 0.540871 0.840284
O O6 0.901155 0.282669 0.998294
O O7 0.220315 0.592142 0.052647
O O8 0.181852 0.247716 0.982584
O O9 0.610302 0.353301 0.314409
O O10 0.278954 0.095674 0.279120
O O11 0.218111 0.793562 0.299177
O O12 0.040433 0.786941 0.209081
O O13 0.796437 0.810194 0.450612
O O14 0.465070 0.037196 0.377222
O O15 0.742222 0.980481 0.138839
O O16 0.500000 0.000000 0.000000
#
# Coordination Sequence:
#
# PCOD9058111 Si02
#       8
#     2   2   2   2   2   2   2   1
#     4  12  24  44  69 109 149 190 249 310 381 449
#     4  11  25  45  73 102 148 201 247 314 365 454
#     4  11  22  44  71 105 141 195 250 307 369 440
#     4  11  23  46  75 108 149 192 256 310 369 456
#     4  11  25  46  72 105 152 199 240 311 379 447
#     4  11  23  44  74 107 142 195 258 306 372 437
#     4  11  25  45  73 104 146 199 249 308 373 450
#     4  12  26  50  70 106 162 196 248 304 390 450
#
# _framework density 23.232809
#
# number of rings (size 3 to 8) (size 9 to 14) (size 15 to 20)
#    0.000    0.800    2.667    5.600    5.600    1.067 
#    0.000    2.667    0.000    0.000    0.000    0.000 
#    0.000    0.000    0.000    0.000    0.000    0.000 
#
# Total GULP energy -83552.378057 kJ/mol
# GULP energy per Si atom -5570.158537 kJ/mol
# Density = 2.317993 g / cm^3
# Si number density = 23.232809 Si / 1000 Ang^3
#
#
#
# Elastic Constant Matrix: (Units=GPa)
#
#
# Indices 1 2 3 4 5 6 
#
# 1 67.9416 39.6934 29.8600 13.6696 1.5209 5.6808
# 2 39.6934 138.9290 51.3636 0.0336 8.0504 -14.6779
# 3 29.8600 51.3636 117.6775 8.8991 -13.5208 0.0551
# 4 13.6696 0.0336 8.8991 45.7365 -4.5080 -5.5237
# 5 1.5209 8.0504 -13.5208 -4.5080 23.0079 -7.3345
# 6 5.6808 -14.6779 0.0551 -5.5237 -7.3345 41.4392
#
#
#
# Elastic Compliance Matrix: (Units=1/GPa)
#
#
# Indices 1 2 3 4 5 6 
#
# 1 0.021275 -0.005356 -0.003080 -0.007028 -0.004824 -0.006600
# 2 -0.005356 0.010904 -0.004051 0.002496 -0.004006 0.004226
# 3 -0.003080 -0.004051 0.012094 -0.000510 0.008774 0.000456
# 4 -0.007028 0.002496 -0.000510 0.025451 0.006305 0.006357
# 5 -0.004824 -0.004006 0.008774 0.006305 0.054683 0.009750
# 6 -0.006600 0.004226 0.000456 0.006357 0.009750 0.029106
#
#
# Mechanical properties :
#
#
# Convention : Reuss Voigt Hill
#
# Bulk Modulus (GPa) = 51.81834 62.93135 57.37484
# Shear Modulus (GPa) = 27.03853 35.61213 31.32533
#
# Velocity S-wave (km/s) = 3.41516 3.91940 3.67594
# Velocity P-wave (km/s) = 6.15658 6.90133 6.53956
#
# Compressibility (1/GPa) = 0.01929819
#
# Stress axis : x y z
#
# Youngs Moduli (GPa) = 47.00315 91.71051 82.68421
#
# Poissons Ratio (x) = 0.49118 0.25471
# Poissons Ratio (y) = 0.25174 0.33498
# Poissons Ratio (z) = 0.14479 0.37155
#
# Static dielectric constant tensor:
#      x y z
#    x 2.123260 -0.313800 0.129460 
#    y -0.313800 2.233650 -0.114680 
#    z 0.129460 -0.114680 1.849920 
# 
# From -- ./inp_files/493335.got.cif
#   From: 2010.05.17/outbox.cif.g08.bks.cpg/sg2_247_cif.got.tgz:493335.got - 2010.06.03 11:33:40.
