data_PCOD9058349
_publ_section_title
;
Structure prediction by ZEFSAII (Michael W. Deem and Ramdas Pophale) SiO2 
 PCOD9058349
Probable space group: P -1
;
_chemical_formula_sum "Si O2"
_cell_formula_units_Z 16
_cell_length_a 5.849070
_cell_length_b 16.835602
_cell_length_c 8.680462
_cell_angle_alpha 80.291623
_cell_angle_beta 107.518212
_cell_angle_gamma 123.411353
_cell_volume 680.427718
_symmetry_space_group_name_H-M "P -1"
_symmetry_group_IT_number 2
_symmetry_cell_setting 'triclinic'
loop_
_space_group_symop_operation_xyz
x,y,z
-x,-y,-z
loop_
_atom_site_type_symbol
_atom_site_label
_atom_site_fract_x
_atom_site_fract_y
_atom_site_fract_z
Si Si1 0.616090 0.603255 0.421117
Si Si2 0.696222 0.951093 0.035451
Si Si3 0.313861 0.881835 0.613729
Si Si4 0.305273 0.227802 0.440050
Si Si5 0.482247 0.768148 0.849671
Si Si6 0.466497 0.925146 0.291489
Si Si7 0.790201 0.396270 0.923024
Si Si8 0.142607 0.722690 0.267869
O O1 0.500000 0.500000 0.500000
O O2 0.656079 0.670836 0.549391
O O3 0.396846 0.596252 0.250464
O O4 0.908711 0.657500 0.367215
O O5 0.719139 0.942298 0.227771
O O6 0.561551 0.845329 0.974715
O O7 0.500000 0.000000 0.000000
O O8 0.000000 0.000000 0.000000
O O9 0.261468 0.785389 0.707981
O O10 0.478743 0.907174 0.479865
O O11 0.999419 0.858723 0.537760
O O12 0.513740 0.973776 0.728145
O O13 0.317296 0.213916 0.262759
O O14 0.557429 0.242894 0.599784
O O15 0.384241 0.670970 0.946869
O O16 0.183723 0.826349 0.210766
O O17 0.912775 0.339914 0.874976
O O18 0.000000 0.500000 0.000000
#
# Coordination Sequence:
#
# PCOD9058349 Si02
#       8
#     2   2   2   2   2   2   2   2
#     4  11  27  49  76 103 143 199 255 323 388 470
#     4  12  27  47  71 109 155 210 260 318 393 464
#     4  11  24  43  71 109 148 195 250 310 370 462
#     4  11  24  43  72 107 146 196 246 316 386 457
#     4  12  25  45  68 107 151 192 250 317 386 464
#     4  11  22  45  70 107 148 199 255 306 376 461
#     4  11  29  46  73 107 142 190 248 320 394 461
#     4  11  24  48  72 104 145 191 249 310 382 462
#
# _framework density 23.514620000000001
#
# number of rings (size 3 to 8) (size 9 to 14) (size 15 to 20)
#    0.000    0.750    5.000    0.750    5.250    5.000 
#    0.000    0.000    0.000    0.000    0.000    0.000 
#    0.000    0.000    0.000    0.000    0.000    0.000 
#
# Total GULP energy -89079.070778 kJ/mol
# GULP energy per Si atom -5567.441924 kJ/mol
# Density = 2.346110 g / cm^3
# Si number density = 23.514620 Si / 1000 Ang^3
#
#
#
# Elastic Constant Matrix: (Units=GPa)
#
#
# Indices 1 2 3 4 5 6 
#
# 1 92.6645 58.5709 54.1438 7.9970 -24.5862 5.5168
# 2 58.5709 163.6319 35.6891 -5.5507 -9.0080 -9.9415
# 3 54.1438 35.6891 109.1949 -0.1347 -38.9124 -5.0407
# 4 7.9970 -5.5507 -0.1347 49.6671 -13.3309 -6.5960
# 5 -24.5862 -9.0080 -38.9124 -13.3309 51.8015 3.9464
# 6 5.5168 -9.9415 -5.0407 -6.5960 3.9464 29.2370
#
#
#
# Elastic Compliance Matrix: (Units=1/GPa)
#
#
# Indices 1 2 3 4 5 6 
#
# 1 0.020978 -0.006352 -0.007880 -0.004636 0.002414 -0.008849
# 2 -0.006352 0.008667 0.000119 0.002316 -0.001192 0.004849
# 3 -0.007880 0.000119 0.016650 0.004455 0.009622 0.004104
# 4 -0.004636 0.002316 0.004455 0.023997 0.007200 0.006872
# 5 0.002414 -0.001192 0.009622 0.007200 0.029442 -0.001552
# 6 -0.008849 0.004849 0.004104 0.006872 -0.001552 0.039989
#
#
# Mechanical properties :
#
#
# Convention : Reuss Voigt Hill
#
# Bulk Modulus (GPa) = 55.34369 73.58877 64.46623
# Shear Modulus (GPa) = 28.74031 40.61363 34.67697
#
# Velocity S-wave (km/s) = 3.49984 4.16043 3.84435
# Velocity P-wave (km/s) = 6.31813 7.37846 6.86879
#
# Compressibility (1/GPa) = 0.01806891
#
# Stress axis : x y z
#
# Youngs Moduli (GPa) = 47.66802 115.38457 60.06078
#
# Poissons Ratio (x) = 0.73298 0.47326
# Poissons Ratio (y) = 0.30281 -0.00716
# Poissons Ratio (z) = 0.37561 -0.01376
#
# Static dielectric constant tensor:
#      x y z
#    x 2.016300 -0.057600 0.082150 
#    y -0.057600 1.951200 -0.061760 
#    z 0.082150 -0.061760 2.112720 
# 
# From -- ./inp_files/138978.got.cif
#   From: 2010.05.17/outbox.cif.g08.bks.cpg/sg2_70_cif.got.tgz:138978.got - 2010.06.03 11:33:40.
