data_PCOD9058026
_publ_section_title
;
Structure prediction by ZEFSAII (Michael W. Deem and Ramdas Pophale) SiO2 
 PCOD9058026
Probable space group: P -1
;
_chemical_formula_sum "Si O2"
_cell_formula_units_Z 15
_cell_length_a 7.951316
_cell_length_b 14.412790
_cell_length_c 6.541920
_cell_angle_alpha 93.653037
_cell_angle_beta 115.278588
_cell_angle_gamma 68.481833
_cell_volume 626.809034
_symmetry_space_group_name_H-M "P -1"
_symmetry_group_IT_number 2
_symmetry_cell_setting 'triclinic'
loop_
_space_group_symop_operation_xyz
x,y,z
-x,-y,-z
loop_
_atom_site_type_symbol
_atom_site_label
_atom_site_fract_x
_atom_site_fract_y
_atom_site_fract_z
Si Si1 0.611793 0.393437 0.277977
Si Si2 0.000000 0.500000 0.500000
Si Si3 0.827273 0.103591 0.871834
Si Si4 0.542900 0.883591 0.039132
Si Si5 0.781965 0.726158 0.446842
Si Si6 0.881962 0.303365 0.049296
Si Si7 0.574078 0.204721 0.419328
Si Si8 0.187688 0.525698 0.267161
O O1 0.675564 0.370792 0.073341
O O2 0.659319 0.284687 0.386913
O O3 0.383917 0.455711 0.237432
O O4 0.743324 0.451674 0.460903
O O5 0.854361 0.615584 0.376202
O O6 0.955283 0.527677 0.732322
O O7 0.744321 0.110179 0.599348
O O8 0.649711 0.116650 0.938902
O O9 0.880296 0.200878 0.943737
O O10 0.000000 0.000000 0.000000
O O11 0.544024 0.829299 0.818737
O O12 0.728877 0.814837 0.264637
O O13 0.500000 0.000000 0.000000
O O14 0.581582 0.743171 0.474474
O O15 0.951736 0.727596 0.691968
O O16 0.900473 0.370649 0.881168
#
# Coordination Sequence:
#
# PCOD9058026 Si02
#       8
#     2   1   2   2   2   2   2   2
#     4  11  22  44  69 102 139 190 238 288 352 418
#     4  12  24  46  66 108 148 190 236 284 356 426
#     4  11  27  45  73 104 137 180 245 297 352 424
#     4  11  28  48  73 102 142 191 234 297 361 426
#     4  11  28  44  69 108 147 186 240 290 355 432
#     4  12  25  45  71 108 140 190 236 298 353 421
#     4  11  24  48  71  99 143 188 229 295 357 425
#     4  11  25  42  70 105 146 186 241 289 350 425
#
# _framework density 23.930734999999999
#
# number of rings (size 3 to 8) (size 9 to 14) (size 15 to 20)
#    0.000    0.800    5.333    0.400    5.600    4.267 
#    0.000    0.000    0.000    0.000    0.000    0.000 
#    0.000    0.000    0.000    0.000    0.000    0.000 
#
# Total GULP energy -83756.184341 kJ/mol
# GULP energy per Si atom -5583.745623 kJ/mol
# Density = 2.387627 g / cm^3
# Si number density = 23.930735 Si / 1000 Ang^3
#
#
#
# Elastic Constant Matrix: (Units=GPa)
#
#
# Indices 1 2 3 4 5 6 
#
# 1 46.2003 20.8035 27.1580 -12.9872 -16.9488 -10.2873
# 2 20.8035 125.7051 60.3583 -31.6409 -10.1942 3.3741
# 3 27.1580 60.3583 125.1520 -28.9787 -13.0146 4.3233
# 4 -12.9872 -31.6409 -28.9787 48.3856 5.6884 0.4669
# 5 -16.9488 -10.1942 -13.0146 5.6884 38.6975 -0.5401
# 6 -10.2873 3.3741 4.3233 0.4669 -0.5401 39.9583
#
#
#
# Elastic Compliance Matrix: (Units=1/GPa)
#
#
# Indices 1 2 3 4 5 6 
#
# 1 0.032368 -0.001592 -0.004539 0.003447 0.011851 0.009079
# 2 -0.001592 0.011338 -0.004004 0.004568 0.000258 -0.000984
# 3 -0.004539 -0.004004 0.011759 0.003178 0.000415 -0.002134
# 4 0.003447 0.004568 0.003178 0.026498 -0.000115 -0.000153
# 5 0.011851 0.000258 0.000415 -0.000115 0.031304 0.003409
# 6 0.009079 -0.000984 -0.002134 -0.000153 0.003409 0.027725
#
#
# Mechanical properties :
#
#
# Convention : Reuss Voigt Hill
#
# Bulk Modulus (GPa) = 28.41340 57.07744 42.74542
# Shear Modulus (GPa) = 28.90255 37.99079 33.44667
#
# Velocity S-wave (km/s) = 3.47905 3.98871 3.74256
# Velocity P-wave (km/s) = 5.29503 6.71684 6.04786
#
# Compressibility (1/GPa) = 0.03519466
#
# Stress axis : x y z
#
# Youngs Moduli (GPa) = 30.89467 88.19538 85.04067
#
# Poissons Ratio (x) = 0.14043 0.38600
# Poissons Ratio (y) = 0.04919 0.34052
# Poissons Ratio (z) = 0.14023 0.35316
#
# Static dielectric constant tensor:
#      x y z
#    x 0.144650 -2.637480 -0.928400 
#    y -2.637480 -2.523600 -1.657590 
#    z -0.928400 -1.657590 1.340010 
# 
# From -- ./inp_files/38952.got.cif
#   From: 2010.05.17/outbox.cif.g08.bks.cpg/sg2_20_cif.got.tgz:38952.got - 2010.06.03 11:33:40.
