data_PCOD9058399
_publ_section_title
;
Structure prediction by ZEFSAII (Michael W. Deem and Ramdas Pophale) SiO2 
 PCOD9058399
Probable space group: P -1
;
_chemical_formula_sum "Si O2"
_cell_formula_units_Z 16
_cell_length_a 9.970936
_cell_length_b 13.099696
_cell_length_c 8.187789
_cell_angle_alpha 56.193883
_cell_angle_beta 97.783968
_cell_angle_gamma 65.658399
_cell_volume 709.466145
_symmetry_space_group_name_H-M "P -1"
_symmetry_group_IT_number 2
_symmetry_cell_setting 'triclinic'
loop_
_space_group_symop_operation_xyz
x,y,z
-x,-y,-z
loop_
_atom_site_type_symbol
_atom_site_label
_atom_site_fract_x
_atom_site_fract_y
_atom_site_fract_z
Si Si1 0.312498 0.623434 0.791303
Si Si2 0.820822 0.071023 0.682308
Si Si3 0.800159 0.120481 0.019977
Si Si4 0.036338 0.584218 0.799698
Si Si5 0.765392 0.669809 0.204077
Si Si6 0.459920 0.419381 0.695745
Si Si7 0.756747 0.856631 0.315965
Si Si8 0.581048 0.966108 0.720216
O O1 0.244921 0.795915 0.582756
O O2 0.176106 0.606443 0.864705
O O3 0.335499 0.550248 0.683244
O O4 0.500000 0.500000 0.000000
O O5 0.715296 0.003173 0.712423
O O6 0.798187 0.134373 0.808950
O O7 0.020229 0.938852 0.824510
O O8 0.776544 0.989980 0.171341
O O9 0.639811 0.279512 0.920219
O O10 0.095642 0.480893 0.736500
O O11 0.873047 0.749470 0.578115
O O12 0.000000 0.500000 0.000000
O O13 0.643493 0.646593 0.309847
O O14 0.816155 0.752733 0.257120
O O15 0.658679 0.793525 0.934914
O O16 0.500000 0.500000 0.500000
O O17 0.565119 0.930299 0.264120
O O18 0.500000 0.000000 0.500000
#
# Coordination Sequence:
#
# PCOD9058399 Si02
#       8
#     2   2   2   2   2   2   2   2
#     4  11  26  44  65  97 140 182 223 276 348 417
#     4  11  24  43  71 100 140 176 230 289 344 406
#     4  11  22  45  72 104 133 175 237 292 337 399
#     4  11  26  47  66  99 141 181 228 287 351 409
#     4  11  24  43  70 102 132 181 235 283 341 415
#     4  11  23  42  69 101 136 176 230 280 341 410
#     4  12  23  45  73  98 134 181 237 288 335 416
#     4  12  26  43  69 101 141 183 223 282 353 412
#
# _framework density 22.552168999999999
#
# number of rings (size 3 to 8) (size 9 to 14) (size 15 to 20)
#    0.000    0.750    5.000    2.250    5.250    0.000 
#    6.750    1.250    0.000    0.000    0.000    0.000 
#    0.000    0.000    0.000    0.000    0.000    0.000 
#
# Total GULP energy -89449.527972 kJ/mol
# GULP energy per Si atom -5590.595498 kJ/mol
# Density = 2.250084 g / cm^3
# Si number density = 22.552169 Si / 1000 Ang^3
#
#
#
# Elastic Constant Matrix: (Units=GPa)
#
#
# Indices 1 2 3 4 5 6 
#
# 1 170.8236 19.3095 54.2590 -17.7429 -14.3398 7.2731
# 2 19.3095 49.2333 2.4950 -16.2354 0.2663 -3.5437
# 3 54.2590 2.4950 141.0821 -23.8364 -20.7362 6.9852
# 4 -17.7429 -16.2354 -23.8364 39.0877 -2.1287 2.1235
# 5 -14.3398 0.2663 -20.7362 -2.1287 39.0049 -0.3831
# 6 7.2731 -3.5437 6.9852 2.1235 -0.3831 25.4853
#
#
#
# Elastic Compliance Matrix: (Units=1/GPa)
#
#
# Indices 1 2 3 4 5 6 
#
# 1 0.007153 -0.002490 -0.002218 0.001042 0.001506 -0.001844
# 2 -0.002490 0.024806 0.002255 0.010441 0.000710 0.002683
# 3 -0.002218 0.002255 0.009752 0.006249 0.004673 -0.002177
# 4 0.001042 0.010441 0.006249 0.034686 0.005494 -0.003366
# 5 0.001506 0.000710 0.004673 0.005494 0.028955 -0.001634
# 6 -0.001844 0.002683 -0.002177 -0.003366 -0.001634 0.040990
#
#
# Mechanical properties :
#
#
# Convention : Reuss Voigt Hill
#
# Bulk Modulus (GPa) = 27.17155 57.02958 42.10057
# Shear Modulus (GPa) = 30.57764 39.72059 35.14911
#
# Velocity S-wave (km/s) = 3.68620 4.20131 3.95215
# Velocity P-wave (km/s) = 5.49471 6.99124 6.28766
#
# Compressibility (1/GPa) = 0.03680320
#
# Stress axis : x y z
#
# Youngs Moduli (GPa) = 139.79578 40.31248 102.54550
#
# Poissons Ratio (x) = 0.10039 0.22748
# Poissons Ratio (y) = 0.34814 -0.23120
# Poissons Ratio (z) = 0.31011 -0.09089
#
# Static dielectric constant tensor:
#      x y z
#    x 1.868380 -0.042690 0.046930 
#    y -0.042690 2.031880 -0.118540 
#    z 0.046930 -0.118540 1.966690 
# 
# From -- ./inp_files/205639.got.cif
#   From: 2010.05.17/outbox.cif.g08.bks.cpg/sg2_103_cif.got.tgz:205639.got - 2010.06.03 11:33:40.
