data_PCOD9058757
_publ_section_title
;
Structure prediction by ZEFSAII (Michael W. Deem and Ramdas Pophale) SiO2 
 PCOD9058757
Probable space group: P -1
;
_chemical_formula_sum "Si O2"
_cell_formula_units_Z 14
_cell_length_a 9.695566
_cell_length_b 9.672268
_cell_length_c 19.350954
_cell_angle_alpha 153.042316
_cell_angle_beta 124.162705
_cell_angle_gamma 66.070626
_cell_volume 658.553823
_symmetry_space_group_name_H-M "P -1"
_symmetry_group_IT_number 2
_symmetry_cell_setting 'triclinic'
loop_
_space_group_symop_operation_xyz
x,y,z
-x,-y,-z
loop_
_atom_site_type_symbol
_atom_site_label
_atom_site_fract_x
_atom_site_fract_y
_atom_site_fract_z
Si Si1 0.314933 0.298679 0.328749
Si Si2 0.580239 0.319875 0.232957
Si Si3 0.282347 0.730377 0.888173
Si Si4 0.228728 0.371254 0.180884
Si Si5 0.684606 0.432574 0.027975
Si Si6 0.151780 0.367104 0.452149
Si Si7 0.013970 0.681205 0.157129
O O1 0.500000 0.500000 0.500000
O O2 0.261633 0.415488 0.291582
O O3 0.173495 0.326324 0.358663
O O4 0.319413 0.931631 0.155100
O O5 0.719288 0.404675 0.248813
O O6 0.420674 0.476294 0.248132
O O7 0.671338 0.413292 0.372092
O O8 0.481392 0.949664 0.044438
O O9 0.255231 0.518361 0.853238
O O10 0.175724 0.993246 0.983668
O O11 0.099991 0.524984 0.172737
O O12 0.500000 0.500000 0.000000
O O13 0.821406 0.660809 0.119184
O O14 0.000000 0.500000 0.500000
O O15 0.126276 0.027490 0.328249
O O16 0.000000 0.500000 0.000000
#
# Coordination Sequence:
#
# PCOD9058757 Si02
#       7
#     2   2   2   2   2   2   2
#     4  11  22  48  72  99 131 185 218 273 344 398
#     4   9  19  39  66  97 126 176 218 265 344 387
#     4   8  19  38  69  93 126 178 220 270 335 402
#     4   9  21  41  71  92 133 168 233 264 331 407
#     4  11  25  42  68  97 135 177 225 276 335 402
#     4  12  27  42  68 101 141 175 221 283 334 403
#     4  12  28  43  64 104 132 178 228 281 335 384
#
# _framework density 21.258703000000001
#
# number of rings (size 3 to 8) (size 9 to 14) (size 15 to 20)
#    0.857    0.857    2.857    0.000    8.000    4.000 
#    2.571    1.429    0.000    0.000    0.000    0.000 
#    0.000    0.000    0.000    0.000    0.000    0.000 
#
# Total GULP energy -78090.038655 kJ/mol
# GULP energy per Si atom -5577.859904 kJ/mol
# Density = 2.121032 g / cm^3
# Si number density = 21.258703 Si / 1000 Ang^3
#
#
#
# Elastic Constant Matrix: (Units=GPa)
#
#
# Indices 1 2 3 4 5 6 
#
# 1 123.0151 41.1813 1.1402 -17.8586 -22.6804 15.1229
# 2 41.1813 99.4563 19.4259 -16.6425 -18.2313 6.8155
# 3 1.1402 19.4259 42.2701 -20.6227 -10.8966 6.4260
# 4 -17.8586 -16.6425 -20.6227 24.8266 5.3726 -1.7954
# 5 -22.6804 -18.2313 -10.8966 5.3726 32.4464 -6.8460
# 6 15.1229 6.8155 6.4260 -1.7954 -6.8460 43.3722
#
#
#
# Elastic Compliance Matrix: (Units=1/GPa)
#
#
# Indices 1 2 3 4 5 6 
#
# 1 0.013111 -0.003502 0.010627 0.013981 0.007647 -0.003810
# 2 -0.003502 0.013272 -0.004082 0.002291 0.003335 0.000362
# 3 0.010627 -0.004082 0.051282 0.044069 0.013649 -0.006683
# 4 0.013981 0.002291 0.044069 0.085780 0.010265 -0.006593
# 5 0.007647 0.003335 0.013649 0.010265 0.041288 0.001729
# 6 -0.003810 0.000362 -0.006683 -0.006593 0.001729 0.025318
#
#
# Mechanical properties :
#
#
# Convention : Reuss Voigt Hill
#
# Bulk Modulus (GPa) = 11.94034 43.13735 27.53885
# Shear Modulus (GPa) = 19.85051 33.66199 26.75625
#
# Velocity S-wave (km/s) = 3.05906 3.98357 3.55153
# Velocity P-wave (km/s) = 4.25512 6.44159 5.45894
#
# Compressibility (1/GPa) = 0.08374967
#
# Stress axis : x y z
#
# Youngs Moduli (GPa) = 76.27291 75.34576 19.50018
#
# Poissons Ratio (x) = 0.26387 -0.20723
# Poissons Ratio (y) = 0.26712 0.07961
# Poissons Ratio (z) = -0.81056 0.30759
#
# Static dielectric constant tensor:
#      x y z
#    x 1.911580 -0.029690 0.021050 
#    y -0.029690 1.921690 -0.082880 
#    z 0.021050 -0.082880 1.828750 
# 
# From -- ./inp_files/557727.got.cif
#   From: 2010.05.17/outbox.cif.g08.bks.cpg/sg2_279_cif.got.tgz:557727.got - 2010.06.03 11:33:40.
