data_PCOD9058376
_publ_section_title
;
Structure prediction by ZEFSAII (Michael W. Deem and Ramdas Pophale) SiO2 
 PCOD9058376
Probable space group: P -1
;
_chemical_formula_sum "Si O2"
_cell_formula_units_Z 12
_cell_length_a 19.564402
_cell_length_b 11.094406
_cell_length_c 10.120217
_cell_angle_alpha 41.680075
_cell_angle_beta 147.206542
_cell_angle_gamma 152.650766
_cell_volume 546.577848
_symmetry_space_group_name_H-M "P -1"
_symmetry_group_IT_number 2
_symmetry_cell_setting 'triclinic'
loop_
_space_group_symop_operation_xyz
x,y,z
-x,-y,-z
loop_
_atom_site_type_symbol
_atom_site_label
_atom_site_fract_x
_atom_site_fract_y
_atom_site_fract_z
Si Si1 0.632350 0.009590 0.515279
Si Si2 0.958627 0.214178 0.284151
Si Si3 0.002189 0.791510 0.139014
Si Si4 0.674495 0.766757 0.997815
Si Si5 0.186671 0.437281 0.720995
Si Si6 0.792152 0.441496 0.827764
O O1 0.794095 0.078324 0.640899
O O2 0.683273 0.274111 0.367223
O O3 0.423759 0.761383 0.337650
O O4 0.649963 0.935940 0.749327
O O5 0.852878 0.295440 0.049529
O O6 0.016618 0.238938 0.507326
O O7 0.137405 0.417867 0.315266
O O8 0.827230 0.942794 0.214705
O O9 0.881268 0.576431 0.234350
O O10 0.908376 0.658500 0.954130
O O11 0.000000 0.000000 0.000000
O O12 0.500000 0.500000 0.000000
O O13 0.725342 0.670371 0.049017
#
# Coordination Sequence:
#
# PCOD9058376 Si02
#       6
#     2   2   2   2   2   2
#     4  12  25  47  72 104 141 187 236 288 347 422
#     4  11  22  45  71 104 141 185 233 290 352 411
#     4  12  25  50  69 102 147 185 234 294 350 416
#     4  12  25  44  71 110 141 180 240 290 347 419
#     4  12  25  45  75 101 145 188 228 294 352 411
#     4  11  24  44  75 102 140 189 233 288 353 414
#
# _framework density 21.954787
#
# number of rings (size 3 to 8) (size 9 to 14) (size 15 to 20)
#    0.000    0.333    5.000    4.000    0.000    4.667 
#    3.000    0.000    0.000    0.000    0.000    0.000 
#    0.000    0.000    0.000    0.000    0.000    0.000 
#
# Total GULP energy -67128.164515 kJ/mol
# GULP energy per Si atom -5594.013710 kJ/mol
# Density = 2.190482 g / cm^3
# Si number density = 21.954787 Si / 1000 Ang^3
#
#
#
# Elastic Constant Matrix: (Units=GPa)
#
#
# Indices 1 2 3 4 5 6 
#
# 1 91.2642 33.1813 13.0406 22.2183 -3.1104 0.7043
# 2 33.1813 109.0928 21.0643 9.0291 19.1806 11.8571
# 3 13.0406 21.0643 71.0824 -7.2429 -3.5097 2.0129
# 4 22.2183 9.0291 -7.2429 37.2843 4.4731 8.1306
# 5 -3.1104 19.1806 -3.5097 4.4731 34.2442 -8.3066
# 6 0.7043 11.8571 2.0129 8.1306 -8.3066 40.5198
#
#
#
# Elastic Compliance Matrix: (Units=1/GPa)
#
#
# Indices 1 2 3 4 5 6 
#
# 1 0.015943 -0.005253 -0.002248 -0.010531 0.006715 0.004861
# 2 -0.005253 0.013721 -0.003253 0.001758 -0.010232 -0.006213
# 3 -0.002248 -0.003253 0.016089 0.005012 0.002541 -0.000293
# 4 -0.010531 0.001758 0.005012 0.036796 -0.008593 -0.009725
# 5 0.006715 -0.010232 0.002541 -0.008593 0.040001 0.012676
# 6 0.004861 -0.006213 -0.000293 -0.009725 0.012676 0.030977
#
#
# Mechanical properties :
#
#
# Convention : Reuss Voigt Hill
#
# Bulk Modulus (GPa) = 41.24137 45.11242 43.17689
# Shear Modulus (GPa) = 27.30523 36.01987 31.66255
#
# Velocity S-wave (km/s) = 3.53044 4.05487 3.80171
# Velocity P-wave (km/s) = 5.95350 6.52036 6.24337
#
# Compressibility (1/GPa) = 0.02424750
#
# Stress axis : x y z
#
# Youngs Moduli (GPa) = 62.72281 72.88140 62.15520
#
# Poissons Ratio (x) = 0.38281 0.13970
# Poissons Ratio (y) = 0.32946 0.20216
# Poissons Ratio (z) = 0.14097 0.23705
#
# Static dielectric constant tensor:
#      x y z
#    x 1.819190 0.021850 0.006170 
#    y 0.021850 1.786950 -0.043050 
#    z 0.006170 -0.043050 1.830730 
# 
# From -- ./inp_files/345006.got.cif
#   From: 2010.05.17/outbox.cif.g08.bks.cpg/sg2_173_cif.got.tgz:345006.got - 2010.06.03 11:33:40.
