data_PCOD9058212
_publ_section_title
;
Structure prediction by ZEFSAII (Michael W. Deem and Ramdas Pophale) SiO2 
 PCOD9058212
Probable space group: P -1
;
_chemical_formula_sum "Si O2"
_cell_formula_units_Z 16
_cell_length_a 6.533078
_cell_length_b 21.561107
_cell_length_c 8.356268
_cell_angle_alpha 131.602647
_cell_angle_beta 88.065687
_cell_angle_gamma 63.572408
_cell_volume 686.325801
_symmetry_space_group_name_H-M "P -1"
_symmetry_group_IT_number 2
_symmetry_cell_setting 'triclinic'
loop_
_space_group_symop_operation_xyz
x,y,z
-x,-y,-z
loop_
_atom_site_type_symbol
_atom_site_label
_atom_site_fract_x
_atom_site_fract_y
_atom_site_fract_z
Si Si1 0.904134 0.255070 0.980522
Si Si2 0.462359 0.082507 0.772257
Si Si3 0.015416 0.531276 0.374306
Si Si4 0.302888 0.851973 0.365928
Si Si5 0.418883 0.708510 0.666793
Si Si6 0.137364 0.956231 0.091286
Si Si7 0.732165 0.404618 0.722330
Si Si8 0.128035 0.331718 0.861700
O O1 0.850803 0.191904 0.754299
O O2 0.152371 0.173518 0.949891
O O3 0.986144 0.312434 0.970265
O O4 0.654958 0.319388 0.212836
O O5 0.579298 0.134065 0.769820
O O6 0.633867 0.036131 0.849250
O O7 0.500000 0.000000 0.500000
O O8 0.728742 0.640967 0.537432
O O9 0.000000 0.500000 0.500000
O O10 0.223572 0.549262 0.355691
O O11 0.077770 0.439186 0.096510
O O12 0.561653 0.765822 0.314183
O O13 0.099772 0.966675 0.646937
O O14 0.332909 0.670766 0.461016
O O15 0.267223 0.833169 0.880081
O O16 0.000000 0.000000 0.000000
O O17 0.989193 0.344723 0.722662
O O18 0.500000 0.500000 0.000000
#
# Coordination Sequence:
#
# PCOD9058212 Si02
#       8
#     2   2   2   2   2   2   2   2
#     4  11  24  44  77 110 146 195 258 309 377 455
#     4  11  22  44  74 103 142 204 257 305 373 456
#     4  12  28  49  77 112 149 196 260 317 377 458
#     4  11  24  46  73 105 148 196 253 307 381 455
#     4  12  28  47  75 107 153 196 254 314 380 457
#     4  12  28  44  72 109 154 202 246 320 385 450
#     4  12  29  49  75 110 157 200 249 316 393 454
#     4  11  27  44  79 110 144 201 251 316 384 461
#
# _framework density 23.312546000000001
#
# number of rings (size 3 to 8) (size 9 to 14) (size 15 to 20)
#    0.000    0.500    3.750    3.000   10.500    1.000 
#    0.000    1.875    0.000    0.000    0.000    0.000 
#    0.000    0.000    0.000    0.000    0.000    0.000 
#
# Total GULP energy -89606.055011 kJ/mol
# GULP energy per Si atom -5600.378438 kJ/mol
# Density = 2.325949 g / cm^3
# Si number density = 23.312546 Si / 1000 Ang^3
#
#
#
# Elastic Constant Matrix: (Units=GPa)
#
#
# Indices 1 2 3 4 5 6 
#
# 1 104.5567 37.3714 46.5040 8.2229 1.0938 -9.2149
# 2 37.3714 105.9301 32.2454 3.0749 0.9741 -27.6752
# 3 46.5040 32.2454 125.1133 21.7570 8.9917 -9.4783
# 4 8.2229 3.0749 21.7570 38.5663 -7.4587 4.7754
# 5 1.0938 0.9741 8.9917 -7.4587 49.3143 0.0111
# 6 -9.2149 -27.6752 -9.4783 4.7754 0.0111 36.7980
#
#
#
# Elastic Compliance Matrix: (Units=1/GPa)
#
#
# Indices 1 2 3 4 5 6 
#
# 1 0.012412 -0.003315 -0.003801 -0.000104 0.000468 -0.000350
# 2 -0.003315 0.013408 -0.001423 -0.000678 -0.000036 0.008975
# 3 -0.003801 -0.001423 0.011169 -0.006133 -0.002852 0.001651
# 4 -0.000104 -0.000678 -0.006133 0.031369 0.005880 -0.006188
# 5 0.000468 -0.000036 -0.002852 0.005880 0.021678 -0.001414
# 6 -0.000350 0.008975 0.001651 -0.006188 -0.001414 0.035066
#
#
# Mechanical properties :
#
#
# Convention : Reuss Voigt Hill
#
# Bulk Modulus (GPa) = 50.22442 63.09350 56.65896
# Shear Modulus (GPa) = 33.59831 39.56767 36.58299
#
# Velocity S-wave (km/s) = 3.80045 4.12426 3.96566
# Velocity P-wave (km/s) = 6.39129 7.05708 6.73242
#
# Compressibility (1/GPa) = 0.01991063
#
# Stress axis : x y z
#
# Youngs Moduli (GPa) = 80.56702 74.58488 89.53278
#
# Poissons Ratio (x) = 0.24722 0.34034
# Poissons Ratio (y) = 0.26705 0.12741
# Poissons Ratio (z) = 0.30626 0.10614
#
# Static dielectric constant tensor:
#      x y z
#    x 1.896970 -0.018310 0.003810 
#    y -0.018310 1.957520 -0.017470 
#    z 0.003810 -0.017470 1.865090 
# 
# From -- ./inp_files/142673.got.cif
#   From: 2010.05.17/outbox.cif.g08.bks.cpg/sg2_72_cif.got.tgz:142673.got - 2010.06.03 11:33:40.
