data_PCOD9058342
_publ_section_title
;
Structure prediction by ZEFSAII (Michael W. Deem and Ramdas Pophale) SiO2 
 PCOD9058342
Probable space group: P -1
;
_chemical_formula_sum "Si O2"
_cell_formula_units_Z 16
_cell_length_a 5.683012
_cell_length_b 13.898285
_cell_length_c 13.278949
_cell_angle_alpha 137.309776
_cell_angle_beta 87.396544
_cell_angle_gamma 105.213267
_cell_volume 668.563417
_symmetry_space_group_name_H-M "P -1"
_symmetry_group_IT_number 2
_symmetry_cell_setting 'triclinic'
loop_
_space_group_symop_operation_xyz
x,y,z
-x,-y,-z
loop_
_atom_site_type_symbol
_atom_site_label
_atom_site_fract_x
_atom_site_fract_y
_atom_site_fract_z
Si Si1 0.708602 0.926241 0.486753
Si Si2 0.443739 0.736886 0.054289
Si Si3 0.591318 0.740564 0.737001
Si Si4 0.652587 0.961307 0.754463
Si Si5 0.112643 0.182837 0.014329
Si Si6 0.988345 0.472077 0.213962
Si Si7 0.851492 0.565381 0.475850
Si Si8 0.420112 0.618616 0.161468
O O1 0.627896 0.751849 0.317932
O O2 0.500000 0.000000 0.500000
O O3 0.689961 0.925992 0.609755
O O4 0.000000 0.000000 0.500000
O O5 0.430388 0.893247 0.136447
O O6 0.334313 0.710174 0.146836
O O7 0.730881 0.759455 0.047100
O O8 0.278343 0.593111 0.884678
O O9 0.714244 0.824489 0.900869
O O10 0.787995 0.700397 0.630215
O O11 0.402112 0.577170 0.647441
O O12 0.477928 0.830939 0.730268
O O13 0.905367 0.028551 0.868148
O O14 0.015579 0.321752 0.149034
O O15 0.201992 0.538107 0.179781
O O16 0.994437 0.595490 0.391240
O O17 0.000000 0.500000 0.500000
O O18 0.500000 0.500000 0.000000
#
# Coordination Sequence:
#
# PCOD9058342 Si02
#       8
#     2   2   2   2   2   2   2   2
#     4  12  29  53  77 113 164 208 258 333 401 470
#     4  11  23  45  69 103 146 185 247 319 373 462
#     4  11  25  44  70 104 144 193 252 309 387 461
#     4  11  27  44  72 102 148 200 250 309 396 473
#     4  11  22  45  70 104 147 190 249 315 372 460
#     4  11  24  42  72 105 141 188 246 305 384 448
#     4  11  24  43  69 100 147 186 246 322 380 456
#     4  12  26  45  81 111 144 199 263 316 396 466
#
# _framework density 23.931910999999999
#
# number of rings (size 3 to 8) (size 9 to 14) (size 15 to 20)
#    0.000    0.750    5.000    1.500    3.500    4.500 
#    0.000    0.000    0.000    0.000    0.000    0.000 
#    0.000    0.000    0.000    0.000    0.000    0.000 
#
# Total GULP energy -89334.662192 kJ/mol
# GULP energy per Si atom -5583.416387 kJ/mol
# Density = 2.387744 g / cm^3
# Si number density = 23.931911 Si / 1000 Ang^3
#
#
#
# Elastic Constant Matrix: (Units=GPa)
#
#
# Indices 1 2 3 4 5 6 
#
# 1 45.7500 7.7415 22.2533 2.6530 -11.5622 7.2039
# 2 7.7415 103.0424 30.3648 -12.2242 -17.3645 -1.3920
# 3 22.2533 30.3648 153.2861 -14.8547 -16.8914 4.5135
# 4 2.6530 -12.2242 -14.8547 47.5347 1.8285 -1.0347
# 5 -11.5622 -17.3645 -16.8914 1.8285 31.2872 -8.8758
# 6 7.2039 -1.3920 4.5135 -1.0347 -8.8758 33.3786
#
#
#
# Elastic Compliance Matrix: (Units=1/GPa)
#
#
# Indices 1 2 3 4 5 6 
#
# 1 0.025869 -0.000236 -0.003117 -0.002820 0.006943 -0.003413
# 2 -0.000236 0.011471 -0.001414 0.002340 0.006061 0.002405
# 3 -0.003117 -0.001414 0.007694 0.002137 0.002153 0.000212
# 4 -0.002820 0.002340 0.002137 0.022474 0.000447 0.001233
# 5 0.006943 0.006061 0.002153 0.000447 0.041745 0.009578
# 6 -0.003413 0.002405 0.000212 0.001233 0.009578 0.033353
#
#
# Mechanical properties :
#
#
# Convention : Reuss Voigt Hill
#
# Bulk Modulus (GPa) = 28.16771 46.97752 37.57262
# Shear Modulus (GPa) = 30.49296 38.55470 34.52383
#
# Velocity S-wave (km/s) = 3.57340 4.01810 3.80226
# Velocity P-wave (km/s) = 5.36853 6.41865 5.91693
#
# Compressibility (1/GPa) = 0.03550164
#
# Stress axis : x y z
#
# Youngs Moduli (GPa) = 38.65577 87.17863 129.96538
#
# Poissons Ratio (x) = 0.02055 0.40504
# Poissons Ratio (y) = 0.00911 0.18379
# Poissons Ratio (z) = 0.12047 0.12328
#
# Static dielectric constant tensor:
#      x y z
#    x 2.001140 -0.044760 0.018520 
#    y -0.044760 2.017720 0.005200 
#    z 0.018520 0.005200 1.913680 
# 
# From -- ./inp_files/368075.got.cif
#   From: 2010.05.17/outbox.cif.g08.bks.cpg/sg2_185_cif.got.tgz:368075.got - 2010.06.03 11:33:40.
