data_PCOD9058936
_publ_section_title
;
Structure prediction by ZEFSAII (Michael W. Deem and Ramdas Pophale) SiO2 
 PCOD9058936
Probable space group: P -1
;
_chemical_formula_sum "Si O2"
_cell_formula_units_Z 16
_cell_length_a 13.052433
_cell_length_b 15.958632
_cell_length_c 13.168557
_cell_angle_alpha 143.473160
_cell_angle_beta 140.120268
_cell_angle_gamma 24.919489
_cell_volume 679.690802
_symmetry_space_group_name_H-M "P -1"
_symmetry_group_IT_number 2
_symmetry_cell_setting 'triclinic'
loop_
_space_group_symop_operation_xyz
x,y,z
-x,-y,-z
loop_
_atom_site_type_symbol
_atom_site_label
_atom_site_fract_x
_atom_site_fract_y
_atom_site_fract_z
Si Si1 0.199709 0.932077 0.955862
Si Si2 0.361231 0.146326 0.790026
Si Si3 0.850650 0.617178 0.791357
Si Si4 0.279757 0.626610 0.874872
Si Si5 0.887293 0.823005 0.172070
Si Si6 0.029650 0.007373 0.371653
Si Si7 0.430120 0.270493 0.513390
Si Si8 0.718834 0.455611 0.652287
O O1 0.290523 0.739123 0.905002
O O2 0.426299 0.882680 0.060519
O O3 0.069918 0.959449 0.783232
O O4 0.985273 0.165547 0.074955
O O5 0.125851 0.380567 0.791704
O O6 0.286379 0.125476 0.822002
O O7 0.457244 0.959548 0.604783
O O8 0.837114 0.781659 0.986925
O O9 0.759179 0.639745 0.632826
O O10 0.682646 0.632335 0.750951
O O11 0.305660 0.452478 0.679434
O O12 0.500000 0.500000 0.000000
O O13 0.897733 0.982666 0.320018
O O14 0.169232 0.600137 0.205289
O O15 0.324961 0.805192 0.406896
O O16 0.942105 0.222141 0.540719
O O17 0.500000 0.500000 0.500000
#
# Coordination Sequence:
#
# PCOD9058936 Si02
#       8
#     2   2   2   2   2   2   2   2
#     4  11  27  47  77 105 137 182 235 297 362 422
#     4  11  26  46  66 107 149 188 230 284 346 424
#     4  11  25  43  64  99 146 193 232 284 347 414
#     4  11  26  51  79 105 131 175 240 307 364 423
#     4  11  25  43  64 101 153 193 234 272 339 415
#     4  12  24  43  70 107 143 192 239 283 341 420
#     4  12  25  45  73 102 143 182 240 297 352 414
#     4  11  23  39  63  99 144 195 240 284 328 401
#
# _framework density 23.540113999999999
#
# number of rings (size 3 to 8) (size 9 to 14) (size 15 to 20)
#    0.000    0.750    3.750    4.125    7.000    2.500 
#    0.000    1.250    0.000    0.000    0.000    0.000 
#    0.000    0.000    0.000    0.000    0.000    0.000 
#
# Total GULP energy -89490.714057 kJ/mol
# GULP energy per Si atom -5593.169629 kJ/mol
# Density = 2.348654 g / cm^3
# Si number density = 23.540114 Si / 1000 Ang^3
#
#
#
# Elastic Constant Matrix: (Units=GPa)
#
#
# Indices 1 2 3 4 5 6 
#
# 1 58.2339 23.8559 29.6779 -11.9147 6.3069 -2.5435
# 2 23.8559 108.9265 54.2742 -13.4542 -4.7204 -6.2433
# 3 29.6779 54.2742 199.8796 -11.6404 -5.2328 -4.9818
# 4 -11.9147 -13.4542 -11.6404 54.6470 -0.9371 0.6074
# 5 6.3069 -4.7204 -5.2328 -0.9371 32.4568 -3.8833
# 6 -2.5435 -6.2433 -4.9818 0.6074 -3.8833 20.2379
#
#
#
# Elastic Compliance Matrix: (Units=1/GPa)
#
#
# Indices 1 2 3 4 5 6 
#
# 1 0.020777 -0.003301 -0.002127 0.003182 -0.004761 0.000060
# 2 -0.003301 0.011583 -0.002426 0.001623 0.002336 0.002961
# 3 -0.002127 -0.002426 0.006038 0.000237 0.001122 0.000679
# 4 0.003182 0.001623 0.000237 0.019443 0.000268 0.000427
# 5 -0.004761 0.002336 0.001122 0.000268 0.033070 0.006736
# 6 0.000060 0.002961 0.000679 0.000427 0.006736 0.051780
#
#
# Mechanical properties :
#
#
# Convention : Reuss Voigt Hill
#
# Bulk Modulus (GPa) = 44.06768 64.73953 54.40361
# Shear Modulus (GPa) = 30.12754 38.75048 34.43901
#
# Velocity S-wave (km/s) = 3.58136 4.06167 3.82906
# Velocity P-wave (km/s) = 5.98853 7.03973 6.53530
#
# Compressibility (1/GPa) = 0.02269237
#
# Stress axis : x y z
#
# Youngs Moduli (GPa) = 48.12915 86.33034 165.63077
#
# Poissons Ratio (x) = 0.28495 0.35223
# Poissons Ratio (y) = 0.15886 0.40178
# Poissons Ratio (z) = 0.10235 0.20942
#
# Static dielectric constant tensor:
#      x y z
#    x 1.917990 -0.009430 -0.016680 
#    y -0.009430 1.973990 -0.021180 
#    z -0.016680 -0.021180 1.869220 
# 
# From -- ./inp_files/535107.got.cif
#   From: 2010.05.17/outbox.cif.g08.bks.cpg/sg2_268_cif.got.tgz:535107.got - 2010.06.03 11:33:40.
