data_PCOD9058084
_publ_section_title
;
Structure prediction by ZEFSAII (Michael W. Deem and Ramdas Pophale) SiO2 
 PCOD9058084
Probable space group: P -1
;
_chemical_formula_sum "Si O2"
_cell_formula_units_Z 16
_cell_length_a 22.014529
_cell_length_b 9.027149
_cell_length_c 7.772796
_cell_angle_alpha 93.218740
_cell_angle_beta 56.725995
_cell_angle_gamma 139.146631
_cell_volume 637.483490
_symmetry_space_group_name_H-M "P -1"
_symmetry_group_IT_number 2
_symmetry_cell_setting 'triclinic'
loop_
_space_group_symop_operation_xyz
x,y,z
-x,-y,-z
loop_
_atom_site_type_symbol
_atom_site_label
_atom_site_fract_x
_atom_site_fract_y
_atom_site_fract_z
Si Si1 0.234984 0.807166 0.494539
Si Si2 0.547797 0.413163 0.937753
Si Si3 0.963297 0.307598 0.358734
Si Si4 0.745996 0.012715 0.147446
Si Si5 0.069819 0.286020 0.918700
Si Si6 0.708851 0.401248 0.115367
Si Si7 0.810635 0.853060 0.830488
Si Si8 0.506706 0.786127 0.346522
O O1 0.161437 0.789246 0.472880
O O2 0.244521 0.915828 0.666893
O O3 0.130072 0.479629 0.671055
O O4 0.401458 0.067886 0.203949
O O5 0.500000 0.500000 0.000000
O O6 0.676574 0.624937 0.887776
O O7 0.586143 0.423339 0.688819
O O8 0.941835 0.163134 0.543992
O O9 0.118748 0.664785 0.135400
O O10 0.961029 0.201890 0.184539
O O11 0.595538 0.804260 0.283934
O O12 0.771680 0.886546 0.057389
O O13 0.212075 0.524991 0.836302
O O14 0.000000 0.000000 0.000000
O O15 0.585691 0.296931 0.367957
O O16 0.628549 0.125572 0.126417
O O17 0.823151 0.705371 0.855259
#
# Coordination Sequence:
#
# PCOD9058084 Si02
#       8
#     2   2   2   2   2   2   2   2
#     4  11  24  45  73  97 135 179 222 281 343 388
#     4  12  25  43  70 107 133 173 231 288 336 389
#     4  11  24  45  66 101 136 175 223 280 342 391
#     4  11  22  44  70  98 133 176 229 278 329 407
#     4  11  26  45  70 101 134 177 227 273 336 411
#     4  11  27  46  68  98 135 188 219 269 344 403
#     4  12  27  40  70 105 132 177 229 278 339 397
#     4  11  24  48  68  93 143 177 226 276 334 406
#
# _framework density 25.098689
#
# number of rings (size 3 to 8) (size 9 to 14) (size 15 to 20)
#    0.000    0.750    5.000    2.625    8.750    3.000 
#    0.000    0.000    0.000    0.000    0.000    0.000 
#    0.000    0.000    0.000    0.000    0.000    0.000 
#
# Total GULP energy -89680.879068 kJ/mol
# GULP energy per Si atom -5605.054942 kJ/mol
# Density = 2.504156 g / cm^3
# Si number density = 25.098689 Si / 1000 Ang^3
#
#
#
# Elastic Constant Matrix: (Units=GPa)
#
#
# Indices 1 2 3 4 5 6 
#
# 1 80.2729 9.7750 4.1785 -6.3604 11.4576 -10.8033
# 2 9.7750 119.6957 7.3069 -0.5315 12.4427 -10.4090
# 3 4.1785 7.3069 51.3139 -14.0847 11.5128 -0.5228
# 4 -6.3604 -0.5315 -14.0847 24.7726 -1.8284 13.9333
# 5 11.4576 12.4427 11.5128 -1.8284 42.0198 -12.0428
# 6 -10.8033 -10.4090 -0.5228 13.9333 -12.0428 48.5165
#
#
#
# Elastic Compliance Matrix: (Units=1/GPa)
#
#
# Indices 1 2 3 4 5 6 
#
# 1 0.013344 -0.000674 0.000461 0.002723 -0.003078 0.001286
# 2 -0.000674 0.008814 -0.001352 -0.001930 -0.001600 0.001883
# 3 0.000461 -0.001352 0.026561 0.018702 -0.008290 -0.007330
# 4 0.002723 -0.001930 0.018702 0.061987 -0.008168 -0.019435
# 5 -0.003078 -0.001600 -0.008290 -0.008168 0.029476 0.008544
# 6 0.001286 0.001883 -0.007330 -0.019435 0.008544 0.028925
#
#
# Mechanical properties :
#
#
# Convention : Reuss Voigt Hill
#
# Bulk Modulus (GPa) = 21.93534 32.64480 27.29007
# Shear Modulus (GPa) = 26.67619 38.39660 32.53640
#
# Velocity S-wave (km/s) = 3.26368 3.91554 3.60438
# Velocity P-wave (km/s) = 4.79174 5.78591 5.31213
#
# Compressibility (1/GPa) = 0.04558853
#
# Stress axis : x y z
#
# Youngs Moduli (GPa) = 74.94150 113.46103 37.64864
#
# Poissons Ratio (x) = 0.07647 -0.01734
# Poissons Ratio (y) = 0.05051 0.05089
# Poissons Ratio (z) = -0.03452 0.15337
#
# Static dielectric constant tensor:
#      x y z
#    x 1.932510 -0.025790 0.029630 
#    y -0.025790 1.980790 -0.010990 
#    z 0.029630 -0.010990 2.025020 
# 
# From -- ./inp_files/352242.got.cif
#   From: 2010.05.17/outbox.cif.g08.bks.cpg/sg2_177_cif.got.tgz:352242.got - 2010.06.03 11:33:40.
