data_PCOD9058161
_publ_section_title
;
Structure prediction by ZEFSAII (Michael W. Deem and Ramdas Pophale) SiO2 
 PCOD9058161
Probable space group: P -1
;
_chemical_formula_sum "Si O2"
_cell_formula_units_Z 14
_cell_length_a 16.592844
_cell_length_b 12.018816
_cell_length_c 18.222422
_cell_angle_alpha 38.111598
_cell_angle_beta 155.359096
_cell_angle_gamma 156.223186
_cell_volume 588.588603
_symmetry_space_group_name_H-M "P -1"
_symmetry_group_IT_number 2
_symmetry_cell_setting 'triclinic'
loop_
_space_group_symop_operation_xyz
x,y,z
-x,-y,-z
loop_
_atom_site_type_symbol
_atom_site_label
_atom_site_fract_x
_atom_site_fract_y
_atom_site_fract_z
Si Si1 0.174000 0.042472 0.551266
Si Si2 0.158830 0.856643 0.350757
Si Si3 0.721449 0.709257 0.964848
Si Si4 0.142560 0.017776 0.923977
Si Si5 0.819159 0.060541 0.164114
Si Si6 0.725030 0.438778 0.429233
Si Si7 0.291694 0.622409 0.075942
O O1 0.513750 0.255754 0.751073
O O2 0.103822 0.140132 0.380734
O O3 0.008162 0.737562 0.548715
O O4 0.000000 0.000000 0.500000
O O5 0.036085 0.922444 0.268897
O O6 0.474731 0.172274 0.416688
O O7 0.899284 0.668900 0.168292
O O8 0.201864 0.681628 0.497924
O O9 0.642177 0.770527 0.939817
O O10 0.440843 0.524516 0.773655
O O11 0.000000 0.000000 0.000000
O O12 0.915657 0.703352 0.931854
O O13 0.266497 0.034066 0.942165
O O14 0.531918 0.810736 0.109822
O O15 0.890022 0.322148 0.100085
#
# Coordination Sequence:
#
# PCOD9058161 Si02
#       7
#     2   2   2   2   2   2   2
#     4  10  22  38  60  87 122 160 199 253 301 361
#     4   8  18  33  57  92 113 159 202 244 301 356
#     4   8  18  34  58  87 116 162 197 249 302 350
#     4  10  20  42  64  91 123 153 214 251 298 372
#     4  10  22  41  61  93 121 163 201 252 310 354
#     4  10  17  37  59  86 124 156 205 244 304 364
#     4  10  22  43  63  91 124 161 200 253 312 360
#
# _framework density 23.785713000000001
#
# number of rings (size 3 to 8) (size 9 to 14) (size 15 to 20)
#    0.857    1.714    0.000    2.143    0.000    1.714 
#   25.714    1.429    0.000    0.000    0.000    0.000 
#    0.000    0.000    0.000    0.000    0.000    0.000 
#
# Total GULP energy -78121.520968 kJ/mol
# GULP energy per Si atom -5580.108641 kJ/mol
# Density = 2.373158 g / cm^3
# Si number density = 23.785713 Si / 1000 Ang^3
#
#
#
# Elastic Constant Matrix: (Units=GPa)
#
#
# Indices 1 2 3 4 5 6 
#
# 1 96.3327 13.0401 1.1293 -9.9239 7.7444 0.1294
# 2 13.0401 105.3008 20.6094 -14.2253 12.6508 -9.2388
# 3 1.1293 20.6094 67.6858 -22.6422 7.4055 -8.5393
# 4 -9.9239 -14.2253 -22.6422 24.1765 -18.0309 4.7967
# 5 7.7444 12.6508 7.4055 -18.0309 29.5536 -5.2271
# 6 0.1294 -9.2388 -8.5393 4.7967 -5.2271 35.5863
#
#
#
# Elastic Compliance Matrix: (Units=1/GPa)
#
#
# Indices 1 2 3 4 5 6 
#
# 1 0.011135 -0.001063 0.002322 0.007129 0.001209 -0.000543
# 2 -0.001063 0.010726 -0.002228 0.001609 -0.002477 0.001673
# 3 0.002322 -0.002228 0.025758 0.034857 0.015724 0.003205
# 4 0.007129 0.001609 0.034857 0.127284 0.066610 0.001383
# 5 0.001209 -0.002477 0.015724 0.066610 0.072118 0.004740
# 6 -0.000543 0.001673 0.003205 0.001383 0.004740 0.029816
#
#
# Mechanical properties :
#
#
# Convention : Reuss Voigt Hill
#
# Bulk Modulus (GPa) = 21.89073 37.65297 29.77185
# Shear Modulus (GPa) = 17.00663 33.49931 25.25297
#
# Velocity S-wave (km/s) = 2.67684 3.75691 3.26189
# Velocity P-wave (km/s) = 4.33327 5.88928 5.17015
#
# Compressibility (1/GPa) = 0.04568143
#
# Stress axis : x y z
#
# Youngs Moduli (GPa) = 89.80402 93.23100 38.82285
#
# Poissons Ratio (x) = 0.09912 -0.09015
# Poissons Ratio (y) = 0.09548 0.08649
# Poissons Ratio (z) = -0.20853 0.20771
#
# Static dielectric constant tensor:
#      x y z
#    x 1.901030 0.031110 0.003870 
#    y 0.031110 1.922540 0.020430 
#    z 0.003870 0.020430 1.921810 
# 
# From -- ./inp_files/341193.got.cif
#   From: 2010.05.17/outbox.cif.g08.bks.cpg/sg2_171_cif.got.tgz:341193.got - 2010.06.03 11:33:40.
