data_PCOD9058323
_publ_section_title
;
Structure prediction by ZEFSAII (Michael W. Deem and Ramdas Pophale) SiO2 
 PCOD9058323
Probable space group: P -1
;
_chemical_formula_sum "Si O2"
_cell_formula_units_Z 16
_cell_length_a 9.365641
_cell_length_b 22.850645
_cell_length_c 8.525611
_cell_angle_alpha 41.131179
_cell_angle_beta 81.619398
_cell_angle_gamma 49.331590
_cell_volume 657.435165
_symmetry_space_group_name_H-M "P -1"
_symmetry_group_IT_number 2
_symmetry_cell_setting 'triclinic'
loop_
_space_group_symop_operation_xyz
x,y,z
-x,-y,-z
loop_
_atom_site_type_symbol
_atom_site_label
_atom_site_fract_x
_atom_site_fract_y
_atom_site_fract_z
Si Si1 0.405991 0.901664 0.767296
Si Si2 0.815219 0.932108 0.860208
Si Si3 0.857706 0.514630 0.191274
Si Si4 0.794332 0.143554 0.870859
Si Si5 0.980319 0.772508 0.689213
Si Si6 0.020225 0.332326 0.807142
Si Si7 0.740467 0.755986 0.551373
Si Si8 0.453053 0.624546 0.812324
O O1 0.278811 0.964745 0.487397
O O2 0.291619 0.051644 0.556629
O O3 0.314421 0.870655 0.958669
O O4 0.713559 0.756054 0.009029
O O5 0.561933 0.063480 0.749360
O O6 0.905967 0.789267 0.071995
O O7 0.051550 0.858934 0.056144
O O8 0.843179 0.491695 0.418503
O O9 0.146416 0.338696 0.438330
O O10 0.803281 0.643164 0.889739
O O11 0.653005 0.561257 0.031231
O O12 0.565825 0.301751 0.481936
O O13 0.000000 0.000000 0.000000
O O14 0.912376 0.751321 0.589589
O O15 0.167064 0.760088 0.659782
O O16 0.097904 0.649430 0.053725
O O17 0.500000 0.500000 0.000000
#
# Coordination Sequence:
#
# PCOD9058323 Si02
#       8
#     2   2   2   2   2   2   2   2
#     4  11  23  44  70 101 134 162 225 282 322 390
#     4  11  23  45  69 100 131 171 219 276 331 386
#     4  11  27  41  63  99 137 172 221 267 325 392
#     4  12  26  42  70  98 130 179 218 267 338 382
#     4  11  22  45  69  93 136 171 218 275 327 385
#     4  11  24  44  71 100 126 178 220 269 335 388
#     4  11  23  43  66  94 137 170 215 280 319 382
#     4  12  25  45  64  94 138 174 217 271 320 392
#
# _framework density 24.337001999999998
#
# number of rings (size 3 to 8) (size 9 to 14) (size 15 to 20)
#    0.000    0.750    5.000    2.625    5.250    1.500 
#    2.250    0.000    0.000    0.000    0.000    0.000 
#    0.000    0.000    0.000    0.000    0.000    0.000 
#
# Total GULP energy -89646.248575 kJ/mol
# GULP energy per Si atom -5602.890536 kJ/mol
# Density = 2.428161 g / cm^3
# Si number density = 24.337002 Si / 1000 Ang^3
#
#
#
# Elastic Constant Matrix: (Units=GPa)
#
#
# Indices 1 2 3 4 5 6 
#
# 1 97.2684 17.4418 16.0912 8.1028 7.9268 -9.8555
# 2 17.4418 56.2146 5.6620 -0.4808 -10.0322 -2.5038
# 3 16.0912 5.6620 89.1880 33.1256 -6.9720 -7.7690
# 4 8.1028 -0.4808 33.1256 40.0748 -3.3842 -11.6407
# 5 7.9268 -10.0322 -6.9720 -3.3842 36.4360 9.1004
# 6 -9.8555 -2.5038 -7.7690 -11.6407 9.1004 37.3985
#
#
#
# Elastic Compliance Matrix: (Units=1/GPa)
#
#
# Indices 1 2 3 4 5 6 
#
# 1 0.012195 -0.004354 -0.001886 -0.000325 -0.005163 0.003686
# 2 -0.004354 0.020422 -0.000849 0.002127 0.006845 -0.000960
# 3 -0.001886 -0.000849 0.016786 -0.013870 0.002604 -0.002018
# 4 -0.000325 0.002127 -0.013870 0.039225 -0.000744 0.009566
# 5 -0.005163 0.006845 0.002604 -0.000744 0.033039 -0.008633
# 6 0.003686 -0.000960 -0.002018 0.009566 -0.008633 0.032305
#
#
# Mechanical properties :
#
#
# Convention : Reuss Voigt Hill
#
# Bulk Modulus (GPa) = 28.38892 35.67343 32.03117
# Shear Modulus (GPa) = 27.79454 36.34694 32.07074
#
# Velocity S-wave (km/s) = 3.38312 3.86876 3.63406
# Velocity P-wave (km/s) = 5.19142 5.88611 5.54965
#
# Compressibility (1/GPa) = 0.03522502
#
# Stress axis : x y z
#
# Youngs Moduli (GPa) = 82.00222 48.96583 59.57417
#
# Poissons Ratio (x) = 0.21319 0.11235
# Poissons Ratio (y) = 0.35702 0.05060
# Poissons Ratio (z) = 0.15464 0.04159
#
# Static dielectric constant tensor:
#      x y z
#    x 1.897210 -0.030340 -0.027750 
#    y -0.030340 2.023080 -0.054380 
#    z -0.027750 -0.054380 1.953720 
# 
# From -- ./inp_files/205297.got.cif
#   From: 2010.05.17/outbox.cif.g08.bks.cpg/sg2_103_cif.got.tgz:205297.got - 2010.06.03 11:33:40.
