data_PCOD9058288
_publ_section_title
;
Structure prediction by ZEFSAII (Michael W. Deem and Ramdas Pophale) SiO2 
 PCOD9058288
Probable space group: P -1
;
_chemical_formula_sum "Si O2"
_cell_formula_units_Z 14
_cell_length_a 21.309040
_cell_length_b 11.657350
_cell_length_c 14.874609
_cell_angle_alpha 41.672531
_cell_angle_beta 160.917860
_cell_angle_gamma 146.488921
_cell_volume 649.476844
_symmetry_space_group_name_H-M "P -1"
_symmetry_group_IT_number 2
_symmetry_cell_setting 'triclinic'
loop_
_space_group_symop_operation_xyz
x,y,z
-x,-y,-z
loop_
_atom_site_type_symbol
_atom_site_label
_atom_site_fract_x
_atom_site_fract_y
_atom_site_fract_z
Si Si1 0.747319 0.122539 0.705249
Si Si2 0.740451 0.554902 0.836959
Si Si3 0.615109 0.546300 0.018123
Si Si4 0.865087 0.788649 0.047454
Si Si5 0.352770 0.864346 0.967474
Si Si6 0.325050 0.815897 0.634899
Si Si7 0.878415 0.799210 0.384891
O O1 0.670696 0.139015 0.491204
O O2 0.500000 0.000000 0.500000
O O3 0.831784 0.969847 0.917761
O O4 0.014685 0.353906 0.941788
O O5 0.500000 0.500000 0.500000
O O6 0.813989 0.733859 0.906060
O O7 0.664429 0.345938 0.911985
O O8 0.695515 0.398690 0.247691
O O9 0.738339 0.757489 0.124678
O O10 0.681199 0.596841 0.975311
O O11 0.332556 0.405437 0.727466
O O12 0.112111 0.822599 0.380554
O O13 0.089201 0.792012 0.641633
O O14 0.500000 0.000000 0.000000
O O15 0.452206 0.005509 0.109891
O O16 0.000000 0.000000 0.500000
#
# Coordination Sequence:
#
# PCOD9058288 Si02
#       7
#     2   2   2   2   2   2   2
#     4  11  26  44  67  96 136 183 229 278 352 407
#     4  11  24  46  68  99 136 179 234 289 333 414
#     4  11  24  42  71  99 138 177 226 284 350 399
#     4  11  23  43  71  94 133 180 231 270 353 409
#     4  12  24  42  70 102 134 174 233 282 345 411
#     4  11  22  45  67  98 133 180 224 284 338 411
#     4  11  24  41  64 100 144 172 219 282 346 404
#
# _framework density 21.555810999999999
#
# number of rings (size 3 to 8) (size 9 to 14) (size 15 to 20)
#    0.000    0.857    1.429    7.286    6.000    0.000 
#    2.571    1.429    0.000    0.000    0.000    0.000 
#    0.000    0.000    0.000    0.000    0.000    0.000 
#
# Total GULP energy -78026.376218 kJ/mol
# GULP energy per Si atom -5573.312587 kJ/mol
# Density = 2.150675 g / cm^3
# Si number density = 21.555811 Si / 1000 Ang^3
#
#
#
# Elastic Constant Matrix: (Units=GPa)
#
#
# Indices 1 2 3 4 5 6 
#
# 1 83.6587 35.0454 46.1057 12.1706 22.0335 27.0451
# 2 35.0454 103.7490 48.6646 -4.0393 16.4823 12.5042
# 3 46.1057 48.6646 152.6797 28.0252 24.8526 21.6482
# 4 12.1706 -4.0393 28.0252 41.3298 -9.2397 -4.7288
# 5 22.0335 16.4823 24.8526 -9.2397 36.9881 15.7557
# 6 27.0451 12.5042 21.6482 -4.7288 15.7557 47.5303
#
#
#
# Elastic Compliance Matrix: (Units=1/GPa)
#
#
# Indices 1 2 3 4 5 6 
#
# 1 0.020365 -0.004671 -0.000469 -0.008971 -0.008470 -0.008230
# 2 -0.004671 0.013109 -0.004111 0.005726 0.000501 0.001485
# 3 -0.000469 -0.004111 0.011239 -0.009690 -0.006805 -0.002479
# 4 -0.008971 0.005726 -0.009690 0.038312 0.016112 0.006482
# 5 -0.008470 0.000501 -0.006805 0.016112 0.042450 -0.004681
# 6 -0.008230 0.001485 -0.002479 0.006482 -0.004681 0.028657
#
#
# Mechanical properties :
#
#
# Convention : Reuss Voigt Hill
#
# Bulk Modulus (GPa) = 38.14996 66.63542 52.39269
# Shear Modulus (GPa) = 27.56788 39.18777 33.37783
#
# Velocity S-wave (km/s) = 3.58006 4.26839 3.93929
# Velocity P-wave (km/s) = 5.90134 7.43453 6.71186
#
# Compressibility (1/GPa) = 0.02621234
#
# Stress axis : x y z
#
# Youngs Moduli (GPa) = 49.10425 76.28259 88.97233
#
# Poissons Ratio (x) = 0.35631 0.04169
# Poissons Ratio (y) = 0.22937 0.36577
# Poissons Ratio (z) = 0.02301 0.31360
#
# Static dielectric constant tensor:
#      x y z
#    x 1.804590 -0.034640 0.038670 
#    y -0.034640 1.885590 0.004340 
#    z 0.038670 0.004340 1.809860 
# 
# From -- ./inp_files/274000.got.cif
#   From: 2010.05.17/outbox.cif.g08.bks.cpg/sg2_137_cif.got.tgz:274000.got - 2010.06.03 11:33:40.
