data_PCOD9058202
_publ_section_title
;
Structure prediction by ZEFSAII (Michael W. Deem and Ramdas Pophale) SiO2 
 PCOD9058202
Probable space group: P -1
;
_chemical_formula_sum "Si O2"
_cell_formula_units_Z 14
_cell_length_a 12.630500
_cell_length_b 20.701362
_cell_length_c 20.561004
_cell_angle_alpha 20.433445
_cell_angle_beta 147.041346
_cell_angle_gamma 158.197569
_cell_volume 676.891846
_symmetry_space_group_name_H-M "P -1"
_symmetry_group_IT_number 2
_symmetry_cell_setting 'triclinic'
loop_
_space_group_symop_operation_xyz
x,y,z
-x,-y,-z
loop_
_atom_site_type_symbol
_atom_site_label
_atom_site_fract_x
_atom_site_fract_y
_atom_site_fract_z
Si Si1 0.420843 0.893945 0.384128
Si Si2 0.948076 0.862662 0.173365
Si Si3 0.170088 0.199581 0.101530
Si Si4 0.882935 0.521069 0.984621
Si Si5 0.167844 0.717484 0.081224
Si Si6 0.332696 0.288888 0.376606
Si Si7 0.250469 0.910771 0.501044
O O1 0.498704 0.782822 0.481191
O O2 0.106923 0.772510 0.340071
O O3 0.553349 0.906083 0.507504
O O4 0.626400 0.211248 0.172111
O O5 0.597422 0.591586 0.263002
O O6 0.096146 0.084953 0.098198
O O7 0.000000 0.000000 0.000000
O O8 0.119586 0.989645 0.320790
O O9 0.500000 0.500000 0.000000
O O10 0.991595 0.244351 0.993217
O O11 0.748888 0.626743 0.802280
O O12 0.000000 0.500000 0.000000
O O13 0.115878 0.700621 0.993076
O O14 0.012357 0.414219 0.307726
O O15 0.500000 0.000000 0.000000
O O16 0.000000 0.000000 0.500000
O O17 0.500000 0.000000 0.500000
#
# Coordination Sequence:
#
# PCOD9058202 Si02
#       7
#     2   2   2   2   2   2   2
#     4  11  23  45  71  99 138 181 237 285 344 414
#     4  12  27  43  72 108 137 180 240 291 342 421
#     4  12  25  48  73 100 145 186 233 292 355 412
#     4  11  23  46  69  99 144 182 229 287 349 420
#     4  11  27  43  71 106 136 185 233 292 352 409
#     4  12  26  43  68 102 138 188 223 283 361 408
#     4  11  22  44  73  99 133 186 237 277 349 425
#
# _framework density 20.682770999999999
#
# number of rings (size 3 to 8) (size 9 to 14) (size 15 to 20)
#    0.000    0.571    5.714    2.143    4.000    1.714 
#    2.571    0.000    0.000    0.000    0.000    0.000 
#    0.000    0.000    0.000    0.000    0.000    0.000 
#
# Total GULP energy -78036.736712 kJ/mol
# GULP energy per Si atom -5574.052622 kJ/mol
# Density = 2.063570 g / cm^3
# Si number density = 20.682771 Si / 1000 Ang^3
#
#
#
# Elastic Constant Matrix: (Units=GPa)
#
#
# Indices 1 2 3 4 5 6 
#
# 1 92.1336 60.7114 21.6966 -4.1342 4.1994 -11.0230
# 2 60.7114 179.4321 43.0652 -27.9721 -1.5674 -10.0514
# 3 21.6966 43.0652 90.8724 12.6440 6.4432 -23.7578
# 4 -4.1342 -27.9721 12.6440 32.7773 0.1788 -3.4436
# 5 4.1994 -1.5674 6.4432 0.1788 27.3244 7.4247
# 6 -11.0230 -10.0514 -23.7578 -3.4436 7.4247 33.9334
#
#
#
# Elastic Compliance Matrix: (Units=1/GPa)
#
#
# Indices 1 2 3 4 5 6 
#
# 1 0.014806 -0.005390 0.000799 -0.002559 -0.003945 0.004376
# 2 -0.005390 0.010267 -0.005895 0.010068 0.003439 -0.002567
# 3 0.000799 -0.005895 0.018977 -0.010892 -0.008262 0.012502
# 4 -0.002559 0.010068 -0.010892 0.042752 0.003794 -0.001966
# 5 -0.003945 0.003439 -0.008262 0.003794 0.043446 -0.015168
# 6 0.004376 -0.002567 0.012502 -0.001966 -0.015168 0.042003
#
#
# Mechanical properties :
#
#
# Convention : Reuss Voigt Hill
#
# Bulk Modulus (GPa) = 43.32878 68.15384 55.74131
# Shear Modulus (GPa) = 24.88617 34.60469 29.74543
#
# Velocity S-wave (km/s) = 3.47253 4.09481 3.79644
# Velocity P-wave (km/s) = 6.08873 7.44179 6.79900
#
# Compressibility (1/GPa) = 0.02307935
#
# Stress axis : x y z
#
# Youngs Moduli (GPa) = 67.54180 97.39741 52.69504
#
# Poissons Ratio (x) = 0.52493 -0.04211
# Poissons Ratio (y) = 0.36402 0.31063
# Poissons Ratio (z) = -0.05397 0.57414
#
# Static dielectric constant tensor:
#      x y z
#    x 1.666870 -0.059350 0.108290 
#    y -0.059350 1.764010 0.033970 
#    z 0.108290 0.033970 1.645830 
# 
# From -- ./inp_files/596239.got.cif
#   From: 2010.05.17/outbox.cif.g08.bks.cpg/sg2_299_cif.got.tgz:596239.got - 2010.06.03 11:33:40.
