data_PCOD9058620
_publ_section_title
;
Structure prediction by ZEFSAII (Michael W. Deem and Ramdas Pophale) SiO2 
 PCOD9058620
Probable space group: P -1
;
_chemical_formula_sum "Si O2"
_cell_formula_units_Z 16
_cell_length_a 14.486336
_cell_length_b 12.587752
_cell_length_c 9.041939
_cell_angle_alpha 111.040591
_cell_angle_beta 105.912764
_cell_angle_gamma 132.881352
_cell_volume 735.339959
_symmetry_space_group_name_H-M "P -1"
_symmetry_group_IT_number 2
_symmetry_cell_setting 'triclinic'
loop_
_space_group_symop_operation_xyz
x,y,z
-x,-y,-z
loop_
_atom_site_type_symbol
_atom_site_label
_atom_site_fract_x
_atom_site_fract_y
_atom_site_fract_z
Si Si1 0.763674 0.468975 0.189851
Si Si2 0.954016 0.902093 0.589497
Si Si3 0.269164 0.101885 0.965040
Si Si4 0.805359 0.353497 0.412240
Si Si5 0.354400 0.028020 0.698953
Si Si6 0.940647 0.696343 0.842275
Si Si7 0.645849 0.571254 0.508244
Si Si8 0.038508 0.668070 0.158918
O O1 0.862383 0.682765 0.407443
O O2 0.710407 0.330351 0.230598
O O3 0.911937 0.556622 0.193670
O O4 0.573743 0.295034 0.923218
O O5 0.791821 0.787843 0.569445
O O6 0.000000 0.000000 0.500000
O O7 0.155474 0.098443 0.863747
O O8 0.257406 0.011861 0.768893
O O9 0.490691 0.341019 0.227821
O O10 0.140238 0.926017 0.957049
O O11 0.672830 0.122259 0.311355
O O12 0.862263 0.500450 0.636769
O O13 0.000000 0.500000 0.500000
O O14 0.252902 0.912832 0.438067
O O15 0.786756 0.637002 0.702776
O O16 0.980094 0.703505 0.031691
O O17 0.500000 0.500000 0.500000
O O18 0.000000 0.500000 0.000000
#
# Coordination Sequence:
#
# PCOD9058620 Si02
#       8
#     2   2   2   2   2   2   2   2
#     4  12  24  43  67 102 137 180 240 281 340 427
#     4  11  24  45  74 101 135 181 238 296 355 415
#     4  11  22  46  74  99 132 182 236 285 349 423
#     4  12  18  41  72 100 133 185 226 277 340 416
#     4  12  23  41  72 102 138 182 231 281 340 423
#     4  11  23  43  68 100 145 180 226 282 350 424
#     4  11  26  48  72 105 137 178 243 303 354 409
#     4  12  25  43  64 103 151 182 219 283 357 419
#
# _framework density 21.758642999999999
#
# number of rings (size 3 to 8) (size 9 to 14) (size 15 to 20)
#    0.000    0.500    8.750    0.375    0.000    6.000 
#    2.250    0.000    0.000    0.000    0.000    0.000 
#    0.000    0.000    0.000    0.000    0.000    0.000 
#
# Total GULP energy -89376.100719 kJ/mol
# GULP energy per Si atom -5586.006295 kJ/mol
# Density = 2.170912 g / cm^3
# Si number density = 21.758643 Si / 1000 Ang^3
#
#
#
# Elastic Constant Matrix: (Units=GPa)
#
#
# Indices 1 2 3 4 5 6 
#
# 1 82.2330 7.4421 15.9287 2.5009 2.0979 8.7416
# 2 7.4421 45.1045 15.9313 -9.5389 15.4616 -2.7600
# 3 15.9287 15.9313 125.9080 -14.9541 21.0128 -9.9069
# 4 2.5009 -9.5389 -14.9541 28.2600 6.8470 0.8998
# 5 2.0979 15.4616 21.0128 6.8470 35.5720 -4.1246
# 6 8.7416 -2.7600 -9.9069 0.8998 -4.1246 15.0498
#
#
#
# Elastic Compliance Matrix: (Units=1/GPa)
#
#
# Indices 1 2 3 4 5 6 
#
# 1 0.014200 -0.003514 -0.002994 -0.004218 0.002107 -0.010033
# 2 -0.003514 0.031617 0.001406 0.015753 -0.017032 0.003155
# 3 -0.002994 0.001406 0.010915 0.008169 -0.007691 0.006586
# 4 -0.004218 0.015753 0.008169 0.050399 -0.020896 0.001976
# 5 0.002107 -0.017032 -0.007691 -0.020896 0.044421 0.004014
# 6 -0.010033 0.003155 0.006586 0.001976 0.004014 0.078169
#
#
# Mechanical properties :
#
#
# Convention : Reuss Voigt Hill
#
# Bulk Modulus (GPa) = 21.49228 36.87218 29.18223
# Shear Modulus (GPa) = 19.57455 30.03926 24.80691
#
# Velocity S-wave (km/s) = 3.00262 3.71963 3.38019
# Velocity P-wave (km/s) = 4.68188 5.95234 5.35492
#
# Compressibility (1/GPa) = 0.04652833
#
# Stress axis : x y z
#
# Youngs Moduli (GPa) = 70.42481 31.62852 91.61580
#
# Poissons Ratio (x) = 0.11113 0.27428
# Poissons Ratio (y) = 0.24744 -0.12878
# Poissons Ratio (z) = 0.21084 -0.04446
#
# Static dielectric constant tensor:
#      x y z
#    x 1.865610 0.001150 0.020650 
#    y 0.001150 1.789920 0.009710 
#    z 0.020650 0.009710 1.875360 
# 
# From -- ./inp_files/308137.got.cif
#   From: 2010.05.17/outbox.cif.g08.bks.cpg/sg2_155_cif.got.tgz:308137.got - 2010.06.03 11:33:40.
