data_PCOD9058276
_publ_section_title
;
Structure prediction by ZEFSAII (Michael W. Deem and Ramdas Pophale) SiO2 
 PCOD9058276
Probable space group: P -1
;
_chemical_formula_sum "Si O2"
_cell_formula_units_Z 16
_cell_length_a 8.665373
_cell_length_b 18.738440
_cell_length_c 12.098960
_cell_angle_alpha 32.021655
_cell_angle_beta 140.263400
_cell_angle_gamma 122.651556
_cell_volume 628.195213
_symmetry_space_group_name_H-M "P -1"
_symmetry_group_IT_number 2
_symmetry_cell_setting 'triclinic'
loop_
_space_group_symop_operation_xyz
x,y,z
-x,-y,-z
loop_
_atom_site_type_symbol
_atom_site_label
_atom_site_fract_x
_atom_site_fract_y
_atom_site_fract_z
Si Si1 0.115177 0.340457 0.212566
Si Si2 0.350220 0.626932 0.543074
Si Si3 0.008143 0.086176 0.611334
Si Si4 0.532634 0.703083 0.917984
Si Si5 0.659906 0.918592 0.584904
Si Si6 0.854389 0.700876 0.309586
Si Si7 0.215085 0.576704 0.288394
Si Si8 0.757448 0.992216 0.946864
O O1 0.405628 0.326603 0.365920
O O2 0.114513 0.198833 0.463098
O O3 0.000000 0.500000 0.000000
O O4 0.945010 0.338567 0.013766
O O5 0.102833 0.706203 0.374495
O O6 0.265832 0.636220 0.356521
O O7 0.432028 0.462260 0.845261
O O8 0.758108 0.196889 0.390954
O O9 0.884000 0.985606 0.605949
O O10 0.200202 0.975348 0.946408
O O11 0.709399 0.755581 0.863192
O O12 0.628099 0.726260 0.062395
O O13 0.500000 0.000000 0.500000
O O14 0.485456 0.943362 0.348692
O O15 0.903963 0.547635 0.588733
O O16 0.774334 0.827193 0.185004
O O17 0.500000 0.500000 0.500000
O O18 0.000000 0.000000 0.000000
#
# Coordination Sequence:
#
# PCOD9058276 Si02
#       8
#     2   2   2   2   2   2   2   2
#     4  12  22  38  59  89 128 169 214 257 305 382
#     4  11  25  41  59  95 136 164 200 266 321 372
#     4  11  21  35  59  93 123 154 214 263 301 364
#     4  10  17  37  60  83 123 159 197 256 308 360
#     4  10  19  34  57  90 120 155 208 268 299 354
#     4  11  23  40  60  96 134 159 204 266 320 371
#     4  11  22  38  64  89 124 174 208 248 316 377
#     4  12  21  36  64  96 120 163 210 260 317 367
#
# _framework density 25.46979
#
# number of rings (size 3 to 8) (size 9 to 14) (size 15 to 20)
#    0.000    1.000    7.500    3.000    0.000    0.500 
#    2.250    0.000    0.000    3.000    0.000    9.625 
#    0.000    0.000    0.000    0.000    0.000    0.000 
#
# Total GULP energy -89545.503473 kJ/mol
# GULP energy per Si atom -5596.593967 kJ/mol
# Density = 2.541182 g / cm^3
# Si number density = 25.469790 Si / 1000 Ang^3
#
#
#
# Elastic Constant Matrix: (Units=GPa)
#
#
# Indices 1 2 3 4 5 6 
#
# 1 80.0998 40.5599 24.5878 3.9360 -10.5615 17.8518
# 2 40.5599 160.5186 70.8998 -4.3026 -12.5637 26.9481
# 3 24.5878 70.8998 154.7035 23.4383 -31.0975 4.1938
# 4 3.9360 -4.3026 23.4383 47.3796 5.3816 0.7391
# 5 -10.5615 -12.5637 -31.0975 5.3816 36.1809 -7.3858
# 6 17.8518 26.9481 4.1938 0.7391 -7.3858 42.4629
#
#
#
# Elastic Compliance Matrix: (Units=1/GPa)
#
#
# Indices 1 2 3 4 5 6 
#
# 1 0.015388 -0.002964 -0.000166 -0.001714 0.002746 -0.004065
# 2 -0.002964 0.010098 -0.005430 0.004361 -0.003768 -0.005358
# 3 -0.000166 -0.005430 0.012158 -0.007758 0.010544 0.004284
# 4 -0.001714 0.004361 -0.007758 0.026713 -0.010351 -0.003546
# 5 0.002746 -0.003768 0.010544 -0.010351 0.039203 0.007194
# 6 -0.004065 -0.005358 0.004284 -0.003546 0.007194 0.029549
#
#
# Mechanical properties :
#
#
# Convention : Reuss Voigt Hill
#
# Bulk Modulus (GPa) = 48.71983 74.15743 61.43863
# Shear Modulus (GPa) = 31.83295 42.48964 37.16130
#
# Velocity S-wave (km/s) = 3.53913 4.08884 3.82387
# Velocity P-wave (km/s) = 5.98921 7.17429 6.60837
#
# Compressibility (1/GPa) = 0.02052552
#
# Stress axis : x y z
#
# Youngs Moduli (GPa) = 64.98497 99.02478 82.25361
#
# Poissons Ratio (x) = 0.29349 0.01363
# Poissons Ratio (y) = 0.19260 0.44663
# Poissons Ratio (z) = 0.01077 0.53769
#
# Static dielectric constant tensor:
#      x y z
#    x 2.060060 -0.027930 0.064520 
#    y -0.027930 2.036760 -0.063860 
#    z 0.064520 -0.063860 2.079830 
# 
# From -- ./inp_files/405346.got.cif
#   From: 2010.05.17/outbox.cif.g08.bks.cpg/sg2_203_cif.got.tgz:405346.got - 2010.06.03 11:33:40.
