data_PCOD9058509
_publ_section_title
;
Structure prediction by ZEFSAII (Michael W. Deem and Ramdas Pophale) SiO2 
 PCOD9058509
Probable space group: P -1
;
_chemical_formula_sum "Si O2"
_cell_formula_units_Z 16
_cell_length_a 11.496597
_cell_length_b 15.006958
_cell_length_c 9.778099
_cell_angle_alpha 61.321195
_cell_angle_beta 127.284540
_cell_angle_gamma 74.892473
_cell_volume 722.207792
_symmetry_space_group_name_H-M "P -1"
_symmetry_group_IT_number 2
_symmetry_cell_setting 'triclinic'
loop_
_space_group_symop_operation_xyz
x,y,z
-x,-y,-z
loop_
_atom_site_type_symbol
_atom_site_label
_atom_site_fract_x
_atom_site_fract_y
_atom_site_fract_z
Si Si1 0.703299 0.277539 0.863586
Si Si2 0.662275 0.830790 0.826573
Si Si3 0.758645 0.060403 0.911991
Si Si4 0.513738 0.695557 0.705657
Si Si5 0.787608 0.414029 0.618803
Si Si6 0.801560 0.309024 0.436361
Si Si7 0.445339 0.051116 0.765611
Si Si8 0.893220 0.328910 0.181756
O O1 0.824928 0.104811 0.043187
O O2 0.750296 0.326202 0.732902
O O3 0.423321 0.407609 0.590408
O O4 0.792540 0.293110 0.043951
O O5 0.597591 0.750686 0.801650
O O6 0.500000 0.000000 0.500000
O O7 0.591983 0.895432 0.885053
O O8 0.942000 0.696467 0.094549
O O9 0.686668 0.157913 0.652114
O O10 0.532230 0.116518 0.746710
O O11 0.971996 0.864917 0.198674
O O12 0.395089 0.671282 0.728897
O O13 0.729568 0.519042 0.912495
O O14 0.724903 0.435349 0.398519
O O15 0.881368 0.305237 0.350086
O O16 0.165504 0.195571 0.432634
O O17 0.500000 0.000000 0.000000
#
# Coordination Sequence:
#
# PCOD9058509 Si02
#       8
#     2   2   2   2   2   2   2   2
#     4  11  25  41  71 105 136 181 236 288 345 414
#     4  12  25  44  72 102 138 186 237 287 341 425
#     4  12  25  44  74 102 139 189 231 289 351 421
#     4  12  26  44  74 107 133 190 239 284 349 416
#     4  11  22  46  65  98 145 181 224 292 349 411
#     4  12  24  48  72  98 147 182 235 287 352 413
#     4  12  26  49  67 103 149 182 224 292 361 405
#     4  12  27  47  70 105 146 182 231 300 343 416
#
# _framework density 22.154288999999999
#
# number of rings (size 3 to 8) (size 9 to 14) (size 15 to 20)
#    0.000    0.250    6.250    2.250    5.250    2.000 
#    0.000    1.250    0.000    0.000    0.000    0.000 
#    0.000    0.000    0.000    0.000    0.000    0.000 
#
# Total GULP energy -89511.285847 kJ/mol
# GULP energy per Si atom -5594.455365 kJ/mol
# Density = 2.210386 g / cm^3
# Si number density = 22.154289 Si / 1000 Ang^3
#
#
#
# Elastic Constant Matrix: (Units=GPa)
#
#
# Indices 1 2 3 4 5 6 
#
# 1 68.1245 7.6381 9.4781 13.6263 22.4036 -14.1650
# 2 7.6381 106.9754 9.7471 20.1285 9.3529 1.0510
# 3 9.4781 9.7471 83.3541 1.3187 20.5484 -12.2383
# 4 13.6263 20.1285 1.3187 36.6698 -6.3221 2.0660
# 5 22.4036 9.3529 20.5484 -6.3221 45.3659 6.6922
# 6 -14.1650 1.0510 -12.2383 2.0660 6.6922 40.3181
#
#
#
# Elastic Compliance Matrix: (Units=1/GPa)
#
#
# Indices 1 2 3 4 5 6 
#
# 1 0.026368 0.002209 0.003913 -0.015328 -0.019512 0.014418
# 2 0.002209 0.011051 -0.000020 -0.007789 -0.004690 0.001660
# 3 0.003913 -0.000020 0.015447 -0.004300 -0.010714 0.008063
# 4 -0.015328 -0.007789 -0.004300 0.041261 0.018597 -0.011688
# 5 -0.019512 -0.004690 -0.010714 0.018597 0.042751 -0.018034
# 6 0.014418 0.001660 0.008063 -0.011688 -0.018034 0.035865
#
#
# Mechanical properties :
#
#
# Convention : Reuss Voigt Hill
#
# Bulk Modulus (GPa) = 15.36803 34.68673 25.02738
# Shear Modulus (GPa) = 27.43798 39.91014 33.67406
#
# Velocity S-wave (km/s) = 3.52304 4.24897 3.90292
# Velocity P-wave (km/s) = 4.84778 6.30575 5.62421
#
# Compressibility (1/GPa) = 0.06507016
#
# Stress axis : x y z
#
# Youngs Moduli (GPa) = 37.92530 90.48674 64.73566
#
# Poissons Ratio (x) = -0.19990 -0.25331
# Poissons Ratio (y) = -0.08379 0.00132
# Poissons Ratio (z) = -0.14840 0.00184
#
# Static dielectric constant tensor:
#      x y z
#    x 1.814140 -0.018260 0.000370 
#    y -0.018260 1.779320 0.005540 
#    z 0.000370 0.005540 1.854260 
# 
# From -- ./inp_files/272697.got.cif
#   From: 2010.05.17/outbox.cif.g08.bks.cpg/sg2_137_cif.got.tgz:272697.got - 2010.06.03 11:33:40.
