data_PCOD9058865
_publ_section_title
;
Structure prediction by ZEFSAII (Michael W. Deem and Ramdas Pophale) SiO2 
 PCOD9058865
Probable space group: P -1
;
_chemical_formula_sum "Si O2"
_cell_formula_units_Z 16
_cell_length_a 5.149648
_cell_length_b 13.638795
_cell_length_c 13.700172
_cell_angle_alpha 75.924576
_cell_angle_beta 86.844749
_cell_angle_gamma 112.337606
_cell_volume 851.562044
_symmetry_space_group_name_H-M "P -1"
_symmetry_group_IT_number 2
_symmetry_cell_setting 'triclinic'
loop_
_space_group_symop_operation_xyz
x,y,z
-x,-y,-z
loop_
_atom_site_type_symbol
_atom_site_label
_atom_site_fract_x
_atom_site_fract_y
_atom_site_fract_z
Si Si1 0.946552 0.566177 0.131543
Si Si2 0.599545 0.435907 0.740255
Si Si3 0.901281 0.330498 0.103303
Si Si4 0.308985 0.344288 0.375669
Si Si5 0.299323 0.608139 0.463224
Si Si6 0.691338 0.770040 0.781478
Si Si7 0.254864 0.825798 0.488657
Si Si8 0.248857 0.044571 0.403501
O O1 0.676575 0.563154 0.199693
O O2 0.928376 0.447283 0.121622
O O3 0.223395 0.610499 0.183922
O O4 0.984809 0.639136 0.016253
O O5 0.798409 0.565405 0.683201
O O6 0.552778 0.384090 0.646280
O O7 0.567442 0.251685 0.134766
O O8 0.080068 0.272098 0.169382
O O9 0.514605 0.399859 0.447463
O O10 0.444663 0.309076 0.290242
O O11 0.057401 0.233972 0.444476
O O12 0.280833 0.725315 0.454536
O O13 0.000000 0.500000 0.500000
O O14 0.809753 0.891542 0.701747
O O15 0.475956 0.873143 0.561897
O O16 0.291309 0.934005 0.400503
O O17 0.000000 0.000000 0.500000
#
# Coordination Sequence:
#
# PCOD9058865 Si02
#       8
#     2   2   2   2   2   2   2   2
#     4  11  23  40  58  88 121 161 213 269 305 371
#     4  12  24  37  61  87 127 175 205 247 311 364
#     4  11  23  39  61  87 121 159 213 261 322 372
#     4  12  22  37  56  91 133 167 208 238 296 389
#     4  12  25  37  59  89 133 178 210 244 297 386
#     4  12  22  37  64  89 122 171 193 257 321 372
#     4  11  23  39  57  86 134 168 211 250 298 358
#     4  11  23  38  61  89 128 167 208 259 302 373
#
# _framework density 18.789000000000001
#
# number of rings (size 3 to 8) (size 9 to 14) (size 15 to 20)
#    0.000    0.500    6.250    2.625    3.500    2.000 
#    0.000    0.000    0.000    0.000    0.000    5.250 
#    0.000    0.000    0.000    0.000    0.000    0.000 
#
# Total GULP energy -89316.797393 kJ/mol
# GULP energy per Si atom -5582.299837 kJ/mol
# Density = 1.874624 g / cm^3
# Si number density = 18.789000 Si / 1000 Ang^3
#
#
#
# Elastic Constant Matrix: (Units=GPa)
#
#
# Indices 1 2 3 4 5 6 
#
# 1 109.1408 35.1708 52.6669 -6.8114 2.8537 -1.0210
# 2 35.1708 96.0536 42.6620 -11.2460 1.9620 -12.7582
# 3 52.6669 42.6620 116.9310 -8.1320 4.1635 -18.2435
# 4 -6.8114 -11.2460 -8.1320 31.9278 -9.2613 5.7140
# 5 2.8537 1.9620 4.1635 -9.2613 36.8362 -2.3441
# 6 -1.0210 -12.7582 -18.2435 5.7140 -2.3441 36.3119
#
#
#
# Elastic Compliance Matrix: (Units=1/GPa)
#
#
# Indices 1 2 3 4 5 6 
#
# 1 0.012516 -0.002631 -0.005119 0.000969 -0.000218 -0.003311
# 2 -0.002631 0.013465 -0.003125 0.003144 0.000799 0.002644
# 3 -0.005119 -0.003125 0.012823 -0.000014 -0.000561 0.005166
# 4 0.000969 0.003144 -0.000014 0.035809 0.008510 -0.003961
# 5 -0.000218 0.000799 -0.000561 0.008510 0.029359 0.000549
# 6 -0.003311 0.002644 0.005166 -0.003961 0.000549 0.031629
#
#
# Mechanical properties :
#
#
# Convention : Reuss Voigt Hill
#
# Bulk Modulus (GPa) = 58.63680 64.79165 61.71422
# Shear Modulus (GPa) = 30.66833 33.79023 32.22928
#
# Velocity S-wave (km/s) = 4.04449 4.24536 4.14614
# Velocity P-wave (km/s) = 7.28604 7.65438 7.47248
#
# Compressibility (1/GPa) = 0.01705414
#
# Stress axis : x y z
#
# Youngs Moduli (GPa) = 79.90055 74.26577 77.98682
#
# Poissons Ratio (x) = 0.19540 0.39918
# Poissons Ratio (y) = 0.21023 0.24370
# Poissons Ratio (z) = 0.40898 0.23208
#
# Static dielectric constant tensor:
#      x y z
#    x 1.743220 -0.042370 0.000850 
#    y -0.042370 1.676220 -0.005490 
#    z 0.000850 -0.005490 1.664930 
# 
# From -- ./inp_files/366885.got.cif
#   From: 2010.05.17/outbox.cif.g08.bks.cpg/sg2_184_cif.got.tgz:366885.got - 2010.06.03 11:33:40.
