data_PCOD9058015
_publ_section_title
;
Structure prediction by ZEFSAII (Michael W. Deem and Ramdas Pophale) SiO2 
 PCOD9058015
Probable space group: P -1
;
_chemical_formula_sum "Si O2"
_cell_formula_units_Z 12
_cell_length_a 18.884410
_cell_length_b 14.965605
_cell_length_c 8.896077
_cell_angle_alpha 37.334099
_cell_angle_beta 146.099736
_cell_angle_gamma 158.409187
_cell_volume 512.657359
_symmetry_space_group_name_H-M "P -1"
_symmetry_group_IT_number 2
_symmetry_cell_setting 'triclinic'
loop_
_space_group_symop_operation_xyz
x,y,z
-x,-y,-z
loop_
_atom_site_type_symbol
_atom_site_label
_atom_site_fract_x
_atom_site_fract_y
_atom_site_fract_z
Si Si1 0.604537 0.546654 0.407301
Si Si2 0.596075 0.354854 0.349411
Si Si3 0.511744 0.041358 0.141778
Si Si4 0.131667 0.438326 0.970731
Si Si5 0.741937 0.981273 0.063969
Si Si6 0.847412 0.730618 0.042629
O O1 0.594089 0.478475 0.308526
O O2 0.679453 0.478652 0.728171
O O3 0.373062 0.399067 0.225859
O O4 0.766825 0.831023 0.343970
O O5 0.577278 0.184059 0.630380
O O6 0.406795 0.168738 0.144551
O O7 0.793079 0.574046 0.296302
O O8 0.378382 0.049104 0.972703
O O9 0.500000 0.000000 0.000000
O O10 0.758096 0.313197 0.231315
O O11 0.057803 0.274425 0.918799
O O12 0.946500 0.263386 0.000115
O O13 0.000000 0.000000 0.000000
#
# Coordination Sequence:
#
# PCOD9058015 Si02
#       6
#     2   2   2   2   2   2
#     4  11  22  44  69 100 143 174 228 295 328 401
#     4  11  23  45  69 101 142 175 231 288 333 412
#     4  12  26  48  67  99 144 185 226 283 344 407
#     4  12  24  44  70 102 137 186 228 277 350 405
#     4  11  25  44  72 100 137 179 237 284 338 405
#     4  11  23  42  73 107 134 180 232 282 348 401
#
# _framework density 23.407447999999999
#
# number of rings (size 3 to 8) (size 9 to 14) (size 15 to 20)
#    0.000    0.667    5.000    5.500    0.000    1.333 
#    3.000    0.000    0.000    0.000    0.000    0.000 
#    0.000    0.000    0.000    0.000    0.000    0.000 
#
# Total GULP energy -67077.935076 kJ/mol
# GULP energy per Si atom -5589.827923 kJ/mol
# Density = 2.335417 g / cm^3
# Si number density = 23.407448 Si / 1000 Ang^3
#
#
#
# Elastic Constant Matrix: (Units=GPa)
#
#
# Indices 1 2 3 4 5 6 
#
# 1 156.6568 46.1889 23.0135 -5.5495 -8.0811 1.0203
# 2 46.1889 155.0206 24.0860 -38.3557 2.2702 16.5706
# 3 23.0135 24.0860 73.4451 -32.1994 -11.0690 4.3662
# 4 -5.5495 -38.3557 -32.1994 32.5015 1.9326 -2.4267
# 5 -8.0811 2.2702 -11.0690 1.9326 27.7621 -8.9753
# 6 1.0203 16.5706 4.3662 -2.4267 -8.9753 46.6944
#
#
#
# Elastic Compliance Matrix: (Units=1/GPa)
#
#
# Indices 1 2 3 4 5 6 
#
# 1 0.007918 -0.003663 -0.004215 -0.007147 0.001912 0.001517
# 2 -0.003663 0.011698 0.005088 0.018067 -0.002579 -0.004104
# 3 -0.004215 0.005088 0.029207 0.033693 0.007236 -0.001303
# 4 -0.007147 0.018067 0.033693 0.083755 0.002571 -0.004559
# 5 0.001912 -0.002579 0.007236 0.002571 0.042224 0.008447
# 6 0.001517 -0.004104 -0.001303 -0.004559 0.008447 0.024347
#
#
# Mechanical properties :
#
#
# Convention : Reuss Voigt Hill
#
# Bulk Modulus (GPa) = 23.12541 63.52212 43.32376
# Shear Modulus (GPa) = 22.81582 40.84720 31.83151
#
# Velocity S-wave (km/s) = 3.12545 4.18191 3.69167
# Velocity P-wave (km/s) = 4.78806 7.10734 6.05970
#
# Compressibility (1/GPa) = 0.04324248
#
# Stress axis : x y z
#
# Youngs Moduli (GPa) = 126.29236 85.48220 34.23802
#
# Poissons Ratio (x) = 0.31311 0.14433
# Poissons Ratio (y) = 0.46259 -0.17419
# Poissons Ratio (z) = 0.53238 -0.43490
#
# Static dielectric constant tensor:
#      x y z
#    x 1.850840 -0.007090 -0.001610 
#    y -0.007090 1.912100 -0.023570 
#    z -0.001610 -0.023570 1.965320 
# 
# From -- ./inp_files/157049.got.cif
#   From: 2010.05.17/outbox.cif.g08.bks.cpg/sg2_79_cif.got.tgz:157049.got - 2010.06.03 11:33:40.
