data_PCOD9058422
_publ_section_title
;
Structure prediction by ZEFSAII (Michael W. Deem and Ramdas Pophale) SiO2 
 PCOD9058422
Probable space group: P -1
;
_chemical_formula_sum "Si O2"
_cell_formula_units_Z 14
_cell_length_a 10.799331
_cell_length_b 14.614394
_cell_length_c 6.533535
_cell_angle_alpha 108.679108
_cell_angle_beta 46.581063
_cell_angle_gamma 129.293879
_cell_volume 567.378738
_symmetry_space_group_name_H-M "P -1"
_symmetry_group_IT_number 2
_symmetry_cell_setting 'triclinic'
loop_
_space_group_symop_operation_xyz
x,y,z
-x,-y,-z
loop_
_atom_site_type_symbol
_atom_site_label
_atom_site_fract_x
_atom_site_fract_y
_atom_site_fract_z
Si Si1 0.722793 0.633643 0.868430
Si Si2 0.662987 0.486283 0.186543
Si Si3 0.273522 0.809531 0.679494
Si Si4 0.986636 0.620649 0.225452
Si Si5 0.608471 0.946828 0.733100
Si Si6 0.380335 0.715565 0.102441
Si Si7 0.007977 0.893589 0.826999
O O1 0.864086 0.657019 0.528618
O O2 0.778180 0.763238 0.960685
O O3 0.500000 0.500000 0.000000
O O4 0.800286 0.598211 0.955309
O O5 0.500000 0.500000 0.500000
O O6 0.808606 0.499247 0.219984
O O7 0.544602 0.366705 0.095703
O O8 0.498194 0.905057 0.606097
O O9 0.334011 0.752379 0.394361
O O10 0.148932 0.861347 0.769551
O O11 0.134572 0.719352 0.958173
O O12 0.142631 0.624765 0.212255
O O13 0.858320 0.047700 0.492085
O O14 0.536269 0.833683 0.873686
O O15 0.500000 0.000000 0.000000
O O16 0.000000 0.000000 0.000000
#
# Coordination Sequence:
#
# PCOD9058422 Si02
#       7
#     2   2   2   2   2   2   2
#     4  12  26  49  73 103 152 194 248 303 368 439
#     4  12  26  44  71 103 147 195 244 301 368 437
#     4  11  23  47  75 107 146 191 246 306 369 444
#     4  11  22  45  73 102 148 187 250 297 362 438
#     4  11  24  47  75 105 147 190 251 304 367 447
#     4  11  25  43  75 107 141 194 247 301 372 441
#     4  12  26  46  75 110 149 192 244 309 372 436
#
# _framework density 24.674879000000001
#
# number of rings (size 3 to 8) (size 9 to 14) (size 15 to 20)
#    0.000    0.571    5.714    1.714    2.000    5.714 
#    0.000    1.429    0.000    0.000    0.000    0.000 
#    0.000    0.000    0.000    0.000    0.000    0.000 
#
# Total GULP energy -78137.874825 kJ/mol
# GULP energy per Si atom -5581.276773 kJ/mol
# Density = 2.461872 g / cm^3
# Si number density = 24.674879 Si / 1000 Ang^3
#
#
#
# Elastic Constant Matrix: (Units=GPa)
#
#
# Indices 1 2 3 4 5 6 
#
# 1 34.1526 18.2748 25.8314 8.8284 5.8868 7.9475
# 2 18.2748 192.2011 76.6312 22.8212 4.4006 -11.8934
# 3 25.8314 76.6312 158.7150 20.0541 6.6445 -11.1409
# 4 8.8284 22.8212 20.0541 53.6957 7.1284 2.0219
# 5 5.8868 4.4006 6.6445 7.1284 36.1841 7.3801
# 6 7.9475 -11.8934 -11.1409 2.0219 7.3801 48.2642
#
#
#
# Elastic Compliance Matrix: (Units=1/GPa)
#
#
# Indices 1 2 3 4 5 6 
#
# 1 0.036969 -0.001420 -0.005354 -0.002829 -0.002849 -0.007119
# 2 -0.001420 0.006692 -0.002697 -0.001649 -0.000035 0.001335
# 3 -0.005354 -0.002697 0.008832 -0.001275 -0.000663 0.002411
# 4 -0.002829 -0.001649 -0.001275 0.020695 -0.003053 -0.000635
# 5 -0.002849 -0.000035 -0.000663 -0.003053 0.029664 -0.004101
# 6 -0.007119 0.001335 0.002411 -0.000635 -0.004101 0.023431
#
#
# Mechanical properties :
#
#
# Convention : Reuss Voigt Hill
#
# Bulk Modulus (GPa) = 29.80449 69.61593 49.71021
# Shear Modulus (GPa) = 31.96777 45.25088 38.60932
#
# Velocity S-wave (km/s) = 3.60329 4.28703 3.95995
# Velocity P-wave (km/s) = 5.42372 7.26494 6.41078
#
# Compressibility (1/GPa) = 0.03355199
#
# Stress axis : x y z
#
# Youngs Moduli (GPa) = 27.04984 149.42700 113.22382
#
# Poissons Ratio (x) = 0.21214 0.60624
# Poissons Ratio (y) = 0.03840 0.30531
# Poissons Ratio (z) = 0.14483 0.40293
#
# Static dielectric constant tensor:
#      x y z
#    x 2.256090 -0.072220 -0.085710 
#    y -0.072220 2.028370 0.053680 
#    z -0.085710 0.053680 1.920940 
# 
# From -- ./inp_files/78262.got.cif
#   From: 2010.05.17/outbox.cif.g08.bks.cpg/sg2_40_cif.got.tgz:78262.got - 2010.06.03 11:33:40.
