data_PCOD9058087
_publ_section_title
;
Structure prediction by ZEFSAII (Michael W. Deem and Ramdas Pophale) SiO2 
 PCOD9058087
Probable space group: P -1
;
_chemical_formula_sum "Si O2"
_cell_formula_units_Z 16
_cell_length_a 8.463435
_cell_length_b 15.711835
_cell_length_c 8.923712
_cell_angle_alpha 63.214711
_cell_angle_beta 99.091260
_cell_angle_gamma 54.872340
_cell_volume 710.916162
_symmetry_space_group_name_H-M "P -1"
_symmetry_group_IT_number 2
_symmetry_cell_setting 'triclinic'
loop_
_space_group_symop_operation_xyz
x,y,z
-x,-y,-z
loop_
_atom_site_type_symbol
_atom_site_label
_atom_site_fract_x
_atom_site_fract_y
_atom_site_fract_z
Si Si1 0.546861 0.571905 0.229773
Si Si2 0.927020 0.239900 0.179801
Si Si3 0.787987 0.984834 0.373067
Si Si4 0.176576 0.499772 0.955265
Si Si5 0.579732 0.025315 0.699232
Si Si6 0.325385 0.689095 0.411503
Si Si7 0.423400 0.787135 0.602597
Si Si8 0.137013 0.034148 0.940018
O O1 0.754067 0.523288 0.193155
O O2 0.493473 0.637073 0.335500
O O3 0.597383 0.439146 0.386074
O O4 0.305883 0.685177 0.007315
O O5 0.902451 0.362163 0.112126
O O6 0.978554 0.167615 0.405047
O O7 0.163766 0.108379 0.229193
O O8 0.793425 0.015644 0.179956
O O9 0.584346 0.993502 0.334930
O O10 0.731797 0.096815 0.384172
O O11 0.414687 0.361940 0.179918
O O12 0.000000 0.500000 0.000000
O O13 0.459961 0.167845 0.485598
O O14 0.646824 0.027811 0.875134
O O15 0.318056 0.782040 0.446605
O O16 0.059133 0.795952 0.226204
O O17 0.000000 0.000000 0.000000
#
# Coordination Sequence:
#
# PCOD9058087 Si02
#       8
#     2   2   2   2   2   2   2   2
#     4  11  25  44  72  98 141 185 226 289 350 411
#     4  11  22  44  70  99 134 181 229 279 349 408
#     4  11  26  43  69 102 141 181 224 288 348 404
#     4  12  25  43  69 104 136 177 235 286 346 412
#     4  11  23  46  67 100 144 179 221 283 352 407
#     4  11  24  46  67 103 138 178 237 285 338 411
#     4  11  24  41  71 102 135 174 233 288 332 407
#     4  12  25  42  67  97 137 184 232 276 339 410
#
# _framework density 22.506169
#
# number of rings (size 3 to 8) (size 9 to 14) (size 15 to 20)
#    0.000    0.750    3.750    4.500    3.500    0.500 
#    0.000    0.625    0.000    0.000    0.000    0.000 
#    0.000    0.000    0.000    0.000    0.000    0.000 
#
# Total GULP energy -89405.025534 kJ/mol
# GULP energy per Si atom -5587.814096 kJ/mol
# Density = 2.245494 g / cm^3
# Si number density = 22.506169 Si / 1000 Ang^3
#
#
#
# Elastic Constant Matrix: (Units=GPa)
#
#
# Indices 1 2 3 4 5 6 
#
# 1 102.9584 35.7701 30.0640 29.4662 -16.9390 2.0102
# 2 35.7701 131.2029 44.8138 29.2327 -15.6320 10.7521
# 3 30.0640 44.8138 142.4792 12.1337 -11.2978 6.5750
# 4 29.4662 29.2327 12.1337 43.2178 -10.5317 -11.9656
# 5 -16.9390 -15.6320 -11.2978 -10.5317 32.7044 4.8630
# 6 2.0102 10.7521 6.5750 -11.9656 4.8630 31.9997
#
#
#
# Elastic Compliance Matrix: (Units=1/GPa)
#
#
# Indices 1 2 3 4 5 6 
#
# 1 0.013546 -0.000399 -0.001460 -0.008739 0.004148 -0.004315
# 2 -0.000399 0.011084 -0.002218 -0.007735 0.002810 -0.006563
# 3 -0.001460 -0.002218 0.008142 0.000249 0.001214 -0.000928
# 4 -0.008739 -0.007735 0.000249 0.039623 0.002004 0.017608
# 5 0.004148 0.002810 0.001214 0.002004 0.036053 -0.006184
# 6 -0.004315 -0.006563 -0.000928 0.017608 -0.006184 0.041441
#
#
# Mechanical properties :
#
#
# Convention : Reuss Voigt Hill
#
# Bulk Modulus (GPa) = 40.62168 66.43735 53.52952
# Shear Modulus (GPa) = 30.07551 39.31724 34.69638
#
# Velocity S-wave (km/s) = 3.65954 4.18419 3.93063
# Velocity P-wave (km/s) = 5.99538 7.27509 6.66602
#
# Compressibility (1/GPa) = 0.02461740
#
# Stress axis : x y z
#
# Youngs Moduli (GPa) = 73.82472 90.21979 122.81802
#
# Poissons Ratio (x) = 0.03601 0.17936
# Poissons Ratio (y) = 0.02947 0.27237
# Poissons Ratio (z) = 0.10781 0.20007
#
# Static dielectric constant tensor:
#      x y z
#    x 1.875780 -0.064510 -0.015230 
#    y -0.064510 1.839450 0.021940 
#    z -0.015230 0.021940 1.877030 
# 
# From -- ./inp_files/205982.got.cif
#   From: 2010.05.17/outbox.cif.g08.bks.cpg/sg2_103_cif.got.tgz:205982.got - 2010.06.03 11:33:40.
