data_PCOD9058873
_publ_section_title
;
Structure prediction by ZEFSAII (Michael W. Deem and Ramdas Pophale) SiO2 
 PCOD9058873
Probable space group: P -1
;
_chemical_formula_sum "Si O2"
_cell_formula_units_Z 16
_cell_length_a 16.844917
_cell_length_b 20.456519
_cell_length_c 12.118452
_cell_angle_alpha 148.339696
_cell_angle_beta 140.186417
_cell_angle_gamma 19.364798
_cell_volume 712.021776
_symmetry_space_group_name_H-M "P -1"
_symmetry_group_IT_number 2
_symmetry_cell_setting 'triclinic'
loop_
_space_group_symop_operation_xyz
x,y,z
-x,-y,-z
loop_
_atom_site_type_symbol
_atom_site_label
_atom_site_fract_x
_atom_site_fract_y
_atom_site_fract_z
Si Si1 0.853673 0.660971 0.888362
Si Si2 0.132134 0.750558 0.015942
Si Si3 0.917193 0.892320 0.230095
Si Si4 0.387824 0.613864 0.421741
Si Si5 0.357175 0.813168 0.297360
Si Si6 0.466959 0.975446 0.748917
Si Si7 0.318043 0.837516 0.033728
Si Si8 0.418702 0.146573 0.729878
O O1 0.857249 0.805753 0.076412
O O2 0.712737 0.776981 0.020189
O O3 0.686612 0.749519 0.740716
O O4 0.131003 0.376979 0.774588
O O5 0.224327 0.813318 0.214546
O O6 0.029801 0.795656 0.088480
O O7 0.358656 0.470746 0.818235
O O8 0.923309 0.929849 0.959401
O O9 0.126206 0.770650 0.356332
O O10 0.680167 0.185873 0.392461
O O11 0.500000 0.500000 0.500000
O O12 0.569838 0.392849 0.210891
O O13 0.336137 0.963252 0.550008
O O14 0.271374 0.892052 0.191727
O O15 0.556141 0.973264 0.733971
O O16 0.514892 0.768638 0.102870
O O17 0.500000 0.000000 0.500000
#
# Coordination Sequence:
#
# PCOD9058873 Si02
#       8
#     2   2   2   2   2   2   2   2
#     4  11  26  48  69 101 139 177 232 284 336 408
#     4  11  24  41  66  97 136 172 224 278 337 400
#     4  11  23  42  69  96 131 176 220 281 333 398
#     4  11  23  38  64 100 127 167 219 271 341 390
#     4  11  25  43  63  96 137 179 218 281 336 406
#     4  11  27  45  70  99 136 186 228 279 345 399
#     4  12  23  44  65 100 132 175 228 278 337 405
#     4  12  25  45  72 100 136 179 229 285 338 400
#
# _framework density 22.471225
#
# number of rings (size 3 to 8) (size 9 to 14) (size 15 to 20)
#    0.000    0.750    5.000    1.500    5.250    0.500 
#    0.000    2.500    0.000    0.000    0.000    0.000 
#    0.000    0.000    0.000    0.000    0.000    0.000 
#
# Total GULP energy -89621.270262 kJ/mol
# GULP energy per Si atom -5601.329391 kJ/mol
# Density = 2.242008 g / cm^3
# Si number density = 22.471225 Si / 1000 Ang^3
#
#
#
# Elastic Constant Matrix: (Units=GPa)
#
#
# Indices 1 2 3 4 5 6 
#
# 1 66.9189 -1.9813 12.4223 -9.2864 -13.3573 12.2263
# 2 -1.9813 120.2153 27.1146 -1.9361 -20.4599 18.9762
# 3 12.4223 27.1146 83.3289 -8.5084 -14.4110 13.5142
# 4 -9.2864 -1.9361 -8.5084 24.4704 5.8871 -5.4181
# 5 -13.3573 -20.4599 -14.4110 5.8871 31.1051 -2.4483
# 6 12.2263 18.9762 13.5142 -5.4181 -2.4483 28.7037
#
#
#
# Elastic Compliance Matrix: (Units=1/GPa)
#
#
# Indices 1 2 3 4 5 6 
#
# 1 0.018934 0.003366 -0.000681 0.003203 0.008745 -0.008619
# 2 0.003366 0.011304 -0.001771 -0.002055 0.007836 -0.007793
# 3 -0.000681 -0.001771 0.014425 0.002572 0.004387 -0.004471
# 4 0.003203 -0.002055 0.002572 0.046007 -0.006951 0.006875
# 5 0.008745 0.007836 0.004387 -0.006951 0.043734 -0.008553
# 6 -0.008619 -0.007793 -0.004471 0.006875 -0.008553 0.046335
#
#
# Mechanical properties :
#
#
# Convention : Reuss Voigt Hill
#
# Bulk Modulus (GPa) = 21.50902 38.39715 29.95309
# Shear Modulus (GPa) = 25.71921 32.38300 29.05111
#
# Velocity S-wave (km/s) = 3.38678 3.80028 3.59947
# Velocity P-wave (km/s) = 4.98861 6.03163 5.53475
#
# Compressibility (1/GPa) = 0.04649211
#
# Stress axis : x y z
#
# Youngs Moduli (GPa) = 52.81432 88.46501 69.32519
#
# Poissons Ratio (x) = -0.29778 0.04719
# Poissons Ratio (y) = -0.17778 0.12276
# Poissons Ratio (z) = 0.03595 0.15666
#
# Static dielectric constant tensor:
#      x y z
#    x 1.819370 -0.004400 0.004070 
#    y -0.004400 1.823420 0.001160 
#    z 0.004070 0.001160 1.828530 
# 
# From -- ./inp_files/467190.got.cif
#   From: 2010.05.17/outbox.cif.g08.bks.cpg/sg2_234_cif.got.tgz:467190.got - 2010.06.03 11:33:40.
