data_PCOD9058660
_publ_section_title
;
Structure prediction by ZEFSAII (Michael W. Deem and Ramdas Pophale) SiO2 
 PCOD9058660
Probable space group: P -1
;
_chemical_formula_sum "Si O2"
_cell_formula_units_Z 12
_cell_length_a 8.450723
_cell_length_b 5.244377
_cell_length_c 17.357013
_cell_angle_alpha 113.685678
_cell_angle_beta 44.664229
_cell_angle_gamma 117.514133
_cell_volume 476.267175
_symmetry_space_group_name_H-M "P -1"
_symmetry_group_IT_number 2
_symmetry_cell_setting 'triclinic'
loop_
_space_group_symop_operation_xyz
x,y,z
-x,-y,-z
loop_
_atom_site_type_symbol
_atom_site_label
_atom_site_fract_x
_atom_site_fract_y
_atom_site_fract_z
Si Si1 0.104558 0.872040 0.152912
Si Si2 0.447693 0.589117 0.940464
Si Si3 0.399069 0.642600 0.281471
Si Si4 0.077937 0.209872 0.426017
Si Si5 0.633166 0.061766 0.378221
Si Si6 0.967357 0.651823 0.324413
O O1 0.319973 0.152587 0.129502
O O2 0.858782 0.954360 0.253886
O O3 0.067156 0.633813 0.204117
O O4 0.222676 0.717980 0.028545
O O5 0.427608 0.360159 0.849945
O O6 0.500000 0.500000 0.000000
O O7 0.457459 0.910449 0.352610
O O8 0.342582 0.355528 0.321403
O O9 0.161222 0.622046 0.313987
O O10 0.000000 0.500000 0.500000
O O11 0.000000 0.000000 0.500000
O O12 0.730447 0.407883 0.386385
O O13 0.044142 0.017561 0.624579
O O14 0.500000 0.000000 0.500000
#
# Coordination Sequence:
#
# PCOD9058660 Si02
#       6
#     2   2   2   2   2   2
#     4  11  24  46  77 110 159 209 267 338 408 473
#     4  11  22  46  82 109 152 211 272 339 401 481
#     4  12  26  47  80 118 156 218 267 329 413 486
#     4  12  25  44  76 111 157 214 270 326 399 489
#     4  12  29  48  74 121 165 209 270 336 409 490
#     4  12  24  50  76 111 166 204 272 331 409 479
#
# _framework density 25.195945999999999
#
# number of rings (size 3 to 8) (size 9 to 14) (size 15 to 20)
#    0.000    0.333    6.667    1.000    2.333    2.667 
#    0.000    3.333    0.000    0.000    0.000    0.000 
#    0.000    0.000    0.000    0.000    0.000    0.000 
#
# Total GULP energy -66805.113434 kJ/mol
# GULP energy per Si atom -5567.092786 kJ/mol
# Density = 2.513860 g / cm^3
# Si number density = 25.195946 Si / 1000 Ang^3
#
#
#
# Elastic Constant Matrix: (Units=GPa)
#
#
# Indices 1 2 3 4 5 6 
#
# 1 92.3851 33.0219 39.5258 3.6020 -9.0790 17.1842
# 2 33.0219 125.0330 50.9089 6.4012 -10.3965 21.2841
# 3 39.5258 50.9089 160.4022 15.6098 -8.4631 -2.8456
# 4 3.6020 6.4012 15.6098 69.7315 5.5287 0.2022
# 5 -9.0790 -10.3965 -8.4631 5.5287 39.4632 8.0202
# 6 17.1842 21.2841 -2.8456 0.2022 8.0202 44.3141
#
#
#
# Elastic Compliance Matrix: (Units=1/GPa)
#
#
# Indices 1 2 3 4 5 6 
#
# 1 0.013906 -0.001228 -0.002937 -0.000203 0.003414 -0.005608
# 2 -0.001228 0.010747 -0.002996 -0.000481 0.003078 -0.005433
# 3 -0.002937 -0.002996 0.008089 -0.001379 -0.000174 0.003135
# 4 -0.000203 -0.000481 -0.001379 0.014915 -0.002689 0.000640
# 5 0.003414 0.003078 -0.000174 -0.002689 0.028908 -0.008033
# 6 -0.005608 -0.005433 0.003135 0.000640 -0.008033 0.029003
#
#
# Mechanical properties :
#
#
# Convention : Reuss Voigt Hill
#
# Bulk Modulus (GPa) = 54.28178 69.41484 61.84831
# Shear Modulus (GPa) = 39.67286 47.65932 43.66609
#
# Velocity S-wave (km/s) = 3.97239 4.35391 4.16752
# Velocity P-wave (km/s) = 6.52920 7.27222 6.91071
#
# Compressibility (1/GPa) = 0.01842239
#
# Stress axis : x y z
#
# Youngs Moduli (GPa) = 71.91042 93.04656 123.61875
#
# Poissons Ratio (x) = 0.11427 0.36302
# Poissons Ratio (y) = 0.08831 0.37031
# Poissons Ratio (z) = 0.21117 0.27873
#
# Static dielectric constant tensor:
#      x y z
#    x 2.311700 -0.052360 0.152190 
#    y -0.052360 2.163960 0.072370 
#    z 0.152190 0.072370 2.206260 
# 
# From -- ./inp_files/592495.got.cif
#   From: 2010.05.17/outbox.cif.g08.bks.cpg/sg2_297_cif.got.tgz:592495.got - 2010.06.03 11:33:40.
