data_PCOD9058577
_publ_section_title
;
Structure prediction by ZEFSAII (Michael W. Deem and Ramdas Pophale) SiO2 
 PCOD9058577
Probable space group: P -1
;
_chemical_formula_sum "Si O2"
_cell_formula_units_Z 12
_cell_length_a 9.028479
_cell_length_b 5.251070
_cell_length_c 19.975447
_cell_angle_alpha 78.091243
_cell_angle_beta 144.427432
_cell_angle_gamma 108.741868
_cell_volume 519.095705
_symmetry_space_group_name_H-M "P -1"
_symmetry_group_IT_number 2
_symmetry_cell_setting 'triclinic'
loop_
_space_group_symop_operation_xyz
x,y,z
-x,-y,-z
loop_
_atom_site_type_symbol
_atom_site_label
_atom_site_fract_x
_atom_site_fract_y
_atom_site_fract_z
Si Si1 0.897849 0.754690 0.525813
Si Si2 0.760691 0.038588 0.244099
Si Si3 0.995189 0.813022 0.815097
Si Si4 0.692829 0.279866 0.669807
Si Si5 0.853566 0.188938 0.977274
Si Si6 0.238495 0.768752 0.440960
O O1 0.621597 0.817651 0.440378
O O2 0.781940 0.428829 0.492353
O O3 0.000000 0.000000 0.500000
O O4 0.142537 0.774130 0.665651
O O5 0.976906 0.868400 0.338448
O O6 0.809103 0.148968 0.179497
O O7 0.456334 0.884458 0.150244
O O8 0.129363 0.852359 0.934370
O O9 0.806752 0.509612 0.753898
O O10 0.827848 0.034971 0.737754
O O11 0.771725 0.420319 0.618927
O O12 0.000000 0.500000 0.000000
O O13 0.000000 0.000000 0.000000
O O14 0.500000 0.000000 0.500000
#
# Coordination Sequence:
#
# PCOD9058577 Si02
#       6
#     2   2   2   2   2   2
#     4  12  26  40  70 112 157 189 243 312 385 440
#     4  11  26  47  74 106 148 199 251 303 367 461
#     4  11  25  47  78 103 144 198 254 299 367 451
#     4  11  23  44  73 109 146 195 247 300 369 454
#     4  12  30  51  75 107 149 195 252 318 379 432
#     4  11  22  46  72 110 149 197 249 303 368 461
#
# _framework density 23.117121999999998
#
# number of rings (size 3 to 8) (size 9 to 14) (size 15 to 20)
#    0.000    0.667    3.333    4.000    7.000    0.667 
#    0.000    4.167    0.000    0.000    0.000    0.000 
#    0.000    0.000    0.000    0.000    0.000    0.000 
#
# Total GULP energy -66874.499568 kJ/mol
# GULP energy per Si atom -5572.874964 kJ/mol
# Density = 2.306451 g / cm^3
# Si number density = 23.117122 Si / 1000 Ang^3
#
#
#
# Elastic Constant Matrix: (Units=GPa)
#
#
# Indices 1 2 3 4 5 6 
#
# 1 70.1394 49.2224 41.3892 18.2149 17.4870 16.1430
# 2 49.2224 149.4449 53.3529 12.7780 14.4503 15.2018
# 3 41.3892 53.3529 152.3648 29.3271 30.1809 14.1180
# 4 18.2149 12.7780 29.3271 32.9023 2.7288 -0.9436
# 5 17.4870 14.4503 30.1809 2.7288 50.0530 0.8537
# 6 16.1430 15.2018 14.1180 -0.9436 0.8537 47.6313
#
#
#
# Elastic Compliance Matrix: (Units=1/GPa)
#
#
# Indices 1 2 3 4 5 6 
#
# 1 0.024200 -0.005580 -0.001002 -0.010052 -0.005585 -0.006223
# 2 -0.005580 0.009125 -0.001969 0.001252 0.000441 -0.000421
# 3 -0.001002 -0.001969 0.010058 -0.007315 -0.004712 -0.002074
# 4 -0.010052 0.001252 -0.007315 0.041731 0.005185 0.005909
# 5 -0.005585 0.000441 -0.004712 0.005185 0.024314 0.002816
# 6 -0.006223 -0.000421 -0.002074 0.005909 0.002816 0.023919
#
#
# Mechanical properties :
#
#
# Convention : Reuss Voigt Hill
#
# Bulk Modulus (GPa) = 38.04980 73.31980 55.68480
# Shear Modulus (GPa) = 31.40492 41.31629 36.36060
#
# Velocity S-wave (km/s) = 3.68980 4.23219 3.97027
# Velocity P-wave (km/s) = 5.88627 7.46106 6.71995
#
# Compressibility (1/GPa) = 0.02628135
#
# Stress axis : x y z
#
# Youngs Moduli (GPa) = 41.32211 109.58344 99.42026
#
# Poissons Ratio (x) = 0.61153 0.09961
# Poissons Ratio (y) = 0.23060 0.19574
# Poissons Ratio (z) = 0.04140 0.21575
#
# Static dielectric constant tensor:
#      x y z
#    x 2.073160 -0.135590 -0.160370 
#    y -0.135590 2.081890 0.110130 
#    z -0.160370 0.110130 1.906480 
# 
# From -- ./inp_files/59117.got.cif
#   From: 2010.05.17/outbox.cif.g08.bks.cpg/sg2_30_cif.got.tgz:59117.got - 2010.06.03 11:33:40.
