data_PCOD9058703
_publ_section_title
;
Structure prediction by ZEFSAII (Michael W. Deem and Ramdas Pophale) SiO2 
 PCOD9058703
Probable space group: P -1
;
_chemical_formula_sum "Si O2"
_cell_formula_units_Z 16
_cell_length_a 9.407793
_cell_length_b 15.681284
_cell_length_c 9.137392
_cell_angle_alpha 67.540400
_cell_angle_beta 53.839321
_cell_angle_gamma 102.784212
_cell_volume 805.611936
_symmetry_space_group_name_H-M "P -1"
_symmetry_group_IT_number 2
_symmetry_cell_setting 'triclinic'
loop_
_space_group_symop_operation_xyz
x,y,z
-x,-y,-z
loop_
_atom_site_type_symbol
_atom_site_label
_atom_site_fract_x
_atom_site_fract_y
_atom_site_fract_z
Si Si1 0.185110 0.648424 0.522435
Si Si2 0.337080 0.522669 0.011951
Si Si3 0.082592 0.751451 0.968433
Si Si4 0.860249 0.029433 0.153350
Si Si5 0.779028 0.967942 0.583069
Si Si6 0.377937 0.879291 0.428707
Si Si7 0.317583 0.500143 0.699090
Si Si8 0.654106 0.285140 0.945816
O O1 0.313933 0.775346 0.430807
O O2 0.252327 0.575715 0.612693
O O3 0.255557 0.661158 0.303176
O O4 0.922556 0.580902 0.740850
O O5 0.383418 0.540398 0.799226
O O6 0.373718 0.632524 0.993797
O O7 0.500000 0.500000 0.000000
O O8 0.014643 0.833855 0.996058
O O9 0.277274 0.824109 0.685274
O O10 0.171557 0.725704 0.071444
O O11 0.894790 0.632472 0.086212
O O12 0.803628 0.977049 0.385660
O O13 0.635095 0.975050 0.237019
O O14 0.000000 0.000000 0.000000
O O15 0.574863 0.841176 0.837991
O O16 0.729660 0.058397 0.596987
O O17 0.000000 0.000000 0.500000
O O18 0.500000 0.500000 0.500000
#
# Coordination Sequence:
#
# PCOD9058703 Si02
#       8
#     2   2   2   2   2   2   2   2
#     4  12  27  43  71 101 138 179 226 278 337 405
#     4  12  27  46  69 102 138 176 228 281 340 397
#     4  11  22  47  71  92 138 180 222 277 336 400
#     4  11  25  43  71 102 130 176 231 274 335 404
#     4  11  26  44  68  99 136 178 222 280 339 397
#     4  11  23  47  68  97 133 181 225 274 338 400
#     4  12  27  45  72 102 134 181 227 277 339 404
#     4  12  25  45  70  97 141 180 223 281 336 400
#
# _framework density 19.860679000000001
#
# number of rings (size 3 to 8) (size 9 to 14) (size 15 to 20)
#    0.000    0.500    5.000    3.000    7.000    2.500 
#    0.000    0.000    0.000    0.000    0.000    0.000 
#    0.000    0.000    0.000    0.000    0.000    0.000 
#
# Total GULP energy -89538.361747 kJ/mol
# GULP energy per Si atom -5596.147609 kJ/mol
# Density = 1.981548 g / cm^3
# Si number density = 19.860679 Si / 1000 Ang^3
#
#
#
# Elastic Constant Matrix: (Units=GPa)
#
#
# Indices 1 2 3 4 5 6 
#
# 1 148.0175 47.8124 47.1005 11.7399 6.7694 -12.4840
# 2 47.8124 149.1539 45.5662 12.0565 9.9127 -5.5627
# 3 47.1005 45.5662 76.4189 15.5613 15.8093 -9.3400
# 4 11.7399 12.0565 15.5613 36.3802 1.8761 -1.7446
# 5 6.7694 9.9127 15.8093 1.8761 29.7497 2.8251
# 6 -12.4840 -5.5627 -9.3400 -1.7446 2.8251 22.6506
#
#
#
# Elastic Compliance Matrix: (Units=1/GPa)
#
#
# Indices 1 2 3 4 5 6 
#
# 1 0.008810 -0.001417 -0.004279 -0.000443 0.000518 0.002644
# 2 -0.001417 0.008442 -0.004023 -0.000624 -0.000278 -0.000380
# 3 -0.004279 -0.004023 0.022135 -0.005941 -0.009695 0.006533
# 4 -0.000443 -0.000624 -0.005941 0.030260 0.001626 -0.000719
# 5 0.000518 -0.000278 -0.009695 0.001626 0.039452 -0.008576
# 6 0.002644 -0.000380 0.006533 -0.000719 -0.008576 0.049221
#
#
# Mechanical properties :
#
#
# Convention : Reuss Voigt Hill
#
# Bulk Modulus (GPa) = 50.12273 72.72760 61.42517
# Shear Modulus (GPa) = 27.11390 33.29685 30.20537
#
# Velocity S-wave (km/s) = 3.69888 4.09898 3.90406
# Velocity P-wave (km/s) = 6.59805 7.68769 7.16361
#
# Compressibility (1/GPa) = 0.01995103
#
# Stress axis : x y z
#
# Youngs Moduli (GPa) = 113.51206 118.45178 45.17669
#
# Poissons Ratio (x) = 0.16783 0.19330
# Poissons Ratio (y) = 0.16083 0.18172
# Poissons Ratio (z) = 0.48569 0.47647
#
# Static dielectric constant tensor:
#      x y z
#    x 1.691420 -0.000770 -0.014190 
#    y -0.000770 1.691210 -0.003740 
#    z -0.014190 -0.003740 1.699760 
# 
# From -- ./inp_files/178761.got.cif
#   From: 2010.05.17/outbox.cif.g08.bks.cpg/sg2_90_cif.got.tgz:178761.got - 2010.06.03 11:33:40.
