data_PCOD9058475
_publ_section_title
;
Structure prediction by ZEFSAII (Michael W. Deem and Ramdas Pophale) SiO2 
 PCOD9058475
Probable space group: P -1
;
_chemical_formula_sum "Si O2"
_cell_formula_units_Z 16
_cell_length_a 7.914283
_cell_length_b 15.459629
_cell_length_c 7.457026
_cell_angle_alpha 98.175206
_cell_angle_beta 90.290428
_cell_angle_gamma 132.099676
_cell_volume 663.797623
_symmetry_space_group_name_H-M "P -1"
_symmetry_group_IT_number 2
_symmetry_cell_setting 'triclinic'
loop_
_space_group_symop_operation_xyz
x,y,z
-x,-y,-z
loop_
_atom_site_type_symbol
_atom_site_label
_atom_site_fract_x
_atom_site_fract_y
_atom_site_fract_z
Si Si1 0.823976 0.951504 0.819782
Si Si2 0.376676 0.271322 0.439746
Si Si3 0.518918 0.419429 0.145494
Si Si4 0.345829 0.642442 0.190240
Si Si5 0.298259 0.917840 0.329276
Si Si6 0.888217 0.655774 0.383857
Si Si7 0.905376 0.605318 0.756200
Si Si8 0.358340 0.813758 0.993671
O O1 0.816213 0.863683 0.667192
O O2 0.574230 0.871617 0.886717
O O3 0.837904 0.042500 0.721995
O O4 0.000000 0.000000 0.000000
O O5 0.513855 0.347820 0.285578
O O6 0.533653 0.288948 0.603327
O O7 0.275263 0.324158 0.538345
O O8 0.314372 0.414421 0.189179
O O9 0.495425 0.361905 0.940861
O O10 0.243261 0.444396 0.798395
O O11 0.132675 0.504758 0.197165
O O12 0.309993 0.715243 0.095440
O O13 0.116421 0.783817 0.361732
O O14 0.500000 0.000000 0.500000
O O15 0.400788 0.912016 0.147169
O O16 0.916589 0.604239 0.541346
O O17 0.126808 0.737110 0.855938
#
# Coordination Sequence:
#
# PCOD9058475 Si02
#       8
#     2   2   2   2   2   2   2   2
#     4  12  30  51  78 106 145 204 265 315 358 447
#     4  11  24  45  75 110 143 184 256 304 367 436
#     4  11  22  45  75 113 148 189 244 306 376 449
#     4  12  23  43  75 110 153 194 239 299 379 464
#     4  12  29  51  73 106 153 203 254 313 383 436
#     4  11  24  44  78 109 147 194 243 309 370 450
#     4  11  23  42  72 110 151 190 234 305 383 453
#     4  12  28  46  71 106 150 197 246 308 385 442
#
# _framework density 24.103733999999999
#
# number of rings (size 3 to 8) (size 9 to 14) (size 15 to 20)
#    0.000    0.500    3.750    4.125    8.750    0.500 
#    0.000    1.875    0.000    0.000    0.000    0.000 
#    0.000    0.000    0.000    0.000    0.000    0.000 
#
# Total GULP energy -89631.419105 kJ/mol
# GULP energy per Si atom -5601.963694 kJ/mol
# Density = 2.404887 g / cm^3
# Si number density = 24.103734 Si / 1000 Ang^3
#
#
#
# Elastic Constant Matrix: (Units=GPa)
#
#
# Indices 1 2 3 4 5 6 
#
# 1 44.3428 25.6835 17.5763 5.1710 6.2138 -1.0273
# 2 25.6835 92.9769 28.3825 1.4300 1.7981 4.0781
# 3 17.5763 28.3825 128.6439 11.8233 10.4756 -1.4288
# 4 5.1710 1.4300 11.8233 57.9512 -1.4209 3.5181
# 5 6.2138 1.7981 10.4756 -1.4209 23.7815 4.1722
# 6 -1.0273 4.0781 -1.4288 3.5181 4.1722 45.0733
#
#
#
# Elastic Compliance Matrix: (Units=1/GPa)
#
#
# Indices 1 2 3 4 5 6 
#
# 1 0.028705 -0.007396 -0.001496 -0.002367 -0.006790 0.002089
# 2 -0.007396 0.013507 -0.002261 0.000950 0.002270 -0.001747
# 3 -0.001496 -0.002261 0.008948 -0.001782 -0.003649 0.000931
# 4 -0.002367 0.000950 -0.001782 0.017987 0.002731 -0.001853
# 5 -0.006790 0.002270 -0.003649 0.002731 0.046295 -0.004974
# 6 0.002089 -0.001747 0.000931 -0.001853 -0.004974 0.023026
#
#
# Mechanical properties :
#
#
# Convention : Reuss Voigt Hill
#
# Bulk Modulus (GPa) = 34.65979 45.47204 40.06592
# Shear Modulus (GPa) = 29.34405 38.31598 33.83001
#
# Velocity S-wave (km/s) = 3.49292 3.99134 3.75042
# Velocity P-wave (km/s) = 5.53877 6.33618 5.95085
#
# Compressibility (1/GPa) = 0.02885188
#
# Stress axis : x y z
#
# Youngs Moduli (GPa) = 34.83770 74.03682 111.75689
#
# Poissons Ratio (x) = 0.54760 0.16723
# Poissons Ratio (y) = 0.25767 0.25268
# Poissons Ratio (z) = 0.05213 0.16740
#
# Static dielectric constant tensor:
#      x y z
#    x 1.955020 -0.019480 0.010240 
#    y -0.019480 1.903580 -0.022180 
#    z 0.010240 -0.022180 1.909210 
# 
# From -- ./inp_files/47966.got.cif
#   From: 2010.05.17/outbox.cif.g08.bks.cpg/sg2_24_cif.got.tgz:47966.got - 2010.06.03 11:33:40.
