data_PCOD9058048
_publ_section_title
;
Structure prediction by ZEFSAII (Michael W. Deem and Ramdas Pophale) SiO2 
 PCOD9058048
Probable space group: P -1
;
_chemical_formula_sum "Si O2"
_cell_formula_units_Z 16
_cell_length_a 20.526587
_cell_length_b 4.889329
_cell_length_c 8.551291
_cell_angle_alpha 98.332530
_cell_angle_beta 59.294416
_cell_angle_gamma 70.311731
_cell_volume 639.297608
_symmetry_space_group_name_H-M "P -1"
_symmetry_group_IT_number 2
_symmetry_cell_setting 'triclinic'
loop_
_space_group_symop_operation_xyz
x,y,z
-x,-y,-z
loop_
_atom_site_type_symbol
_atom_site_label
_atom_site_fract_x
_atom_site_fract_y
_atom_site_fract_z
Si Si1 0.072607 0.608427 0.467327
Si Si2 0.715564 0.040613 0.295056
Si Si3 0.107481 0.055792 0.934605
Si Si4 0.365443 0.621460 0.292358
Si Si5 0.189671 0.138089 0.547316
Si Si6 0.477889 0.249250 0.868019
Si Si7 0.564095 0.232235 0.281546
Si Si8 0.954916 0.289629 0.810041
O O1 0.138705 0.380994 0.495834
O O2 0.111368 0.601125 0.247495
O O3 0.000000 0.500000 0.500000
O O4 0.028449 0.962444 0.618824
O O5 0.660034 0.359655 0.492332
O O6 0.652345 0.016633 0.248368
O O7 0.798425 0.038886 0.117198
O O8 0.759208 0.791430 0.366828
O O9 0.125950 0.068513 0.729760
O O10 0.041931 0.398937 0.112785
O O11 0.076963 0.814040 0.006347
O O12 0.428233 0.778971 0.226345
O O13 0.270269 0.826712 0.352228
O O14 0.423092 0.308130 0.098961
O O15 0.426408 0.576099 0.859563
O O16 0.476965 0.976375 0.746615
O O17 0.500000 0.500000 0.500000
#
# Coordination Sequence:
#
# PCOD9058048 Si02
#       8
#     2   2   2   2   2   2   2   2
#     4  11  23  42  71 100 137 179 221 289 345 413
#     4   8  21  45  64  98 138 182 227 290 347 404
#     4   9  22  44  65  96 133 177 222 282 334 418
#     4   8  20  44  66 100 138 184 231 288 343 425
#     4   8  21  47  64  99 138 184 225 290 352 404
#     4  11  23  41  72 100 135 185 234 280 351 408
#     4  12  23  41  67 100 136 182 228 288 342 413
#     4  11  22  44  69  97 132 172 226 277 341 416
#
# _framework density 25.027464999999999
#
# number of rings (size 3 to 8) (size 9 to 14) (size 15 to 20)
#    1.500    0.500    2.500    0.375    0.000    5.000 
#    9.000    2.500    0.000    0.000    0.000    0.000 
#    0.000    0.000    0.000    0.000    0.000    0.000 
#
# Total GULP energy -89247.372640 kJ/mol
# GULP energy per Si atom -5577.960790 kJ/mol
# Density = 2.497050 g / cm^3
# Si number density = 25.027465 Si / 1000 Ang^3
#
#
#
# Elastic Constant Matrix: (Units=GPa)
#
#
# Indices 1 2 3 4 5 6 
#
# 1 103.6534 41.8604 30.9039 7.6471 28.3608 -23.7385
# 2 41.8604 104.6753 26.9757 -5.9030 17.1965 -6.8805
# 3 30.9039 26.9757 99.9734 12.8392 1.6388 1.6256
# 4 7.6471 -5.9030 12.8392 44.0413 -5.2339 17.7343
# 5 28.3608 17.1965 1.6388 -5.2339 35.9860 1.0134
# 6 -23.7385 -6.8805 1.6256 17.7343 1.0134 44.6591
#
#
#
# Elastic Compliance Matrix: (Units=1/GPa)
#
#
# Indices 1 2 3 4 5 6 
#
# 1 0.021930 -0.004523 -0.004027 -0.011786 -0.017108 0.016175
# 2 -0.004523 0.012319 -0.002340 0.003666 -0.001631 -0.001840
# 3 -0.004027 -0.002340 0.012088 -0.001785 0.003547 -0.002313
# 4 -0.011786 0.003666 -0.001785 0.035400 0.013330 -0.019995
# 5 -0.017108 -0.001631 0.003547 0.013330 0.044272 -0.015772
# 6 0.016175 -0.001840 -0.002313 -0.019995 -0.015772 0.039089
#
#
# Mechanical properties :
#
#
# Convention : Reuss Voigt Hill
#
# Bulk Modulus (GPa) = 40.72359 56.42023 48.57191
# Shear Modulus (GPa) = 25.63275 38.84143 32.23709
#
# Velocity S-wave (km/s) = 3.20376 3.94376 3.59286
# Velocity P-wave (km/s) = 5.47652 6.58254 6.05484
#
# Compressibility (1/GPa) = 0.02455579
#
# Stress axis : x y z
#
# Youngs Moduli (GPa) = 45.60011 81.17673 82.72820
#
# Poissons Ratio (x) = 0.36715 0.33319
# Poissons Ratio (y) = 0.20624 0.19358
# Poissons Ratio (z) = 0.18365 0.18995
#
# Static dielectric constant tensor:
#      x y z
#    x 2.048140 -0.056330 -0.043440 
#    y -0.056330 2.081110 -0.045720 
#    z -0.043440 -0.045720 2.019320 
# 
# From -- ./inp_files/350594.got.cif
#   From: 2010.05.17/outbox.cif.g08.bks.cpg/sg2_176_cif.got.tgz:350594.got - 2010.06.03 11:33:40.
