data_PCOD9058921
_publ_section_title
;
Structure prediction by ZEFSAII (Michael W. Deem and Ramdas Pophale) SiO2 
 PCOD9058921
Probable space group: P -1
;
_chemical_formula_sum "Si O2"
_cell_formula_units_Z 16
_cell_length_a 7.751148
_cell_length_b 5.150476
_cell_length_c 17.052766
_cell_angle_alpha 81.504915
_cell_angle_beta 111.556140
_cell_angle_gamma 76.654044
_cell_volume 595.381251
_symmetry_space_group_name_H-M "P -1"
_symmetry_group_IT_number 2
_symmetry_cell_setting 'triclinic'
loop_
_space_group_symop_operation_xyz
x,y,z
-x,-y,-z
loop_
_atom_site_type_symbol
_atom_site_label
_atom_site_fract_x
_atom_site_fract_y
_atom_site_fract_z
Si Si1 0.437142 0.418762 0.309830
Si Si2 0.113507 0.504016 0.733374
Si Si3 0.661111 0.147497 0.020669
Si Si4 0.960935 0.024062 0.194065
Si Si5 0.849163 0.794987 0.932894
Si Si6 0.479421 0.406989 0.150014
Si Si7 0.706196 0.781721 0.378133
Si Si8 0.363229 0.312818 0.465889
O O1 0.351167 0.499630 0.206286
O O2 0.530918 0.652544 0.341208
O O3 0.303357 0.388417 0.362444
O O4 0.609262 0.116631 0.341836
O O5 0.006675 0.822411 0.727912
O O6 0.333663 0.504867 0.791941
O O7 0.139969 0.367495 0.656785
O O8 0.042559 0.285904 0.781648
O O9 0.596177 0.422122 0.948447
O O10 0.832519 0.962457 0.003256
O O11 0.736443 0.164538 0.120146
O O12 0.500000 0.000000 0.000000
O O13 0.077440 0.108892 0.140006
O O14 0.618851 0.836263 0.872453
O O15 0.000000 0.500000 0.000000
O O16 0.774031 0.691370 0.482753
O O17 0.500000 0.500000 0.500000
O O18 0.500000 0.000000 0.500000
#
# Coordination Sequence:
#
# PCOD9058921 Si02
#       8
#     2   2   2   2   2   2   2   2
#     4   9  18  31  53  86 118 153 191 245 300 355
#     4  11  23  39  61  90 117 158 199 253 293 360
#     4  12  25  42  65  86 117 159 210 258 311 361
#     4  12  25  41  60  83 121 156 206 244 306 356
#     4  12  27  43  60  86 119 163 207 257 310 364
#     4  11  24  37  63  86 120 156 206 252 302 357
#     4   9  17  32  53  84 121 152 191 239 302 356
#     4   8  14  27  49  79 119 153 181 232 302 359
#
# _framework density 26.873536999999999
#
# number of rings (size 3 to 8) (size 9 to 14) (size 15 to 20)
#    0.000    1.500    2.500    3.375    5.250    1.000 
#    0.000    0.000    0.000    0.000    0.000    1.750 
#    0.000    0.000    0.000    0.000    0.000    0.000 
#
# Total GULP energy -89173.830072 kJ/mol
# GULP energy per Si atom -5573.364380 kJ/mol
# Density = 2.681237 g / cm^3
# Si number density = 26.873537 Si / 1000 Ang^3
#
#
#
# Elastic Constant Matrix: (Units=GPa)
#
#
# Indices 1 2 3 4 5 6 
#
# 1 106.9526 32.0530 4.2506 -4.4917 -11.3948 33.4776
# 2 32.0530 132.9296 11.6398 4.4274 2.2984 14.4983
# 3 4.2506 11.6398 103.2301 5.5871 -19.6740 3.8473
# 4 -4.4917 4.4274 5.5871 40.0089 -4.4156 -6.5746
# 5 -11.3948 2.2984 -19.6740 -4.4156 52.7997 -2.8301
# 6 33.4776 14.4983 3.8473 -6.5746 -2.8301 36.4538
#
#
#
# Elastic Compliance Matrix: (Units=1/GPa)
#
#
# Indices 1 2 3 4 5 6 
#
# 1 0.013965 -0.002185 0.000624 0.000084 0.002716 -0.011796
# 2 -0.002185 0.008383 -0.000986 -0.001453 -0.001411 -0.001595
# 3 0.000624 -0.000986 0.010634 -0.001060 0.003988 -0.001185
# 4 0.000084 -0.001453 -0.001060 0.026468 0.002198 0.005557
# 5 0.002716 -0.001411 0.003988 0.002198 0.021240 -0.000309
# 6 -0.011796 -0.001595 -0.001185 0.005557 -0.000309 0.040002
#
#
# Mechanical properties :
#
#
# Convention : Reuss Voigt Hill
#
# Bulk Modulus (GPa) = 35.85805 48.77766 42.31786
# Shear Modulus (GPa) = 37.01416 45.53042 41.27229
#
# Velocity S-wave (km/s) = 3.71529 4.12059 3.92318
# Velocity P-wave (km/s) = 5.63708 6.38977 6.02519
#
# Compressibility (1/GPa) = 0.02788774
#
# Stress axis : x y z
#
# Youngs Moduli (GPa) = 71.60660 119.29238 94.03654
#
# Poissons Ratio (x) = 0.26069 -0.05869
# Poissons Ratio (y) = 0.15648 0.09272
# Poissons Ratio (z) = -0.04469 0.11763
#
# Static dielectric constant tensor:
#      x y z
#    x 2.394700 -0.127070 -0.009450 
#    y -0.127070 2.209620 -0.035050 
#    z -0.009450 -0.035050 2.141520 
# 
# From -- ./inp_files/552713.got.cif
#   From: 2010.05.17/outbox.cif.g08.bks.cpg/sg2_277_cif.got.tgz:552713.got - 2010.06.03 11:33:40.
