data_PCOD9058010
_publ_section_title
;
Structure prediction by ZEFSAII (Michael W. Deem and Ramdas Pophale) SiO2 
 PCOD9058010
Probable space group: P -1
;
_chemical_formula_sum "Si O2"
_cell_formula_units_Z 10
_cell_length_a 5.167017
_cell_length_b 11.641542
_cell_length_c 9.651653
_cell_angle_alpha 117.543939
_cell_angle_beta 53.730308
_cell_angle_gamma 120.630206
_cell_volume 391.769082
_symmetry_space_group_name_H-M "P -1"
_symmetry_group_IT_number 2
_symmetry_cell_setting 'triclinic'
loop_
_space_group_symop_operation_xyz
x,y,z
-x,-y,-z
loop_
_atom_site_type_symbol
_atom_site_label
_atom_site_fract_x
_atom_site_fract_y
_atom_site_fract_z
Si Si1 0.432909 0.356044 0.023001
Si Si2 0.767072 0.394513 0.227132
Si Si3 0.951056 0.698928 0.451076
Si Si4 0.722316 0.949840 0.184812
Si Si5 0.643827 0.872766 0.469497
O O1 0.695994 0.383492 0.080461
O O2 0.030002 0.324040 0.161901
O O3 0.500000 0.500000 0.000000
O O4 0.438429 0.214578 0.875819
O O5 0.914349 0.551627 0.317011
O O6 0.387951 0.328634 0.366510
O O7 0.889186 0.797313 0.408834
O O8 0.291092 0.760903 0.466379
O O9 0.817376 0.957806 0.324213
O O10 0.471960 0.039786 0.327710
O O11 0.000000 0.000000 0.000000
#
# Coordination Sequence:
#
# PCOD9058010 Si02
#       5
#     2   2   2   2   2
#     4  12  25  43  67 100 138 180 229 281 340 405
#     4  11  23  39  69 100 135 183 229 278 343 405
#     4  11  22  44  68  99 139 178 228 285 337 405
#     4  11  25  46  72 102 139 181 228 282 340 405
#     4  11  26  45  68  99 138 180 228 280 340 404
#
# _framework density 25.525241000000001
#
# number of rings (size 3 to 8) (size 9 to 14) (size 15 to 20)
#    0.000    0.800    0.000    7.800    0.000    9.600 
#    0.000    9.000    0.000    0.000    0.000    0.000 
#    0.000    0.000    0.000    0.000    0.000    0.000 
#
# Total GULP energy -55924.397170 kJ/mol
# GULP energy per Si atom -5592.439717 kJ/mol
# Density = 2.546714 g / cm^3
# Si number density = 25.525241 Si / 1000 Ang^3
#
#
#
# Elastic Constant Matrix: (Units=GPa)
#
#
# Indices 1 2 3 4 5 6 
#
# 1 158.6462 36.1049 51.2486 29.6548 -15.4334 23.7617
# 2 36.1049 122.4243 54.8139 3.2062 -5.5824 15.4507
# 3 51.2486 54.8139 159.8857 -5.5495 -27.6246 8.6085
# 4 29.6548 3.2062 -5.5495 41.8833 -1.1258 0.5806
# 5 -15.4334 -5.5824 -27.6246 -1.1258 33.4732 11.8077
# 6 23.7617 15.4507 8.6085 0.5806 11.8077 48.8518
#
#
#
# Elastic Compliance Matrix: (Units=1/GPa)
#
#
# Indices 1 2 3 4 5 6 
#
# 1 0.009571 -0.000938 -0.002008 -0.006792 0.004105 -0.004916
# 2 -0.000938 0.010111 -0.003196 -0.000524 -0.000694 -0.002004
# 3 -0.002008 -0.003196 0.009357 0.003109 0.006845 -0.001353
# 4 -0.006792 -0.000524 0.003109 0.029082 -0.000638 0.002730
# 5 0.004105 -0.000694 0.006845 -0.000638 0.041902 -0.013104
# 6 -0.004916 -0.002004 -0.001353 0.002730 -0.013104 0.026868
#
#
# Mechanical properties :
#
#
# Convention : Reuss Voigt Hill
#
# Bulk Modulus (GPa) = 59.68344 80.58789 70.13566
# Shear Modulus (GPa) = 34.54002 44.76093 39.65048
#
# Velocity S-wave (km/s) = 3.68254 4.19214 3.94557
# Velocity P-wave (km/s) = 6.44316 7.42108 6.94934
#
# Compressibility (1/GPa) = 0.01675507
#
# Stress axis : x y z
#
# Youngs Moduli (GPa) = 104.48499 98.90303 106.86947
#
# Poissons Ratio (x) = 0.09277 0.21459
# Poissons Ratio (y) = 0.09801 0.34155
# Poissons Ratio (z) = 0.20980 0.31609
#
# Static dielectric constant tensor:
#      x y z
#    x 1.957210 0.035750 -0.018030 
#    y 0.035750 2.098610 -0.107450 
#    z -0.018030 -0.107450 2.109970 
# 
# From -- ./inp_files/58057.got.cif
#   From: 2010.05.17/outbox.cif.g08.bks.cpg/sg2_30_cif.got.tgz:58057.got - 2010.06.03 11:33:40.
