data_PCOD9058911
_publ_section_title
;
Structure prediction by ZEFSAII (Michael W. Deem and Ramdas Pophale) SiO2 
 PCOD9058911
Probable space group: P -1
;
_chemical_formula_sum "Si O2"
_cell_formula_units_Z 16
_cell_length_a 19.394811
_cell_length_b 8.467507
_cell_length_c 10.042598
_cell_angle_alpha 135.452694
_cell_angle_beta 145.951121
_cell_angle_gamma 55.872312
_cell_volume 645.950986
_symmetry_space_group_name_H-M "P -1"
_symmetry_group_IT_number 2
_symmetry_cell_setting 'triclinic'
loop_
_space_group_symop_operation_xyz
x,y,z
-x,-y,-z
loop_
_atom_site_type_symbol
_atom_site_label
_atom_site_fract_x
_atom_site_fract_y
_atom_site_fract_z
Si Si1 0.189710 0.628192 0.833818
Si Si2 0.048910 0.177594 0.297244
Si Si3 0.418532 0.688299 0.418152
Si Si4 0.829637 0.660595 0.913205
Si Si5 0.512286 0.843561 0.130627
Si Si6 0.238118 0.895132 0.807760
Si Si7 0.078032 0.771195 0.246047
Si Si8 0.556375 0.625858 0.354333
O O1 0.069720 0.733671 0.765762
O O2 0.247133 0.791408 0.907683
O O3 0.141381 0.393610 0.545607
O O4 0.286684 0.604183 0.094719
O O5 0.120036 0.017284 0.411920
O O6 0.000000 0.000000 0.000000
O O7 0.500000 0.500000 0.500000
O O8 0.497406 0.765716 0.459752
O O9 0.413593 0.916499 0.634274
O O10 0.881171 0.426850 0.902089
O O11 0.697226 0.602806 0.602751
O O12 0.931944 0.751855 0.024798
O O13 0.811195 0.857944 0.105965
O O14 0.551091 0.742839 0.274105
O O15 0.368765 0.893429 0.943562
O O16 0.515663 0.623580 0.910904
O O17 0.138922 0.745742 0.472485
#
# Coordination Sequence:
#
# PCOD9058911 Si02
#       8
#     2   2   2   2   2   2   2   2
#     4  11  27  47  69 102 132 182 229 270 341 402
#     4  11  28  47  69  96 143 181 220 276 337 404
#     4  12  27  45  69  99 141 180 219 276 338 404
#     4  11  23  38  70 100 133 167 231 277 336 382
#     4  11  24  42  72  99 131 173 226 277 337 388
#     4  12  22  44  74  97 136 170 227 289 323 397
#     4  11  26  41  67 105 131 176 225 282 335 392
#     4  11  23  43  69 100 130 176 225 279 329 402
#
# _framework density 24.769680999999999
#
# number of rings (size 3 to 8) (size 9 to 14) (size 15 to 20)
#    0.000    0.750    5.000    1.500    5.250    3.500 
#    0.000    0.000    0.000    0.000    0.000    0.000 
#    0.000    0.000    0.000    0.000    0.000    0.000 
#
# Total GULP energy -89544.452708 kJ/mol
# GULP energy per Si atom -5596.528294 kJ/mol
# Density = 2.471330 g / cm^3
# Si number density = 24.769681 Si / 1000 Ang^3
#
#
#
# Elastic Constant Matrix: (Units=GPa)
#
#
# Indices 1 2 3 4 5 6 
#
# 1 34.3984 10.6431 3.9803 0.6530 -5.7845 -8.9725
# 2 10.6431 91.4538 31.2372 30.3403 -6.5966 -10.4701
# 3 3.9803 31.2372 126.9466 22.1048 -10.4803 -3.6743
# 4 0.6530 30.3403 22.1048 37.4437 -12.7803 -8.1504
# 5 -5.7845 -6.5966 -10.4803 -12.7803 29.8529 -1.5671
# 6 -8.9725 -10.4701 -3.6743 -8.1504 -1.5671 34.7273
#
#
#
# Elastic Compliance Matrix: (Units=1/GPa)
#
#
# Indices 1 2 3 4 5 6 
#
# 1 0.034852 -0.005188 -0.000335 0.009414 0.010048 0.010068
# 2 -0.005188 0.016322 -0.001843 -0.013301 -0.003735 0.000095
# 3 -0.000335 -0.001843 0.009041 -0.003543 0.001161 -0.000465
# 4 0.009414 -0.013301 -0.003543 0.048017 0.018731 0.010162
# 5 0.010048 -0.003735 0.001161 0.018731 0.043463 0.007950
# 6 0.010068 0.000095 -0.000465 0.010162 0.007950 0.034121
#
#
# Mechanical properties :
#
#
# Convention : Reuss Voigt Hill
#
# Bulk Modulus (GPa) = 21.98570 38.28003 30.13287
# Shear Modulus (GPa) = 23.17956 34.20064 28.69010
#
# Velocity S-wave (km/s) = 3.06241 3.71987 3.40704
# Velocity P-wave (km/s) = 4.62599 5.82562 5.26012
#
# Compressibility (1/GPa) = 0.04548410
#
# Stress axis : x y z
#
# Youngs Moduli (GPa) = 28.69266 61.26723 110.61191
#
# Poissons Ratio (x) = 0.31782 0.03701
# Poissons Ratio (y) = 0.14884 0.20387
# Poissons Ratio (z) = 0.00960 0.11292
#
# Static dielectric constant tensor:
#      x y z
#    x 1.935530 0.050750 -0.018220 
#    y 0.050750 1.982670 -0.003140 
#    z -0.018220 -0.003140 1.975570 
# 
# From -- ./inp_files/474365.got.cif
#   From: 2010.05.17/outbox.cif.g08.bks.cpg/sg2_238_cif.got.tgz:474365.got - 2010.06.03 11:33:40.
