data_PCOD9058335
_publ_section_title
;
Structure prediction by ZEFSAII (Michael W. Deem and Ramdas Pophale) SiO2 
 PCOD9058335
Probable space group: P -1
;
_chemical_formula_sum "Si O2"
_cell_formula_units_Z 16
_cell_length_a 11.288511
_cell_length_b 9.052478
_cell_length_c 12.770636
_cell_angle_alpha 46.093452
_cell_angle_beta 128.790207
_cell_angle_gamma 123.849345
_cell_volume 715.189461
_symmetry_space_group_name_H-M "P -1"
_symmetry_group_IT_number 2
_symmetry_cell_setting 'triclinic'
loop_
_space_group_symop_operation_xyz
x,y,z
-x,-y,-z
loop_
_atom_site_type_symbol
_atom_site_label
_atom_site_fract_x
_atom_site_fract_y
_atom_site_fract_z
Si Si1 0.011087 0.152294 0.555780
Si Si2 0.622854 0.398593 0.178628
Si Si3 0.292600 0.144641 0.382162
Si Si4 0.572057 0.984709 0.671399
Si Si5 0.067010 0.247995 0.776166
Si Si6 0.185569 0.563956 0.079428
Si Si7 0.168239 0.851198 0.114471
Si Si8 0.809511 0.171114 0.253256
O O1 0.959981 0.257793 0.370459
O O2 0.030174 0.266828 0.622526
O O3 0.858773 0.963413 0.582429
O O4 0.156904 0.049331 0.659797
O O5 0.527719 0.252333 0.287132
O O6 0.774791 0.576100 0.202063
O O7 0.673028 0.213173 0.230781
O O8 0.500000 0.500000 0.000000
O O9 0.304506 0.991131 0.366689
O O10 0.262791 0.364838 0.219493
O O11 0.456528 0.143792 0.529110
O O12 0.677743 0.006321 0.820519
O O13 0.944628 0.253197 0.801156
O O14 0.090786 0.008947 0.924504
O O15 0.217292 0.685341 0.146226
O O16 0.222604 0.706731 0.927819
O O17 0.000000 0.500000 0.000000
#
# Coordination Sequence:
#
# PCOD9058335 Si02
#       8
#     2   2   2   2   2   2   2   2
#     4  11  22  45  70 101 136 184 231 291 343 408
#     4  12  24  42  68 102 143 182 223 288 353 418
#     4  11  23  45  74  97 142 188 234 282 350 417
#     4  11  24  45  70 101 142 187 228 284 356 414
#     4  11  23  41  70 107 138 181 240 287 343 410
#     4  12  23  41  70 105 134 182 237 286 343 409
#     4  11  23  42  71 104 139 182 240 289 334 425
#     4  11  24  41  68 100 139 181 227 286 351 407
#
# _framework density 22.371696
#
# number of rings (size 3 to 8) (size 9 to 14) (size 15 to 20)
#    0.000    0.750    6.250    1.500    1.750    1.000 
#    0.000    5.000    0.000    0.000    0.000    0.000 
#    0.000    0.000    0.000    0.000    0.000    0.000 
#
# Total GULP energy -89204.023487 kJ/mol
# GULP energy per Si atom -5575.251468 kJ/mol
# Density = 2.232078 g / cm^3
# Si number density = 22.371696 Si / 1000 Ang^3
#
#
#
# Elastic Constant Matrix: (Units=GPa)
#
#
# Indices 1 2 3 4 5 6 
#
# 1 92.1674 36.2613 27.4970 -0.2634 8.4240 -15.0296
# 2 36.2613 76.9279 41.0521 4.4199 -5.8937 -0.5013
# 3 27.4970 41.0521 112.8909 -1.7944 16.2379 -25.4905
# 4 -0.2634 4.4199 -1.7944 31.8895 -19.3785 2.7746
# 5 8.4240 -5.8937 16.2379 -19.3785 37.4755 -4.0915
# 6 -15.0296 -0.5013 -25.4905 2.7746 -4.0915 31.4574
#
#
#
# Elastic Compliance Matrix: (Units=1/GPa)
#
#
# Indices 1 2 3 4 5 6 
#
# 1 0.015658 -0.008843 0.002246 -0.003312 -0.006659 0.008586
# 2 -0.008843 0.023195 -0.010278 0.003637 0.010757 -0.011105
# 3 0.002246 -0.010278 0.016491 -0.005157 -0.010474 0.013365
# 4 -0.003312 0.003637 -0.005157 0.047866 0.027611 -0.006334
# 5 -0.006659 0.010757 -0.010474 0.027611 0.047847 -0.007709
# 6 0.008586 -0.011105 0.013365 -0.006334 -0.007709 0.046100
#
#
# Mechanical properties :
#
#
# Convention : Reuss Voigt Hill
#
# Bulk Modulus (GPa) = 46.30998 54.62301 50.46649
# Shear Modulus (GPa) = 20.99909 31.97621 26.48765
#
# Velocity S-wave (km/s) = 3.06706 3.78473 3.44463
# Velocity P-wave (km/s) = 5.76954 6.60061 6.19902
#
# Compressibility (1/GPa) = 0.02159362
#
# Stress axis : x y z
#
# Youngs Moduli (GPa) = 63.86422 43.11260 60.63951
#
# Poissons Ratio (x) = 0.38125 -0.13618
# Poissons Ratio (y) = 0.56476 0.62325
# Poissons Ratio (z) = -0.14342 0.44311
#
# Static dielectric constant tensor:
#      x y z
#    x 2.072630 0.158060 -0.225920 
#    y 0.158060 1.902930 -0.153520 
#    z -0.225920 -0.153520 2.028790 
# 
# From -- ./inp_files/331715.got.cif
#   From: 2010.05.17/outbox.cif.g08.bks.cpg/sg2_166_cif.got.tgz:331715.got - 2010.06.03 11:33:40.
