data_PCOD9058024
_publ_section_title
;
Structure prediction by ZEFSAII (Michael W. Deem and Ramdas Pophale) SiO2 
 PCOD9058024
Probable space group: P -1
;
_chemical_formula_sum "Si O2"
_cell_formula_units_Z 16
_cell_length_a 11.495311
_cell_length_b 5.213884
_cell_length_c 12.655852
_cell_angle_alpha 77.870155
_cell_angle_beta 77.634471
_cell_angle_gamma 66.112758
_cell_volume 670.970258
_symmetry_space_group_name_H-M "P -1"
_symmetry_group_IT_number 2
_symmetry_cell_setting 'triclinic'
loop_
_space_group_symop_operation_xyz
x,y,z
-x,-y,-z
loop_
_atom_site_type_symbol
_atom_site_label
_atom_site_fract_x
_atom_site_fract_y
_atom_site_fract_z
Si Si1 0.046117 0.820906 0.112401
Si Si2 0.829199 0.796107 0.820593
Si Si3 0.544991 0.056581 0.783518
Si Si4 0.798242 0.227412 0.424473
Si Si5 0.931092 0.736433 0.577917
Si Si6 0.440544 0.587538 0.889331
Si Si7 0.579629 0.790469 0.411598
Si Si8 0.772705 0.013075 0.228288
O O1 0.140120 0.498502 0.098414
O O2 0.103214 0.002848 0.160785
O O3 0.916270 0.809025 0.191226
O O4 0.000000 0.000000 0.000000
O O5 0.680602 0.986012 0.819050
O O6 0.874059 0.684069 0.702728
O O7 0.522704 0.761154 0.808136
O O8 0.448078 0.302104 0.854507
O O9 0.522117 0.199071 0.660521
O O10 0.675074 0.491316 0.463596
O O11 0.781504 0.215903 0.303343
O O12 0.944451 0.202518 0.413817
O O13 0.812266 0.957321 0.516452
O O14 0.000000 0.500000 0.500000
O O15 0.297531 0.816965 0.876580
O O16 0.500000 0.500000 0.000000
O O17 0.500000 0.000000 0.500000
O O18 0.681815 0.878896 0.315983
#
# Coordination Sequence:
#
# PCOD9058024 Si02
#       8
#     2   2   2   2   2   2   2   2
#     4  12  28  50  77 109 143 197 245 313 372 430
#     4  12  27  48  72 108 152 182 251 303 369 441
#     4  11  26  46  69 109 144 189 238 304 359 441
#     4  11  22  44  69 101 142 189 246 293 369 436
#     4  11  25  41  71 104 141 195 234 300 370 436
#     4  11  25  48  75 102 140 193 242 302 373 424
#     4  11  26  45  70 107 150 197 242 298 366 443
#     4  11  25  46  73 103 149 186 252 306 359 443
#
# _framework density 23.846063999999998
#
# number of rings (size 3 to 8) (size 9 to 14) (size 15 to 20)
#    0.000    0.750    2.500    3.750    8.750    2.500 
#    0.000    0.000    0.000    0.000    0.000    0.000 
#    0.000    0.000    0.000    0.000    0.000    0.000 
#
# Total GULP energy -89334.681236 kJ/mol
# GULP energy per Si atom -5583.417577 kJ/mol
# Density = 2.379179 g / cm^3
# Si number density = 23.846064 Si / 1000 Ang^3
#
#
#
# Elastic Constant Matrix: (Units=GPa)
#
#
# Indices 1 2 3 4 5 6 
#
# 1 87.7073 27.9449 10.4028 -17.2467 15.0167 -16.4163
# 2 27.9449 132.6272 21.5749 -24.0576 13.5445 -35.7004
# 3 10.4028 21.5749 60.3263 -20.4340 19.1592 -8.6203
# 4 -17.2467 -24.0576 -20.4340 33.9293 -6.0073 13.0228
# 5 15.0167 13.5445 19.1592 -6.0073 42.7702 -5.4290
# 6 -16.4163 -35.7004 -8.6203 13.0228 -5.4290 42.8273
#
#
#
# Elastic Compliance Matrix: (Units=1/GPa)
#
#
# Indices 1 2 3 4 5 6 
#
# 1 0.013815 -0.001064 0.001521 0.005488 -0.004104 0.002526
# 2 -0.001064 0.010556 -0.001082 0.003409 -0.001118 0.006995
# 3 0.001521 -0.001082 0.023939 0.013042 -0.009163 -0.000628
# 4 0.005488 0.003409 0.013042 0.044367 -0.003424 -0.006354
# 5 -0.004104 -0.001118 -0.009163 -0.003424 0.028843 0.000348
# 6 0.002526 0.006995 -0.000628 -0.006354 0.000348 0.031999
#
#
# Mechanical properties :
#
#
# Convention : Reuss Voigt Hill
#
# Bulk Modulus (GPa) = 21.24950 44.50068 32.87509
# Shear Modulus (GPa) = 29.33318 38.62124 33.97721
#
# Velocity S-wave (km/s) = 3.51109 4.02880 3.77882
# Velocity P-wave (km/s) = 5.03661 6.35168 5.73198
#
# Compressibility (1/GPa) = 0.04705994
#
# Stress axis : x y z
#
# Youngs Moduli (GPa) = 72.38738 94.73634 41.77225
#
# Poissons Ratio (x) = 0.10078 -0.06355
# Poissons Ratio (y) = 0.07700 0.04521
# Poissons Ratio (z) = -0.11013 0.10254
#
# Static dielectric constant tensor:
#      x y z
#    x 2.052800 0.068710 -0.098070 
#    y 0.068710 1.921760 -0.068060 
#    z -0.098070 -0.068060 1.955210 
# 
# From -- ./inp_files/83512.got.cif
#   From: 2010.05.17/outbox.cif.g08.bks.cpg/sg2_42_cif.got.tgz:83512.got - 2010.06.03 11:33:40.
