data_PCOD9058912
_publ_section_title
;
Structure prediction by ZEFSAII (Michael W. Deem and Ramdas Pophale) SiO2 
 PCOD9058912
Probable space group: P -1
;
_chemical_formula_sum "Si O2"
_cell_formula_units_Z 14
_cell_length_a 7.452597
_cell_length_b 12.633269
_cell_length_c 8.486000
_cell_angle_alpha 87.505754
_cell_angle_beta 57.436147
_cell_angle_gamma 59.433210
_cell_volume 549.842458
_symmetry_space_group_name_H-M "P -1"
_symmetry_group_IT_number 2
_symmetry_cell_setting 'triclinic'
loop_
_space_group_symop_operation_xyz
x,y,z
-x,-y,-z
loop_
_atom_site_type_symbol
_atom_site_label
_atom_site_fract_x
_atom_site_fract_y
_atom_site_fract_z
Si Si1 0.789264 0.381127 0.424949
Si Si2 0.468524 0.901641 0.661451
Si Si3 0.605058 0.088293 0.970739
Si Si4 0.881537 0.101455 0.403901
Si Si5 0.200359 0.327588 0.962993
Si Si6 0.589963 0.393109 0.835088
Si Si7 0.909133 0.805439 0.243152
O O1 0.500000 0.500000 0.500000
O O2 0.845686 0.237875 0.414886
O O3 0.000984 0.369006 0.203062
O O4 0.759614 0.409257 0.624556
O O5 0.383585 0.865467 0.546640
O O6 0.756615 0.851622 0.479685
O O7 0.262733 0.055986 0.772024
O O8 0.476452 0.841731 0.826970
O O9 0.910903 0.987571 0.822263
O O10 0.462345 0.189605 0.893013
O O11 0.500000 0.000000 0.000000
O O12 0.000000 0.000000 0.500000
O O13 0.665601 0.594288 0.115460
O O14 0.094448 0.298653 0.858636
O O15 0.794765 0.258997 0.840634
O O16 0.500000 0.500000 0.000000
#
# Coordination Sequence:
#
# PCOD9058912 Si02
#       7
#     2   2   2   2   2   2   2
#     4  12  27  48  77 108 150 198 251 307 377 447
#     4  11  23  38  70 105 145 187 237 306 372 439
#     4  12  22  40  68 104 145 187 242 299 371 437
#     4  12  25  44  75 109 148 195 251 310 375 444
#     4  12  26  49  77 105 154 195 247 317 374 439
#     4  12  29  49  73 105 142 199 256 304 368 451
#     4  11  23  44  69 107 143 186 243 302 372 439
#
# _framework density 25.461842000000001
#
# number of rings (size 3 to 8) (size 9 to 14) (size 15 to 20)
#    0.000    0.286    2.857    6.429    2.000    6.286 
#    0.000    2.143    0.000    0.000    0.000    0.000 
#    0.000    0.000    0.000    0.000    0.000    0.000 
#
# Total GULP energy -78160.301944 kJ/mol
# GULP energy per Si atom -5582.878710 kJ/mol
# Density = 2.540389 g / cm^3
# Si number density = 25.461842 Si / 1000 Ang^3
#
#
#
# Elastic Constant Matrix: (Units=GPa)
#
#
# Indices 1 2 3 4 5 6 
#
# 1 124.0414 23.4473 31.3632 -0.5961 -0.1748 -9.9238
# 2 23.4473 112.3546 24.1469 9.0694 3.2685 -12.3064
# 3 31.3632 24.1469 159.8716 3.8598 4.0220 0.5853
# 4 -0.5961 9.0694 3.8598 40.8616 -8.8837 1.0745
# 5 -0.1748 3.2685 4.0220 -8.8837 41.2652 -2.5732
# 6 -9.9238 -12.3064 0.5853 1.0745 -2.5732 29.4357
#
#
#
# Elastic Compliance Matrix: (Units=1/GPa)
#
#
# Indices 1 2 3 4 5 6 
#
# 1 0.008917 -0.001312 -0.001591 0.000634 0.000590 0.002518
# 2 -0.001312 0.010073 -0.001194 -0.002455 -0.000979 0.003797
# 3 -0.001591 -0.001194 0.006784 -0.000533 -0.000764 -0.001218
# 4 0.000634 -0.002455 -0.000533 0.026382 0.005851 -0.001254
# 5 0.000590 -0.000979 -0.000764 0.005851 0.025762 0.001843
# 6 0.002518 0.003797 -0.001218 -0.001254 0.001843 0.036640
#
#
# Mechanical properties :
#
#
# Convention : Reuss Voigt Hill
#
# Bulk Modulus (GPa) = 56.87719 61.57585 59.22652
# Shear Modulus (GPa) = 38.87647 43.46650 41.17149
#
# Velocity S-wave (km/s) = 3.91173 4.13622 4.02554
# Velocity P-wave (km/s) = 6.54132 6.85909 6.70209
#
# Compressibility (1/GPa) = 0.01758174
#
# Stress axis : x y z
#
# Youngs Moduli (GPa) = 112.14199 99.27253 147.40609
#
# Poissons Ratio (x) = 0.13021 0.23447
# Poissons Ratio (y) = 0.14709 0.17603
# Poissons Ratio (z) = 0.17838 0.11855
#
# Static dielectric constant tensor:
#      x y z
#    x 2.212140 0.036150 -0.096810 
#    y 0.036150 2.099310 -0.067560 
#    z -0.096810 -0.067560 2.063260 
# 
# From -- ./inp_files/186225.got.cif
#   From: 2010.05.17/outbox.cif.g08.bks.cpg/sg2_94_cif.got.tgz:186225.got - 2010.06.03 11:33:40.
