data_PCOD9058754
_publ_section_title
;
Structure prediction by ZEFSAII (Michael W. Deem and Ramdas Pophale) SiO2 
 PCOD9058754
Probable space group: P -1
;
_chemical_formula_sum "Si O2"
_cell_formula_units_Z 16
_cell_length_a 11.214576
_cell_length_b 5.147592
_cell_length_c 11.612945
_cell_angle_alpha 85.329829
_cell_angle_beta 76.347142
_cell_angle_gamma 70.160381
_cell_volume 612.783370
_symmetry_space_group_name_H-M "P -1"
_symmetry_group_IT_number 2
_symmetry_cell_setting 'triclinic'
loop_
_space_group_symop_operation_xyz
x,y,z
-x,-y,-z
loop_
_atom_site_type_symbol
_atom_site_label
_atom_site_fract_x
_atom_site_fract_y
_atom_site_fract_z
Si Si1 0.466133 0.676885 0.821097
Si Si2 0.253393 0.967870 0.038214
Si Si3 0.707030 0.100028 0.536054
Si Si4 0.829977 0.324797 0.313218
Si Si5 0.574032 0.776836 0.327343
Si Si6 0.923291 0.624539 0.627231
Si Si7 0.131137 0.578363 0.964948
Si Si8 0.743940 0.354975 0.743272
O O1 0.381378 0.771770 0.951069
O O2 0.446696 0.421042 0.764297
O O3 0.619140 0.592921 0.811245
O O4 0.424135 0.940739 0.738096
O O5 0.144279 0.834108 0.026007
O O6 0.230040 0.281480 0.995544
O O7 0.257563 0.911804 0.174940
O O8 0.776535 0.110723 0.399810
O O9 0.553528 0.158134 0.565752
O O10 0.723047 0.330744 0.612838
O O11 0.791806 0.837364 0.598397
O O12 0.711350 0.607814 0.359049
O O13 0.840965 0.339524 0.173283
O O14 0.973289 0.278148 0.330384
O O15 0.877918 0.414539 0.722038
O O16 0.000000 0.500000 0.500000
O O17 0.000000 0.500000 0.000000
#
# Coordination Sequence:
#
# PCOD9058754 Si02
#       8
#     2   2   2   2   2   2   2   2
#     4  11  22  48  72 109 142 191 247 302 367 431
#     4  12  25  47  75 105 146 190 252 301 367 428
#     4  11  26  48  71 110 144 193 247 302 375 431
#     4  12  25  47  75 105 149 188 246 304 366 440
#     4  11  24  47  76 106 150 185 246 307 365 436
#     4  12  26  46  71 108 148 193 244 297 371 443
#     4  12  28  47  70 108 147 198 242 300 367 441
#     4  11  26  45  74 105 148 192 243 310 361 442
#
# _framework density 26.110368000000001
#
# number of rings (size 3 to 8) (size 9 to 14) (size 15 to 20)
#    0.000    0.500    5.000    2.250    3.500    2.000 
#    0.000    5.625    0.000    0.000    0.000    0.000 
#    0.000    0.000    0.000    0.000    0.000    0.000 
#
# Total GULP energy -89610.787932 kJ/mol
# GULP energy per Si atom -5600.674246 kJ/mol
# Density = 2.605094 g / cm^3
# Si number density = 26.110368 Si / 1000 Ang^3
#
#
#
# Elastic Constant Matrix: (Units=GPa)
#
#
# Indices 1 2 3 4 5 6 
#
# 1 93.6024 33.2195 38.6690 12.2709 -16.8452 10.4359
# 2 33.2195 86.9094 29.9689 -10.5802 16.1097 1.6828
# 3 38.6690 29.9689 173.0550 -26.9808 -8.5677 18.6685
# 4 12.2709 -10.5802 -26.9808 31.9710 -5.9918 -3.5789
# 5 -16.8452 16.1097 -8.5677 -5.9918 42.3566 2.5700
# 6 10.4359 1.6828 18.6685 -3.5789 2.5700 25.7739
#
#
#
# Elastic Compliance Matrix: (Units=1/GPa)
#
#
# Indices 1 2 3 4 5 6 
#
# 1 0.019657 -0.009459 -0.003453 -0.012674 0.009381 -0.007536
# 2 -0.009459 0.018130 -0.000928 0.007555 -0.010102 0.005375
# 3 -0.003453 -0.000928 0.008491 0.008152 0.002079 -0.003767
# 4 -0.012674 0.007555 0.008152 0.046087 -0.000057 0.005139
# 5 0.009381 -0.010102 0.002079 -0.000057 0.032071 -0.007851
# 6 -0.007536 0.005375 -0.003767 0.005139 -0.007851 0.045724
#
#
# Mechanical properties :
#
#
# Convention : Reuss Voigt Hill
#
# Bulk Modulus (GPa) = 53.76851 61.92016 57.84434
# Shear Modulus (GPa) = 24.50516 36.80092 30.65304
#
# Velocity S-wave (km/s) = 3.06685 3.75832 3.43006
# Velocity P-wave (km/s) = 5.76006 6.52683 6.15540
#
# Compressibility (1/GPa) = 0.01859825
#
# Stress axis : x y z
#
# Youngs Moduli (GPa) = 50.87313 55.15736 117.77150
#
# Poissons Ratio (x) = 0.52171 0.40666
# Poissons Ratio (y) = 0.48119 0.10931
# Poissons Ratio (z) = 0.17566 0.05120
#
# Static dielectric constant tensor:
#      x y z
#    x 2.094910 -0.052230 0.044970 
#    y -0.052230 2.179380 -0.007500 
#    z 0.044970 -0.007500 1.991460 
# 
# From -- ./inp_files/410018.got.cif
#   From: 2010.05.17/outbox.cif.g08.bks.cpg/sg2_206_cif.got.tgz:410018.got - 2010.06.03 11:33:40.
