data_PCOD9058412
_publ_section_title
;
Structure prediction by ZEFSAII (Michael W. Deem and Ramdas Pophale) SiO2 
 PCOD9058412
Probable space group: P -1
;
_chemical_formula_sum "Si O2"
_cell_formula_units_Z 14
_cell_length_a 9.583433
_cell_length_b 9.425891
_cell_length_c 9.385774
_cell_angle_alpha 104.429157
_cell_angle_beta 80.769592
_cell_angle_gamma 120.545802
_cell_volume 706.566903
_symmetry_space_group_name_H-M "P -1"
_symmetry_group_IT_number 2
_symmetry_cell_setting 'triclinic'
loop_
_space_group_symop_operation_xyz
x,y,z
-x,-y,-z
loop_
_atom_site_type_symbol
_atom_site_label
_atom_site_fract_x
_atom_site_fract_y
_atom_site_fract_z
Si Si1 0.902912 0.989109 0.370986
Si Si2 0.644761 0.008542 0.568842
Si Si3 0.163294 0.642490 0.241816
Si Si4 0.546490 0.138963 0.151550
Si Si5 0.913428 0.255619 0.223057
Si Si6 0.619875 0.432582 0.008842
Si Si7 0.961376 0.746510 0.098186
O O1 0.721122 0.915531 0.442387
O O2 0.935487 0.158212 0.327163
O O3 0.942375 0.882336 0.226446
O O4 0.000000 0.000000 0.500000
O O5 0.775986 0.204879 0.619858
O O6 0.500000 0.000000 0.500000
O O7 0.581056 0.932771 0.716538
O O8 0.028196 0.457219 0.268094
O O9 0.082023 0.692769 0.139477
O O10 0.318879 0.635766 0.151103
O O11 0.725386 0.199276 0.205110
O O12 0.546773 0.292848 0.107831
O O13 0.500000 0.000000 0.000000
O O14 0.975976 0.202052 0.058938
O O15 0.785722 0.584518 0.078180
O O16 0.500000 0.500000 0.000000
#
# Coordination Sequence:
#
# PCOD9058412 Si02
#       7
#     2   2   2   2   2   2   2
#     4  12  27  44  66 103 140 178 224 281 334 407
#     4  12  26  44  68  99 142 179 223 276 347 399
#     4  11  22  47  70  98 135 179 227 281 335 408
#     4  12  23  43  74 100 135 181 228 273 341 403
#     4  11  23  45  75  97 128 187 233 269 338 403
#     4  11  24  40  70 107 134 168 230 290 332 385
#     4  11  22  45  72  98 136 175 232 278 331 405
#
# _framework density 19.814118000000001
#
# number of rings (size 3 to 8) (size 9 to 14) (size 15 to 20)
#    0.000    0.571    7.143    1.286    4.000    2.857 
#    2.571    0.714    0.000    0.000    0.000    0.000 
#    0.000    0.000    0.000    0.000    0.000    0.000 
#
# Total GULP energy -78223.793402 kJ/mol
# GULP energy per Si atom -5587.413814 kJ/mol
# Density = 1.976902 g / cm^3
# Si number density = 19.814118 Si / 1000 Ang^3
#
#
#
# Elastic Constant Matrix: (Units=GPa)
#
#
# Indices 1 2 3 4 5 6 
#
# 1 125.4367 33.4144 35.7429 -9.1253 -1.3241 -21.2319
# 2 33.4144 93.4050 63.0946 -20.2836 -4.2009 -14.0356
# 3 35.7429 63.0946 107.1926 -18.6507 -7.1299 -10.7932
# 4 -9.1253 -20.2836 -18.6507 33.6103 -1.2142 8.3181
# 5 -1.3241 -4.2009 -7.1299 -1.2142 43.4717 -3.0409
# 6 -21.2319 -14.0356 -10.7932 8.3181 -3.0409 30.2805
#
#
#
# Elastic Compliance Matrix: (Units=1/GPa)
#
#
# Indices 1 2 3 4 5 6 
#
# 1 0.009843 -0.001500 -0.001932 -0.000717 0.000219 0.005737
# 2 -0.001500 0.019387 -0.009654 0.005183 0.000608 0.003131
# 3 -0.001932 -0.009654 0.016199 0.002866 0.001698 -0.000672
# 4 -0.000717 0.005183 0.002866 0.036019 0.001478 -0.006824
# 5 0.000219 0.000608 0.001698 0.001478 0.023599 0.003005
# 6 0.005737 0.003131 -0.000672 -0.006824 0.003005 0.040435
#
#
# Mechanical properties :
#
#
# Convention : Reuss Voigt Hill
#
# Bulk Modulus (GPa) = 51.92443 65.61534 58.76989
# Shear Modulus (GPa) = 28.07820 34.39132 31.23476
#
# Velocity S-wave (km/s) = 3.76850 4.17069 3.97468
# Velocity P-wave (km/s) = 6.72295 7.50868 7.12665
#
# Compressibility (1/GPa) = 0.01925876
#
# Stress axis : x y z
#
# Youngs Moduli (GPa) = 101.59047 51.58067 61.73056
#
# Poissons Ratio (x) = 0.07738 0.11924
# Poissons Ratio (y) = 0.15241 0.59593
# Poissons Ratio (z) = 0.19624 0.49795
#
# Static dielectric constant tensor:
#      x y z
#    x 1.683180 -0.007660 -0.035470 
#    y -0.007660 1.721890 0.009770 
#    z -0.035470 0.009770 1.726060 
# 
# From -- ./inp_files/156617.got.cif
#   From: 2010.05.17/outbox.cif.g08.bks.cpg/sg2_79_cif.got.tgz:156617.got - 2010.06.03 11:33:40.
