data_PCOD9058880
_publ_section_title
;
Structure prediction by ZEFSAII (Michael W. Deem and Ramdas Pophale) SiO2 
 PCOD9058880
Probable space group: P -1
;
_chemical_formula_sum "Si O2"
_cell_formula_units_Z 16
_cell_length_a 20.077224
_cell_length_b 9.753421
_cell_length_c 16.400845
_cell_angle_alpha 34.833642
_cell_angle_beta 24.889992
_cell_angle_gamma 34.385665
_cell_volume 727.310446
_symmetry_space_group_name_H-M "P -1"
_symmetry_group_IT_number 2
_symmetry_cell_setting 'triclinic'
loop_
_space_group_symop_operation_xyz
x,y,z
-x,-y,-z
loop_
_atom_site_type_symbol
_atom_site_label
_atom_site_fract_x
_atom_site_fract_y
_atom_site_fract_z
Si Si1 0.997545 0.549034 0.665185
Si Si2 0.117747 0.754523 0.673797
Si Si3 0.678804 0.979884 0.771742
Si Si4 0.528531 0.889689 0.818917
Si Si5 0.914284 0.171078 0.813518
Si Si6 0.780097 0.612274 0.113253
Si Si7 0.289799 0.584162 0.231907
Si Si8 0.012965 0.202744 0.952532
O O1 0.818741 0.762834 0.772152
O O2 0.968014 0.361367 0.719546
O O3 0.126334 0.670114 0.426156
O O4 0.071756 0.395119 0.739319
O O5 0.935519 0.721886 0.875596
O O6 0.236218 0.801851 0.447981
O O7 0.209846 0.514422 0.746946
O O8 0.062438 0.003627 0.672274
O O9 0.650410 0.898476 0.751520
O O10 0.500000 0.000000 0.000000
O O11 0.630853 0.722137 0.711717
O O12 0.417825 0.717970 0.053732
O O13 0.396536 0.168071 0.811253
O O14 0.766438 0.319865 0.844495
O O15 0.878857 0.960709 0.014075
O O16 0.834710 0.374855 0.105253
O O17 0.000000 0.000000 0.000000
#
# Coordination Sequence:
#
# PCOD9058880 Si02
#       8
#     2   2   2   2   2   2   2   2
#     4  11  20  38  61  88 117 164 210 246 301 370
#     4  10  21  38  64  89 114 165 207 248 302 366
#     4  12  24  37  56  88 132 164 198 250 313 361
#     4  11  23  37  59  94 123 157 200 258 310 355
#     4  10  17  37  63  87 111 157 209 254 290 358
#     4  10  20  40  64  88 122 156 206 256 302 359
#     4  11  21  37  65  89 119 159 210 255 296 364
#     4   9  21  35  61  91 115 151 204 249 298 359
#
# _framework density 21.998858999999999
#
# number of rings (size 3 to 8) (size 9 to 14) (size 15 to 20)
#    0.000    1.500    3.750    1.875    0.000    1.500 
#    0.000    6.250    0.000    1.500    0.000    0.000 
#    0.000    0.000    0.000    0.000    0.000    0.000 
#
# Total GULP energy -89232.428462 kJ/mol
# GULP energy per Si atom -5577.026779 kJ/mol
# Density = 2.194879 g / cm^3
# Si number density = 21.998859 Si / 1000 Ang^3
#
#
#
# Elastic Constant Matrix: (Units=GPa)
#
#
# Indices 1 2 3 4 5 6 
#
# 1 49.6241 13.1127 27.7211 -12.3986 3.2196 -8.5584
# 2 13.1127 105.0741 26.4094 0.7686 8.8818 -7.1468
# 3 27.7211 26.4094 124.3613 -3.1353 3.8599 -16.8084
# 4 -12.3986 0.7686 -3.1353 26.5113 -2.4966 5.2414
# 5 3.2196 8.8818 3.8599 -2.4966 22.8517 -6.4525
# 6 -8.5584 -7.1468 -16.8084 5.2414 -6.4525 36.7233
#
#
#
# Elastic Compliance Matrix: (Units=1/GPa)
#
#
# Indices 1 2 3 4 5 6 
#
# 1 0.026687 -0.002010 -0.004971 0.011553 -0.000357 0.001841
# 2 -0.002010 0.010535 -0.001663 -0.001872 -0.003607 0.000454
# 3 -0.004971 -0.001663 0.009901 -0.001731 0.000438 0.003374
# 4 0.011553 -0.001872 -0.001731 0.044092 0.003016 -0.004227
# 5 -0.000357 -0.003607 0.000438 0.003016 0.047540 0.007338
# 6 0.001841 0.000454 0.003374 -0.004227 0.007338 0.031185
#
#
# Mechanical properties :
#
#
# Convention : Reuss Voigt Hill
#
# Bulk Modulus (GPa) = 33.51719 45.94955 39.73337
# Shear Modulus (GPa) = 25.35841 31.33835 28.34838
#
# Velocity S-wave (km/s) = 3.39885 3.77841 3.59364
# Velocity P-wave (km/s) = 5.53822 6.32200 5.94305
#
# Compressibility (1/GPa) = 0.02983544
#
# Stress axis : x y z
#
# Youngs Moduli (GPa) = 37.47186 94.91795 101.00007
#
# Poissons Ratio (x) = 0.19080 0.50203
# Poissons Ratio (y) = 0.07533 0.16797
# Poissons Ratio (z) = 0.18626 0.15786
#
# Static dielectric constant tensor:
#      x y z
#    x 1.835960 0.051750 0.018920 
#    y 0.051750 1.876760 -0.032720 
#    z 0.018920 -0.032720 1.831910 
# 
# From -- ./inp_files/344540.got.cif
#   From: 2010.05.17/outbox.cif.g08.bks.cpg/sg2_173_cif.got.tgz:344540.got - 2010.06.03 11:33:40.
