data_PCOD9058562
_publ_section_title
;
Structure prediction by ZEFSAII (Michael W. Deem and Ramdas Pophale) SiO2 
 PCOD9058562
Probable space group: P -1
;
_chemical_formula_sum "Si O2"
_cell_formula_units_Z 14
_cell_length_a 9.414217
_cell_length_b 18.512240
_cell_length_c 9.133413
_cell_angle_alpha 24.852349
_cell_angle_beta 60.782969
_cell_angle_gamma 55.591654
_cell_volume 550.538437
_symmetry_space_group_name_H-M "P -1"
_symmetry_group_IT_number 2
_symmetry_cell_setting 'triclinic'
loop_
_space_group_symop_operation_xyz
x,y,z
-x,-y,-z
loop_
_atom_site_type_symbol
_atom_site_label
_atom_site_fract_x
_atom_site_fract_y
_atom_site_fract_z
Si Si1 0.295954 0.561996 0.470858
Si Si2 0.663497 0.049049 0.771446
Si Si3 0.189960 0.247448 0.271533
Si Si4 0.617798 0.645715 0.772846
Si Si5 0.889204 0.884062 0.709702
Si Si6 0.839096 0.465064 0.723469
Si Si7 0.811603 0.261457 0.520870
O O1 0.500000 0.500000 0.500000
O O2 0.255013 0.582694 0.281712
O O3 0.216976 0.736756 0.293502
O O4 0.221485 0.408868 0.859258
O O5 0.579315 0.237760 0.375208
O O6 0.777315 0.096486 0.754628
O O7 0.767075 0.893975 0.891007
O O8 0.500000 0.000000 0.000000
O O9 0.311017 0.233823 0.375087
O O10 0.221500 0.082338 0.443817
O O11 0.999467 0.280325 0.371221
O O12 0.717232 0.603663 0.644670
O O13 0.668467 0.448993 0.187748
O O14 0.000000 0.000000 0.500000
O O15 0.048884 0.703723 0.925269
O O16 0.000000 0.500000 0.500000
#
# Coordination Sequence:
#
# PCOD9058562 Si02
#       7
#     2   2   2   2   2   2   2
#     4  11  24  39  69 108 132 160 226 297 321 368
#     4  12  27  43  65 101 144 170 213 284 343 382
#     4  11  23  45  70  96 131 176 230 270 321 405
#     4  11  23  43  73  97 126 180 228 272 328 394
#     4  12  25  44  67  97 137 180 220 266 332 410
#     4  12  21  42  74  98 128 177 228 270 328 393
#     4  11  22  46  71  94 130 180 229 265 323 407
#
# _framework density 25.429651
#
# number of rings (size 3 to 8) (size 9 to 14) (size 15 to 20)
#    0.000    0.571    4.286    4.714    2.000    4.000 
#    2.571    1.429    0.000    0.000    0.000    0.000 
#    0.000    0.000    0.000    0.000    0.000    0.000 
#
# Total GULP energy -78241.607527 kJ/mol
# GULP energy per Si atom -5588.686252 kJ/mol
# Density = 2.537177 g / cm^3
# Si number density = 25.429651 Si / 1000 Ang^3
#
#
#
# Elastic Constant Matrix: (Units=GPa)
#
#
# Indices 1 2 3 4 5 6 
#
# 1 173.5672 71.0556 0.1143 11.7439 -10.1976 34.2799
# 2 71.0556 188.6904 6.4604 22.7340 -2.9765 31.2877
# 3 0.1143 6.4604 36.5064 12.9117 -2.9581 -1.1835
# 4 11.7439 22.7340 12.9117 34.3322 -2.5248 3.9242
# 5 -10.1976 -2.9765 -2.9581 -2.5248 29.2290 7.2511
# 6 34.2799 31.2877 -1.1835 3.9242 7.2511 68.2995
#
#
#
# Elastic Compliance Matrix: (Units=1/GPa)
#
#
# Indices 1 2 3 4 5 6 
#
# 1 0.007502 -0.002200 0.000820 -0.000840 0.003156 -0.003030
# 2 -0.002200 0.006866 0.000004 -0.003579 0.000080 -0.001844
# 3 0.000820 0.000004 0.031904 -0.012179 0.002316 0.000593
# 4 -0.000840 -0.003579 -0.012179 0.036510 0.001361 -0.000392
# 5 0.003156 0.000080 0.002316 0.001361 0.037061 -0.005593
# 6 -0.003030 -0.001844 0.000593 -0.000392 -0.005593 0.017634
#
#
# Mechanical properties :
#
#
# Convention : Reuss Voigt Hill
#
# Bulk Modulus (GPa) = 22.97703 61.55827 42.26765
# Shear Modulus (GPa) = 32.31346 47.78106 40.04726
#
# Velocity S-wave (km/s) = 3.56856 4.33939 3.97271
# Velocity P-wave (km/s) = 5.10241 7.02616 6.14009
#
# Compressibility (1/GPa) = 0.04352172
#
# Stress axis : x y z
#
# Youngs Moduli (GPa) = 133.29480 145.64116 31.34437
#
# Poissons Ratio (x) = 0.32038 -0.02571
# Poissons Ratio (y) = 0.29322 -0.00014
# Poissons Ratio (z) = -0.10933 -0.00064
#
# Static dielectric constant tensor:
#      x y z
#    x 1.979120 0.203600 -0.116130 
#    y 0.203600 1.914850 0.114850 
#    z -0.116130 0.114850 2.115450 
# 
# From -- ./inp_files/216313.got.cif
#   From: 2010.05.17/outbox.cif.g08.bks.cpg/sg2_109_cif.got.tgz:216313.got - 2010.06.03 11:33:40.
