data_PCOD9058810
_publ_section_title
;
Structure prediction by ZEFSAII (Michael W. Deem and Ramdas Pophale) SiO2 
 PCOD9058810
Probable space group: P -1
;
_chemical_formula_sum "Si O2"
_cell_formula_units_Z 14
_cell_length_a 12.539507
_cell_length_b 11.901896
_cell_length_c 11.182775
_cell_angle_alpha 123.849993
_cell_angle_beta 23.037234
_cell_angle_gamma 124.662448
_cell_volume 534.255421
_symmetry_space_group_name_H-M "P -1"
_symmetry_group_IT_number 2
_symmetry_cell_setting 'triclinic'
loop_
_space_group_symop_operation_xyz
x,y,z
-x,-y,-z
loop_
_atom_site_type_symbol
_atom_site_label
_atom_site_fract_x
_atom_site_fract_y
_atom_site_fract_z
Si Si1 0.476908 0.752912 0.741579
Si Si2 0.854409 0.577159 0.876954
Si Si3 0.318185 0.644203 0.595130
Si Si4 0.948406 0.051663 0.735562
Si Si5 0.891506 0.310780 0.545258
Si Si6 0.364541 0.226001 0.154860
Si Si7 0.779738 0.049055 0.169863
O O1 0.412694 0.646352 0.636571
O O2 0.542692 0.698445 0.771278
O O3 0.740532 0.872175 0.512699
O O4 0.216206 0.829589 0.066413
O O5 0.046775 0.543551 0.768074
O O6 0.048382 0.685276 0.654192
O O7 0.788840 0.448486 0.778888
O O8 0.583877 0.629404 0.232786
O O9 0.220743 0.791252 0.764833
O O10 0.834876 0.917314 0.693647
O O11 0.830093 0.993129 0.953039
O O12 0.177096 0.303881 0.312411
O O13 0.641426 0.198959 0.786044
O O14 0.500000 0.000000 0.500000
O O15 0.000000 0.000000 0.000000
#
# Coordination Sequence:
#
# PCOD9058810 Si02
#       7
#     2   2   2   2   2   2   2
#     4  11  23  44  62  98 129 172 214 256 314 402
#     4  11  24  46  67  91 132 166 216 267 341 374
#     4  11  23  41  69  90 130 180 198 262 340 374
#     4  11  23  40  62  93 135 173 206 254 325 375
#     4  11  26  43  66  98 122 167 224 277 310 385
#     4  12  24  42  69  93 129 169 224 264 315 370
#     4  11  23  36  58  97 132 158 211 254 301 398
#
# _framework density 26.204694
#
# number of rings (size 3 to 8) (size 9 to 14) (size 15 to 20)
#    0.000    0.857    0.000    8.571    6.000    2.286 
#    0.000    4.286    0.000    0.000    0.000    0.000 
#    0.000    0.000    0.000    0.000    0.000    0.000 
#
# Total GULP energy -78411.367628 kJ/mol
# GULP energy per Si atom -5600.811973 kJ/mol
# Density = 2.614505 g / cm^3
# Si number density = 26.204694 Si / 1000 Ang^3
#
#
#
# Elastic Constant Matrix: (Units=GPa)
#
#
# Indices 1 2 3 4 5 6 
#
# 1 144.5031 7.4915 37.1899 7.2899 -21.8220 11.1105
# 2 7.4915 41.7628 6.9186 5.2392 -5.0176 7.1501
# 3 37.1899 6.9186 169.0770 -3.0435 -17.7976 11.2484
# 4 7.2899 5.2392 -3.0435 46.0813 -0.0238 1.4455
# 5 -21.8220 -5.0176 -17.7976 -0.0238 40.7105 -1.4927
# 6 11.1105 7.1501 11.2484 1.4455 -1.4927 37.4403
#
#
#
# Elastic Compliance Matrix: (Units=1/GPa)
#
#
# Indices 1 2 3 4 5 6 
#
# 1 0.008011 -0.000335 -0.001273 -0.001257 0.003632 -0.001738
# 2 -0.000335 0.025493 -0.000451 -0.002735 0.002602 -0.004424
# 3 -0.001273 -0.000451 0.006540 0.000731 0.002069 -0.001447
# 4 -0.001257 -0.002735 0.000731 0.022265 -0.000686 -0.000211
# 5 0.003632 0.002602 0.002069 -0.000686 0.027696 -0.001065
# 6 -0.001738 -0.004424 -0.001447 -0.000211 -0.001065 0.028470
#
#
# Mechanical properties :
#
#
# Convention : Reuss Voigt Hill
#
# Bulk Modulus (GPa) = 27.83422 50.94919 39.39171
# Shear Modulus (GPa) = 37.15628 45.09595 41.12612
#
# Velocity S-wave (km/s) = 3.76962 4.15289 3.96589
# Velocity P-wave (km/s) = 5.43982 6.51769 6.00299
#
# Compressibility (1/GPa) = 0.03592700
#
# Stress axis : x y z
#
# Youngs Moduli (GPa) = 124.83303 39.22698 152.90326
#
# Poissons Ratio (x) = 0.01312 0.19466
# Poissons Ratio (y) = 0.04177 0.06889
# Poissons Ratio (z) = 0.15892 0.01767
#
# Static dielectric constant tensor:
#      x y z
#    x 2.085510 0.027990 0.061410 
#    y 0.027990 2.186430 -0.081270 
#    z 0.061410 -0.081270 1.989290 
# 
# From -- ./inp_files/434172.got.cif
#   From: 2010.05.17/outbox.cif.g08.bks.cpg/sg2_218_cif.got.tgz:434172.got - 2010.06.03 11:33:40.
