data_PCOD9058637
_publ_section_title
;
Structure prediction by ZEFSAII (Michael W. Deem and Ramdas Pophale) SiO2 
 PCOD9058637
Probable space group: P -1
;
_chemical_formula_sum "Si O2"
_cell_formula_units_Z 14
_cell_length_a 8.923021
_cell_length_b 11.624489
_cell_length_c 7.785042
_cell_angle_alpha 123.974481
_cell_angle_beta 51.491112
_cell_angle_gamma 122.725749
_cell_volume 500.382463
_symmetry_space_group_name_H-M "P -1"
_symmetry_group_IT_number 2
_symmetry_cell_setting 'triclinic'
loop_
_space_group_symop_operation_xyz
x,y,z
-x,-y,-z
loop_
_atom_site_type_symbol
_atom_site_label
_atom_site_fract_x
_atom_site_fract_y
_atom_site_fract_z
Si Si1 0.596490 0.497555 0.113647
Si Si2 0.724042 0.211989 0.489222
Si Si3 0.288180 0.090729 0.874413
Si Si4 0.708017 0.421663 0.392219
Si Si5 0.085759 0.675253 0.227355
Si Si6 0.876527 0.820371 0.256150
Si Si7 0.401944 0.131195 0.209013
O O1 0.726220 0.387743 0.945378
O O2 0.737052 0.658679 0.181007
O O3 0.500000 0.500000 0.000000
O O4 0.575092 0.519669 0.637850
O O5 0.500523 0.173582 0.697453
O O6 0.780894 0.356038 0.454980
O O7 0.234030 0.109290 0.461524
O O8 0.884664 0.231278 0.541663
O O9 0.120719 0.105310 0.868841
O O10 0.283770 0.924182 0.736213
O O11 0.304709 0.145478 0.103887
O O12 0.893572 0.532610 0.257534
O O13 0.569824 0.276881 0.276876
O O14 0.062821 0.781160 0.179117
O O15 0.500000 0.000000 0.000000
#
# Coordination Sequence:
#
# PCOD9058637 Si02
#       7
#     2   2   2   2   2   2   2
#     4  11  23  45  76 108 152 208 252 312 393 446
#     4  11  22  46  76 109 151 198 259 320 379 457
#     4  11  22  46  81 107 151 208 256 314 384 458
#     4  11  24  48  78 119 152 193 266 321 382 471
#     4  12  27  45  76 115 161 200 253 322 390 460
#     4  11  26  46  69 117 155 200 261 310 382 468
#     4  11  22  46  82 113 150 207 259 317 387 452
#
# _framework density 27.9786
#
# number of rings (size 3 to 8) (size 9 to 14) (size 15 to 20)
#    0.000    0.857    5.714    1.714    0.000    8.571 
#    0.000    2.143    0.000    3.429    0.000    0.000 
#    0.000    0.000    0.000    0.000    0.000    0.000 
#
# Total GULP energy -78555.929610 kJ/mol
# GULP energy per Si atom -5611.137829 kJ/mol
# Density = 2.791492 g / cm^3
# Si number density = 27.978600 Si / 1000 Ang^3
#
#
#
# Elastic Constant Matrix: (Units=GPa)
#
#
# Indices 1 2 3 4 5 6 
#
# 1 189.1301 60.4299 96.4229 -1.1766 5.1925 -28.1158
# 2 60.4299 102.0653 47.1860 1.3157 1.7662 -17.8758
# 3 96.4229 47.1860 217.2071 -7.8341 29.2427 -11.8059
# 4 -1.1766 1.3157 -7.8341 60.1901 -14.1584 9.3506
# 5 5.1925 1.7662 29.2427 -14.1584 65.4138 -10.6234
# 6 -28.1158 -17.8758 -11.8059 9.3506 -10.6234 54.8099
#
#
#
# Elastic Compliance Matrix: (Units=1/GPa)
#
#
# Indices 1 2 3 4 5 6 
#
# 1 0.008145 -0.002958 -0.002986 -0.000335 0.001159 0.002852
# 2 -0.002958 0.012658 -0.001429 -0.000735 0.000792 0.002582
# 3 -0.002986 -0.001429 0.006562 0.000359 -0.002772 -0.001183
# 4 -0.000335 -0.000735 0.000359 0.017875 0.003310 -0.002743
# 5 0.001159 0.000792 -0.002772 0.003310 0.017635 0.003109
# 6 0.002852 0.002582 -0.001183 -0.002743 0.003109 0.021366
#
#
# Mechanical properties :
#
#
# Convention : Reuss Voigt Hill
#
# Bulk Modulus (GPa) = 79.25647 101.83113 90.54380
# Shear Modulus (GPa) = 48.45278 56.37367 52.41322
#
# Velocity S-wave (km/s) = 4.16598 4.49362 4.33290
# Velocity P-wave (km/s) = 7.17841 7.96232 7.58050
#
# Compressibility (1/GPa) = 0.01261727
#
# Stress axis : x y z
#
# Youngs Moduli (GPa) = 122.77396 79.00204 152.39326
#
# Poissons Ratio (x) = 0.23370 0.45508
# Poissons Ratio (y) = 0.36318 0.21784
# Poissons Ratio (z) = 0.36663 0.11293
#
# Static dielectric constant tensor:
#      x y z
#    x 2.263940 0.029540 -0.002500 
#    y 0.029540 2.121980 -0.038470 
#    z -0.002500 -0.038470 2.229600 
# 
# From -- ./inp_files/180611.got.cif
#   From: 2010.05.17/outbox.cif.g08.bks.cpg/sg2_91_cif.got.tgz:180611.got - 2010.06.03 11:33:40.
