data_PCOD9058150
_publ_section_title
;
Structure prediction by ZEFSAII (Michael W. Deem and Ramdas Pophale) SiO2 
 PCOD9058150
Probable space group: P -1
;
_chemical_formula_sum "Si O2"
_cell_formula_units_Z 14
_cell_length_a 11.814160
_cell_length_b 11.896872
_cell_length_c 12.081513
_cell_angle_alpha 143.188417
_cell_angle_beta 41.142787
_cell_angle_gamma 138.878519
_cell_volume 618.795850
_symmetry_space_group_name_H-M "P -1"
_symmetry_group_IT_number 2
_symmetry_cell_setting 'triclinic'
loop_
_space_group_symop_operation_xyz
x,y,z
-x,-y,-z
loop_
_atom_site_type_symbol
_atom_site_label
_atom_site_fract_x
_atom_site_fract_y
_atom_site_fract_z
Si Si1 0.846027 0.297615 0.402331
Si Si2 0.299142 0.281018 0.429783
Si Si3 0.530440 0.365382 0.547565
Si Si4 0.034880 0.801483 0.977679
Si Si5 0.785460 0.020336 0.425201
Si Si6 0.280722 0.885927 0.060702
Si Si7 0.072992 0.646819 0.222003
O O1 0.712013 0.355079 0.463731
O O2 0.938991 0.188803 0.164524
O O3 0.000000 0.500000 0.500000
O O4 0.741124 0.147050 0.459177
O O5 0.448485 0.304517 0.435144
O O6 0.406901 0.392658 0.327362
O O7 0.140734 0.367665 0.644723
O O8 0.197337 0.045334 0.295257
O O9 0.369412 0.198652 0.604473
O O10 0.922304 0.563556 0.902068
O O11 0.222403 0.847015 0.946320
O O12 0.950275 0.957952 0.208884
O O13 0.836492 0.170999 0.612077
O O14 0.184615 0.698223 0.064944
O O15 0.500000 0.000000 0.000000
#
# Coordination Sequence:
#
# PCOD9058150 Si02
#       7
#     2   2   2   2   2   2   2
#     4  12  25  50  72  98 144 194 238 290 348 416
#     4  11  22  44  72 104 147 181 226 290 365 416
#     4  11  24  42  75 103 138 190 230 291 358 409
#     4  12  26  45  72 105 140 190 238 285 356 419
#     4  12  25  47  74 103 142 192 239 284 351 418
#     4  12  26  41  70 111 147 179 234 296 353 428
#     4  12  24  47  71 106 149 185 226 294 360 422
#
# _framework density 22.624585
#
# number of rings (size 3 to 8) (size 9 to 14) (size 15 to 20)
#    0.000    0.286    5.714    3.429    4.000    0.000 
#    0.000    0.714    0.000    0.000    0.000    0.000 
#    0.000    0.000    0.000    0.000    0.000    0.000 
#
# Total GULP energy -78129.616261 kJ/mol
# GULP energy per Si atom -5580.686876 kJ/mol
# Density = 2.257309 g / cm^3
# Si number density = 22.624585 Si / 1000 Ang^3
#
#
#
# Elastic Constant Matrix: (Units=GPa)
#
#
# Indices 1 2 3 4 5 6 
#
# 1 134.6218 38.4671 39.5948 -15.9363 11.3422 -11.6032
# 2 38.4671 98.8913 -7.9021 -19.0296 9.9526 -23.7738
# 3 39.5948 -7.9021 53.6249 7.1942 14.2933 3.2115
# 4 -15.9363 -19.0296 7.1942 20.6783 -0.0080 -1.8396
# 5 11.3422 9.9526 14.2933 -0.0080 34.2414 3.0773
# 6 -11.6032 -23.7738 3.2115 -1.8396 3.0773 43.2761
#
#
#
# Elastic Compliance Matrix: (Units=1/GPa)
#
#
# Indices 1 2 3 4 5 6 
#
# 1 0.013822 -0.003437 -0.012964 0.012284 0.001548 0.003192
# 2 -0.003437 0.017000 0.004607 0.012196 -0.006537 0.009059
# 3 -0.012964 0.004607 0.034500 -0.018069 -0.011137 -0.003482
# 4 0.012284 0.012196 -0.018069 0.076643 -0.001374 0.014690
# 5 0.001548 -0.006537 -0.011137 -0.001374 0.035685 -0.004945
# 6 0.003192 0.009059 -0.003482 0.014690 -0.004945 0.030174
#
#
# Mechanical properties :
#
#
# Convention : Reuss Voigt Hill
#
# Bulk Modulus (GPa) = 23.96204 47.49531 35.72867
# Shear Modulus (GPa) = 20.38109 34.10438 27.24273
#
# Velocity S-wave (km/s) = 3.00465 3.88674 3.47381
# Velocity P-wave (km/s) = 4.75935 6.41722 5.64943
#
# Compressibility (1/GPa) = 0.04173268
#
# Stress axis : x y z
#
# Youngs Moduli (GPa) = 72.34692 58.82470 28.98509
#
# Poissons Ratio (x) = 0.20219 0.37577
# Poissons Ratio (y) = 0.24867 -0.13352
# Poissons Ratio (z) = 0.93793 -0.27098
#
# Static dielectric constant tensor:
#      x y z
#    x 1.820200 0.018450 -0.025720 
#    y 0.018450 1.859970 0.007260 
#    z -0.025720 0.007260 1.889810 
# 
# From -- ./inp_files/181074.got.cif
#   From: 2010.05.17/outbox.cif.g08.bks.cpg/sg2_91_cif.got.tgz:181074.got - 2010.06.03 11:33:40.
