data_PCOD9058476
_publ_section_title
;
Structure prediction by ZEFSAII (Michael W. Deem and Ramdas Pophale) SiO2 
 PCOD9058476
Probable space group: P -1
;
_chemical_formula_sum "Si O2"
_cell_formula_units_Z 12
_cell_length_a 9.033958
_cell_length_b 15.584730
_cell_length_c 7.371817
_cell_angle_alpha 60.884462
_cell_angle_beta 131.298410
_cell_angle_gamma 138.870477
_cell_volume 512.774053
_symmetry_space_group_name_H-M "P -1"
_symmetry_group_IT_number 2
_symmetry_cell_setting 'triclinic'
loop_
_space_group_symop_operation_xyz
x,y,z
-x,-y,-z
loop_
_atom_site_type_symbol
_atom_site_label
_atom_site_fract_x
_atom_site_fract_y
_atom_site_fract_z
Si Si1 0.945333 0.387345 0.842479
Si Si2 0.113467 0.132339 0.054638
Si Si3 0.383159 0.586785 0.248606
Si Si4 0.950840 0.730325 0.457676
Si Si5 0.200199 0.871105 0.894677
Si Si6 0.309042 0.663571 0.755406
O O1 0.161822 0.510599 0.761756
O O2 0.709726 0.388608 0.671300
O O3 0.125378 0.447413 0.109258
O O4 0.839561 0.243543 0.905821
O O5 0.066496 0.204087 0.797072
O O6 0.424393 0.229503 0.243136
O O7 0.966268 0.105318 0.150346
O O8 0.000000 0.000000 0.000000
O O9 0.650391 0.616921 0.399575
O O10 0.403034 0.683551 0.020411
O O11 0.097658 0.824194 0.654349
O O12 0.107202 0.686041 0.563989
O O13 0.500000 0.000000 0.000000
#
# Coordination Sequence:
#
# PCOD9058476 Si02
#       6
#     2   2   2   2   2   2
#     4   9  18  40  67 100 141 162 222 289 312 394
#     4  11  27  46  65  98 140 172 223 286 323 392
#     4   8  17  36  69  98 131 167 216 276 325 382
#     4  11  22  45  75  95 129 189 218 259 356 391
#     4  12  26  43  71  99 134 180 226 271 329 404
#     4   9  19  41  66  98 135 169 216 279 328 384
#
# _framework density 23.402121000000001
#
# number of rings (size 3 to 8) (size 9 to 14) (size 15 to 20)
#    1.000    1.000    1.667    1.000    2.333    6.667 
#    3.000    0.833    0.000    0.000    0.000    0.000 
#    0.000    0.000    0.000    0.000    0.000    0.000 
#
# Total GULP energy -66927.443771 kJ/mol
# GULP energy per Si atom -5577.286981 kJ/mol
# Density = 2.334886 g / cm^3
# Si number density = 23.402121 Si / 1000 Ang^3
#
#
#
# Elastic Constant Matrix: (Units=GPa)
#
#
# Indices 1 2 3 4 5 6 
#
# 1 128.8167 63.4271 46.4324 28.2070 37.2783 14.7035
# 2 63.4271 128.6329 22.2077 18.3022 22.0477 8.4874
# 3 46.4324 22.2077 99.0459 6.2380 11.9864 1.7579
# 4 28.2070 18.3022 6.2380 32.0429 -4.5564 8.0564
# 5 37.2783 22.0477 11.9864 -4.5564 48.7779 9.7180
# 6 14.7035 8.4874 1.7579 8.0564 9.7180 35.8753
#
#
#
# Elastic Compliance Matrix: (Units=1/GPa)
#
#
# Indices 1 2 3 4 5 6 
#
# 1 0.018422 -0.003955 -0.005321 -0.014773 -0.012430 0.000331
# 2 -0.003955 0.010468 -0.000074 -0.002856 -0.002025 0.000338
# 3 -0.005321 -0.000074 0.012312 0.002297 0.001135 0.000772
# 4 -0.014773 -0.002856 0.002297 0.050515 0.018685 -0.009788
# 5 -0.012430 -0.002025 0.001135 0.018685 0.033951 -0.007875
# 6 0.000331 0.000338 0.000772 -0.009788 -0.007875 0.031952
#
#
# Mechanical properties :
#
#
# Convention : Reuss Voigt Hill
#
# Bulk Modulus (GPa) = 44.43911 68.95888 56.69899
# Shear Modulus (GPa) = 27.20047 38.30112 32.75079
#
# Velocity S-wave (km/s) = 3.41296 4.04994 3.74502
# Velocity P-wave (km/s) = 5.87892 7.16940 6.55599
#
# Compressibility (1/GPa) = 0.02250270
#
# Stress axis : x y z
#
# Youngs Moduli (GPa) = 54.28230 95.52867 81.22425
#
# Poissons Ratio (x) = 0.37777 0.43218
# Poissons Ratio (y) = 0.21466 0.00603
# Poissons Ratio (z) = 0.28883 0.00709
#
# Static dielectric constant tensor:
#      x y z
#    x 1.938900 -0.007310 -0.047460 
#    y -0.007310 1.895780 -0.044130 
#    z -0.047460 -0.044130 1.964520 
# 
# From -- ./inp_files/201136.got.cif
#   From: 2010.05.17/outbox.cif.g08.bks.cpg/sg2_101_cif.got.tgz:201136.got - 2010.06.03 11:33:40.
