data_PCOD9058797
_publ_section_title
;
Structure prediction by ZEFSAII (Michael W. Deem and Ramdas Pophale) SiO2 
 PCOD9058797
Probable space group: P -1
;
_chemical_formula_sum "Si O2"
_cell_formula_units_Z 16
_cell_length_a 14.997251
_cell_length_b 19.143248
_cell_length_c 5.491142
_cell_angle_alpha 92.965839
_cell_angle_beta 111.976245
_cell_angle_gamma 39.486530
_cell_volume 851.203334
_symmetry_space_group_name_H-M "P -1"
_symmetry_group_IT_number 2
_symmetry_cell_setting 'triclinic'
loop_
_space_group_symop_operation_xyz
x,y,z
-x,-y,-z
loop_
_atom_site_type_symbol
_atom_site_label
_atom_site_fract_x
_atom_site_fract_y
_atom_site_fract_z
Si Si1 0.624602 0.350745 0.841705
Si Si2 0.712876 0.359332 0.433014
Si Si3 0.763619 0.799303 0.706131
Si Si4 0.085003 0.620872 0.331966
Si Si5 0.558857 0.021271 0.261662
Si Si6 0.571171 0.760898 0.924394
Si Si7 0.887594 0.633549 0.412247
Si Si8 0.415375 0.335764 0.573631
O O1 0.724694 0.312167 0.693849
O O2 0.465452 0.496502 0.714887
O O3 0.550499 0.317246 0.733238
O O4 0.714730 0.310812 0.183987
O O5 0.843433 0.344919 0.546096
O O6 0.590465 0.891459 0.682389
O O7 0.792566 0.711378 0.569674
O O8 0.724366 0.890569 0.516797
O O9 0.929798 0.713921 0.009565
O O10 0.237610 0.480052 0.388471
O O11 0.004225 0.630582 0.481958
O O12 0.563732 0.097185 0.179410
O O13 0.500000 0.000000 0.000000
O O14 0.555123 0.725719 0.654391
O O15 0.745969 0.698935 0.087337
O O16 0.578518 0.711065 0.172958
O O17 0.000000 0.500000 0.500000
#
# Coordination Sequence:
#
# PCOD9058797 Si02
#       8
#     2   2   2   2   2   2   2   2
#     4   9  18  37  54  82 117 153 197 247 304 357
#     4   9  19  33  58  81 116 158 194 245 300 365
#     4  11  23  39  58  84 122 166 212 249 297 349
#     4  11  23  34  58  90 125 161 201 242 306 375
#     4  11  23  40  60  78 120 170 216 260 284 341
#     4  12  23  38  58  88 119 166 205 241 301 355
#     4  12  23  36  55  87 135 162 194 242 304 370
#     4  11  24  37  61  90 124 160 202 249 307 379
#
# _framework density 18.79692
#
# number of rings (size 3 to 8) (size 9 to 14) (size 15 to 20)
#    0.000    1.250    3.750    2.250    3.500    3.000 
#    0.000    0.000    0.000    0.000    0.000    5.250 
#    0.000    0.000    0.000    0.000    0.000    0.000 
#
# Total GULP energy -89197.224890 kJ/mol
# GULP energy per Si atom -5574.826556 kJ/mol
# Density = 1.875414 g / cm^3
# Si number density = 18.796920 Si / 1000 Ang^3
#
#
#
# Elastic Constant Matrix: (Units=GPa)
#
#
# Indices 1 2 3 4 5 6 
#
# 1 16.8932 -79.3152 -58.3840 -4.6586 24.8199 -89.0052
# 2 -79.3152 -11.8093 -56.8236 -8.9787 22.8719 -91.6121
# 3 -58.3840 -56.8236 5.1216 -3.2520 21.6452 -88.5992
# 4 -4.6586 -8.9787 -3.2520 41.1322 13.8536 -26.9702
# 5 24.8199 22.8719 21.6452 13.8536 15.7002 28.5080
# 6 -89.0052 -91.6121 -88.5992 -26.9702 28.5080 -70.2599
#
#
#
# Elastic Compliance Matrix: (Units=1/GPa)
#
#
# Indices 1 2 3 4 5 6 
#
# 1 0.010286 -0.000478 -0.003120 -0.003946 0.002794 -0.005825
# 2 -0.000478 0.013842 -0.005092 -0.003997 0.004817 -0.007533
# 3 -0.003120 -0.005092 0.014170 -0.004309 0.003931 -0.004028
# 4 -0.003946 -0.003997 -0.004309 0.026793 -0.008851 0.001769
# 5 0.002794 0.004817 0.003931 -0.008851 0.043364 0.006215
# 6 -0.005825 -0.007533 -0.004028 0.001769 0.006215 0.009890
#
#
# Mechanical properties :
#
#
# Convention : Reuss Voigt Hill
#
# Bulk Modulus (GPa) = 47.80415 -42.09335 2.85540
# Shear Modulus (GPa) = 35.03912 10.96304 23.00108
#
# Velocity S-wave (km/s) = 4.32219 2.41765 3.50188
# Velocity P-wave (km/s) = 7.09898 3.82740 4.22768
#
# Compressibility (1/GPa) = 0.02091869
#
# Stress axis : x y z
#
# Youngs Moduli (GPa) = 97.21547 72.24379 70.57377
#
# Poissons Ratio (x) = 0.03455 0.22018
# Poissons Ratio (y) = 0.04649 0.35934
# Poissons Ratio (z) = 0.30329 0.36784
#
# Static dielectric constant tensor:
#      x y z
#    x 1.707590 0.031130 -0.073770 
#    y 0.031130 1.658550 -0.006130 
#    z -0.073770 -0.006130 1.692900 
# 
# From -- ./inp_files/99403.got.cif
#   From: 2010.05.17/outbox.cif.g08.bks.cpg/sg2_50_cif.got.tgz:99403.got - 2010.06.03 11:33:40.
