data_PCOD9058198
_publ_section_title
;
Structure prediction by ZEFSAII (Michael W. Deem and Ramdas Pophale) SiO2 
 PCOD9058198
Probable space group: P -1
;
_chemical_formula_sum "Si O2"
_cell_formula_units_Z 16
_cell_length_a 7.665204
_cell_length_b 14.873021
_cell_length_c 8.059190
_cell_angle_alpha 135.963970
_cell_angle_beta 79.587731
_cell_angle_gamma 87.752121
_cell_volume 608.611432
_symmetry_space_group_name_H-M "P -1"
_symmetry_group_IT_number 2
_symmetry_cell_setting 'triclinic'
loop_
_space_group_symop_operation_xyz
x,y,z
-x,-y,-z
loop_
_atom_site_type_symbol
_atom_site_label
_atom_site_fract_x
_atom_site_fract_y
_atom_site_fract_z
Si Si1 0.249369 0.933030 0.280312
Si Si2 0.907112 0.268528 0.761702
Si Si3 0.618435 0.764233 0.844309
Si Si4 0.851594 0.223683 0.328697
Si Si5 0.788660 0.490520 0.514802
Si Si6 0.711884 0.796757 0.232965
Si Si7 0.482740 0.602829 0.993629
Si Si8 0.777453 0.972295 0.948457
O O1 0.122661 0.867054 0.328697
O O2 0.171958 0.007908 0.223975
O O3 0.316917 0.047894 0.516763
O O4 0.417011 0.815637 0.025529
O O5 0.880403 0.278133 0.579712
O O6 0.725657 0.372068 0.999272
O O7 0.103493 0.281433 0.807284
O O8 0.689784 0.611916 0.566859
O O9 0.640346 0.877666 0.864163
O O10 0.738401 0.776212 0.003995
O O11 0.805641 0.333102 0.336471
O O12 0.721968 0.121279 0.229073
O O13 0.043157 0.119673 0.119441
O O14 0.000000 0.500000 0.500000
O O15 0.642357 0.543732 0.758420
O O16 0.540004 0.735742 0.224819
O O17 0.500000 0.500000 0.000000
#
# Coordination Sequence:
#
# PCOD9058198 Si02
#       8
#     2   2   2   2   2   2   2   2
#     4  12  24  43  71 107 144 183 243 300 363 435
#     4  12  24  44  73 108 144 185 248 294 364 437
#     4  11  24  44  68 101 140 187 239 297 355 434
#     4  11  24  42  70 100 144 191 235 301 362 431
#     4  11  22  44  73  97 143 196 232 293 373 427
#     4  11  25  42  73 105 144 188 230 306 364 419
#     4  11  25  46  72 105 145 192 250 299 353 442
#     4  11  25  41  68 104 140 188 244 296 361 434
#
# _framework density 26.289351
#
# number of rings (size 3 to 8) (size 9 to 14) (size 15 to 20)
#    0.000    0.750    6.250    1.875    5.250    0.500 
#    0.000    0.625    8.250    0.000    0.000    0.000 
#    0.000    0.000    0.000    0.000    0.000    0.000 
#
# Total GULP energy -89316.563972 kJ/mol
# GULP energy per Si atom -5582.285248 kJ/mol
# Density = 2.622952 g / cm^3
# Si number density = 26.289351 Si / 1000 Ang^3
#
#
#
# Elastic Constant Matrix: (Units=GPa)
#
#
# Indices 1 2 3 4 5 6 
#
# 1 115.9745 29.8889 36.8445 0.6986 -9.8242 -11.7539
# 2 29.8889 154.3874 25.4474 29.1180 6.4722 5.0718
# 3 36.8445 25.4474 87.2704 23.0614 0.6749 -3.4444
# 4 0.6986 29.1180 23.0614 51.5210 -3.6592 -6.2643
# 5 -9.8242 6.4722 0.6749 -3.6592 40.9088 0.4535
# 6 -11.7539 5.0718 -3.4444 -6.2643 0.4535 41.0904
#
#
#
# Elastic Compliance Matrix: (Units=1/GPa)
#
#
# Indices 1 2 3 4 5 6 
#
# 1 0.011563 -0.002466 -0.005168 0.004266 0.003592 0.003789
# 2 -0.002466 0.008079 -0.000084 -0.004954 -0.002285 -0.002440
# 3 -0.005168 -0.000084 0.015516 -0.007127 -0.002108 -0.001231
# 4 0.004266 -0.004954 -0.007127 0.026273 0.004218 0.005193
# 5 0.003592 -0.002285 -0.002108 0.004218 0.026064 0.001488
# 6 0.003789 -0.002440 -0.001231 0.005193 0.001488 0.026394
#
#
# Mechanical properties :
#
#
# Convention : Reuss Voigt Hill
#
# Bulk Modulus (GPa) = 50.70816 60.22152 55.46484
# Shear Modulus (GPa) = 36.79214 44.40081 40.59648
#
# Velocity S-wave (km/s) = 3.74506 4.11411 3.93392
# Velocity P-wave (km/s) = 6.16692 6.74721 6.46358
#
# Compressibility (1/GPa) = 0.01972069
#
# Stress axis : x y z
#
# Youngs Moduli (GPa) = 86.48500 123.78108 64.44939
#
# Poissons Ratio (x) = 0.30529 0.33308
# Poissons Ratio (y) = 0.21330 0.00542
# Poissons Ratio (z) = 0.44696 0.01040
#
# Static dielectric constant tensor:
#      x y z
#    x 2.173590 0.017500 0.055640 
#    y 0.017500 2.137260 0.071800 
#    z 0.055640 0.071800 2.242520 
# 
# From -- ./inp_files/204202.got.cif
#   From: 2010.05.17/outbox.cif.g08.bks.cpg/sg2_103_cif.got.tgz:204202.got - 2010.06.03 11:33:40.
