data_PCOD9058420
_publ_section_title
;
Structure prediction by ZEFSAII (Michael W. Deem and Ramdas Pophale) SiO2 
 PCOD9058420
Probable space group: P -1
;
_chemical_formula_sum "Si O2"
_cell_formula_units_Z 16
_cell_length_a 8.744207
_cell_length_b 15.989838
_cell_length_c 9.120652
_cell_angle_alpha 114.429445
_cell_angle_beta 130.530595
_cell_angle_gamma 98.380501
_cell_volume 706.650297
_symmetry_space_group_name_H-M "P -1"
_symmetry_group_IT_number 2
_symmetry_cell_setting 'triclinic'
loop_
_space_group_symop_operation_xyz
x,y,z
-x,-y,-z
loop_
_atom_site_type_symbol
_atom_site_label
_atom_site_fract_x
_atom_site_fract_y
_atom_site_fract_z
Si Si1 0.240381 0.128990 0.578319
Si Si2 0.526562 0.492522 0.834512
Si Si3 0.665913 0.964630 0.000948
Si Si4 0.896424 0.524653 0.596077
Si Si5 0.675877 0.323996 0.797036
Si Si6 0.077472 0.253461 0.748551
Si Si7 0.709730 0.289705 0.454167
Si Si8 0.400921 0.972437 0.581917
O O1 0.430370 0.208319 0.625521
O O2 0.229029 0.210843 0.741826
O O3 0.340652 0.060642 0.656154
O O4 0.953507 0.041137 0.282150
O O5 0.273207 0.441855 0.552281
O O6 0.626121 0.418452 0.822185
O O7 0.500000 0.500000 0.000000
O O8 0.720731 0.618685 0.978064
O O9 0.540290 0.830145 0.840581
O O10 0.616473 0.981298 0.815321
O O11 0.500000 0.000000 0.000000
O O12 0.753325 0.402280 0.500418
O O13 0.000000 0.500000 0.500000
O O14 0.102386 0.621988 0.905830
O O15 0.725319 0.302687 0.649374
O O16 0.927722 0.273410 0.546704
O O17 0.862275 0.152465 0.644895
O O18 0.500000 0.000000 0.500000
#
# Coordination Sequence:
#
# PCOD9058420 Si02
#       8
#     2   2   2   2   2   2   2   2
#     4  12  24  45  77 104 143 194 241 290 359 437
#     4  12  24  46  74 108 142 185 251 298 357 438
#     4  11  25  46  76 104 141 191 245 296 355 431
#     4  12  25  45  76 101 141 198 239 292 365 436
#     4  12  27  47  71 108 152 188 235 311 362 422
#     4  11  22  45  73 102 145 187 237 303 348 433
#     4  11  25  47  70 106 153 182 240 312 358 419
#     4  11  26  45  68 107 149 184 236 302 362 423
#
# _framework density 22.642036000000001
#
# number of rings (size 3 to 8) (size 9 to 14) (size 15 to 20)
#    0.000    0.500    6.250    2.250    1.750    4.500 
#    0.000    0.000    0.000    0.000    0.000    0.000 
#    0.000    0.000    0.000    0.000    0.000    0.000 
#
# Total GULP energy -89508.445941 kJ/mol
# GULP energy per Si atom -5594.277871 kJ/mol
# Density = 2.259050 g / cm^3
# Si number density = 22.642036 Si / 1000 Ang^3
#
#
#
# Elastic Constant Matrix: (Units=GPa)
#
#
# Indices 1 2 3 4 5 6 
#
# 1 55.5333 45.4468 19.9551 -1.3512 -5.8499 -4.6604
# 2 45.4468 80.6320 26.3895 2.3537 0.0782 -0.6735
# 3 19.9551 26.3895 117.4649 0.7634 10.6427 -1.1035
# 4 -1.3512 2.3537 0.7634 42.0823 -4.5763 0.6141
# 5 -5.8499 0.0782 10.6427 -4.5763 32.7352 -3.6584
# 6 -4.6604 -0.6735 -1.1035 0.6141 -3.6584 46.9595
#
#
#
# Elastic Compliance Matrix: (Units=1/GPa)
#
#
# Indices 1 2 3 4 5 6 
#
# 1 0.036294 -0.019718 -0.002464 0.003149 0.008205 0.003859
# 2 -0.019718 0.024145 -0.001756 -0.002310 -0.003545 -0.001898
# 3 -0.002464 -0.001756 0.009661 -0.000553 -0.003690 -0.000323
# 4 0.003149 -0.002310 -0.000553 0.024456 0.004197 0.000274
# 5 0.008205 -0.003545 -0.003690 0.004197 0.034177 0.003284
# 6 0.003859 -0.001898 -0.000323 0.000274 0.003284 0.021895
#
#
# Mechanical properties :
#
#
# Convention : Reuss Voigt Hill
#
# Bulk Modulus (GPa) = 44.99425 48.57923 46.78674
# Shear Modulus (GPa) = 24.28231 35.14468 29.71349
#
# Velocity S-wave (km/s) = 3.27837 3.94406 3.62652
# Velocity P-wave (km/s) = 5.85196 6.49944 6.18418
#
# Compressibility (1/GPa) = 0.02222506
#
# Stress axis : x y z
#
# Youngs Moduli (GPa) = 27.55306 41.41587 103.50675
#
# Poissons Ratio (x) = 0.81662 0.25499
# Poissons Ratio (y) = 0.54328 0.18180
# Poissons Ratio (z) = 0.06788 0.07274
#
# Static dielectric constant tensor:
#      x y z
#    x 1.901930 0.004680 -0.006940 
#    y 0.004680 1.852690 -0.001650 
#    z -0.006940 -0.001650 1.875670 
# 
# From -- ./inp_files/187056.got.cif
#   From: 2010.05.17/outbox.cif.g08.bks.cpg/sg2_94_cif.got.tgz:187056.got - 2010.06.03 11:33:40.
