data_PCOD9058262
_publ_section_title
;
Structure prediction by ZEFSAII (Michael W. Deem and Ramdas Pophale) SiO2 
 PCOD9058262
Probable space group: P -1
;
_chemical_formula_sum "Si O2"
_cell_formula_units_Z 11
_cell_length_a 10.438910
_cell_length_b 8.551195
_cell_length_c 10.237070
_cell_angle_alpha 62.556832
_cell_angle_beta 35.631136
_cell_angle_gamma 55.815684
_cell_volume 440.366151
_symmetry_space_group_name_H-M "P -1"
_symmetry_group_IT_number 2
_symmetry_cell_setting 'triclinic'
loop_
_space_group_symop_operation_xyz
x,y,z
-x,-y,-z
loop_
_atom_site_type_symbol
_atom_site_label
_atom_site_fract_x
_atom_site_fract_y
_atom_site_fract_z
Si Si1 0.223525 0.602659 0.670889
Si Si2 0.500000 0.000000 0.500000
Si Si3 0.708203 0.180887 0.712124
Si Si4 0.040171 0.260424 0.912340
Si Si5 0.302516 0.460862 0.096156
Si Si6 0.827026 0.853928 0.544913
O O1 0.500000 0.500000 0.500000
O O2 0.191857 0.715538 0.520534
O O3 0.130540 0.432925 0.798400
O O4 0.109231 0.739212 0.834453
O O5 0.734828 0.919924 0.239524
O O6 0.676376 0.920660 0.512943
O O7 0.906342 0.144009 0.674318
O O8 0.702875 0.998613 0.710666
O O9 0.451021 0.318872 0.914359
O O10 0.864467 0.346171 0.905132
O O11 0.177732 0.348721 0.329762
O O12 0.500000 0.500000 0.000000
#
# Coordination Sequence:
#
# PCOD9058262 Si02
#       6
#     2   1   2   2   2   2
#     4  11  22  44  79 108 142 194 254 300 375 443
#     4  12  28  46  72 106 160 194 242 318 378 438
#     4  11  24  47  79 107 148 200 252 311 373 447
#     4  11  26  45  73 112 148 194 246 312 366 452
#     4  12  26  45  77 109 149 199 250 310 377 447
#     4  11  27  47  71 110 154 196 251 311 374 451
#
# _framework density 24.979213999999999
#
# number of rings (size 3 to 8) (size 9 to 14) (size 15 to 20)
#    0.000    0.727    3.636    2.727    5.091    5.818 
#    0.000    7.273    0.000    0.000    0.000    0.000 
#    0.000    0.000    0.000    0.000    0.000    0.000 
#
# Total GULP energy -61362.296237 kJ/mol
# GULP energy per Si atom -5578.390567 kJ/mol
# Density = 2.492236 g / cm^3
# Si number density = 24.979214 Si / 1000 Ang^3
#
#
#
# Elastic Constant Matrix: (Units=GPa)
#
#
# Indices 1 2 3 4 5 6 
#
# 1 162.5908 19.6816 37.7650 2.8540 5.6885 -38.6213
# 2 19.6816 52.0718 48.1424 17.2055 -0.7656 -9.9077
# 3 37.7650 48.1424 119.1027 40.0453 15.0585 -10.5264
# 4 2.8540 17.2055 40.0453 64.3501 -2.0260 -9.3523
# 5 5.6885 -0.7656 15.0585 -2.0260 28.6923 8.0030
# 6 -38.6213 -9.9077 -10.5264 -9.3523 8.0030 43.6774
#
#
#
# Elastic Compliance Matrix: (Units=1/GPa)
#
#
# Indices 1 2 3 4 5 6 
#
# 1 0.008684 -0.000406 -0.002309 0.002239 -0.002589 0.007984
# 2 -0.000406 0.032735 -0.014074 0.000614 0.007716 0.002392
# 3 -0.002309 -0.014074 0.018836 -0.008264 -0.010222 -0.000591
# 4 0.002239 0.000614 -0.008264 0.021116 0.004325 0.003857
# 5 -0.002589 0.007716 -0.010222 0.004325 0.044074 -0.010152
# 6 0.007984 0.002392 -0.000591 0.003857 -0.010152 0.033041
#
#
# Mechanical properties :
#
#
# Convention : Reuss Voigt Hill
#
# Bulk Modulus (GPa) = 37.48643 60.54927 49.01785
# Shear Modulus (GPa) = 24.88120 42.55570 33.71845
#
# Velocity S-wave (km/s) = 3.15949 4.13200 3.67803
# Velocity P-wave (km/s) = 5.32442 6.85981 6.14030
#
# Compressibility (1/GPa) = 0.02667632
#
# Stress axis : x y z
#
# Youngs Moduli (GPa) = 115.15952 30.54812 53.09061
#
# Poissons Ratio (x) = 0.01241 0.12259
# Poissons Ratio (y) = 0.04677 0.74719
# Poissons Ratio (z) = 0.26592 0.42993
#
# Static dielectric constant tensor:
#      x y z
#    x 2.332350 0.338620 -6.937790 
#    y 0.338620 2.280530 -6.182300 
#    z -6.937790 -6.182300 140.303890 
# 
# From -- ./inp_files/35152.got.cif
#   From: 2010.05.17/outbox.cif.g08.bks.cpg/sg2_18_cif.got.tgz:35152.got - 2010.06.03 11:33:40.
