data_PCOD9058180
_publ_section_title
;
Structure prediction by ZEFSAII (Michael W. Deem and Ramdas Pophale) SiO2 
 PCOD9058180
Probable space group: P -1
;
_chemical_formula_sum "Si O2"
_cell_formula_units_Z 16
_cell_length_a 9.434095
_cell_length_b 14.237856
_cell_length_c 15.381650
_cell_angle_alpha 29.608234
_cell_angle_beta 40.779010
_cell_angle_gamma 47.970914
_cell_volume 666.319436
_symmetry_space_group_name_H-M "P -1"
_symmetry_group_IT_number 2
_symmetry_cell_setting 'triclinic'
loop_
_space_group_symop_operation_xyz
x,y,z
-x,-y,-z
loop_
_atom_site_type_symbol
_atom_site_label
_atom_site_fract_x
_atom_site_fract_y
_atom_site_fract_z
Si Si1 0.988239 0.227376 0.834198
Si Si2 0.557920 0.631683 0.283723
Si Si3 0.983800 0.848730 0.881318
Si Si4 0.862746 0.223821 0.711846
Si Si5 0.481820 0.277458 0.512068
Si Si6 0.869521 0.565461 0.722323
Si Si7 0.103810 0.891577 0.456175
Si Si8 0.539488 0.218207 0.329600
O O1 0.239243 0.275464 0.663045
O O2 0.845176 0.287250 0.767930
O O3 0.890954 0.338374 0.874480
O O4 0.000000 0.000000 0.000000
O O5 0.500000 0.500000 0.500000
O O6 0.364572 0.780955 0.229723
O O7 0.562693 0.488950 0.315725
O O8 0.786193 0.726308 0.103708
O O9 0.210756 0.741908 0.839633
O O10 0.993388 0.023948 0.802666
O O11 0.921290 0.962840 0.729294
O O12 0.001852 0.367231 0.477198
O O13 0.647937 0.153724 0.594480
O O14 0.494923 0.228884 0.444361
O O15 0.986360 0.693965 0.639657
O O16 0.625855 0.647343 0.756389
O O17 0.000000 0.000000 0.500000
O O18 0.500000 0.000000 0.500000
#
# Coordination Sequence:
#
# PCOD9058180 Si02
#       8
#     2   2   2   2   2   2   2   2
#     4  12  27  43  71 110 149 196 260 314 382 452
#     4  12  27  45  72 106 151 193 252 319 378 445
#     4  11  25  43  75 109 146 201 251 300 385 460
#     4  11  22  44  73 103 147 189 252 311 382 449
#     4  12  25  43  72 100 150 195 244 313 380 433
#     4  11  22  44  74 107 147 202 245 311 383 447
#     4  11  23  45  72 109 153 195 249 307 375 460
#     4  12  21  46  77 104 149 201 248 306 380 459
#
# _framework density 24.012505999999998
#
# number of rings (size 3 to 8) (size 9 to 14) (size 15 to 20)
#    0.000    0.500    6.250    3.000    3.500    0.500 
#    0.000    0.000    0.000    5.250    0.000    0.000 
#    0.000    0.000    0.000    0.000    0.000    0.000 
#
# Total GULP energy -89473.375116 kJ/mol
# GULP energy per Si atom -5592.085945 kJ/mol
# Density = 2.395785 g / cm^3
# Si number density = 24.012506 Si / 1000 Ang^3
#
#
#
# Elastic Constant Matrix: (Units=GPa)
#
#
# Indices 1 2 3 4 5 6 
#
# 1 149.6403 68.3380 26.5582 13.8963 12.6800 -11.2021
# 2 68.3380 168.0452 34.2811 1.5653 2.8819 0.1275
# 3 26.5582 34.2811 68.5669 6.6057 -6.3096 0.7876
# 4 13.8963 1.5653 6.6057 36.8615 3.0460 -5.9396
# 5 12.6800 2.8819 -6.3096 3.0460 31.7534 13.0692
# 6 -11.2021 0.1275 0.7876 -5.9396 13.0692 72.4449
#
#
#
# Elastic Compliance Matrix: (Units=1/GPa)
#
#
# Indices 1 2 3 4 5 6 
#
# 1 0.009300 -0.003236 -0.002205 -0.002264 -0.004503 0.002095
# 2 -0.003236 0.007819 -0.002772 0.001317 0.000065 -0.000388
# 3 -0.002205 -0.002772 0.017652 -0.002971 0.005663 -0.001793
# 4 -0.002264 0.001317 -0.002971 0.029211 -0.003740 0.002749
# 5 -0.004503 0.000065 0.005663 -0.003740 0.038031 -0.007926
# 6 0.002095 -0.000388 -0.001793 0.002749 -0.007926 0.015803
#
#
# Mechanical properties :
#
#
# Convention : Reuss Voigt Hill
#
# Bulk Modulus (GPa) = 54.50847 71.62300 63.06574
# Shear Modulus (GPa) = 35.62328 45.35032 40.48680
#
# Velocity S-wave (km/s) = 3.85584 4.35053 4.11063
# Velocity P-wave (km/s) = 6.52477 7.42484 6.98931
#
# Compressibility (1/GPa) = 0.01834577
#
# Stress axis : x y z
#
# Youngs Moduli (GPa) = 107.52366 127.89251 56.64936
#
# Poissons Ratio (x) = 0.41380 0.12491
# Poissons Ratio (y) = 0.34790 0.15706
# Poissons Ratio (z) = 0.23709 0.35458
#
# Static dielectric constant tensor:
#      x y z
#    x 1.867620 -0.101690 0.140450 
#    y -0.101690 1.957570 -0.042690 
#    z 0.140450 -0.042690 1.942910 
# 
# From -- ./inp_files/390080.got.cif
#   From: 2010.05.17/outbox.cif.g08.bks.cpg/sg2_196_cif.got.tgz:390080.got - 2010.06.03 11:33:40.
