data_PCOD9058247
_publ_section_title
;
Structure prediction by ZEFSAII (Michael W. Deem and Ramdas Pophale) SiO2 
 PCOD9058247
Probable space group: P -1
;
_chemical_formula_sum "Si O2"
_cell_formula_units_Z 16
_cell_length_a 11.950292
_cell_length_b 9.031511
_cell_length_c 9.274626
_cell_angle_alpha 92.158689
_cell_angle_beta 92.830977
_cell_angle_gamma 134.395863
_cell_volume 710.699469
_symmetry_space_group_name_H-M "P -1"
_symmetry_group_IT_number 2
_symmetry_cell_setting 'triclinic'
loop_
_space_group_symop_operation_xyz
x,y,z
-x,-y,-z
loop_
_atom_site_type_symbol
_atom_site_label
_atom_site_fract_x
_atom_site_fract_y
_atom_site_fract_z
Si Si1 0.637154 0.961658 0.436452
Si Si2 0.173254 0.588543 0.599698
Si Si3 0.613278 0.198796 0.834024
Si Si4 0.584062 0.837693 0.939165
Si Si5 0.427331 0.612946 0.653367
Si Si6 0.832837 0.854358 0.402031
Si Si7 0.932756 0.581997 0.710135
Si Si8 0.106116 0.014796 0.891246
O O1 0.521901 0.900737 0.297927
O O2 0.534519 0.796821 0.550948
O O3 0.764173 0.956139 0.404691
O O4 0.737397 0.201899 0.479691
O O5 0.299788 0.615240 0.696068
O O6 0.103459 0.421412 0.462282
O O7 0.051784 0.554530 0.696397
O O8 0.777278 0.397075 0.781205
O O9 0.622782 0.036095 0.879825
O O10 0.554987 0.250936 0.961525
O O11 0.530436 0.676639 0.802474
O O12 0.734380 0.905905 0.029756
O O13 0.320271 0.384610 0.570014
O O14 0.858731 0.842970 0.234852
O O15 0.000000 0.000000 0.500000
O O16 0.010595 0.790727 0.804688
O O17 0.000000 0.000000 0.000000
#
# Coordination Sequence:
#
# PCOD9058247 Si02
#       8
#     2   2   2   2   2   2   2   2
#     4  12  23  48  75 108 146 189 247 307 362 434
#     4  11  22  44  76 111 142 180 250 313 357 426
#     4  11  23  45  77 107 146 187 246 308 366 434
#     4  11  26  47  71 109 146 189 247 304 364 440
#     4  12  26  43  74 110 140 196 245 298 371 431
#     4  12  29  49  70 106 153 194 247 303 361 441
#     4  11  24  42  75 106 141 193 241 297 371 419
#     4  12  29  51  70 103 157 202 240 299 368 446
#
# _framework density 22.513033
#
# number of rings (size 3 to 8) (size 9 to 14) (size 15 to 20)
#    0.000    0.500    5.000    2.250    7.000    3.000 
#    0.000    0.000    0.000    0.000    0.000    0.000 
#    0.000    0.000    0.000    0.000    0.000    0.000 
#
# Total GULP energy -89447.442515 kJ/mol
# GULP energy per Si atom -5590.465157 kJ/mol
# Density = 2.246179 g / cm^3
# Si number density = 22.513033 Si / 1000 Ang^3
#
#
#
# Elastic Constant Matrix: (Units=GPa)
#
#
# Indices 1 2 3 4 5 6 
#
# 1 124.0778 44.1877 50.5247 -5.0392 -2.6481 17.0053
# 2 44.1877 114.4538 37.4139 11.0526 2.4813 16.8597
# 3 50.5247 37.4139 111.5975 6.7824 0.7438 10.5523
# 4 -5.0392 11.0526 6.7824 33.2485 5.6842 -6.6053
# 5 -2.6481 2.4813 0.7438 5.6842 36.1811 1.8438
# 6 17.0053 16.8597 10.5523 -6.6053 1.8438 27.8258
#
#
#
# Elastic Compliance Matrix: (Units=1/GPa)
#
#
# Indices 1 2 3 4 5 6 
#
# 1 0.011263 -0.002871 -0.004023 0.002740 0.000827 -0.003023
# 2 -0.002871 0.011806 -0.001778 -0.005207 0.000139 -0.005970
# 3 -0.004023 -0.001778 0.011690 -0.002728 0.000095 -0.001551
# 4 0.002740 -0.005207 -0.002728 0.036013 -0.005627 0.011436
# 5 0.000827 0.000139 0.000095 -0.005627 0.028769 -0.003868
# 6 -0.003023 -0.005970 -0.001551 0.011436 -0.003868 0.044961
#
#
# Mechanical properties :
#
#
# Convention : Reuss Voigt Hill
#
# Bulk Modulus (GPa) = 57.42158 68.26463 62.84311
# Shear Modulus (GPa) = 29.82372 33.98461 31.90417
#
# Velocity S-wave (km/s) = 3.64363 3.88951 3.76858
# Velocity P-wave (km/s) = 6.57744 7.11050 6.84916
#
# Compressibility (1/GPa) = 0.01741506
#
# Stress axis : x y z
#
# Youngs Moduli (GPa) = 88.78467 84.70348 85.54158
#
# Poissons Ratio (x) = 0.24315 0.34415
# Poissons Ratio (y) = 0.25486 0.15213
# Poissons Ratio (z) = 0.35719 0.15064
#
# Static dielectric constant tensor:
#      x y z
#    x 1.831480 -0.011350 0.005470 
#    y -0.011350 1.888310 0.006340 
#    z 0.005470 0.006340 1.866890 
# 
# From -- ./inp_files/244585.got.cif
#   From: 2010.05.17/outbox.cif.g08.bks.cpg/sg2_123_cif.got.tgz:244585.got - 2010.06.03 11:33:40.
