data_PCOD9058735
_publ_section_title
;
Structure prediction by ZEFSAII (Michael W. Deem and Ramdas Pophale) SiO2 
 PCOD9058735
Probable space group: P -1
;
_chemical_formula_sum "Si O2"
_cell_formula_units_Z 16
_cell_length_a 7.996306
_cell_length_b 10.886506
_cell_length_c 9.541928
_cell_angle_alpha 120.371179
_cell_angle_beta 81.411114
_cell_angle_gamma 116.063630
_cell_volume 640.926535
_symmetry_space_group_name_H-M "P -1"
_symmetry_group_IT_number 2
_symmetry_cell_setting 'triclinic'
loop_
_space_group_symop_operation_xyz
x,y,z
-x,-y,-z
loop_
_atom_site_type_symbol
_atom_site_label
_atom_site_fract_x
_atom_site_fract_y
_atom_site_fract_z
Si Si1 0.481506 0.962625 0.644162
Si Si2 0.917928 0.628485 0.112761
Si Si3 0.502872 0.149132 0.006188
Si Si4 0.331459 0.531207 0.722753
Si Si5 0.876402 0.848699 0.841274
Si Si6 0.786914 0.379398 0.486083
Si Si7 0.107728 0.996016 0.343411
Si Si8 0.705003 0.536151 0.812884
O O1 0.299417 0.808851 0.628831
O O2 0.500000 0.000000 0.500000
O O3 0.487460 0.107634 0.820961
O O4 0.668680 0.938462 0.635792
O O5 0.847597 0.609144 0.270719
O O6 0.039215 0.816322 0.190137
O O7 0.743647 0.572684 0.992280
O O8 0.000000 0.500000 0.000000
O O9 0.673151 0.311849 0.117576
O O10 0.330229 0.171017 0.106275
O O11 0.500000 0.000000 0.000000
O O12 0.325548 0.558306 0.573869
O O13 0.507591 0.513855 0.759730
O O14 0.870046 0.687720 0.805337
O O15 0.926250 0.892505 0.700833
O O16 0.000000 0.000000 0.000000
O O17 0.738877 0.393850 0.662872
O O18 0.000000 0.500000 0.500000
O O19 0.000000 0.000000 0.500000
#
# Coordination Sequence:
#
# PCOD9058735 Si02
#       8
#     2   2   2   2   2   2   2   2
#     4  12  29  46  73 111 154 196 251 316 382 450
#     4  12  27  46  74 111 148 195 251 312 382 459
#     4  11  22  47  75  99 140 196 251 306 373 448
#     4  11  25  45  74 101 146 194 248 307 373 450
#     4  11  24  45  75 102 138 194 252 307 368 456
#     4  12  28  46  73 109 148 199 247 313 378 451
#     4  12  29  48  75 113 157 197 252 320 387 453
#     4  11  26  46  74 103 145 192 251 304 380 453
#
# _framework density 24.963857000000001
#
# number of rings (size 3 to 8) (size 9 to 14) (size 15 to 20)
#    0.000    0.500    3.750    3.000   12.250    0.000 
#    0.000    0.000    0.000    0.000    0.000    0.000 
#    0.000    0.000    0.000    0.000    0.000    0.000 
#
# Total GULP energy -89447.705185 kJ/mol
# GULP energy per Si atom -5590.481574 kJ/mol
# Density = 2.490704 g / cm^3
# Si number density = 24.963857 Si / 1000 Ang^3
#
#
#
# Elastic Constant Matrix: (Units=GPa)
#
#
# Indices 1 2 3 4 5 6 
#
# 1 75.7307 12.2201 9.3706 4.7048 8.3681 9.0330
# 2 12.2201 86.7155 15.4855 -9.6705 1.2435 16.6667
# 3 9.3706 15.4855 126.4724 -23.8255 -2.4669 0.0301
# 4 4.7048 -9.6705 -23.8255 53.9034 -4.1709 1.0456
# 5 8.3681 1.2435 -2.4669 -4.1709 36.4401 -1.3354
# 6 9.0330 16.6667 0.0301 1.0456 -1.3354 28.6085
#
#
#
# Elastic Compliance Matrix: (Units=1/GPa)
#
#
# Indices 1 2 3 4 5 6 
#
# 1 0.014630 -0.001245 -0.001450 -0.002360 -0.003832 -0.003985
# 2 -0.001245 0.013630 -0.001173 0.002161 -0.000291 -0.007639
# 3 -0.001450 -0.001173 0.008932 0.003957 0.001469 0.001056
# 4 -0.002360 0.002161 0.003957 0.021158 0.003116 -0.001146
# 5 -0.003832 -0.000291 0.001469 0.003116 0.028884 0.002612
# 6 -0.003985 -0.007639 0.001056 -0.001146 0.002612 0.040826
#
#
# Mechanical properties :
#
#
# Convention : Reuss Voigt Hill
#
# Bulk Modulus (GPa) = 33.94959 40.34121 37.14540
# Shear Modulus (GPa) = 34.33692 40.57991 37.45841
#
# Velocity S-wave (km/s) = 3.71275 4.03618 3.87784
# Velocity P-wave (km/s) = 5.65759 6.15759 5.91288
#
# Compressibility (1/GPa) = 0.02945544
#
# Stress axis : x y z
#
# Youngs Moduli (GPa) = 68.35092 73.36573 111.95889
#
# Poissons Ratio (x) = 0.09135 0.16234
# Poissons Ratio (y) = 0.08511 0.13138
# Poissons Ratio (z) = 0.09911 0.08609
#
# Static dielectric constant tensor:
#      x y z
#    x 2.023910 -0.018940 0.009570 
#    y -0.018940 2.033200 0.052020 
#    z 0.009570 0.052020 2.030330 
# 
# From -- ./inp_files/190010.got.cif
#   From: 2010.05.17/outbox.cif.g08.bks.cpg/sg2_96_cif.got.tgz:190010.got - 2010.06.03 11:33:40.
