data_PCOD9058315
_publ_section_title
;
Structure prediction by ZEFSAII (Michael W. Deem and Ramdas Pophale) SiO2 
 PCOD9058315
Probable space group: P -1
;
_chemical_formula_sum "Si O2"
_cell_formula_units_Z 16
_cell_length_a 23.425935
_cell_length_b 8.762455
_cell_length_c 19.569877
_cell_angle_alpha 147.452124
_cell_angle_beta 21.526479
_cell_angle_gamma 134.888815
_cell_volume 727.773647
_symmetry_space_group_name_H-M "P -1"
_symmetry_group_IT_number 2
_symmetry_cell_setting 'triclinic'
loop_
_space_group_symop_operation_xyz
x,y,z
-x,-y,-z
loop_
_atom_site_type_symbol
_atom_site_label
_atom_site_fract_x
_atom_site_fract_y
_atom_site_fract_z
Si Si1 0.634665 0.659011 0.222783
Si Si2 0.227463 0.254620 0.439121
Si Si3 0.616921 0.600291 0.554796
Si Si4 0.246948 0.575443 0.147683
Si Si5 0.077133 0.241704 0.981029
Si Si6 0.897038 0.511142 0.488564
Si Si7 0.421388 0.261884 0.972095
Si Si8 0.984754 0.198471 0.934052
O O1 0.548393 0.476970 0.294593
O O2 0.791694 0.705411 0.097552
O O3 0.500000 0.000000 0.500000
O O4 0.678091 0.532915 0.051140
O O5 0.364029 0.337634 0.361433
O O6 0.168211 0.397757 0.483395
O O7 0.265338 0.897190 0.261252
O O8 0.070485 0.418894 0.727058
O O9 0.790361 0.329937 0.230848
O O10 0.566663 0.921067 0.691912
O O11 0.346703 0.345306 0.010463
O O12 0.051295 0.612442 0.373326
O O13 0.129957 0.122395 0.801958
O O14 0.000000 0.000000 0.000000
O O15 0.738021 0.681830 0.779085
O O16 0.971134 0.136328 0.274892
O O17 0.500000 0.500000 0.000000
O O18 0.000000 0.500000 0.000000
#
# Coordination Sequence:
#
# PCOD9058315 Si02
#       8
#     2   2   2   2   2   2   2   2
#     4  12  26  43  72 106 139 178 238 299 348 407
#     4  11  23  43  74  97 139 180 240 283 347 422
#     4  11  26  46  69 107 141 182 236 294 357 407
#     4  12  26  46  70 103 140 185 237 287 353 426
#     4  11  22  45  69 102 138 186 234 285 343 423
#     4  12  25  44  74 103 138 188 237 285 350 427
#     4  12  27  46  67 103 147 185 228 290 360 417
#     4  11  25  46  73 100 143 191 237 280 356 433
#
# _framework density 21.984857000000002
#
# number of rings (size 3 to 8) (size 9 to 14) (size 15 to 20)
#    0.000    0.500    3.750    4.500    5.250    3.000 
#    0.000    1.875    0.000    0.000    0.000    0.000 
#    0.000    0.000    0.000    0.000    0.000    0.000 
#
# Total GULP energy -89284.832160 kJ/mol
# GULP energy per Si atom -5580.302010 kJ/mol
# Density = 2.193482 g / cm^3
# Si number density = 21.984857 Si / 1000 Ang^3
#
#
#
# Elastic Constant Matrix: (Units=GPa)
#
#
# Indices 1 2 3 4 5 6 
#
# 1 52.4721 6.5431 -5.6504 -12.4117 -24.4413 11.5444
# 2 6.5431 77.3703 4.3173 1.4921 -4.3224 6.0354
# 3 -5.6504 4.3173 80.1461 3.3942 0.3182 12.5532
# 4 -12.4117 1.4921 3.3942 38.5121 -4.3371 -0.6319
# 5 -24.4413 -4.3224 0.3182 -4.3371 30.4467 8.5714
# 6 11.5444 6.0354 12.5532 -0.6319 8.5714 32.1779
#
#
#
# Elastic Compliance Matrix: (Units=1/GPa)
#
#
# Indices 1 2 3 4 5 6 
#
# 1 0.079291 0.000955 0.012453 0.032961 0.083887 -0.055182
# 2 0.000955 0.013353 -0.000076 0.000158 0.003760 -0.003816
# 3 0.012453 -0.000076 0.015355 0.004052 0.014400 -0.014200
# 4 0.032961 0.000158 0.004052 0.040199 0.038622 -0.022934
# 5 0.083887 0.003760 0.014400 0.038622 0.125522 -0.069096
# 6 -0.055182 -0.003816 -0.014200 -0.022934 -0.069096 0.075085
#
#
# Mechanical properties :
#
#
# Convention : Reuss Voigt Hill
#
# Bulk Modulus (GPa) = 7.42596 24.48982 15.95789
# Shear Modulus (GPa) = 13.62292 33.87925 23.75108
#
# Velocity S-wave (km/s) = 2.49198 3.92985 3.29042
# Velocity P-wave (km/s) = 3.41541 5.63518 4.65941
#
# Compressibility (1/GPa) = 0.13466273
#
# Stress axis : x y z
#
# Youngs Moduli (GPa) = 12.61175 74.88957 65.12706
#
# Poissons Ratio (x) = -0.07152 -0.81102
# Poissons Ratio (y) = -0.01204 0.00494
# Poissons Ratio (z) = -0.15705 0.00568
#
# Static dielectric constant tensor:
#      x y z
#    x 1.872720 -0.038730 -0.058760 
#    y -0.038730 1.829070 0.032370 
#    z -0.058760 0.032370 1.862370 
# 
# From -- ./inp_files/283518.got.cif
#   From: 2010.05.17/outbox.cif.g08.bks.cpg/sg2_142_cif.got.tgz:283518.got - 2010.06.03 11:33:40.
