data_PCOD9058948
_publ_section_title
;
Structure prediction by ZEFSAII (Michael W. Deem and Ramdas Pophale) SiO2 
 PCOD9058948
Probable space group: P -1
;
_chemical_formula_sum "Si O2"
_cell_formula_units_Z 16
_cell_length_a 9.120675
_cell_length_b 15.412473
_cell_length_c 8.557806
_cell_angle_alpha 95.034093
_cell_angle_beta 78.413798
_cell_angle_gamma 141.854540
_cell_volume 722.982127
_symmetry_space_group_name_H-M "P -1"
_symmetry_group_IT_number 2
_symmetry_cell_setting 'triclinic'
loop_
_space_group_symop_operation_xyz
x,y,z
-x,-y,-z
loop_
_atom_site_type_symbol
_atom_site_label
_atom_site_fract_x
_atom_site_fract_y
_atom_site_fract_z
Si Si1 0.408341 0.354114 0.812638
Si Si2 0.216349 0.688592 0.070193
Si Si3 0.897728 0.958360 0.189630
Si Si4 0.879149 0.495371 0.667370
Si Si5 0.507155 0.075222 0.729952
Si Si6 0.417377 0.214366 0.260620
Si Si7 0.335089 0.518874 0.880272
Si Si8 0.334182 0.814054 0.627279
O O1 0.225375 0.192421 0.787024
O O2 0.641503 0.440922 0.670532
O O3 0.316404 0.409492 0.822947
O O4 0.508677 0.398046 0.979414
O O5 0.198902 0.611649 0.204632
O O6 0.321763 0.824389 0.145773
O O7 0.939535 0.572434 0.056152
O O8 0.415523 0.749235 0.910882
O O9 0.704139 0.948334 0.235780
O O10 0.132961 0.082733 0.265455
O O11 0.000000 0.000000 0.000000
O O12 0.000000 0.500000 0.500000
O O13 0.078687 0.656133 0.704359
O O14 0.658515 0.154669 0.549594
O O15 0.400804 0.929534 0.730339
O O16 0.526616 0.361327 0.262133
O O17 0.477230 0.178406 0.385069
#
# Coordination Sequence:
#
# PCOD9058948 Si02
#       8
#     2   2   2   2   2   2   2   2
#     4  11  24  41  62 100 131 169 211 271 324 379
#     4  12  22  43  66  97 130 167 224 269 309 390
#     4  12  22  42  65  92 137 171 208 266 330 380
#     4  12  21  42  71  90 127 179 211 259 327 381
#     4  11  25  46  64  96 132 169 216 266 323 396
#     4  12  24  41  66 101 128 173 217 268 325 380
#     4  11  23  39  65  96 132 158 218 276 313 371
#     4  11  26  42  69  95 128 172 217 264 326 385
#
# _framework density 22.130559999999999
#
# number of rings (size 3 to 8) (size 9 to 14) (size 15 to 20)
#    0.000    0.500    7.500    1.125    3.500    2.000 
#    0.000    0.625    0.000    0.000    0.000    0.000 
#    0.000    0.000    0.000    0.000    0.000    0.000 
#
# Total GULP energy -89483.926825 kJ/mol
# GULP energy per Si atom -5592.745427 kJ/mol
# Density = 2.208019 g / cm^3
# Si number density = 22.130560 Si / 1000 Ang^3
#
#
#
# Elastic Constant Matrix: (Units=GPa)
#
#
# Indices 1 2 3 4 5 6 
#
# 1 88.9028 36.7317 -8.2041 -2.8226 -12.9036 -9.1018
# 2 36.7317 153.4838 -11.3996 1.3931 -6.1722 -4.9452
# 3 -8.2041 -11.3996 36.1156 -4.7678 -4.4964 -5.0021
# 4 -2.8226 1.3931 -4.7678 17.2137 1.7376 -6.6794
# 5 -12.9036 -6.1722 -4.4964 1.7376 27.0858 1.5954
# 6 -9.1018 -4.9452 -5.0021 -6.6794 1.5954 46.4199
#
#
#
# Elastic Compliance Matrix: (Units=1/GPa)
#
#
# Indices 1 2 3 4 5 6 
#
# 1 0.014175 -0.002759 0.004178 0.004363 0.006341 0.003345
# 2 -0.002759 0.007348 0.001756 -0.000497 0.000664 0.000337
# 3 0.004178 0.001756 0.032300 0.011084 0.006697 0.005851
# 4 0.004363 -0.000497 0.011084 0.066540 -0.001147 0.011611
# 5 0.006341 0.000664 0.006697 -0.001147 0.041250 0.000453
# 6 0.003345 0.000337 0.005851 0.011611 0.000453 0.024520
#
#
# Mechanical properties :
#
#
# Convention : Reuss Voigt Hill
#
# Bulk Modulus (GPa) = 16.61854 34.75091 25.68472
# Shear Modulus (GPa) = 25.01998 35.56883 30.29440
#
# Velocity S-wave (km/s) = 3.36603 4.01337 3.70387
# Velocity P-wave (km/s) = 4.75736 6.10024 5.47017
#
# Compressibility (1/GPa) = 0.06017376
#
# Stress axis : x y z
#
# Youngs Moduli (GPa) = 70.54666 136.08963 30.96003
#
# Poissons Ratio (x) = 0.37545 -0.12935
# Poissons Ratio (y) = 0.19463 -0.05438
# Poissons Ratio (z) = -0.29474 -0.23902
#
# Static dielectric constant tensor:
#      x y z
#    x 1.846380 0.032090 0.004280 
#    y 0.032090 1.932830 0.057080 
#    z 0.004280 0.057080 1.876330 
# 
# From -- ./inp_files/207720.got.cif
#   From: 2010.05.17/outbox.cif.g08.bks.cpg/sg2_104_cif.got.tgz:207720.got - 2010.06.03 11:33:40.
