data_PCOD9058345
_publ_section_title
;
Structure prediction by ZEFSAII (Michael W. Deem and Ramdas Pophale) SiO2 
 PCOD9058345
Probable space group: P -1
;
_chemical_formula_sum "Si O2"
_cell_formula_units_Z 16
_cell_length_a 13.400213
_cell_length_b 8.645283
_cell_length_c 20.868092
_cell_angle_alpha 56.176938
_cell_angle_beta 36.161065
_cell_angle_gamma 33.117351
_cell_volume 723.772025
_symmetry_space_group_name_H-M "P -1"
_symmetry_group_IT_number 2
_symmetry_cell_setting 'triclinic'
loop_
_space_group_symop_operation_xyz
x,y,z
-x,-y,-z
loop_
_atom_site_type_symbol
_atom_site_label
_atom_site_fract_x
_atom_site_fract_y
_atom_site_fract_z
Si Si1 0.521501 0.696454 0.421565
Si Si2 0.541559 0.745630 0.049385
Si Si3 0.192377 0.275161 0.547713
Si Si4 0.932063 0.217797 0.231803
Si Si5 0.590479 0.922099 0.711555
Si Si6 0.717118 0.636625 0.125984
Si Si7 0.673117 0.103960 0.331824
Si Si8 0.091470 0.089550 0.884259
O O1 0.500000 0.500000 0.500000
O O2 0.841856 0.415199 0.295709
O O3 0.377989 0.967745 0.481463
O O4 0.391609 0.895261 0.377336
O O5 0.613764 0.648280 0.109242
O O6 0.256897 0.898652 0.140569
O O7 0.805342 0.448610 0.941784
O O8 0.500000 0.000000 0.000000
O O9 0.203027 0.195055 0.634032
O O10 0.871384 0.570658 0.629657
O O11 0.348109 0.337132 0.444496
O O12 0.826662 0.410951 0.178161
O O13 0.765960 0.172300 0.320145
O O14 0.528366 0.026874 0.793169
O O15 0.327309 0.023103 0.805180
O O16 0.000000 0.500000 0.000000
O O17 0.790296 0.061363 0.212312
O O18 0.000000 0.000000 0.000000
#
# Coordination Sequence:
#
# PCOD9058345 Si02
#       8
#     2   2   2   2   2   2   2   2
#     4  11  22  46  73 101 140 188 247 304 362 439
#     4  12  25  43  74 103 141 202 238 294 377 429
#     4  11  25  46  76 101 147 196 236 308 375 433
#     4  11  25  45  71 105 146 186 245 307 354 437
#     4  11  25  46  73 108 146 190 241 310 370 438
#     4  11  22  45  70 105 150 186 243 303 354 440
#     4  11  26  45  71 105 149 185 253 295 368 443
#     4  12  27  44  71 106 150 191 246 302 368 450
#
# _framework density 22.106408999999999
#
# number of rings (size 3 to 8) (size 9 to 14) (size 15 to 20)
#    0.000    0.750    5.000    1.875    3.500    1.500 
#    2.250    1.250    0.000    0.000    0.000    0.000 
#    0.000    0.000    0.000    0.000    0.000    0.000 
#
# Total GULP energy -89093.412925 kJ/mol
# GULP energy per Si atom -5568.338308 kJ/mol
# Density = 2.205609 g / cm^3
# Si number density = 22.106409 Si / 1000 Ang^3
#
#
#
# Elastic Constant Matrix: (Units=GPa)
#
#
# Indices 1 2 3 4 5 6 
#
# 1 85.1981 17.0825 50.2459 4.4346 3.3261 1.1130
# 2 17.0825 87.9629 59.8682 5.1296 -8.6894 -1.8210
# 3 50.2459 59.8682 141.9566 3.8097 -4.4605 0.6148
# 4 4.4346 5.1296 3.8097 44.7820 -9.9823 3.0321
# 5 3.3261 -8.6894 -4.4605 -9.9823 36.7216 -2.1435
# 6 1.1130 -1.8210 0.6148 3.0321 -2.1435 29.9567
#
#
#
# Elastic Compliance Matrix: (Units=1/GPa)
#
#
# Indices 1 2 3 4 5 6 
#
# 1 0.015132 0.000815 -0.005728 -0.001597 -0.002331 -0.000400
# 2 0.000815 0.016395 -0.007099 -0.000825 0.002801 0.001396
# 3 -0.005728 -0.007099 0.012068 0.000477 0.000406 -0.000486
# 4 -0.001597 -0.000825 0.000477 0.024114 0.006447 -0.001980
# 5 -0.002331 0.002801 0.000406 0.006447 0.030009 0.001743
# 6 -0.000400 0.001396 -0.000486 -0.001980 0.001743 0.033816
#
#
# Mechanical properties :
#
#
# Convention : Reuss Voigt Hill
#
# Bulk Modulus (GPa) = 51.09813 63.27897 57.18855
# Shear Modulus (GPa) = 30.84866 34.82014 32.83440
#
# Velocity S-wave (km/s) = 3.73964 3.97308 3.85813
# Velocity P-wave (km/s) = 6.46617 7.05223 6.76555
#
# Compressibility (1/GPa) = 0.01957019
#
# Stress axis : x y z
#
# Youngs Moduli (GPa) = 66.08728 60.99275 82.86581
#
# Poissons Ratio (x) = -0.04968 0.47466
# Poissons Ratio (y) = -0.05383 0.58824
# Poissons Ratio (z) = 0.37855 0.43297
#
# Static dielectric constant tensor:
#      x y z
#    x 1.884980 0.042660 0.035570 
#    y 0.042660 1.843880 -0.009450 
#    z 0.035570 -0.009450 1.859880 
# 
# From -- ./inp_files/611744.got.cif
#   From: 2010.05.17/outbox.cif.g08.bks.cpg/sg2_306_cif.got.tgz:611744.got - 2010.06.03 11:33:40.
