data_PCOD9058265
_publ_section_title
;
Structure prediction by ZEFSAII (Michael W. Deem and Ramdas Pophale) SiO2 
 PCOD9058265
Probable space group: P -1
;
_chemical_formula_sum "Si O2"
_cell_formula_units_Z 15
_cell_length_a 9.388536
_cell_length_b 17.992690
_cell_length_c 12.318367
_cell_angle_alpha 152.424047
_cell_angle_beta 51.574880
_cell_angle_gamma 140.544508
_cell_volume 597.987461
_symmetry_space_group_name_H-M "P -1"
_symmetry_group_IT_number 2
_symmetry_cell_setting 'triclinic'
loop_
_space_group_symop_operation_xyz
x,y,z
-x,-y,-z
loop_
_atom_site_type_symbol
_atom_site_label
_atom_site_fract_x
_atom_site_fract_y
_atom_site_fract_z
Si Si1 0.160692 0.409796 0.476517
Si Si2 0.553733 0.173327 0.615459
Si Si3 0.357918 0.301019 0.481844
Si Si4 0.038865 0.357141 0.142263
Si Si5 0.620641 0.993332 0.754185
Si Si6 0.500000 0.500000 0.000000
Si Si7 0.172782 0.952593 0.964747
Si Si8 0.059146 0.415601 0.762611
O O1 0.391664 0.505130 0.421804
O O2 0.227664 0.498424 0.683594
O O3 0.975113 0.169127 0.228785
O O4 0.036521 0.504246 0.613166
O O5 0.428944 0.059462 0.416041
O O6 0.827641 0.302794 0.656297
O O7 0.500000 0.000000 0.500000
O O8 0.484672 0.322865 0.856957
O O9 0.388030 0.175476 0.392437
O O10 0.169589 0.320355 0.644862
O O11 0.241190 0.161991 0.249665
O O12 0.868323 0.205058 0.930399
O O13 0.976465 0.208635 0.078395
O O14 0.295510 0.475235 0.132977
O O15 0.417373 0.995088 0.896888
O O16 0.000000 0.500000 0.000000
#
# Coordination Sequence:
#
# PCOD9058265 Si02
#       8
#     2   2   2   2   2   1   2   2
#     4  12  23  47  79 116 160 210 279 344 420 502
#     4  12  31  50  77 116 163 221 279 341 417 513
#     4  11  26  47  83 116 157 216 272 352 426 495
#     4  11  23  43  77 118 158 212 276 340 414 507
#     4  11  23  49  79 115 160 208 278 348 414 499
#     4  12  28  50  78 114 168 230 272 334 434 498
#     4  11  22  44  81 119 154 204 285 346 412 502
#     4  12  30  52  70 115 169 214 278 346 415 508
#
# _framework density 25.084139
#
# number of rings (size 3 to 8) (size 9 to 14) (size 15 to 20)
#    0.000    0.533    5.333    1.600    9.333    1.067 
#    0.000    0.000    0.000    0.000    0.000    0.000 
#    0.000    0.000    0.000    0.000    0.000    0.000 
#
# Total GULP energy -83548.944019 kJ/mol
# GULP energy per Si atom -5569.929601 kJ/mol
# Density = 2.502705 g / cm^3
# Si number density = 25.084139 Si / 1000 Ang^3
#
#
#
# Elastic Constant Matrix: (Units=GPa)
#
#
# Indices 1 2 3 4 5 6 
#
# 1 135.4475 29.3875 71.3554 -25.1615 -5.1338 6.0726
# 2 29.3875 42.4378 35.1030 -4.7275 -11.1643 6.1105
# 3 71.3554 35.1030 142.4800 -19.9425 -2.3951 23.9963
# 4 -25.1615 -4.7275 -19.9425 31.7145 5.9559 -2.8437
# 5 -5.1338 -11.1643 -2.3951 5.9559 65.4965 -15.6261
# 6 6.0726 6.1105 23.9963 -2.8437 -15.6261 40.7000
#
#
#
# Elastic Compliance Matrix: (Units=1/GPa)
#
#
# Indices 1 2 3 4 5 6 
#
# 1 0.011540 -0.004100 -0.004221 0.006064 -0.000076 0.001777
# 2 -0.004100 0.032830 -0.006696 -0.003503 0.005726 0.001584
# 3 -0.004221 -0.006696 0.012293 0.003342 -0.002873 -0.006483
# 4 0.006064 -0.003503 0.003342 0.038530 -0.003766 -0.001103
# 5 -0.000076 0.005726 -0.002873 -0.003766 0.018290 0.007604
# 6 0.001777 0.001584 -0.006483 -0.001103 0.007604 0.030732
#
#
# Mechanical properties :
#
#
# Convention : Reuss Voigt Hill
#
# Bulk Modulus (GPa) = 37.55279 65.78412 51.66846
# Shear Modulus (GPa) = 27.30378 39.88352 33.59365
#
# Velocity S-wave (km/s) = 3.30280 3.99179 3.66353
# Velocity P-wave (km/s) = 5.43580 6.89407 6.20790
#
# Compressibility (1/GPa) = 0.02662918
#
# Stress axis : x y z
#
# Youngs Moduli (GPa) = 86.65410 30.46006 81.34526
#
# Poissons Ratio (x) = 0.12489 0.34336
# Poissons Ratio (y) = 0.35530 0.54467
# Poissons Ratio (z) = 0.36577 0.20395
#
# Static dielectric constant tensor:
#      x y z
#    x 2.062330 -0.080180 -0.003730 
#    y -0.080180 2.057020 0.029520 
#    z -0.003730 0.029520 2.079790 
# 
# From -- ./inp_files/403527.got.cif
#   From: 2010.05.17/outbox.cif.g08.bks.cpg/sg2_202_cif.got.tgz:403527.got - 2010.06.03 11:33:40.
