data_PCOD9058326
_publ_section_title
;
Structure prediction by ZEFSAII (Michael W. Deem and Ramdas Pophale) SiO2 
 PCOD9058326
Probable space group: P -1
;
_chemical_formula_sum "Si O2"
_cell_formula_units_Z 16
_cell_length_a 9.082030
_cell_length_b 11.680207
_cell_length_c 17.405259
_cell_angle_alpha 50.525487
_cell_angle_beta 41.422292
_cell_angle_gamma 79.863270
_cell_volume 762.129885
_symmetry_space_group_name_H-M "P -1"
_symmetry_group_IT_number 2
_symmetry_cell_setting 'triclinic'
loop_
_space_group_symop_operation_xyz
x,y,z
-x,-y,-z
loop_
_atom_site_type_symbol
_atom_site_label
_atom_site_fract_x
_atom_site_fract_y
_atom_site_fract_z
Si Si1 0.082584 0.461682 0.064924
Si Si2 0.542441 0.137802 0.667538
Si Si3 0.726983 0.260171 0.001498
Si Si4 0.017109 0.892422 0.268306
Si Si5 0.561876 0.685977 0.047686
Si Si6 0.959042 0.612450 0.529733
Si Si7 0.785904 0.696461 0.288273
Si Si8 0.539711 0.139177 0.490163
O O1 0.273179 0.647172 0.959458
O O2 0.808096 0.333202 0.276956
O O3 0.226103 0.358939 0.041171
O O4 0.000000 0.500000 0.000000
O O5 0.309244 0.173908 0.750457
O O6 0.576624 0.106778 0.578155
O O7 0.823101 0.312072 0.518525
O O8 0.452620 0.957668 0.825473
O O9 0.608915 0.316921 0.956186
O O10 0.032546 0.319433 0.837520
O O11 0.024337 0.787946 0.383025
O O12 0.975985 0.782754 0.253201
O O13 0.735265 0.872405 0.396142
O O14 0.267093 0.107008 0.074220
O O15 0.347427 0.527108 0.258011
O O16 0.000000 0.500000 0.500000
O O17 0.500000 0.500000 0.500000
O O18 0.500000 0.000000 0.500000
#
# Coordination Sequence:
#
# PCOD9058326 Si02
#       8
#     2   2   2   2   2   2   2   2
#     4  12  26  45  73 102 134 183 237 286 346 414
#     4  11  25  43  68 105 135 185 237 285 349 416
#     4  12  25  45  69 101 144 183 229 289 350 415
#     4  11  24  45  71 105 139 183 231 287 349 412
#     4  12  26  46  71 104 142 184 232 285 347 419
#     4  12  26  45  71 103 143 184 230 286 355 417
#     4  11  24  45  70 101 139 184 234 292 346 412
#     4  11  22  45  69  96 139 178 232 289 342 409
#
# _framework density 20.993798999999999
#
# number of rings (size 3 to 8) (size 9 to 14) (size 15 to 20)
#    0.000    0.500    2.500    6.750    3.500    2.000 
#    0.000    1.875    0.000    0.000    0.000    0.000 
#    0.000    0.000    0.000    0.000    0.000    0.000 
#
# Total GULP energy -89524.788165 kJ/mol
# GULP energy per Si atom -5595.299260 kJ/mol
# Density = 2.094602 g / cm^3
# Si number density = 20.993799 Si / 1000 Ang^3
#
#
#
# Elastic Constant Matrix: (Units=GPa)
#
#
# Indices 1 2 3 4 5 6 
#
# 1 84.8302 34.7796 16.9403 -10.5885 -0.4263 6.2641
# 2 34.7796 101.5474 19.1959 -14.0628 1.4309 20.4681
# 3 16.9403 19.1959 97.8993 -16.0926 -4.6242 3.3974
# 4 -10.5885 -14.0628 -16.0926 32.3546 1.5609 2.8200
# 5 -0.4263 1.4309 -4.6242 1.5609 28.5380 -9.4165
# 6 6.2641 20.4681 3.3974 2.8200 -9.4165 28.1366
#
#
#
# Elastic Compliance Matrix: (Units=1/GPa)
#
#
# Indices 1 2 3 4 5 6 
#
# 1 0.014059 -0.004278 -0.001238 0.002126 0.000091 -0.000051
# 2 -0.004278 0.014819 -0.001038 0.005830 -0.005270 -0.012051
# 3 -0.001238 -0.001038 0.011509 0.004823 0.001525 -0.000332
# 4 0.002126 0.005830 0.004823 0.037722 -0.005101 -0.010784
# 5 0.000091 -0.005270 0.001525 -0.005101 0.041817 0.018136
# 6 -0.000051 -0.012051 -0.000332 -0.010784 0.018136 0.051509
#
#
# Mechanical properties :
#
#
# Convention : Reuss Voigt Hill
#
# Bulk Modulus (GPa) = 36.65814 47.34539 42.00176
# Shear Modulus (GPa) = 25.82155 32.02991 28.92573
#
# Velocity S-wave (km/s) = 3.51088 3.91024 3.71593
# Velocity P-wave (km/s) = 5.82532 6.55650 6.20170
#
# Compressibility (1/GPa) = 0.02727907
#
# Stress axis : x y z
#
# Youngs Moduli (GPa) = 71.12917 67.47867 86.89006
#
# Poissons Ratio (x) = 0.28864 0.10761
# Poissons Ratio (y) = 0.30426 0.09020
# Poissons Ratio (z) = 0.08809 0.07005
#
# Static dielectric constant tensor:
#      x y z
#    x 1.762030 0.026680 0.009400 
#    y 0.026680 1.722490 -0.000670 
#    z 0.009400 -0.000670 1.742620 
# 
# From -- ./inp_files/428324.got.cif
#   From: 2010.05.17/outbox.cif.g08.bks.cpg/sg2_215_cif.got.tgz:428324.got - 2010.06.03 11:33:40.
