data_PCOD9058039
_publ_section_title
;
Structure prediction by ZEFSAII (Michael W. Deem and Ramdas Pophale) SiO2 
 PCOD9058039
Probable space group: P -1
;
_chemical_formula_sum "Si O2"
_cell_formula_units_Z 16
_cell_length_a 11.841912
_cell_length_b 9.234528
_cell_length_c 13.893906
_cell_angle_alpha 78.317542
_cell_angle_beta 89.048059
_cell_angle_gamma 147.570857
_cell_volume 745.284089
_symmetry_space_group_name_H-M "P -1"
_symmetry_group_IT_number 2
_symmetry_cell_setting 'triclinic'
loop_
_space_group_symop_operation_xyz
x,y,z
-x,-y,-z
loop_
_atom_site_type_symbol
_atom_site_label
_atom_site_fract_x
_atom_site_fract_y
_atom_site_fract_z
Si Si1 0.848337 0.073541 0.349644
Si Si2 0.563021 0.230756 0.512310
Si Si3 0.690043 0.295373 0.170096
Si Si4 0.788949 0.307027 0.666749
Si Si5 0.157759 0.213863 0.242616
Si Si6 0.648020 0.905759 0.170750
Si Si7 0.949888 0.672382 0.312923
Si Si8 0.963812 0.812733 0.964343
O O1 0.048559 0.421265 0.299793
O O2 0.987278 0.078473 0.347140
O O3 0.655697 0.914888 0.446504
O O4 0.722862 0.930869 0.269816
O O5 0.693180 0.324525 0.594126
O O6 0.736927 0.494090 0.398591
O O7 0.500000 0.000000 0.500000
O O8 0.851815 0.506309 0.233088
O O9 0.431915 0.021527 0.243480
O O10 0.685321 0.123442 0.152024
O O11 0.771691 0.498554 0.059691
O O12 0.947724 0.350858 0.626542
O O13 0.399955 0.560249 0.208788
O O14 0.089501 0.200218 0.141411
O O15 0.132698 0.009408 0.260519
O O16 0.809390 0.026980 0.068865
O O17 0.000000 0.000000 0.000000
#
# Coordination Sequence:
#
# PCOD9058039 Si02
#       8
#     2   2   2   2   2   2   2   2
#     4  11  22  44  69  95 140 174 221 281 325 395
#     4  12  22  41  69 103 133 174 228 282 323 394
#     4  12  23  45  68 102 130 182 224 271 333 394
#     4  12  22  41  72  98 133 176 229 274 327 395
#     4  11  26  46  67 100 138 181 214 280 341 391
#     4  11  23  46  68  95 140 173 225 275 328 401
#     4  12  26  41  70 101 138 176 225 274 338 393
#     4  11  26  43  69 101 138 172 221 280 333 398
#
# _framework density 21.468325
#
# number of rings (size 3 to 8) (size 9 to 14) (size 15 to 20)
#    0.000    0.500    7.500    0.750    1.750    2.500 
#    0.000    2.500    0.000    0.000    0.000    0.000 
#    0.000    0.000    0.000    0.000    0.000    0.000 
#
# Total GULP energy -89252.782296 kJ/mol
# GULP energy per Si atom -5578.298893 kJ/mol
# Density = 2.141946 g / cm^3
# Si number density = 21.468325 Si / 1000 Ang^3
#
#
#
# Elastic Constant Matrix: (Units=GPa)
#
#
# Indices 1 2 3 4 5 6 
#
# 1 61.2241 62.3077 15.1901 5.5250 -15.2295 -13.4840
# 2 62.3077 134.7097 24.7802 5.7800 -16.7254 -24.5968
# 3 15.1901 24.7802 60.0984 1.5811 -17.1102 -9.0350
# 4 5.5250 5.7800 1.5811 19.8831 -4.8510 8.4812
# 5 -15.2295 -16.7254 -17.1102 -4.8510 32.7873 -0.9538
# 6 -13.4840 -24.5968 -9.0350 8.4812 -0.9538 30.2337
#
#
#
# Elastic Compliance Matrix: (Units=1/GPa)
#
#
# Indices 1 2 3 4 5 6 
#
# 1 0.033733 -0.013185 0.000453 -0.006283 0.008438 0.006482
# 2 -0.013185 0.015349 -0.001688 -0.003579 0.000502 0.007122
# 3 0.000453 -0.001688 0.021066 -0.001267 0.010324 0.005805
# 4 -0.006283 -0.003579 -0.001267 0.064253 0.003402 -0.024010
# 5 0.008438 0.000502 0.010324 0.003402 0.040787 0.007589
# 6 0.006482 0.007122 0.005805 -0.024010 0.007589 0.050470
#
#
# Mechanical properties :
#
#
# Convention : Reuss Voigt Hill
#
# Bulk Modulus (GPa) = 24.20939 51.17646 37.69292
# Shear Modulus (GPa) = 18.63803 26.83111 22.73457
#
# Velocity S-wave (km/s) = 2.94966 3.53909 3.25773
# Velocity P-wave (km/s) = 4.78560 6.37103 5.63436
#
# Compressibility (1/GPa) = 0.04130629
#
# Stress axis : x y z
#
# Youngs Moduli (GPa) = 29.64436 65.15162 47.46877
#
# Poissons Ratio (x) = 0.85904 -0.02148
# Poissons Ratio (y) = 0.39087 0.08015
# Poissons Ratio (z) = -0.01341 0.11000
#
# Static dielectric constant tensor:
#      x y z
#    x 1.834480 0.007410 -0.044650 
#    y 0.007410 1.766300 0.029040 
#    z -0.044650 0.029040 1.842270 
# 
# From -- ./inp_files/110966.got.cif
#   From: 2010.05.17/outbox.cif.g08.bks.cpg/sg2_56_cif.got.tgz:110966.got - 2010.06.03 11:33:40.
