data_PCOD9058732
_publ_section_title
;
Structure prediction by ZEFSAII (Michael W. Deem and Ramdas Pophale) SiO2 
 PCOD9058732
Probable space group: P -1
;
_chemical_formula_sum "Si O2"
_cell_formula_units_Z 14
_cell_length_a 11.984054
_cell_length_b 7.147112
_cell_length_c 22.724089
_cell_angle_alpha 136.996126
_cell_angle_beta 155.088763
_cell_angle_gamma 41.039346
_cell_volume 530.375573
_symmetry_space_group_name_H-M "P -1"
_symmetry_group_IT_number 2
_symmetry_cell_setting 'triclinic'
loop_
_space_group_symop_operation_xyz
x,y,z
-x,-y,-z
loop_
_atom_site_type_symbol
_atom_site_label
_atom_site_fract_x
_atom_site_fract_y
_atom_site_fract_z
Si Si1 0.076851 0.128554 0.798257
Si Si2 0.994222 0.640918 0.351861
Si Si3 0.493478 0.519364 0.643158
Si Si4 0.501899 0.414035 0.084905
Si Si5 0.671765 0.818212 0.688222
Si Si6 0.949692 0.838960 0.558176
Si Si7 0.270157 0.595901 0.145546
O O1 0.760925 0.237402 0.693727
O O2 0.275120 0.907389 0.888087
O O3 0.085676 0.938931 0.701878
O O4 0.218428 0.381151 0.914125
O O5 0.687848 0.609211 0.198388
O O6 0.199243 0.504761 0.473668
O O7 0.169924 0.460988 0.339077
O O8 0.968563 0.977155 0.412628
O O9 0.577500 0.738245 0.688770
O O10 0.530974 0.548818 0.737516
O O11 0.383472 0.999789 0.560337
O O12 0.414571 0.503736 0.130741
O O13 0.826320 0.055672 0.820309
O O14 0.000000 0.500000 0.500000
O O15 0.000000 0.500000 0.000000
#
# Coordination Sequence:
#
# PCOD9058732 Si02
#       7
#     2   2   2   2   2   2   2
#     4  11  22  47  75 107 156 206 258 317 400 466
#     4  11  24  48  82 118 155 204 271 328 389 478
#     4  11  23  49  79 107 154 212 257 322 395 465
#     4  11  27  45  73 119 156 203 272 320 394 469
#     4  11  24  48  78 118 150 206 275 314 394 485
#     4  11  23  47  80 118 159 201 263 332 396 471
#     4  12  27  48  73 112 163 211 261 324 393 471
#
# _framework density 26.396388000000002
#
# number of rings (size 3 to 8) (size 9 to 14) (size 15 to 20)
#    0.000    0.857    4.286    2.571    4.000    2.857 
#    5.143    2.143    0.000    0.000    0.000    0.000 
#    0.000    0.000    0.000    0.000    0.000    0.000 
#
# Total GULP energy -78399.496359 kJ/mol
# GULP energy per Si atom -5599.964026 kJ/mol
# Density = 2.633631 g / cm^3
# Si number density = 26.396388 Si / 1000 Ang^3
#
#
#
# Elastic Constant Matrix: (Units=GPa)
#
#
# Indices 1 2 3 4 5 6 
#
# 1 149.3499 38.5878 68.4278 20.0262 -5.7464 7.9455
# 2 38.5878 113.3226 41.1629 21.0483 -10.9408 -11.1985
# 3 68.4278 41.1629 160.4646 29.6439 -2.1623 13.9547
# 4 20.0262 21.0483 29.6439 46.0106 9.5458 -0.9716
# 5 -5.7464 -10.9408 -2.1623 9.5458 47.6034 2.5904
# 6 7.9455 -11.1985 13.9547 -0.9716 2.5904 35.9075
#
#
#
# Elastic Compliance Matrix: (Units=1/GPa)
#
#
# Indices 1 2 3 4 5 6 
#
# 1 0.008769 -0.001736 -0.002903 -0.001365 0.000880 -0.001454
# 2 -0.001736 0.011508 -0.001847 -0.003823 0.002880 0.004380
# 3 -0.002903 -0.001847 0.008979 -0.003877 0.000605 -0.003572
# 4 -0.001365 -0.003823 -0.003877 0.028056 -0.006948 0.001877
# 5 0.000880 0.002880 0.000605 -0.006948 0.023272 -0.001399
# 6 -0.001454 0.004380 -0.003572 0.001877 -0.001399 0.031077
#
#
# Mechanical properties :
#
#
# Convention : Reuss Voigt Hill
#
# Bulk Modulus (GPa) = 61.42092 79.94378 70.68235
# Shear Modulus (GPa) = 38.44335 44.23486 41.33911
#
# Velocity S-wave (km/s) = 3.82040 4.09809 3.96168
# Velocity P-wave (km/s) = 6.54063 7.26251 6.91100
#
# Compressibility (1/GPa) = 0.01628110
#
# Stress axis : x y z
#
# Youngs Moduli (GPa) = 114.03990 86.89901 111.37246
#
# Poissons Ratio (x) = 0.15089 0.32336
# Poissons Ratio (y) = 0.19802 0.20573
# Poissons Ratio (z) = 0.33111 0.16053
#
# Static dielectric constant tensor:
#      x y z
#    x 2.161490 0.013710 0.031970 
#    y 0.013710 2.158780 -0.029410 
#    z 0.031970 -0.029410 2.098880 
# 
# From -- ./inp_files/609114.got.cif
#   From: 2010.05.17/outbox.cif.g08.bks.cpg/sg2_305_cif.got.tgz:609114.got - 2010.06.03 11:33:40.
