data_PCOD9058978
_publ_section_title
;
Structure prediction by ZEFSAII (Michael W. Deem and Ramdas Pophale) SiO2 
 PCOD9058978
Probable space group: P -1
;
_chemical_formula_sum "Si O2"
_cell_formula_units_Z 14
_cell_length_a 11.668529
_cell_length_b 20.198601
_cell_length_c 7.782025
_cell_angle_alpha 137.064200
_cell_angle_beta 99.127856
_cell_angle_gamma 44.463632
_cell_volume 566.080179
_symmetry_space_group_name_H-M "P -1"
_symmetry_group_IT_number 2
_symmetry_cell_setting 'triclinic'
loop_
_space_group_symop_operation_xyz
x,y,z
-x,-y,-z
loop_
_atom_site_type_symbol
_atom_site_label
_atom_site_fract_x
_atom_site_fract_y
_atom_site_fract_z
Si Si1 0.098257 0.793541 0.609837
Si Si2 0.149658 0.327574 0.350322
Si Si3 0.518390 0.211028 0.369152
Si Si4 0.771024 0.468278 0.655902
Si Si5 0.506255 0.385398 0.448746
Si Si6 0.239488 0.050433 0.759197
Si Si7 0.084566 0.838657 0.304962
O O1 0.243102 0.582757 0.271788
O O2 0.219382 0.779890 0.746985
O O3 0.148620 0.797673 0.441468
O O4 0.799471 0.999055 0.950576
O O5 0.350978 0.244433 0.334934
O O6 0.000000 0.500000 0.500000
O O7 0.928696 0.450762 0.658210
O O8 0.290015 0.128469 0.921021
O O9 0.409559 0.386254 0.579960
O O10 0.564323 0.162314 0.492519
O O11 0.545643 0.631711 0.774746
O O12 0.985261 0.242728 0.179968
O O13 0.333843 0.609264 0.840325
O O14 0.138931 0.075049 0.611374
O O15 0.000000 0.000000 0.500000
#
# Coordination Sequence:
#
# PCOD9058978 Si02
#       7
#     2   2   2   2   2   2   2
#     4  11  23  35  59  93 121 153 199 247 298 342
#     4  10  17  37  64  87 116 156 202 240 296 346
#     4  11  20  37  65  92 116 154 201 253 285 352
#     4   8  19  35  58  86 115 150 200 243 286 339
#     4  11  21  39  60  86 123 160 196 241 303 360
#     4   8  19  34  57  83 114 154 196 230 292 348
#     4  11  23  42  57  83 124 167 194 237 302 365
#
# _framework density 24.731480999999999
#
# number of rings (size 3 to 8) (size 9 to 14) (size 15 to 20)
#    0.857    1.143    1.429    2.571    0.000    3.429 
#    0.000    0.714    0.000    1.714    0.000    0.000 
#    0.000    0.000    0.000    0.000    0.000    0.000 
#
# Total GULP energy -78116.915586 kJ/mol
# GULP energy per Si atom -5579.779685 kJ/mol
# Density = 2.467519 g / cm^3
# Si number density = 24.731481 Si / 1000 Ang^3
#
#
#
# Elastic Constant Matrix: (Units=GPa)
#
#
# Indices 1 2 3 4 5 6 
#
# 1 172.7674 46.6717 6.9597 16.6142 -6.3736 -15.3488
# 2 46.6717 118.0123 11.2412 28.0967 -4.0464 0.4863
# 3 6.9597 11.2412 70.1479 14.2228 2.6031 2.7335
# 4 16.6142 28.0967 14.2228 25.6284 12.6819 2.6623
# 5 -6.3736 -4.0464 2.6031 12.6819 29.7252 18.8058
# 6 -15.3488 0.4863 2.7335 2.6623 18.8058 51.0563
#
#
#
# Elastic Compliance Matrix: (Units=1/GPa)
#
#
# Indices 1 2 3 4 5 6 
#
# 1 0.006818 -0.001824 0.000207 -0.003533 0.001676 0.001623
# 2 -0.001824 0.014994 0.002107 -0.023040 0.014399 -0.004906
# 3 0.000207 0.002107 0.016759 -0.014864 0.006853 -0.002604
# 4 -0.003533 -0.023040 -0.014864 0.100426 -0.054885 0.014933
# 5 0.001676 0.014399 0.006853 -0.054885 0.074275 -0.024496
# 6 0.001623 -0.004906 -0.002604 0.014933 -0.024496 0.028504
#
#
# Mechanical properties :
#
#
# Convention : Reuss Voigt Hill
#
# Bulk Modulus (GPa) = 25.28531 54.51919 39.90225
# Shear Modulus (GPa) = 19.68652 41.01896 30.35274
#
# Velocity S-wave (km/s) = 2.82443 4.07698 3.50707
# Velocity P-wave (km/s) = 4.56975 6.65241 5.70689
#
# Compressibility (1/GPa) = 0.03954865
#
# Stress axis : x y z
#
# Youngs Moduli (GPa) = 146.66229 66.69379 59.67115
#
# Poissons Ratio (x) = 0.12167 -0.01234
# Poissons Ratio (y) = 0.26757 -0.12570
# Poissons Ratio (z) = -0.03032 -0.14049
#
# Static dielectric constant tensor:
#      x y z
#    x 1.975450 0.068990 0.008040 
#    y 0.068990 2.056110 0.036520 
#    z 0.008040 0.036520 2.030970 
# 
# From -- ./inp_files/276973.got.cif
#   From: 2010.05.17/outbox.cif.g08.bks.cpg/sg2_139_cif.got.tgz:276973.got - 2010.06.03 11:33:40.
