data_PCOD9058272
_publ_section_title
;
Structure prediction by ZEFSAII (Michael W. Deem and Ramdas Pophale) SiO2 
 PCOD9058272
Probable space group: P -1
;
_chemical_formula_sum "Si O2"
_cell_formula_units_Z 14
_cell_length_a 6.834407
_cell_length_b 14.455325
_cell_length_c 9.987720
_cell_angle_alpha 91.865354
_cell_angle_beta 43.214022
_cell_angle_gamma 98.221569
_cell_volume 664.940370
_symmetry_space_group_name_H-M "P -1"
_symmetry_group_IT_number 2
_symmetry_cell_setting 'triclinic'
loop_
_space_group_symop_operation_xyz
x,y,z
-x,-y,-z
loop_
_atom_site_type_symbol
_atom_site_label
_atom_site_fract_x
_atom_site_fract_y
_atom_site_fract_z
Si Si1 0.114079 0.516377 0.097588
Si Si2 0.247622 0.044589 0.478346
Si Si3 0.205453 0.272728 0.903000
Si Si4 0.219004 0.063649 0.794835
Si Si5 0.295070 0.357530 0.145769
Si Si6 0.357030 0.391744 0.584711
Si Si7 0.505905 0.255673 0.273405
O O1 0.066554 0.421910 0.207530
O O2 0.978809 0.595666 0.246992
O O3 0.450457 0.560555 0.924180
O O4 0.000000 0.500000 0.000000
O O5 0.117872 0.054694 0.690948
O O6 0.407868 0.147611 0.358185
O O7 0.480856 0.975277 0.359532
O O8 0.000000 0.000000 0.500000
O O9 0.251986 0.170332 0.831145
O O10 0.381018 0.347978 0.716778
O O11 0.323676 0.300716 0.992731
O O12 0.854463 0.272472 0.071189
O O13 0.000000 0.000000 0.000000
O O14 0.300192 0.282284 0.257477
O O15 0.500000 0.500000 0.500000
O O16 0.447642 0.323484 0.426485
#
# Coordination Sequence:
#
# PCOD9058272 Si02
#       7
#     2   2   2   2   2   2   2
#     4  11  22  45  65  96 142 183 234 292 344 415
#     4  11  27  47  72 112 144 181 250 301 362 445
#     4  12  25  48  70 103 143 188 241 289 365 434
#     4  11  25  48  77 100 145 194 231 304 375 426
#     4  11  24  40  73  97 133 189 238 282 353 429
#     4  12  25  44  71  96 147 188 225 300 353 410
#     4  12  26  46  69 103 144 184 235 305 356 431
#
# _framework density 21.054518000000002
#
# number of rings (size 3 to 8) (size 9 to 14) (size 15 to 20)
#    0.000    0.571    5.714    1.714    4.000    3.429 
#    5.143    0.000    0.000    0.000    0.000    0.000 
#    0.000    0.000    0.000    0.000    0.000    0.000 
#
# Total GULP energy -78107.046872 kJ/mol
# GULP energy per Si atom -5579.074777 kJ/mol
# Density = 2.100660 g / cm^3
# Si number density = 21.054518 Si / 1000 Ang^3
#
#
#
# Elastic Constant Matrix: (Units=GPa)
#
#
# Indices 1 2 3 4 5 6 
#
# 1 128.4273 41.0855 43.4082 5.1787 27.4912 11.2584
# 2 41.0855 142.6706 50.0566 18.1396 8.7932 6.9437
# 3 43.4082 50.0566 97.5240 2.9527 26.6628 4.3937
# 4 5.1787 18.1396 2.9527 51.3025 -1.0226 0.4742
# 5 27.4912 8.7932 26.6628 -1.0226 27.0128 3.9454
# 6 11.2584 6.9437 4.3937 0.4742 3.9454 35.3985
#
#
#
# Elastic Compliance Matrix: (Units=1/GPa)
#
#
# Indices 1 2 3 4 5 6 
#
# 1 0.010974 -0.001992 -0.001310 -0.000489 -0.008964 -0.001931
# 2 -0.001992 0.009463 -0.004882 -0.002779 0.003807 -0.001004
# 3 -0.001310 -0.004882 0.017142 0.000583 -0.014094 0.000810
# 4 -0.000489 -0.002779 0.000583 0.020520 0.001577 0.000177
# 5 -0.008964 0.003807 -0.014094 0.001577 0.059279 -0.002775
# 6 -0.001931 -0.001004 0.000810 0.000177 -0.002775 0.029267
#
#
# Mechanical properties :
#
#
# Convention : Reuss Voigt Hill
#
# Bulk Modulus (GPa) = 47.14420 70.85807 59.00113
# Shear Modulus (GPa) = 29.39722 38.34753 33.87238
#
# Velocity S-wave (km/s) = 3.74069 4.27235 4.01533
# Velocity P-wave (km/s) = 6.41070 7.62004 7.04138
#
# Compressibility (1/GPa) = 0.02121152
#
# Stress axis : x y z
#
# Youngs Moduli (GPa) = 91.12164 105.67192 58.33741
#
# Poissons Ratio (x) = 0.21052 0.07640
# Poissons Ratio (y) = 0.18153 0.28480
# Poissons Ratio (z) = 0.11933 0.51589
#
# Static dielectric constant tensor:
#      x y z
#    x 1.775050 -0.049390 -0.034220 
#    y -0.049390 1.762620 -0.013840 
#    z -0.034220 -0.013840 1.798500 
# 
# From -- ./inp_files/135213.got.cif
#   From: 2010.05.17/outbox.cif.g08.bks.cpg/sg2_68_cif.got.tgz:135213.got - 2010.06.03 11:33:40.
