data_PCOD9058998
_publ_section_title
;
Structure prediction by ZEFSAII (Michael W. Deem and Ramdas Pophale) SiO2 
 PCOD9058998
Probable space group: P -1
;
_chemical_formula_sum "Si O2"
_cell_formula_units_Z 14
_cell_length_a 7.007117
_cell_length_b 11.640278
_cell_length_c 11.242600
_cell_angle_alpha 126.321607
_cell_angle_beta 102.463322
_cell_angle_gamma 56.481810
_cell_volume 607.463021
_symmetry_space_group_name_H-M "P -1"
_symmetry_group_IT_number 2
_symmetry_cell_setting 'triclinic'
loop_
_space_group_symop_operation_xyz
x,y,z
-x,-y,-z
loop_
_atom_site_type_symbol
_atom_site_label
_atom_site_fract_x
_atom_site_fract_y
_atom_site_fract_z
Si Si1 0.220852 0.815420 0.949325
Si Si2 0.499489 0.040800 0.887493
Si Si3 0.308854 0.539017 0.596634
Si Si4 0.119400 0.171810 0.389124
Si Si5 0.514524 0.793665 0.421929
Si Si6 0.674270 0.310512 0.865231
Si Si7 0.105792 0.040228 0.685156
O O1 0.269729 0.682857 0.772970
O O2 0.459853 0.806355 0.003562
O O3 0.176489 0.769735 0.044531
O O4 0.000000 0.000000 0.000000
O O5 0.720980 0.907622 0.755902
O O6 0.283971 0.051831 0.802844
O O7 0.500000 0.000000 0.000000
O O8 0.500000 0.500000 0.500000
O O9 0.388581 0.373178 0.583726
O O10 0.070549 0.633897 0.548214
O O11 0.478907 0.752884 0.257525
O O12 0.994574 0.071042 0.343638
O O13 0.296148 0.157645 0.504380
O O14 0.268674 0.934348 0.532165
O O15 0.500000 0.500000 0.000000
O O16 0.887081 0.232394 0.751439
#
# Coordination Sequence:
#
# PCOD9058998 Si02
#       7
#     2   2   2   2   2   2   2
#     4  12  24  47  78 102 142 190 237 298 355 421
#     4  11  23  39  73 107 133 185 242 289 354 417
#     4  12  23  43  72 107 147 185 238 296 354 421
#     4  11  23  44  72 102 144 186 240 292 347 424
#     4  11  26  44  71 104 141 195 236 287 363 425
#     4  12  25  49  71 103 148 184 235 303 357 416
#     4  11  24  47  68  99 140 189 235 287 353 431
#
# _framework density 23.046672999999998
#
# number of rings (size 3 to 8) (size 9 to 14) (size 15 to 20)
#    0.000    0.571    5.714    2.571    2.000    0.571 
#    5.143    0.714    0.000    0.000    0.000    0.000 
#    0.000    0.000    0.000    0.000    0.000    0.000 
#
# Total GULP energy -78167.274655 kJ/mol
# GULP energy per Si atom -5583.376761 kJ/mol
# Density = 2.299422 g / cm^3
# Si number density = 23.046673 Si / 1000 Ang^3
#
#
#
# Elastic Constant Matrix: (Units=GPa)
#
#
# Indices 1 2 3 4 5 6 
#
# 1 143.5133 34.9935 68.2779 6.1624 -4.2053 -16.1300
# 2 34.9935 111.2586 49.2876 8.3295 -17.6285 -16.2941
# 3 68.2779 49.2876 172.8313 -4.7438 3.2663 -21.7645
# 4 6.1624 8.3295 -4.7438 48.7941 -11.6521 2.4538
# 5 -4.2053 -17.6285 3.2663 -11.6521 30.2855 -4.7838
# 6 -16.1300 -16.2941 -21.7645 2.4538 -4.7838 37.9901
#
#
#
# Elastic Compliance Matrix: (Units=1/GPa)
#
#
# Indices 1 2 3 4 5 6 
#
# 1 0.008945 -0.000963 -0.003080 -0.001151 0.000855 0.001802
# 2 -0.000963 0.012459 -0.002788 -0.000616 0.007872 0.004369
# 3 -0.003080 -0.002788 0.008093 0.001025 -0.002247 0.001784
# 4 -0.001151 -0.000616 0.001025 0.022797 0.008043 -0.000625
# 5 0.000855 0.007872 -0.002247 0.008043 0.042202 0.007247
# 6 0.001802 0.004369 0.001784 -0.000625 0.007247 0.030936
#
#
# Mechanical properties :
#
#
# Convention : Reuss Voigt Hill
#
# Bulk Modulus (GPa) = 63.15153 81.41347 72.28250
# Shear Modulus (GPa) = 34.63230 41.75023 38.19127
#
# Velocity S-wave (km/s) = 3.88068 4.26085 4.07520
# Velocity P-wave (km/s) = 6.89497 7.72066 7.31947
#
# Compressibility (1/GPa) = 0.01583493
#
# Stress axis : x y z
#
# Youngs Moduli (GPa) = 111.79083 80.26009 123.56245
#
# Poissons Ratio (x) = 0.07733 0.38056
# Poissons Ratio (y) = 0.10770 0.34450
# Poissons Ratio (z) = 0.34431 0.22377
#
# Static dielectric constant tensor:
#      x y z
#    x 2.092350 0.221260 -0.119880 
#    y 0.221260 2.178950 -0.123580 
#    z -0.119880 -0.123580 2.034870 
# 
# From -- ./inp_files/391380.got.cif
#   From: 2010.05.17/outbox.cif.g08.bks.cpg/sg2_196_cif.got.tgz:391380.got - 2010.06.03 11:33:40.
