data_PCOD9058017
_publ_section_title
;
Structure prediction by ZEFSAII (Michael W. Deem and Ramdas Pophale) SiO2 
 PCOD9058017
Probable space group: P -1
;
_chemical_formula_sum "Si O2"
_cell_formula_units_Z 16
_cell_length_a 16.326513
_cell_length_b 10.100772
_cell_length_c 10.911300
_cell_angle_alpha 81.796742
_cell_angle_beta 138.705514
_cell_angle_gamma 129.523676
_cell_volume 688.942633
_symmetry_space_group_name_H-M "P -1"
_symmetry_group_IT_number 2
_symmetry_cell_setting 'triclinic'
loop_
_space_group_symop_operation_xyz
x,y,z
-x,-y,-z
loop_
_atom_site_type_symbol
_atom_site_label
_atom_site_fract_x
_atom_site_fract_y
_atom_site_fract_z
Si Si1 0.268248 0.723555 0.242093
Si Si2 0.007125 0.047030 0.250695
Si Si3 0.107841 0.592374 0.814946
Si Si4 0.244861 0.396738 0.291482
Si Si5 0.879062 0.141221 0.540079
Si Si6 0.573546 0.278848 0.995192
Si Si7 0.384781 0.433835 0.178919
Si Si8 0.141545 0.369365 0.555823
O O1 0.299308 0.598832 0.336290
O O2 0.500000 0.000000 0.500000
O O3 0.254669 0.727574 0.080207
O O4 0.000000 0.500000 0.000000
O O5 0.027188 0.159927 0.139900
O O6 0.112840 0.215139 0.461134
O O7 0.112176 0.992148 0.362632
O O8 0.761176 0.799133 0.025294
O O9 0.954860 0.329358 0.684411
O O10 0.974948 0.609533 0.644036
O O11 0.252800 0.680636 0.849919
O O12 0.263694 0.372900 0.174780
O O13 0.408494 0.455518 0.550278
O O14 0.029623 0.252061 0.576889
O O15 0.655188 0.977729 0.251658
O O16 0.587243 0.412805 0.894782
O O17 0.624377 0.381656 0.172547
#
# Coordination Sequence:
#
# PCOD9058017 Si02
#       8
#     2   2   2   2   2   2   2   2
#     4  12  29  50  73 108 151 194 241 302 368 438
#     4  12  23  43  68 101 139 181 228 302 361 427
#     4  11  25  47  68  99 138 190 238 290 358 438
#     4  11  25  44  71 104 133 189 237 296 362 434
#     4  11  23  42  72  97 136 187 233 295 358 432
#     4  11  22  44  69 101 134 184 240 292 360 429
#     4  11  23  42  70 100 138 177 242 295 359 439
#     4  11  26  42  66 100 141 178 239 294 363 431
#
# _framework density 23.223994999999999
#
# number of rings (size 3 to 8) (size 9 to 14) (size 15 to 20)
#    0.000    0.750    5.000    3.000    5.250    3.500 
#    0.000    0.000    0.000    0.000    0.000    0.000 
#    0.000    0.000    0.000    0.000    0.000    0.000 
#
# Total GULP energy -89260.991780 kJ/mol
# GULP energy per Si atom -5578.811986 kJ/mol
# Density = 2.317114 g / cm^3
# Si number density = 23.223995 Si / 1000 Ang^3
#
#
#
# Elastic Constant Matrix: (Units=GPa)
#
#
# Indices 1 2 3 4 5 6 
#
# 1 40.7519 13.9347 24.0990 14.8800 -11.7024 -2.3449
# 2 13.9347 142.5327 40.6232 -5.6616 -13.1525 -11.9868
# 3 24.0990 40.6232 158.3636 17.9242 -20.0349 -19.3882
# 4 14.8800 -5.6616 17.9242 36.8219 -3.7896 -4.1591
# 5 -11.7024 -13.1525 -20.0349 -3.7896 31.6484 2.7202
# 6 -2.3449 -11.9868 -19.3882 -4.1591 2.7202 25.0419
#
#
#
# Elastic Compliance Matrix: (Units=1/GPa)
#
#
# Indices 1 2 3 4 5 6 
#
# 1 0.033586 -0.002549 -0.002322 -0.012264 0.008666 -0.002851
# 2 -0.002549 0.008251 -0.001564 0.003561 0.001673 0.002910
# 3 -0.002322 -0.001564 0.008317 -0.002503 0.003051 0.004726
# 4 -0.012264 0.003561 -0.002503 0.034284 -0.000913 0.004411
# 5 0.008666 0.001673 0.003051 -0.000913 0.037339 -0.000234
# 6 -0.002851 0.002910 0.004726 0.004411 -0.000234 0.045476
#
#
# Mechanical properties :
#
#
# Convention : Reuss Voigt Hill
#
# Bulk Modulus (GPa) = 26.82032 55.44024 41.13028
# Shear Modulus (GPa) = 25.96717 36.23518 31.10118
#
# Velocity S-wave (km/s) = 3.34746 3.95428 3.66345
# Velocity P-wave (km/s) = 5.14920 6.69121 5.97020
#
# Compressibility (1/GPa) = 0.03728516
#
# Stress axis : x y z
#
# Youngs Moduli (GPa) = 29.77434 121.19169 120.23707
#
# Poissons Ratio (x) = 0.30893 0.27914
# Poissons Ratio (y) = 0.07590 0.18804
# Poissons Ratio (z) = 0.06912 0.18953
#
# Static dielectric constant tensor:
#      x y z
#    x 1.916820 0.031970 0.063200 
#    y 0.031970 1.879650 0.083890 
#    z 0.063200 0.083890 1.995230 
# 
# From -- ./inp_files/462164.got.cif
#   From: 2010.05.17/outbox.cif.g08.bks.cpg/sg2_232_cif.got.tgz:462164.got - 2010.06.03 11:33:40.
