data_PCOD9058557
_publ_section_title
;
Structure prediction by ZEFSAII (Michael W. Deem and Ramdas Pophale) SiO2 
 PCOD9058557
Probable space group: P -1
;
_chemical_formula_sum "Si O2"
_cell_formula_units_Z 16
_cell_length_a 9.899474
_cell_length_b 13.273227
_cell_length_c 8.738227
_cell_angle_alpha 147.435468
_cell_angle_beta 81.983119
_cell_angle_gamma 89.576644
_cell_volume 594.921934
_symmetry_space_group_name_H-M "P -1"
_symmetry_group_IT_number 2
_symmetry_cell_setting 'triclinic'
loop_
_space_group_symop_operation_xyz
x,y,z
-x,-y,-z
loop_
_atom_site_type_symbol
_atom_site_label
_atom_site_fract_x
_atom_site_fract_y
_atom_site_fract_z
Si Si1 0.838455 0.704926 0.302511
Si Si2 0.257210 0.615297 0.894222
Si Si3 0.087900 0.156543 0.136753
Si Si4 0.651425 0.702089 0.749341
Si Si5 0.029675 0.960580 0.268161
Si Si6 0.534661 0.976391 0.644474
Si Si7 0.846039 0.489051 0.719467
Si Si8 0.368372 0.682815 0.274251
O O1 0.819876 0.526081 0.178816
O O2 0.689434 0.852108 0.487690
O O3 0.933863 0.838046 0.529048
O O4 0.883296 0.619990 0.018329
O O5 0.363316 0.461389 0.577291
O O6 0.159875 0.774304 0.006091
O O7 0.315621 0.724657 0.161711
O O8 0.243315 0.173369 0.180111
O O9 0.981762 0.359966 0.450822
O O10 0.092777 0.099476 0.882667
O O11 0.000000 0.000000 0.000000
O O12 0.742335 0.603181 0.753452
O O13 0.508939 0.831624 0.003723
O O14 0.000000 0.000000 0.500000
O O15 0.429571 0.847110 0.549337
O O16 0.500000 0.000000 0.500000
O O17 0.753114 0.364468 0.664135
O O18 0.500000 0.500000 0.000000
#
# Coordination Sequence:
#
# PCOD9058557 Si02
#       8
#     2   2   2   2   2   2   2   2
#     4  11  25  47  72 104 140 188 240 288 359 423
#     4  11  26  46  69 107 143 181 238 295 355 415
#     4  12  27  47  71 105 144 190 239 293 356 429
#     4  12  25  46  70 105 145 186 232 297 360 416
#     4  12  28  45  71 107 144 187 240 295 351 428
#     4  12  23  45  75 101 139 188 238 289 355 428
#     4  11  23  44  71 100 141 188 232 292 352 423
#     4  11  22  46  71 102 138 185 242 283 353 424
#
# _framework density 26.894285
#
# number of rings (size 3 to 8) (size 9 to 14) (size 15 to 20)
#    0.000    0.500    5.000    3.375    7.000    1.000 
#    2.250    1.875    0.000    0.000    0.000    0.000 
#    0.000    0.000    0.000    0.000    0.000    0.000 
#
# Total GULP energy -89728.016232 kJ/mol
# GULP energy per Si atom -5608.001015 kJ/mol
# Density = 2.683307 g / cm^3
# Si number density = 26.894285 Si / 1000 Ang^3
#
#
#
# Elastic Constant Matrix: (Units=GPa)
#
#
# Indices 1 2 3 4 5 6 
#
# 1 87.3374 2.2397 31.1480 6.3851 -5.2523 1.1520
# 2 2.2397 74.1278 10.9070 5.0633 2.0803 13.4945
# 3 31.1480 10.9070 181.5757 -3.1662 -7.3474 8.6206
# 4 6.3851 5.0633 -3.1662 41.8382 -1.6032 -0.8843
# 5 -5.2523 2.0803 -7.3474 -1.6032 61.6090 2.3699
# 6 1.1520 13.4945 8.6206 -0.8843 2.3699 41.7468
#
#
#
# Elastic Compliance Matrix: (Units=1/GPa)
#
#
# Indices 1 2 3 4 5 6 
#
# 1 0.012404 0.000058 -0.002136 -0.002033 0.000748 -0.000006
# 2 0.000058 0.014573 -0.000720 -0.001941 -0.000447 -0.004579
# 3 -0.002136 -0.000720 0.006003 0.000871 0.000618 -0.000965
# 4 -0.002033 -0.001941 0.000871 0.024556 0.000597 0.000990
# 5 0.000748 -0.000447 0.000618 0.000597 0.016435 -0.000924
# 6 -0.000006 -0.004579 -0.000965 0.000990 -0.000924 0.025707
#
#
# Mechanical properties :
#
#
# Convention : Reuss Voigt Hill
#
# Bulk Modulus (GPa) = 36.51682 47.95892 42.23787
# Shear Modulus (GPa) = 43.70545 48.95523 46.33034
#
# Velocity S-wave (km/s) = 4.03561 4.27111 4.15502
# Velocity P-wave (km/s) = 5.94325 6.49571 6.22561
#
# Compressibility (1/GPa) = 0.02738464
#
# Stress axis : x y z
#
# Youngs Moduli (GPa) = 80.61961 68.61933 166.58263
#
# Poissons Ratio (x) = -0.00401 0.35586
# Poissons Ratio (y) = -0.00471 0.11993
# Poissons Ratio (z) = 0.17222 0.04940
#
# Static dielectric constant tensor:
#      x y z
#    x 2.070890 0.059980 -0.002960 
#    y 0.059980 2.337280 0.002080 
#    z -0.002960 0.002080 2.059880 
# 
# From -- ./inp_files/274840.got.cif
#   From: 2010.05.17/outbox.cif.g08.bks.cpg/sg2_138_cif.got.tgz:274840.got - 2010.06.03 11:33:40.
