data_PCOD9058360
_publ_section_title
;
Structure prediction by ZEFSAII (Michael W. Deem and Ramdas Pophale) SiO2 
 PCOD9058360
Probable space group: P -1
;
_chemical_formula_sum "Si O2"
_cell_formula_units_Z 12
_cell_length_a 9.369615
_cell_length_b 9.794575
_cell_length_c 12.075947
_cell_angle_alpha 87.392270
_cell_angle_beta 45.941296
_cell_angle_gamma 113.101097
_cell_volume 641.993360
_symmetry_space_group_name_H-M "P -1"
_symmetry_group_IT_number 2
_symmetry_cell_setting 'triclinic'
loop_
_space_group_symop_operation_xyz
x,y,z
-x,-y,-z
loop_
_atom_site_type_symbol
_atom_site_label
_atom_site_fract_x
_atom_site_fract_y
_atom_site_fract_z
Si Si1 0.594559 0.186219 0.794078
Si Si2 0.244482 0.776040 0.547289
Si Si3 0.180565 0.948936 0.178815
Si Si4 0.303099 0.472388 0.196147
Si Si5 0.657557 0.870413 0.480356
Si Si6 0.728369 0.831217 0.678938
O O1 0.665822 0.185383 0.629662
O O2 0.777604 0.177843 0.777769
O O3 0.611942 0.354764 0.798126
O O4 0.327133 0.022355 0.982397
O O5 0.435339 0.768823 0.518520
O O6 0.965323 0.611597 0.708370
O O7 0.249967 0.934971 0.580460
O O8 0.896096 0.874586 0.326729
O O9 0.320967 0.113744 0.180183
O O10 0.267790 0.328870 0.301789
O O11 0.500000 0.500000 0.000000
O O12 0.575914 0.808568 0.653452
O O13 0.000000 0.000000 0.500000
#
# Coordination Sequence:
#
# PCOD9058360 Si02
#       6
#     2   2   2   2   2   2
#     4  11  22  35  61  89 115 147 201 241 278 342
#     4  11  21  35  58  89 115 151 194 235 291 338
#     4  10  19  38  60  87 112 155 198 233 285 340
#     4  12  22  39  61  87 117 150 198 240 284 341
#     4  10  20  37  59  83 119 155 188 234 289 349
#     4  10  17  37  61  80 110 154 194 223 282 343
#
# _framework density 18.691782
#
# number of rings (size 3 to 8) (size 9 to 14) (size 15 to 20)
#    0.000    1.333    6.667    1.500    0.000    0.667 
#    0.000    4.167    0.000    0.000    0.000    0.000 
#    0.000    0.000    0.000    0.000    0.000    0.000 
#
# Total GULP energy -66936.681693 kJ/mol
# GULP energy per Si atom -5578.056808 kJ/mol
# Density = 1.864924 g / cm^3
# Si number density = 18.691782 Si / 1000 Ang^3
#
#
#
# Elastic Constant Matrix: (Units=GPa)
#
#
# Indices 1 2 3 4 5 6 
#
# 1 110.9244 7.7898 42.5242 -2.2041 -3.3320 -5.5803
# 2 7.7898 59.2613 8.4720 -3.1929 6.6421 -21.9648
# 3 42.5242 8.4720 93.8586 13.7785 -2.9100 9.0331
# 4 -2.2041 -3.1929 13.7785 24.7830 -10.4667 3.4066
# 5 -3.3320 6.6421 -2.9100 -10.4667 19.8050 0.0989
# 6 -5.5803 -21.9648 9.0331 3.4066 0.0989 29.8417
#
#
#
# Elastic Compliance Matrix: (Units=1/GPa)
#
#
# Indices 1 2 3 4 5 6 
#
# 1 0.011943 0.000796 -0.006630 0.005919 0.003875 0.004138
# 2 0.000796 0.026432 -0.004966 -0.000931 -0.010059 0.021247
# 3 -0.006630 -0.004966 0.016355 -0.010123 -0.002353 -0.008683
# 4 0.005919 -0.000931 -0.010123 0.060243 0.031676 -0.003497
# 5 0.003875 -0.010059 -0.002353 0.031676 0.070962 -0.009818
# 6 0.004138 0.021247 -0.008683 -0.003497 -0.009818 0.052983
#
#
# Mechanical properties :
#
#
# Convention : Reuss Voigt Hill
#
# Bulk Modulus (GPa) = 30.18446 42.40180 36.29313
# Shear Modulus (GPa) = 18.41209 28.56983 23.49096
#
# Velocity S-wave (km/s) = 3.14193 3.91381 3.54892
# Velocity P-wave (km/s) = 5.41719 6.56946 6.02095
#
# Compressibility (1/GPa) = 0.03312963
#
# Stress axis : x y z
#
# Youngs Moduli (GPa) = 83.73112 37.83275 61.14340
#
# Poissons Ratio (x) = -0.03011 0.40536
# Poissons Ratio (y) = -0.06665 0.30367
# Poissons Ratio (z) = 0.55511 0.18790
#
# Static dielectric constant tensor:
#      x y z
#    x 1.669250 -0.008880 0.014470 
#    y -0.008880 1.659980 0.028710 
#    z 0.014470 0.028710 1.680700 
# 
# From -- ./inp_files/146273.got.cif
#   From: 2010.05.17/outbox.cif.g08.bks.cpg/sg2_74_cif.got.tgz:146273.got - 2010.06.03 11:33:40.
