data_PCOD9058793
_publ_section_title
;
Structure prediction by ZEFSAII (Michael W. Deem and Ramdas Pophale) SiO2 
 PCOD9058793
Probable space group: P -1
;
_chemical_formula_sum "Si O2"
_cell_formula_units_Z 14
_cell_length_a 16.596613
_cell_length_b 15.643415
_cell_length_c 19.526921
_cell_angle_alpha 20.188273
_cell_angle_beta 158.426084
_cell_angle_gamma 148.020361
_cell_volume 631.148467
_symmetry_space_group_name_H-M "P -1"
_symmetry_group_IT_number 2
_symmetry_cell_setting 'triclinic'
loop_
_space_group_symop_operation_xyz
x,y,z
-x,-y,-z
loop_
_atom_site_type_symbol
_atom_site_label
_atom_site_fract_x
_atom_site_fract_y
_atom_site_fract_z
Si Si1 0.784131 0.804450 0.824177
Si Si2 0.564481 0.753430 0.833381
Si Si3 0.044310 0.747260 0.609386
Si Si4 0.524794 0.034749 0.204315
Si Si5 0.800376 0.056151 0.880762
Si Si6 0.645107 0.048924 0.142627
Si Si7 0.281934 0.421967 0.632569
O O1 0.641167 0.741459 0.824126
O O2 0.632815 0.997919 0.508578
O O3 0.895421 0.521986 0.101155
O O4 0.975331 0.941986 0.901833
O O5 0.761130 0.812992 0.992136
O O6 0.500000 0.500000 0.000000
O O7 0.264129 0.856704 0.683399
O O8 0.899506 0.686730 0.475024
O O9 0.892174 0.952849 0.382990
O O10 0.595571 0.914506 0.275846
O O11 0.407019 0.874929 0.282355
O O12 0.327155 0.276443 0.848820
O O13 0.779643 0.280903 0.640264
O O14 0.527831 0.331857 0.859277
O O15 0.500000 0.000000 0.000000
#
# Coordination Sequence:
#
# PCOD9058793 Si02
#       7
#     2   2   2   2   2   2   2
#     4  10  24  41  63  87 119 158 189 248 298 341
#     4  11  24  43  63  88 118 149 202 245 296 353
#     4  10  17  37  63  82 116 161 195 234 291 342
#     4  10  20  33  60  85 119 158 196 233 290 340
#     4  11  22  39  61  92 118 153 198 238 294 355
#     4   8  17  36  59  84 120 162 188 237 290 340
#     4   8  20  36  56  84 124 149 194 237 287 338
#
# _framework density 22.181785999999999
#
# number of rings (size 3 to 8) (size 9 to 14) (size 15 to 20)
#    0.857    1.429    0.000    2.571    0.000    5.143 
#    0.000    7.143    0.000    0.000    0.000    0.000 
#    0.000    0.000    0.000    0.000    0.000    0.000 
#
# Total GULP energy -78015.296966 kJ/mol
# GULP energy per Si atom -5572.521212 kJ/mol
# Density = 2.213130 g / cm^3
# Si number density = 22.181786 Si / 1000 Ang^3
#
#
#
# Elastic Constant Matrix: (Units=GPa)
#
#
# Indices 1 2 3 4 5 6 
#
# 1 65.4952 21.2831 19.7016 2.7451 -8.6608 12.4658
# 2 21.2831 106.7532 46.5659 13.2587 -7.0710 6.0092
# 3 19.7016 46.5659 90.9393 18.1496 -0.8752 18.4746
# 4 2.7451 13.2587 18.1496 16.9486 0.7157 -5.3504
# 5 -8.6608 -7.0710 -0.8752 0.7157 20.8918 1.9836
# 6 12.4658 6.0092 18.4746 -5.3504 1.9836 26.6461
#
#
#
# Elastic Compliance Matrix: (Units=1/GPa)
#
#
# Indices 1 2 3 4 5 6 
#
# 1 0.019196 -0.002100 0.000113 -0.005179 0.008402 -0.010251
# 2 -0.002100 0.012816 -0.005574 -0.003537 0.003260 0.001004
# 3 0.000113 -0.005574 0.023584 -0.027579 0.002072 -0.020839
# 4 -0.005179 -0.003537 -0.027579 0.106778 -0.012402 0.044706
# 5 0.008402 0.003260 0.002072 -0.012402 0.054162 -0.012625
# 6 -0.010251 0.001004 -0.020839 0.044706 -0.012625 0.066463
#
#
# Mechanical properties :
#
#
# Convention : Reuss Voigt Hill
#
# Bulk Modulus (GPa) = 24.70687 48.69877 36.70282
# Shear Modulus (GPa) = 16.04560 24.60643 20.32602
#
# Velocity S-wave (km/s) = 2.69247 3.33424 3.03039
# Velocity P-wave (km/s) = 4.56381 6.06836 5.36905
#
# Compressibility (1/GPa) = 0.04047457
#
# Stress axis : x y z
#
# Youngs Moduli (GPa) = 52.09497 78.02573 42.40211
#
# Poissons Ratio (x) = 0.16383 -0.00481
# Poissons Ratio (y) = 0.10938 0.23636
# Poissons Ratio (z) = -0.00591 0.43494
#
# Static dielectric constant tensor:
#      x y z
#    x 1.857110 -0.018710 0.039620 
#    y -0.018710 1.789670 0.023540 
#    z 0.039620 0.023540 1.887580 
# 
# From -- ./inp_files/600401.got.cif
#   From: 2010.05.17/outbox.cif.g08.bks.cpg/sg2_301_cif.got.tgz:600401.got - 2010.06.03 11:33:40.
