data_PCOD9058963
_publ_section_title
;
Structure prediction by ZEFSAII (Michael W. Deem and Ramdas Pophale) SiO2 
 PCOD9058963
Probable space group: P -1
;
_chemical_formula_sum "Si O2"
_cell_formula_units_Z 16
_cell_length_a 11.715079
_cell_length_b 8.615737
_cell_length_c 15.147161
_cell_angle_alpha 48.396172
_cell_angle_beta 106.188476
_cell_angle_gamma 68.778010
_cell_volume 711.142465
_symmetry_space_group_name_H-M "P -1"
_symmetry_group_IT_number 2
_symmetry_cell_setting 'triclinic'
loop_
_space_group_symop_operation_xyz
x,y,z
-x,-y,-z
loop_
_atom_site_type_symbol
_atom_site_label
_atom_site_fract_x
_atom_site_fract_y
_atom_site_fract_z
Si Si1 0.355917 0.807180 0.728695
Si Si2 0.881557 0.070393 0.711298
Si Si3 0.702694 0.449464 0.038120
Si Si4 0.098688 0.504710 0.449650
Si Si5 0.245302 0.624009 0.235997
Si Si6 0.068728 0.229288 0.869166
Si Si7 0.383892 0.676522 0.587776
Si Si8 0.587553 0.970938 0.937354
O O1 0.276609 0.758867 0.804831
O O2 0.306266 0.795587 0.625062
O O3 0.272620 0.146417 0.590043
O O4 0.571746 0.535445 0.900488
O O5 0.854796 0.334527 0.564615
O O6 0.810897 0.198291 0.747926
O O7 0.757340 0.103914 0.605822
O O8 0.098312 0.737856 0.880002
O O9 0.593802 0.777859 0.940915
O O10 0.000000 0.500000 0.500000
O O11 0.954219 0.726168 0.256527
O O12 0.461689 0.351361 0.378443
O O13 0.140880 0.543906 0.232039
O O14 0.168282 0.886140 0.048625
O O15 0.199410 0.241020 0.923029
O O16 0.485586 0.314245 0.749836
O O17 0.500000 0.000000 0.000000
#
# Coordination Sequence:
#
# PCOD9058963 Si02
#       8
#     2   2   2   2   2   2   2   2
#     4  11  25  40  63  99 138 174 216 269 337 399
#     4  11  24  42  69  96 130 174 223 280 325 388
#     4  11  25  40  63  99 138 174 216 269 337 399
#     4  11  23  39  66  98 135 173 214 271 337 395
#     4   9  21  44  70  90 128 180 228 262 330 388
#     4   9  22  38  69  93 127 170 227 260 323 389
#     4  11  24  42  69  96 130 174 223 280 325 388
#     4  11  23  39  66  98 135 173 214 271 337 395
#
# _framework density 22.499006999999999
#
# number of rings (size 3 to 8) (size 9 to 14) (size 15 to 20)
#    0.000    1.500    2.500    1.125   14.000    0.500 
#    0.000    5.000    5.500    0.000    0.000    0.000 
#    0.000    0.000    0.000    0.000    0.000    0.000 
#
# Total GULP energy -89305.697179 kJ/mol
# GULP energy per Si atom -5581.606074 kJ/mol
# Density = 2.244780 g / cm^3
# Si number density = 22.499007 Si / 1000 Ang^3
#
#
#
# Elastic Constant Matrix: (Units=GPa)
#
#
# Indices 1 2 3 4 5 6 
#
# 1 79.9054 -3.7428 26.7091 11.7059 -1.5547 -4.7162
# 2 -3.7428 43.2632 9.6076 -1.3488 0.0474 -3.2118
# 3 26.7091 9.6076 81.2228 23.0620 20.2662 -9.3289
# 4 11.7059 -1.3488 23.0620 40.0498 3.0460 -1.6338
# 5 -1.5547 0.0474 20.2662 3.0460 24.2671 6.2744
# 6 -4.7162 -3.2118 -9.3289 -1.6338 6.2744 32.1450
#
#
#
# Elastic Compliance Matrix: (Units=1/GPa)
#
#
# Indices 1 2 3 4 5 6 
#
# 1 0.015182 0.002748 -0.006941 -0.000929 0.007126 -0.000951
# 2 0.002748 0.024751 -0.005727 0.003014 0.004400 0.000508
# 3 -0.006941 -0.005727 0.024897 -0.010413 -0.022368 0.009472
# 4 -0.000929 0.003014 -0.010413 0.030835 0.005365 -0.002337
# 5 0.007126 0.004400 -0.022368 0.005365 0.064123 -0.017250
# 6 -0.000951 0.000508 0.009472 -0.002337 -0.017250 0.037017
#
#
# Mechanical properties :
#
#
# Convention : Reuss Voigt Hill
#
# Bulk Modulus (GPa) = 22.22709 29.94880 26.08794
# Shear Modulus (GPa) = 21.58506 30.74688 26.16597
#
# Velocity S-wave (km/s) = 3.10074 3.70075 3.41395
# Velocity P-wave (km/s) = 4.76656 5.62146 5.21157
#
# Compressibility (1/GPa) = 0.04499015
#
# Stress axis : x y z
#
# Youngs Moduli (GPa) = 65.86647 40.40298 40.16503
#
# Poissons Ratio (x) = -0.11101 0.27879
# Poissons Ratio (y) = -0.18097 0.23001
# Poissons Ratio (z) = 0.45718 0.23137
#
# Static dielectric constant tensor:
#      x y z
#    x 1.874430 0.014750 0.042910 
#    y 0.014750 1.858490 -0.015860 
#    z 0.042910 -0.015860 1.862510 
# 
# From -- ./inp_files/515074.got.cif
#   From: 2010.05.17/outbox.cif.g08.bks.cpg/sg2_258_cif.got.tgz:515074.got - 2010.06.03 11:33:40.
