data_PCOD9058192
_publ_section_title
;
Structure prediction by ZEFSAII (Michael W. Deem and Ramdas Pophale) SiO2 
 PCOD9058192
Probable space group: P -1
;
_chemical_formula_sum "Si O2"
_cell_formula_units_Z 16
_cell_length_a 8.260999
_cell_length_b 15.167896
_cell_length_c 13.900943
_cell_angle_alpha 129.770848
_cell_angle_beta 43.421575
_cell_angle_gamma 96.669305
_cell_volume 691.616681
_symmetry_space_group_name_H-M "P -1"
_symmetry_group_IT_number 2
_symmetry_cell_setting 'triclinic'
loop_
_space_group_symop_operation_xyz
x,y,z
-x,-y,-z
loop_
_atom_site_type_symbol
_atom_site_label
_atom_site_fract_x
_atom_site_fract_y
_atom_site_fract_z
Si Si1 0.956728 0.240777 0.589870
Si Si2 0.195143 0.378074 0.247146
Si Si3 0.915286 0.111086 0.025276
Si Si4 0.331195 0.952261 0.095074
Si Si5 0.225324 0.399912 0.564300
Si Si6 0.780049 0.340546 0.945542
Si Si7 0.273022 0.409797 0.931487
Si Si8 0.241210 0.153004 0.774821
O O1 0.987221 0.241043 0.692837
O O2 0.584643 0.357401 0.813379
O O3 0.115030 0.304122 0.520285
O O4 0.108139 0.081562 0.362298
O O5 0.000000 0.500000 0.500000
O O6 0.936746 0.450641 0.326588
O O7 0.400360 0.208239 0.079961
O O8 0.448724 0.387638 0.106874
O O9 0.595839 0.278280 0.309728
O O10 0.847688 0.058761 0.920690
O O11 0.175324 0.120004 0.884847
O O12 0.000000 0.000000 0.000000
O O13 0.500000 0.000000 0.000000
O O14 0.054810 0.472414 0.789228
O O15 0.923275 0.246085 0.915083
O O16 0.754987 0.486125 0.067069
O O17 0.332325 0.256266 0.795039
O O18 0.500000 0.000000 0.500000
#
# Coordination Sequence:
#
# PCOD9058192 Si02
#       8
#     2   2   2   2   2   2   2   2
#     4  11  22  44  73 110 140 182 244 301 369 430
#     4  12  21  41  72 106 143 182 243 312 358 424
#     4  12  28  50  72 103 155 198 239 305 370 435
#     4  12  25  43  72 109 139 191 243 301 367 427
#     4  11  22  47  73 104 143 184 249 305 361 429
#     4  11  23  45  73 105 145 190 238 311 366 427
#     4  11  24  43  75 106 140 194 237 290 369 442
#     4  12  28  48  69 106 151 193 245 293 363 451
#
# _framework density 23.134201000000001
#
# number of rings (size 3 to 8) (size 9 to 14) (size 15 to 20)
#    0.000    0.500    6.250    1.875    3.500    3.000 
#    2.250    0.000    0.000    0.000    0.000    0.000 
#    0.000    0.000    0.000    0.000    0.000    0.000 
#
# Total GULP energy -89372.906429 kJ/mol
# GULP energy per Si atom -5585.806652 kJ/mol
# Density = 2.308155 g / cm^3
# Si number density = 23.134201 Si / 1000 Ang^3
#
#
#
# Elastic Constant Matrix: (Units=GPa)
#
#
# Indices 1 2 3 4 5 6 
#
# 1 43.3926 37.5807 18.2245 18.6011 3.4550 -8.8801
# 2 37.5807 187.3595 67.1163 16.0400 2.6048 -12.5621
# 3 18.2245 67.1163 147.3896 12.0885 8.2136 9.0181
# 4 18.6011 16.0400 12.0885 39.0757 4.9657 1.9056
# 5 3.4550 2.6048 8.2136 4.9657 31.2468 5.5117
# 6 -8.8801 -12.5621 9.0181 1.9056 5.5117 37.7214
#
#
#
# Elastic Compliance Matrix: (Units=1/GPa)
#
#
# Indices 1 2 3 4 5 6 
#
# 1 0.036118 -0.004880 -0.001403 -0.014866 -0.002320 0.008303
# 2 -0.004880 0.007504 -0.002956 0.000017 0.000334 0.002007
# 3 -0.001403 -0.002956 0.008605 -0.000470 -0.001227 -0.003169
# 4 -0.014866 0.000017 -0.000470 0.033379 -0.002715 -0.004671
# 5 -0.002320 0.000334 -0.001227 -0.002715 0.033859 -0.004952
# 6 0.008303 0.002007 -0.003169 -0.004671 -0.004952 0.030850
#
#
# Mechanical properties :
#
#
# Convention : Reuss Voigt Hill
#
# Bulk Modulus (GPa) = 29.63209 69.33164 49.48186
# Shear Modulus (GPa) = 27.77108 38.62348 33.19728
#
# Velocity S-wave (km/s) = 3.46849 4.09043 3.79223
# Velocity P-wave (km/s) = 5.37374 7.23486 6.37261
#
# Compressibility (1/GPa) = 0.03374720
#
# Stress axis : x y z
#
# Youngs Moduli (GPa) = 27.68735 133.26750 116.20776
#
# Poissons Ratio (x) = 0.65039 0.16304
# Poissons Ratio (y) = 0.13512 0.34355
# Poissons Ratio (z) = 0.03885 0.39399
#
# Static dielectric constant tensor:
#      x y z
#    x 2.004380 0.068070 -0.012620 
#    y 0.068070 1.600940 0.039190 
#    z -0.012620 0.039190 1.861620 
# 
# From -- ./inp_files/314484.got.cif
#   From: 2010.05.17/outbox.cif.g08.bks.cpg/sg2_158_cif.got.tgz:314484.got - 2010.06.03 11:33:40.
