data_PCOD9058137
_publ_section_title
;
Structure prediction by ZEFSAII (Michael W. Deem and Ramdas Pophale) SiO2 
 PCOD9058137
Probable space group: P -1
;
_chemical_formula_sum "Si O2"
_cell_formula_units_Z 14
_cell_length_a 23.876695
_cell_length_b 16.651721
_cell_length_c 13.413261
_cell_angle_alpha 23.439387
_cell_angle_beta 25.266646
_cell_angle_gamma 16.790082
_cell_volume 596.934814
_symmetry_space_group_name_H-M "P -1"
_symmetry_group_IT_number 2
_symmetry_cell_setting 'triclinic'
loop_
_space_group_symop_operation_xyz
x,y,z
-x,-y,-z
loop_
_atom_site_type_symbol
_atom_site_label
_atom_site_fract_x
_atom_site_fract_y
_atom_site_fract_z
Si Si1 0.286944 0.925861 0.897663
Si Si2 0.741492 0.101363 0.617753
Si Si3 0.848836 0.581786 0.568152
Si Si4 0.424723 0.715245 0.529900
Si Si5 0.321685 0.594356 0.032622
Si Si6 0.125918 0.754505 0.488326
Si Si7 0.519663 0.961781 0.211608
O O1 0.289095 0.810723 0.918032
O O2 0.201681 0.857030 0.186811
O O3 0.501147 0.729980 0.824685
O O4 0.159484 0.268115 0.686951
O O5 0.639336 0.409827 0.486176
O O6 0.722614 0.161665 0.462776
O O7 0.966307 0.814132 0.614308
O O8 0.611439 0.061228 0.909016
O O9 0.858370 0.343317 0.781461
O O10 0.000000 0.500000 0.500000
O O11 0.633377 0.830315 0.688235
O O12 0.405566 0.970196 0.299924
O O13 0.393022 0.618532 0.788904
O O14 0.304849 0.397235 0.633235
O O15 0.000000 0.000000 0.500000
#
# Coordination Sequence:
#
# PCOD9058137 Si02
#       7
#     2   2   2   2   2   2   2
#     4  11  24  46  73  99 141 188 233 292 360 411
#     4  11  25  41  73 106 141 194 226 286 357 411
#     4  12  28  44  74 108 139 186 236 296 358 421
#     4  11  22  44  72 100 146 183 233 288 350 414
#     4  11  22  48  72 101 140 187 237 292 351 422
#     4  12  25  47  72 105 139 186 237 287 346 428
#     4  12  23  48  71 100 147 184 234 290 349 416
#
# _framework density 23.453147000000001
#
# number of rings (size 3 to 8) (size 9 to 14) (size 15 to 20)
#    0.000    0.571    5.714    2.143    2.000    1.714 
#    5.143    0.000    0.000    0.000    0.000    0.000 
#    0.000    0.000    0.000    0.000    0.000    0.000 
#
# Total GULP energy -78284.154402 kJ/mol
# GULP energy per Si atom -5591.725314 kJ/mol
# Density = 2.339977 g / cm^3
# Si number density = 23.453147 Si / 1000 Ang^3
#
#
#
# Elastic Constant Matrix: (Units=GPa)
#
#
# Indices 1 2 3 4 5 6 
#
# 1 127.0424 26.7505 28.5704 6.3053 2.5976 -6.3900
# 2 26.7505 63.6721 6.0620 -1.2448 11.2258 -2.0712
# 3 28.5704 6.0620 79.4779 -8.4641 0.9103 -6.8884
# 4 6.3053 -1.2448 -8.4641 19.7614 -1.0690 2.0427
# 5 2.5976 11.2258 0.9103 -1.0690 44.1093 4.0026
# 6 -6.3900 -2.0712 -6.8884 2.0427 4.0026 33.4523
#
#
#
# Elastic Compliance Matrix: (Units=1/GPa)
#
#
# Indices 1 2 3 4 5 6 
#
# 1 0.009819 -0.003882 -0.003675 -0.005057 0.000258 0.001156
# 2 -0.003882 0.018152 0.000371 0.002214 -0.004422 0.000853
# 3 -0.003675 0.000371 0.014827 0.007335 -0.000183 0.001948
# 4 -0.005057 0.002214 0.007335 0.055860 0.001198 -0.002873
# 5 0.000258 -0.004422 -0.000183 0.001198 0.024106 -0.003220
# 6 0.001156 0.000853 0.001948 -0.002873 -0.003220 0.031129
#
#
# Mechanical properties :
#
#
# Convention : Reuss Voigt Hill
#
# Bulk Modulus (GPa) = 35.17848 43.66201 39.42025
# Shear Modulus (GPa) = 28.13093 33.38524 30.75809
#
# Velocity S-wave (km/s) = 3.46707 3.77701 3.62535
# Velocity P-wave (km/s) = 5.57310 6.13825 5.86249
#
# Compressibility (1/GPa) = 0.02842647
#
# Stress axis : x y z
#
# Youngs Moduli (GPa) = 101.84153 55.09084 67.44465
#
# Poissons Ratio (x) = 0.21387 0.24786
# Poissons Ratio (y) = 0.39537 -0.02505
# Poissons Ratio (z) = 0.37426 -0.02046
#
# Static dielectric constant tensor:
#      x y z
#    x 1.905940 -0.009400 -0.030810 
#    y -0.009400 1.935540 0.010500 
#    z -0.030810 0.010500 1.844100 
# 
# From -- ./inp_files/471829.got.cif
#   From: 2010.05.17/outbox.cif.g08.bks.cpg/sg2_236_cif.got.tgz:471829.got - 2010.06.03 11:33:40.
