data_PCOD9058448
_publ_section_title
;
Structure prediction by ZEFSAII (Michael W. Deem and Ramdas Pophale) SiO2 
 PCOD9058448
Probable space group: P -1
;
_chemical_formula_sum "Si O2"
_cell_formula_units_Z 14
_cell_length_a 15.076706
_cell_length_b 5.897512
_cell_length_c 15.830617
_cell_angle_alpha 86.923612
_cell_angle_beta 153.113409
_cell_angle_gamma 99.813852
_cell_volume 611.760085
_symmetry_space_group_name_H-M "P -1"
_symmetry_group_IT_number 2
_symmetry_cell_setting 'triclinic'
loop_
_space_group_symop_operation_xyz
x,y,z
-x,-y,-z
loop_
_atom_site_type_symbol
_atom_site_label
_atom_site_fract_x
_atom_site_fract_y
_atom_site_fract_z
Si Si1 0.576944 0.476934 0.795997
Si Si2 0.110355 0.727106 0.646443
Si Si3 0.094386 0.676291 0.824122
Si Si4 0.744962 0.949273 0.375358
Si Si5 0.168692 0.362617 0.132698
Si Si6 0.069905 0.013416 0.199094
Si Si7 0.271586 0.740280 0.497997
O O1 0.429206 0.250649 0.722092
O O2 0.632490 0.463455 0.744664
O O3 0.483870 0.701786 0.711944
O O4 0.786248 0.480362 0.020705
O O5 0.182090 0.697924 0.803155
O O6 0.000000 0.500000 0.500000
O O7 0.924277 0.837942 0.505235
O O8 0.285202 0.905869 0.736286
O O9 0.072791 0.901581 0.854626
O O10 0.861332 0.524038 0.623879
O O11 0.821567 0.149583 0.506130
O O12 0.190242 0.236558 0.240861
O O13 0.000000 0.500000 0.000000
O O14 0.075852 0.159534 0.988351
O O15 0.231309 0.892542 0.381947
#
# Coordination Sequence:
#
# PCOD9058448 Si02
#       7
#     2   2   2   2   2   2   2
#     4  12  26  42  73 107 142 180 240 299 343 428
#     4  11  22  45  74 102 143 187 235 290 352 424
#     4  12  24  46  74 101 145 186 232 296 356 413
#     4  11  24  42  72 105 141 186 234 291 358 416
#     4  11  24  45  72 106 144 180 244 291 351 421
#     4  11  23  44  74 100 139 198 228 289 363 408
#     4  12  23  46  68 106 144 184 239 288 356 417
#
# _framework density 22.884791
#
# number of rings (size 3 to 8) (size 9 to 14) (size 15 to 20)
#    0.000    0.571    7.143    0.000    2.000    1.143 
#    0.000    7.857    0.000    0.000    0.000    0.000 
#    0.000    0.000    0.000    0.000    0.000    0.000 
#
# Total GULP energy -78053.834179 kJ/mol
# GULP energy per Si atom -5575.273870 kJ/mol
# Density = 2.283270 g / cm^3
# Si number density = 22.884791 Si / 1000 Ang^3
#
#
#
# Elastic Constant Matrix: (Units=GPa)
#
#
# Indices 1 2 3 4 5 6 
#
# 1 137.3956 63.7166 29.5757 3.6268 -9.2279 27.5314
# 2 63.7166 98.5529 30.0514 -23.1837 -11.9764 9.1174
# 3 29.5757 30.0514 50.9970 -17.2257 -13.6817 -0.8987
# 4 3.6268 -23.1837 -17.2257 38.0491 7.7907 -14.4446
# 5 -9.2279 -11.9764 -13.6817 7.7907 34.5555 1.1535
# 6 27.5314 9.1174 -0.8987 -14.4446 1.1535 79.5916
#
#
#
# Elastic Compliance Matrix: (Units=1/GPa)
#
#
# Indices 1 2 3 4 5 6 
#
# 1 0.015387 -0.010182 -0.007446 -0.013807 0.000970 -0.006760
# 2 -0.010182 0.020047 -0.000938 0.014074 0.000559 0.003761
# 3 -0.007446 -0.000938 0.031471 0.015216 0.006526 0.005705
# 4 -0.013807 0.014074 0.015216 0.048542 -0.004136 0.012205
# 5 0.000970 0.000559 0.006526 -0.004136 0.032960 -0.001554
# 6 -0.006760 0.003761 0.005705 0.012205 -0.001554 0.016774
#
#
# Mechanical properties :
#
#
# Convention : Reuss Voigt Hill
#
# Bulk Modulus (GPa) = 33.58795 59.29254 46.44024
# Shear Modulus (GPa) = 23.55855 41.34603 32.45229
#
# Velocity S-wave (km/s) = 3.21197 4.25514 3.76982
# Velocity P-wave (km/s) = 5.33522 7.07863 6.26784
#
# Compressibility (1/GPa) = 0.02977258
#
# Stress axis : x y z
#
# Youngs Moduli (GPa) = 64.98843 49.88364 31.77549
#
# Poissons Ratio (x) = 0.50793 0.23660
# Poissons Ratio (y) = 0.66174 0.02979
# Poissons Ratio (z) = 0.48391 0.04677
#
# Static dielectric constant tensor:
#      x y z
#    x 1.913660 0.053120 -0.024380 
#    y 0.053120 1.911430 0.016820 
#    z -0.024380 0.016820 1.889730 
# 
# From -- ./inp_files/45876.got.cif
#   From: 2010.05.17/outbox.cif.g08.bks.cpg/sg2_23_cif.got.tgz:45876.got - 2010.06.03 11:33:40.
