data_PCOD9058834
_publ_section_title
;
Structure prediction by ZEFSAII (Michael W. Deem and Ramdas Pophale) SiO2 
 PCOD9058834
Probable space group: P -1
;
_chemical_formula_sum "Si O2"
_cell_formula_units_Z 14
_cell_length_a 15.264075
_cell_length_b 15.254170
_cell_length_c 15.193777
_cell_angle_alpha 19.387565
_cell_angle_beta 143.536059
_cell_angle_gamma 143.376293
_cell_volume 680.415295
_symmetry_space_group_name_H-M "P -1"
_symmetry_group_IT_number 2
_symmetry_cell_setting 'triclinic'
loop_
_space_group_symop_operation_xyz
x,y,z
-x,-y,-z
loop_
_atom_site_type_symbol
_atom_site_label
_atom_site_fract_x
_atom_site_fract_y
_atom_site_fract_z
Si Si1 0.691743 0.787261 0.005968
Si Si2 0.118744 0.761343 0.745567
Si Si3 0.074908 0.388293 0.751063
Si Si4 0.113538 0.981773 0.908092
Si Si5 0.099002 0.826527 0.856120
Si Si6 0.507158 0.183626 0.418886
Si Si7 0.202690 0.856714 0.535207
O O1 0.826121 0.812829 0.018161
O O2 0.577018 0.501122 0.166531
O O3 0.769805 0.791667 0.159582
O O4 0.612488 0.038950 0.700981
O O5 0.190601 0.822053 0.843368
O O6 0.218713 0.768041 0.732820
O O7 0.013279 0.974052 0.442465
O O8 0.007496 0.468667 0.937420
O O9 0.192897 0.620997 0.678457
O O10 0.000000 0.500000 0.500000
O O11 0.948752 0.253754 0.847432
O O12 0.176119 0.901817 0.941636
O O13 0.960584 0.075805 0.672030
O O14 0.500000 0.000000 0.500000
O O15 0.336330 0.113606 0.381520
#
# Coordination Sequence:
#
# PCOD9058834 Si02
#       7
#     2   2   2   2   2   2   2
#     4  12  26  40  57  82 124 156 196 234 293 342
#     4   9  18  34  55  89 113 145 182 251 289 343
#     4  12  22  37  58  90 118 155 196 248 282 346
#     4  11  23  38  62  88 116 155 196 246 291 349
#     4   9  18  33  58  85 118 138 189 240 304 332
#     4  12  26  41  56  82 120 164 193 239 283 349
#     4  11  23  37  63  84 119 152 205 235 295 336
#
# _framework density 20.575669999999999
#
# number of rings (size 3 to 8) (size 9 to 14) (size 15 to 20)
#    0.000    1.143    4.286    2.571    2.000    0.000 
#    0.000    0.000    0.000    1.714    0.000    0.000 
#    0.000    0.000    0.000    0.000    0.000    0.000 
#
# Total GULP energy -78149.533750 kJ/mol
# GULP energy per Si atom -5582.109554 kJ/mol
# Density = 2.052884 g / cm^3
# Si number density = 20.575670 Si / 1000 Ang^3
#
#
#
# Elastic Constant Matrix: (Units=GPa)
#
#
# Indices 1 2 3 4 5 6 
#
# 1 71.7084 46.5484 -6.4024 8.8151 -24.0329 -41.4978
# 2 46.5484 94.9031 4.0206 -2.5525 -13.3143 -21.2108
# 3 -6.4024 4.0206 71.6965 -9.9326 -5.9497 -3.7777
# 4 8.8151 -2.5525 -9.9326 29.0599 1.1347 -5.2352
# 5 -24.0329 -13.3143 -5.9497 1.1347 30.9520 6.8367
# 6 -41.4978 -21.2108 -3.7777 -5.2352 6.8367 41.1276
#
#
#
# Elastic Compliance Matrix: (Units=1/GPa)
#
#
# Indices 1 2 3 4 5 6 
#
# 1 0.082180 -0.020608 0.013869 -0.012040 0.043747 0.064761
# 2 -0.020608 0.017671 -0.003233 0.005139 -0.006964 -0.010165
# 3 0.013869 -0.003233 0.017311 0.003335 0.009774 0.012716
# 4 -0.012040 0.005139 0.003335 0.039406 -0.007287 -0.002964
# 5 0.043747 -0.006964 0.009774 -0.007287 0.058629 0.030774
# 6 0.064761 -0.010165 0.012716 -0.002964 0.030774 0.080091
#
#
# Mechanical properties :
#
#
# Convention : Reuss Voigt Hill
#
# Bulk Modulus (GPa) = 10.28613 36.29346 23.28979
# Shear Modulus (GPa) = 14.38283 33.17068 23.77676
#
# Velocity S-wave (km/s) = 2.64677 4.01949 3.40306
# Velocity P-wave (km/s) = 3.78821 6.26251 5.17540
#
# Compressibility (1/GPa) = 0.09721831
#
# Stress axis : x y z
#
# Youngs Moduli (GPa) = 12.16843 56.58951 57.76805
#
# Poissons Ratio (x) = 1.16618 -0.80118
# Poissons Ratio (y) = 0.25076 0.18675
# Poissons Ratio (z) = -0.16876 0.18294
#
# Static dielectric constant tensor:
#      x y z
#    x 1.812310 -0.069000 -0.010010 
#    y -0.069000 1.790360 0.026920 
#    z -0.010010 0.026920 1.801720 
# 
# From -- ./inp_files/34353.got.cif
#   From: 2010.05.17/outbox.cif.g08.bks.cpg/sg2_18_cif.got.tgz:34353.got - 2010.06.03 11:33:40.
