data_PCOD9058840
_publ_section_title
;
Structure prediction by ZEFSAII (Michael W. Deem and Ramdas Pophale) SiO2 
 PCOD9058840
Probable space group: P -1
;
_chemical_formula_sum "Si O2"
_cell_formula_units_Z 16
_cell_length_a 20.118954
_cell_length_b 5.516614
_cell_length_c 9.511965
_cell_angle_alpha 97.614160
_cell_angle_beta 133.060338
_cell_angle_gamma 57.646645
_cell_volume 603.445233
_symmetry_space_group_name_H-M "P -1"
_symmetry_group_IT_number 2
_symmetry_cell_setting 'triclinic'
loop_
_space_group_symop_operation_xyz
x,y,z
-x,-y,-z
loop_
_atom_site_type_symbol
_atom_site_label
_atom_site_fract_x
_atom_site_fract_y
_atom_site_fract_z
Si Si1 0.312802 0.337205 0.288151
Si Si2 0.593831 0.129058 0.140148
Si Si3 0.233993 0.875552 0.402872
Si Si4 0.498409 0.270431 0.378516
Si Si5 0.022708 0.690189 0.441659
Si Si6 0.672100 0.220008 0.003788
Si Si7 0.157484 0.196188 0.032131
Si Si8 0.246177 0.527023 0.645211
O O1 0.309534 0.593915 0.382930
O O2 0.405697 0.221273 0.291429
O O3 0.375245 0.046293 0.459783
O O4 0.187414 0.437188 0.080765
O O5 0.622204 0.798275 0.203866
O O6 0.683950 0.106498 0.376411
O O7 0.447835 0.444531 0.174442
O O8 0.645499 0.031575 0.046252
O O9 0.192120 0.737245 0.442385
O O10 0.154497 0.138377 0.190435
O O11 0.500000 0.500000 0.500000
O O12 0.000000 0.500000 0.500000
O O13 0.154070 0.484170 0.564054
O O14 0.947423 0.745335 0.199977
O O15 0.000000 0.000000 0.500000
O O16 0.735142 0.074871 0.934514
O O17 0.747183 0.274187 0.212080
O O18 0.500000 0.500000 0.000000
#
# Coordination Sequence:
#
# PCOD9058840 Si02
#       8
#     2   2   2   2   2   2   2   2
#     4  11  24  39  67 105 149 195 244 315 381 458
#     4  11  28  44  70 104 157 207 253 315 390 466
#     4  11  26  46  69 104 157 193 260 310 394 469
#     4  11  23  37  64 104 148 192 250 308 380 455
#     4  12  29  52  88 120 153 204 266 335 405 467
#     4  11  24  40  71 104 146 189 254 311 377 462
#     4  12  25  47  78 112 149 199 261 326 390 468
#     4  11  27  50  71 109 154 200 258 325 392 472
#
# _framework density 26.514420000000001
#
# number of rings (size 3 to 8) (size 9 to 14) (size 15 to 20)
#    0.000    0.750    3.750    1.500   14.000    1.500 
#    0.000    2.500    0.000    0.000    0.000    0.000 
#    0.000    0.000    0.000    0.000    0.000    0.000 
#
# Total GULP energy -89241.390345 kJ/mol
# GULP energy per Si atom -5577.586897 kJ/mol
# Density = 2.645407 g / cm^3
# Si number density = 26.514420 Si / 1000 Ang^3
#
#
#
# Elastic Constant Matrix: (Units=GPa)
#
#
# Indices 1 2 3 4 5 6 
#
# 1 114.3460 2.3464 39.3864 -8.0716 -26.1642 23.1418
# 2 2.3464 77.7858 23.3836 12.5600 -0.2071 8.7945
# 3 39.3864 23.3836 159.1626 9.8482 -33.0759 8.8063
# 4 -8.0716 12.5600 9.8482 42.9686 1.9813 -1.4398
# 5 -26.1642 -0.2071 -33.0759 1.9813 40.2236 -10.9522
# 6 23.1418 8.7945 8.8063 -1.4398 -10.9522 31.4846
#
#
#
# Elastic Compliance Matrix: (Units=1/GPa)
#
#
# Indices 1 2 3 4 5 6 
#
# 1 0.011878 0.000669 -0.001915 0.002052 0.004194 -0.006829
# 2 0.000669 0.014700 -0.002364 -0.003677 -0.002618 -0.005016
# 3 -0.001915 -0.002364 0.008414 -0.001825 0.006242 0.001802
# 4 0.002052 -0.003677 -0.001825 0.025233 -0.001221 0.000758
# 5 0.004194 -0.002618 0.006242 -0.001221 0.034948 0.008003
# 6 -0.006829 -0.005016 0.001802 0.000758 0.008003 0.040497
#
#
# Mechanical properties :
#
#
# Convention : Reuss Voigt Hill
#
# Bulk Modulus (GPa) = 36.00709 53.50302 44.75506
# Shear Modulus (GPa) = 32.86275 42.01388 37.43831
#
# Velocity S-wave (km/s) = 3.52437 3.98498 3.76173
# Velocity P-wave (km/s) = 5.49284 6.43398 5.98195
#
# Compressibility (1/GPa) = 0.02777231
#
# Stress axis : x y z
#
# Youngs Moduli (GPa) = 84.18912 68.02657 118.84255
#
# Poissons Ratio (x) = -0.04553 0.22760
# Poissons Ratio (y) = -0.05635 0.28098
# Poissons Ratio (z) = 0.16124 0.16083
#
# Static dielectric constant tensor:
#      x y z
#    x 2.251520 0.028530 -0.016380 
#    y 0.028530 2.245300 -0.025750 
#    z -0.016380 -0.025750 2.113780 
# 
# From -- ./inp_files/323911.got.cif
#   From: 2010.05.17/outbox.cif.g08.bks.cpg/sg2_162_cif.got.tgz:323911.got - 2010.06.03 11:33:40.
