data_PCOD9058792
_publ_section_title
;
Structure prediction by ZEFSAII (Michael W. Deem and Ramdas Pophale) SiO2 
 PCOD9058792
Probable space group: P -1
;
_chemical_formula_sum "Si O2"
_cell_formula_units_Z 13
_cell_length_a 9.771956
_cell_length_b 10.592508
_cell_length_c 9.272910
_cell_angle_alpha 136.470329
_cell_angle_beta 136.413735
_cell_angle_gamma 49.826051
_cell_volume 440.987666
_symmetry_space_group_name_H-M "P -1"
_symmetry_group_IT_number 2
_symmetry_cell_setting 'triclinic'
loop_
_space_group_symop_operation_xyz
x,y,z
-x,-y,-z
loop_
_atom_site_type_symbol
_atom_site_label
_atom_site_fract_x
_atom_site_fract_y
_atom_site_fract_z
Si Si1 0.875331 0.714634 0.051735
Si Si2 0.087467 0.828485 0.031966
Si Si3 0.500000 0.500000 0.500000
Si Si4 0.259285 0.402618 0.725656
Si Si5 0.466597 0.804234 0.490059
Si Si6 0.476626 0.820154 0.007015
Si Si7 0.901300 0.272118 0.494148
O O1 0.940392 0.776940 0.999659
O O2 0.960895 0.815327 0.335107
O O3 0.631120 0.746723 0.927468
O O4 0.000000 0.500000 0.000000
O O5 0.271809 0.881742 0.303063
O O6 0.184983 0.628902 0.862030
O O7 0.000000 0.000000 0.000000
O O8 0.405603 0.661360 0.437105
O O9 0.724804 0.456697 0.555719
O O10 0.355196 0.304687 0.571466
O O11 0.427574 0.334045 0.925407
O O12 0.934767 0.672900 0.438992
O O13 0.509304 0.982020 0.753361
O O14 0.750013 0.163261 0.211787
#
# Coordination Sequence:
#
# PCOD9058792 Si02
#       7
#     2   2   1   2   2   2   2
#     4  11  22  53  94 136 179 239 322 386 462 562
#     4  12  27  56  96 139 188 249 315 398 478 564
#     4  12  26  52  92 126 184 246 304 386 466 554
#     4  11  27  59  90 132 192 242 314 389 477 565
#     4  12  29  56  87 140 191 245 315 387 479 578
#     4  11  26  52  94 137 184 242 315 390 473 568
#     4  11  24  50  96 132 175 252 305 386 474 551
#
# _framework density 29.479282000000001
#
# number of rings (size 3 to 8) (size 9 to 14) (size 15 to 20)
#    0.000    0.615    4.615    2.769    0.000    3.692 
#   16.615    0.000    0.000    2.769    0.000    1.077 
#    0.000    0.000    0.000    0.000    0.000    0.000 
#
# Total GULP energy -72982.906341 kJ/mol
# GULP energy per Si atom -5614.069719 kJ/mol
# Density = 2.941219 g / cm^3
# Si number density = 29.479282 Si / 1000 Ang^3
#
#
#
# Elastic Constant Matrix: (Units=GPa)
#
#
# Indices 1 2 3 4 5 6 
#
# 1 272.2552 83.3730 49.6849 2.3347 -15.8079 18.0579
# 2 83.3730 245.0905 86.5481 -13.6756 -17.0113 21.6975
# 3 49.6849 86.5481 137.2129 5.7444 -7.8818 7.5732
# 4 2.3347 -13.6756 5.7444 75.2293 -11.9833 -6.5287
# 5 -15.8079 -17.0113 -7.8818 -11.9833 68.2170 -11.6195
# 6 18.0579 21.6975 7.5732 -6.5287 -11.6195 41.9921
#
#
#
# Elastic Compliance Matrix: (Units=1/GPa)
#
#
# Indices 1 2 3 4 5 6 
#
# 1 0.004235 -0.001064 -0.000769 -0.000296 0.000393 -0.001070
# 2 -0.001064 0.005850 -0.003229 0.001338 0.000810 -0.001551
# 3 -0.000769 -0.003229 0.009651 -0.001313 -0.000094 0.000028
# 4 -0.000296 0.001338 -0.001313 0.014381 0.003111 0.002770
# 5 0.000393 0.000810 -0.000094 0.003111 0.016238 0.004406
# 6 -0.001070 -0.001551 0.000028 0.002770 0.004406 0.026721
#
#
# Mechanical properties :
#
#
# Convention : Reuss Voigt Hill
#
# Bulk Modulus (GPa) = 104.01302 121.53007 112.77155
# Shear Modulus (GPa) = 55.30733 66.08452 60.69593
#
# Velocity S-wave (km/s) = 4.33615 4.73983 4.54247
# Velocity P-wave (km/s) = 7.77365 8.44214 8.11478
#
# Compressibility (1/GPa) = 0.00961418
#
# Stress axis : x y z
#
# Youngs Moduli (GPa) = 236.10361 170.92932 103.61832
#
# Poissons Ratio (x) = 0.18185 0.07963
# Poissons Ratio (y) = 0.25119 0.33456
# Poissons Ratio (z) = 0.18145 0.55189
#
# Static dielectric constant tensor:
#      x y z
#    x 2.256670 0.000260 0.079630 
#    y 0.000260 2.107720 0.026490 
#    z 0.079630 0.026490 2.622690 
# 
# From -- ./inp_files/245643.got.cif
#   From: 2010.05.17/outbox.cif.g08.bks.cpg/sg2_123_cif.got.tgz:245643.got - 2010.06.03 11:33:40.
