data_PCOD9058442
_publ_section_title
;
Structure prediction by ZEFSAII (Michael W. Deem and Ramdas Pophale) SiO2 
 PCOD9058442
Probable space group: P -1
;
_chemical_formula_sum "Si O2"
_cell_formula_units_Z 16
_cell_length_a 9.781125
_cell_length_b 19.455978
_cell_length_c 19.713341
_cell_angle_alpha 156.851309
_cell_angle_beta 28.501078
_cell_angle_gamma 144.422240
_cell_volume 703.448074
_symmetry_space_group_name_H-M "P -1"
_symmetry_group_IT_number 2
_symmetry_cell_setting 'triclinic'
loop_
_space_group_symop_operation_xyz
x,y,z
-x,-y,-z
loop_
_atom_site_type_symbol
_atom_site_label
_atom_site_fract_x
_atom_site_fract_y
_atom_site_fract_z
Si Si1 0.474842 0.568870 0.377365
Si Si2 0.465444 0.886911 0.845801
Si Si3 0.127014 0.377423 0.617244
Si Si4 0.395234 0.945814 0.206296
Si Si5 0.880407 0.708739 0.793354
Si Si6 0.622140 0.087452 0.594700
Si Si7 0.820375 0.802047 0.355257
Si Si8 0.878682 0.687718 0.921876
O O1 0.694025 0.567293 0.343245
O O2 0.292378 0.391460 0.282076
O O3 0.650030 0.623576 0.283192
O O4 0.217852 0.704925 0.627133
O O5 0.641965 0.709348 0.611682
O O6 0.137446 0.828606 0.927426
O O7 0.577499 0.991956 0.826291
O O8 0.500000 0.000000 0.000000
O O9 0.893074 0.220516 0.588072
O O10 0.973771 0.540611 0.799192
O O11 0.156658 0.791060 0.182798
O O12 0.253395 0.094766 0.449167
O O13 0.706913 0.885490 0.038388
O O14 0.837415 0.609725 0.793934
O O15 0.500000 0.000000 0.500000
O O16 0.699795 0.925580 0.461779
O O17 0.388183 0.207959 0.840550
#
# Coordination Sequence:
#
# PCOD9058442 Si02
#       8
#     2   2   2   2   2   2   2   2
#     4  11  26  45  72 103 141 187 231 296 355 422
#     4  12  26  44  73 106 138 190 238 291 358 422
#     4  12  25  50  69 101 149 189 236 289 358 432
#     4  11  23  45  72  99 138 181 240 295 346 420
#     4  11  26  44  70 109 139 180 240 292 357 418
#     4  12  27  47  71 107 142 188 241 296 355 423
#     4  11  22  45  73  96 139 184 238 292 349 414
#     4  12  27  45  71 104 144 192 232 296 360 420
#
# _framework density 22.745104000000001
#
# number of rings (size 3 to 8) (size 9 to 14) (size 15 to 20)
#    0.000    0.500    5.000    2.250    5.250    2.500 
#    0.000    0.000    0.000    0.000    0.000    0.000 
#    0.000    0.000    0.000    0.000    0.000    0.000 
#
# Total GULP energy -89481.527161 kJ/mol
# GULP energy per Si atom -5592.595448 kJ/mol
# Density = 2.269334 g / cm^3
# Si number density = 22.745104 Si / 1000 Ang^3
#
#
#
# Elastic Constant Matrix: (Units=GPa)
#
#
# Indices 1 2 3 4 5 6 
#
# 1 131.4140 44.7222 28.8880 -3.8869 14.4820 3.4480
# 2 44.7222 92.4050 17.5003 -17.4647 -0.8399 2.4908
# 3 28.8880 17.5003 65.0219 -17.0413 -25.6055 0.4033
# 4 -3.8869 -17.4647 -17.0413 35.3305 4.1534 -5.7808
# 5 14.4820 -0.8399 -25.6055 4.1534 40.2012 1.7128
# 6 3.4480 2.4908 0.4033 -5.7808 1.7128 39.2878
#
#
#
# Elastic Compliance Matrix: (Units=1/GPa)
#
#
# Indices 1 2 3 4 5 6 
#
# 1 0.012383 -0.005188 -0.009223 -0.004633 -0.009926 -0.000912
# 2 -0.005188 0.014445 0.001055 0.006904 0.002110 0.000453
# 3 -0.009223 0.001055 0.030903 0.012063 0.021728 0.001253
# 4 -0.004633 0.006904 0.012063 0.037219 0.005435 0.005085
# 5 -0.009926 0.002110 0.021728 0.005435 0.041794 -0.000508
# 6 -0.000912 0.000453 0.001253 0.005085 -0.000508 0.026262
#
#
# Mechanical properties :
#
#
# Convention : Reuss Voigt Hill
#
# Bulk Modulus (GPa) = 32.23758 52.34019 42.28889
# Shear Modulus (GPa) = 24.99266 36.14594 30.56930
#
# Velocity S-wave (km/s) = 3.31843 3.99077 3.67003
# Velocity P-wave (km/s) = 5.37465 6.65557 6.04911
#
# Compressibility (1/GPa) = 0.03101970
#
# Stress axis : x y z
#
# Youngs Moduli (GPa) = 80.75462 69.22839 32.35883
#
# Poissons Ratio (x) = 0.35915 0.29844
# Poissons Ratio (y) = 0.41894 -0.03413
# Poissons Ratio (z) = 0.74478 -0.07301
#
# Static dielectric constant tensor:
#      x y z
#    x 1.878390 0.039470 0.020760 
#    y 0.039470 1.920310 0.026820 
#    z 0.020760 0.026820 1.861850 
# 
# From -- ./inp_files/562045.got.cif
#   From: 2010.05.17/outbox.cif.g08.bks.cpg/sg2_282_cif.got.tgz:562045.got - 2010.06.03 11:33:40.
