data_PCOD9058744
_publ_section_title
;
Structure prediction by ZEFSAII (Michael W. Deem and Ramdas Pophale) SiO2 
 PCOD9058744
Probable space group: P -1
;
_chemical_formula_sum "Si O2"
_cell_formula_units_Z 14
_cell_length_a 9.344254
_cell_length_b 15.375853
_cell_length_c 11.822812
_cell_angle_alpha 152.815616
_cell_angle_beta 114.162243
_cell_angle_gamma 51.538953
_cell_volume 556.289124
_symmetry_space_group_name_H-M "P -1"
_symmetry_group_IT_number 2
_symmetry_cell_setting 'triclinic'
loop_
_space_group_symop_operation_xyz
x,y,z
-x,-y,-z
loop_
_atom_site_type_symbol
_atom_site_label
_atom_site_fract_x
_atom_site_fract_y
_atom_site_fract_z
Si Si1 0.790371 0.869958 0.886147
Si Si2 0.033420 0.191780 0.699175
Si Si3 0.342582 0.448180 0.878982
Si Si4 0.754360 0.498706 0.346211
Si Si5 0.572800 0.290029 0.144246
Si Si6 0.187082 0.343637 0.116668
Si Si7 0.776881 0.856090 0.534169
O O1 0.717204 0.749803 0.644642
O O2 0.754894 0.819377 0.942196
O O3 0.029612 0.707632 0.769394
O O4 0.687608 0.136937 0.117423
O O5 0.134895 0.137741 0.548992
O O6 0.160299 0.214688 0.857418
O O7 0.000000 0.000000 0.500000
O O8 0.808953 0.437932 0.931996
O O9 0.244221 0.558629 0.851537
O O10 0.387268 0.189621 0.585109
O O11 0.500000 0.500000 0.000000
O O12 0.594968 0.492020 0.353050
O O13 0.686645 0.091794 0.851175
O O14 0.351654 0.376884 0.182709
O O15 0.974591 0.610471 0.369690
#
# Coordination Sequence:
#
# PCOD9058744 Si02
#       7
#     2   2   2   2   2   2   2
#     4  11  22  48  67  99 147 179 236 291 342 416
#     4  11  25  44  66 102 141 185 231 288 355 417
#     4  11  23  42  71 103 137 183 230 288 354 415
#     4  11  23  43  72 103 139 184 234 287 355 415
#     4  12  26  43  74 104 133 190 235 284 354 416
#     4  11  25  46  69 101 140 181 236 290 347 418
#     4  11  24  47  69 101 146 183 226 298 350 413
#
# _framework density 25.166768000000001
#
# number of rings (size 3 to 8) (size 9 to 14) (size 15 to 20)
#    0.000    0.857    4.286    4.286    6.000    1.143 
#    0.000    0.000    0.000    0.000    0.000    0.000 
#    0.000    0.000    0.000    0.000    0.000    0.000 
#
# Total GULP energy -78436.743439 kJ/mol
# GULP energy per Si atom -5602.624531 kJ/mol
# Density = 2.510949 g / cm^3
# Si number density = 25.166768 Si / 1000 Ang^3
#
#
#
# Elastic Constant Matrix: (Units=GPa)
#
#
# Indices 1 2 3 4 5 6 
#
# 1 190.8622 46.6058 18.2169 -18.0107 13.2232 12.8910
# 2 46.6058 75.0324 19.1556 -19.1625 1.2983 12.5118
# 3 18.2169 19.1556 56.8720 -15.5008 -7.8563 10.4561
# 4 -18.0107 -19.1625 -15.5008 29.5097 5.8559 0.3291
# 5 13.2232 1.2983 -7.8563 5.8559 48.7548 -2.2536
# 6 12.8910 12.5118 10.4561 0.3291 -2.2536 43.0554
#
#
#
# Elastic Compliance Matrix: (Units=1/GPa)
#
#
# Indices 1 2 3 4 5 6 
#
# 1 0.006463 -0.003153 -0.000555 0.002024 -0.002048 -0.001007
# 2 -0.003153 0.019018 -0.002199 0.009585 -0.001351 -0.004192
# 3 -0.000555 -0.002199 0.022263 0.009493 0.002446 -0.004546
# 4 0.002024 0.009585 0.009493 0.047448 -0.005266 -0.006335
# 5 -0.002048 -0.001351 0.002446 -0.005266 0.022203 0.001614
# 6 -0.001007 -0.004192 -0.004546 -0.006335 0.001614 0.025983
#
#
# Mechanical properties :
#
#
# Convention : Reuss Voigt Hill
#
# Bulk Modulus (GPa) = 27.83125 54.52480 41.17802
# Shear Modulus (GPa) = 29.91015 40.18320 35.04667
#
# Velocity S-wave (km/s) = 3.45117 4.00018 3.73577
# Velocity P-wave (km/s) = 5.19264 6.56107 5.91655
#
# Compressibility (1/GPa) = 0.03593084
#
# Stress axis : x y z
#
# Youngs Moduli (GPa) = 154.72677 52.58287 44.91808
#
# Poissons Ratio (x) = 0.16578 0.02491
# Poissons Ratio (y) = 0.48781 0.09878
# Poissons Ratio (z) = 0.08580 0.11563
#
# Static dielectric constant tensor:
#      x y z
#    x 1.970990 0.002840 -0.026690 
#    y 0.002840 2.020010 0.005270 
#    z -0.026690 0.005270 2.014260 
# 
# From -- ./inp_files/169903.got.cif
#   From: 2010.05.17/outbox.cif.g08.bks.cpg/sg2_85_cif.got.tgz:169903.got - 2010.06.03 11:33:40.
