data_PCOD9058832
_publ_section_title
;
Structure prediction by ZEFSAII (Michael W. Deem and Ramdas Pophale) SiO2 
 PCOD9058832
Probable space group: P -1
;
_chemical_formula_sum "Si O2"
_cell_formula_units_Z 14
_cell_length_a 9.855335
_cell_length_b 13.773590
_cell_length_c 19.368038
_cell_angle_alpha 33.264296
_cell_angle_beta 43.115458
_cell_angle_gamma 28.133270
_cell_volume 679.687196
_symmetry_space_group_name_H-M "P -1"
_symmetry_group_IT_number 2
_symmetry_cell_setting 'triclinic'
loop_
_space_group_symop_operation_xyz
x,y,z
-x,-y,-z
loop_
_atom_site_type_symbol
_atom_site_label
_atom_site_fract_x
_atom_site_fract_y
_atom_site_fract_z
Si Si1 0.104805 0.606010 0.938087
Si Si2 0.205726 0.186736 0.692561
Si Si3 0.458653 0.851871 0.152832
Si Si4 0.655397 0.585184 0.891799
Si Si5 0.558271 0.462391 0.758407
Si Si6 0.409038 0.949505 0.495272
Si Si7 0.922698 0.522478 0.298481
O O1 0.410480 0.473578 0.874235
O O2 0.135609 0.542560 0.044635
O O3 0.861868 0.912070 0.838685
O O4 0.000000 0.500000 0.000000
O O5 0.336901 0.182709 0.576244
O O6 0.194163 0.337636 0.668020
O O7 0.890748 0.304248 0.733588
O O8 0.426139 0.888248 0.806110
O O9 0.475443 0.666348 0.210350
O O10 0.679345 0.687481 0.232035
O O11 0.500000 0.000000 0.000000
O O12 0.832721 0.500201 0.806586
O O13 0.500000 0.500000 0.000000
O O14 0.393618 0.751540 0.632471
O O15 0.500000 0.000000 0.500000
O O16 0.107528 0.223785 0.416422
#
# Coordination Sequence:
#
# PCOD9058832 Si02
#       7
#     2   2   2   2   2   2   2
#     4  12  24  42  66  98 143 180 222 277 335 413
#     4  11  25  42  73 101 133 182 231 288 346 397
#     4  12  25  45  68 100 144 181 226 275 345 414
#     4  11  23  37  63 101 137 172 228 279 341 409
#     4  12  26  43  72 100 136 189 225 281 350 401
#     4  11  26  48  72 101 138 174 241 290 336 403
#     4  11  24  45  68 100 139 179 226 291 333 406
#
# _framework density 20.597711
#
# number of rings (size 3 to 8) (size 9 to 14) (size 15 to 20)
#    0.000    0.571    4.286    3.000    4.000    2.857 
#    0.000    1.429    0.000    0.000    0.000    0.000 
#    0.000    0.000    0.000    0.000    0.000    0.000 
#
# Total GULP energy -78274.530949 kJ/mol
# GULP energy per Si atom -5591.037925 kJ/mol
# Density = 2.055083 g / cm^3
# Si number density = 20.597711 Si / 1000 Ang^3
#
#
#
# Elastic Constant Matrix: (Units=GPa)
#
#
# Indices 1 2 3 4 5 6 
#
# 1 101.3282 27.1996 37.4069 -5.6765 10.2114 21.9341
# 2 27.1996 114.9400 31.9614 7.1061 14.4847 19.3688
# 3 37.4069 31.9614 90.7479 -8.8991 1.1245 9.7133
# 4 -5.6765 7.1061 -8.8991 34.8756 1.8158 3.4262
# 5 10.2114 14.4847 1.1245 1.8158 32.7403 -10.0113
# 6 21.9341 19.3688 9.7133 3.4262 -10.0113 37.2478
#
#
#
# Elastic Compliance Matrix: (Units=1/GPa)
#
#
# Indices 1 2 3 4 5 6 
#
# 1 0.014556 0.000336 -0.004734 0.002454 -0.007657 -0.009795
# 2 0.000336 0.011923 -0.003695 -0.002229 -0.007331 -0.007199
# 3 -0.004734 -0.003695 0.014417 0.003374 0.002859 0.001408
# 4 0.002454 -0.002229 0.003374 0.031026 -0.003100 -0.004853
# 5 -0.007657 -0.007331 0.002859 -0.003100 0.042113 0.019179
# 6 -0.009795 -0.007199 0.001408 -0.004853 0.019179 0.041593
#
#
# Mechanical properties :
#
#
# Convention : Reuss Voigt Hill
#
# Bulk Modulus (GPa) = 40.47052 55.57244 48.02148
# Shear Modulus (GPa) = 27.76980 35.00261 31.38621
#
# Velocity S-wave (km/s) = 3.67577 4.12678 3.90779
# Velocity P-wave (km/s) = 6.14050 7.05306 6.61254
#
# Compressibility (1/GPa) = 0.02470935
#
# Stress axis : x y z
#
# Youngs Moduli (GPa) = 68.69997 83.87224 69.36190
#
# Poissons Ratio (x) = -0.02817 0.32839
# Poissons Ratio (y) = -0.02307 0.25628
# Poissons Ratio (z) = 0.32526 0.30989
#
# Static dielectric constant tensor:
#      x y z
#    x 1.697830 -0.019570 0.022800 
#    y -0.019570 1.749600 0.010750 
#    z 0.022800 0.010750 1.751010 
# 
# From -- ./inp_files/46181.got.cif
#   From: 2010.05.17/outbox.cif.g08.bks.cpg/sg2_24_cif.got.tgz:46181.got - 2010.06.03 11:33:40.
