data_PCOD9058630
_publ_section_title
;
Structure prediction by ZEFSAII (Michael W. Deem and Ramdas Pophale) SiO2 
 PCOD9058630
Probable space group: P -1
;
_chemical_formula_sum "Si O2"
_cell_formula_units_Z 11
_cell_length_a 7.882244
_cell_length_b 11.364987
_cell_length_c 9.493651
_cell_angle_alpha 40.760595
_cell_angle_beta 105.608950
_cell_angle_gamma 128.470365
_cell_volume 399.296222
_symmetry_space_group_name_H-M "P -1"
_symmetry_group_IT_number 2
_symmetry_cell_setting 'triclinic'
loop_
_space_group_symop_operation_xyz
x,y,z
-x,-y,-z
loop_
_atom_site_type_symbol
_atom_site_label
_atom_site_fract_x
_atom_site_fract_y
_atom_site_fract_z
Si Si1 0.908200 0.620531 0.976783
Si Si2 0.019269 0.011402 0.161304
Si Si3 0.504552 0.820210 0.253537
Si Si4 0.500000 0.500000 0.000000
Si Si5 0.616705 0.945771 0.464967
Si Si6 0.027942 0.417876 0.429324
O O1 0.663095 0.445807 0.001340
O O2 0.812526 0.724556 0.964897
O O3 0.123994 0.813974 0.748814
O O4 0.979607 0.520247 0.197200
O O5 0.761903 0.908359 0.238674
O O6 0.082103 0.854286 0.363445
O O7 0.000000 0.000000 0.000000
O O8 0.454069 0.837325 0.387345
O O9 0.308662 0.564348 0.370504
O O10 0.500000 0.000000 0.000000
O O11 0.389422 0.263666 0.297276
O O12 0.500000 0.000000 0.500000
O O13 0.000000 0.500000 0.500000
#
# Coordination Sequence:
#
# PCOD9058630 Si02
#       6
#     2   2   2   1   2   2
#     4  11  26  50  72 112 153 196 264 313 371 470
#     4  11  23  41  72 110 148 186 240 313 383 447
#     4  11  22  46  75 112 148 187 250 320 375 452
#     4  12  28  48  76 102 154 210 254 302 390 448
#     4  11  27  49  76 109 155 202 253 315 380 467
#     4  12  22  43  74 112 151 190 248 317 395 439
#
# _framework density 27.548470999999999
#
# number of rings (size 3 to 8) (size 9 to 14) (size 15 to 20)
#    0.000    0.727    5.455    2.182    0.000    8.000 
#    0.000    0.000    0.000    0.000    0.000    0.000 
#    0.000    0.000    0.000    0.000    0.000    0.000 
#
# Total GULP energy -61469.054545 kJ/mol
# GULP energy per Si atom -5588.095868 kJ/mol
# Density = 2.748577 g / cm^3
# Si number density = 27.548471 Si / 1000 Ang^3
#
#
#
# Elastic Constant Matrix: (Units=GPa)
#
#
# Indices 1 2 3 4 5 6 
#
# 1 177.3610 42.9136 83.9017 7.3415 8.9651 5.2636
# 2 42.9136 117.9125 52.3564 11.0378 7.9282 -16.1614
# 3 83.9017 52.3564 240.9769 14.0618 26.1940 -12.8831
# 4 7.3415 11.0378 14.0618 48.6561 4.5858 -0.1960
# 5 8.9651 7.9282 26.1940 4.5858 63.9003 -5.1198
# 6 5.2636 -16.1614 -12.8831 -0.1960 -5.1198 58.9239
#
#
#
# Elastic Compliance Matrix: (Units=1/GPa)
#
#
# Indices 1 2 3 4 5 6 
#
# 1 0.007168 -0.001862 -0.002175 -0.000036 -0.000011 -0.001628
# 2 -0.001862 0.010280 -0.001331 -0.001643 -0.000136 0.002677
# 3 -0.002175 -0.001331 0.005468 -0.000792 -0.001644 0.000879
# 4 -0.000036 -0.001643 -0.000792 0.021255 -0.001043 -0.000640
# 5 -0.000011 -0.000136 -0.001644 -0.001043 0.016499 0.001034
# 6 -0.001628 0.002677 0.000879 -0.000640 0.001034 0.018131
#
#
# Mechanical properties :
#
#
# Convention : Reuss Voigt Hill
#
# Bulk Modulus (GPa) = 82.10666 99.39930 90.75298
# Shear Modulus (GPa) = 53.42052 58.10129 55.76091
#
# Velocity S-wave (km/s) = 4.40835 4.59743 4.50388
# Velocity P-wave (km/s) = 7.46864 8.02133 7.74991
#
# Compressibility (1/GPa) = 0.01217928
#
# Stress axis : x y z
#
# Youngs Moduli (GPa) = 139.51061 97.28033 182.87729
#
# Poissons Ratio (x) = 0.18114 0.39773
# Poissons Ratio (y) = 0.25977 0.24347
# Poissons Ratio (z) = 0.30341 0.12951
#
# Static dielectric constant tensor:
#      x y z
#    x 2.857480 0.338220 -0.134800 
#    y 0.338220 2.995290 -0.193610 
#    z -0.134800 -0.193610 2.164010 
# 
# From -- ./inp_files/166950.got.cif
#   From: 2010.05.17/outbox.cif.g08.bks.cpg/sg2_84_cif.got.tgz:166950.got - 2010.06.03 11:33:40.
