data_PCOD9058850
_publ_section_title
;
Structure prediction by ZEFSAII (Michael W. Deem and Ramdas Pophale) SiO2 
 PCOD9058850
Probable space group: P -1
;
_chemical_formula_sum "Si O2"
_cell_formula_units_Z 14
_cell_length_a 9.855575
_cell_length_b 8.648896
_cell_length_c 16.421906
_cell_angle_alpha 75.878748
_cell_angle_beta 144.715350
_cell_angle_gamma 120.083133
_cell_volume 660.344739
_symmetry_space_group_name_H-M "P -1"
_symmetry_group_IT_number 2
_symmetry_cell_setting 'triclinic'
loop_
_space_group_symop_operation_xyz
x,y,z
-x,-y,-z
loop_
_atom_site_type_symbol
_atom_site_label
_atom_site_fract_x
_atom_site_fract_y
_atom_site_fract_z
Si Si1 0.217504 0.405190 0.820554
Si Si2 0.834115 0.335368 0.785126
Si Si3 0.085241 0.767511 0.853125
Si Si4 0.680800 0.880790 0.175396
Si Si5 0.303395 0.036759 0.645854
Si Si6 0.895587 0.796693 0.933424
Si Si7 0.261610 0.643186 0.665784
O O1 0.214160 0.255904 0.776344
O O2 0.213462 0.561136 0.743884
O O3 0.962202 0.306997 0.770260
O O4 0.500000 0.500000 0.000000
O O5 0.513664 0.180749 0.663751
O O6 0.884992 0.542668 0.778442
O O7 0.002163 0.312120 0.945277
O O8 0.024994 0.827079 0.903125
O O9 0.093708 0.906280 0.770697
O O10 0.395363 0.805448 0.995998
O O11 0.592956 0.875158 0.225489
O O12 0.292993 0.843978 0.656887
O O13 0.000000 0.000000 0.500000
O O14 0.559490 0.679017 0.779474
O O15 0.000000 0.000000 0.000000
O O16 0.000000 0.500000 0.500000
#
# Coordination Sequence:
#
# PCOD9058850 Si02
#       7
#     2   2   2   2   2   2   2
#     4  12  24  43  73 108 141 184 240 297 356 425
#     4  12  24  42  71 104 138 181 243 294 345 420
#     4  11  23  37  69 102 136 175 229 294 346 407
#     4  11  23  43  68 102 144 176 231 293 354 417
#     4  12  28  48  68  98 145 193 236 292 362 429
#     4  12  22  41  71 105 138 182 241 294 350 425
#     4  12  27  47  72 104 149 188 232 297 369 424
#
# _framework density 21.201048
#
# number of rings (size 3 to 8) (size 9 to 14) (size 15 to 20)
#    0.000    0.286    5.714    3.000    6.000    0.000 
#    2.571    2.857    0.000    0.000    0.000    0.000 
#    0.000    0.000    0.000    0.000    0.000    0.000 
#
# Total GULP energy -78338.099342 kJ/mol
# GULP energy per Si atom -5595.578524 kJ/mol
# Density = 2.115279 g / cm^3
# Si number density = 21.201048 Si / 1000 Ang^3
#
#
#
# Elastic Constant Matrix: (Units=GPa)
#
#
# Indices 1 2 3 4 5 6 
#
# 1 133.1262 33.2901 9.2092 16.9560 19.1111 14.3684
# 2 33.2901 129.7783 11.3224 19.6970 14.5580 9.8569
# 3 9.2092 11.3224 78.4993 9.3469 24.8319 12.4186
# 4 16.9560 19.6970 9.3469 23.7322 -0.9560 -4.5909
# 5 19.1111 14.5580 24.8319 -0.9560 38.0242 6.3462
# 6 14.3684 9.8569 12.4186 -4.5909 6.3462 43.3593
#
#
#
# Elastic Compliance Matrix: (Units=1/GPa)
#
#
# Indices 1 2 3 4 5 6 
#
# 1 0.009819 -0.000473 0.002416 -0.008563 -0.005899 -0.003882
# 2 -0.000473 0.009766 0.001523 -0.009087 -0.004250 -0.002839
# 3 0.002416 0.001523 0.018852 -0.012090 -0.013435 -0.005860
# 4 -0.008563 -0.009087 -0.012090 0.063662 0.015127 0.012893
# 5 -0.005899 -0.004250 -0.013435 0.015127 0.039616 0.002572
# 6 -0.003882 -0.002839 -0.005860 0.012893 0.002572 0.027662
#
#
# Mechanical properties :
#
#
# Convention : Reuss Voigt Hill
#
# Bulk Modulus (GPa) = 22.04204 49.89412 35.96808
# Shear Modulus (GPa) = 28.15809 40.19530 34.17670
#
# Velocity S-wave (km/s) = 3.64833 4.35893 4.01936
# Velocity P-wave (km/s) = 5.30719 6.99418 6.20826
#
# Compressibility (1/GPa) = 0.04536785
#
# Stress axis : x y z
#
# Youngs Moduli (GPa) = 101.83953 102.39998 53.04370
#
# Poissons Ratio (x) = 0.04848 -0.12816
# Poissons Ratio (y) = 0.04821 -0.08076
# Poissons Ratio (z) = -0.24606 -0.15591
#
# Static dielectric constant tensor:
#      x y z
#    x 1.749490 0.004010 -0.003340 
#    y 0.004010 1.773470 0.004980 
#    z -0.003340 0.004980 1.821130 
# 
# From -- ./inp_files/157099.got.cif
#   From: 2010.05.17/outbox.cif.g08.bks.cpg/sg2_79_cif.got.tgz:157099.got - 2010.06.03 11:33:40.
