data_PCOD9058436
_publ_section_title
;
Structure prediction by ZEFSAII (Michael W. Deem and Ramdas Pophale) SiO2 
 PCOD9058436
Probable space group: P -1
;
_chemical_formula_sum "Si O2"
_cell_formula_units_Z 14
_cell_length_a 10.581921
_cell_length_b 8.846620
_cell_length_c 7.972597
_cell_angle_alpha 68.693983
_cell_angle_beta 88.876412
_cell_angle_gamma 58.300419
_cell_volume 577.621149
_symmetry_space_group_name_H-M "P -1"
_symmetry_group_IT_number 2
_symmetry_cell_setting 'triclinic'
loop_
_space_group_symop_operation_xyz
x,y,z
-x,-y,-z
loop_
_atom_site_type_symbol
_atom_site_label
_atom_site_fract_x
_atom_site_fract_y
_atom_site_fract_z
Si Si1 0.655002 0.108409 0.235331
Si Si2 0.632400 0.497279 0.771527
Si Si3 0.789312 0.598817 0.218347
Si Si4 0.136014 0.762637 0.830029
Si Si5 0.167427 0.190144 0.172577
Si Si6 0.226445 0.291891 0.476622
Si Si7 0.568968 0.183498 0.825738
O O1 0.516944 0.322482 0.208281
O O2 0.811926 0.092983 0.270687
O O3 0.656685 0.938264 0.398360
O O4 0.638650 0.093599 0.043421
O O5 0.697197 0.591228 0.614783
O O6 0.591310 0.360319 0.734717
O O7 0.756575 0.367778 0.964368
O O8 0.826148 0.386292 0.262493
O O9 0.854722 0.627160 0.375193
O O10 0.606830 0.734641 0.191550
O O11 0.835201 0.671155 0.026466
O O12 0.961120 0.852851 0.839610
O O13 0.142493 0.293975 0.309775
O O14 0.331758 0.987664 0.239199
#
# Coordination Sequence:
#
# PCOD9058436 Si02
#       7
#     2   2   2   2   2   2   2
#     4  11  22  45  73 108 134 182 235 288 339 419
#     4  11  23  44  72 108 133 184 234 287 339 419
#     4  12  24  46  72 102 136 189 226 288 338 410
#     4  11  24  48  74  95 149 183 227 283 352 408
#     4  12  27  46  69 107 141 186 225 288 347 410
#     4  12  28  41  73 106 141 175 241 283 345 408
#     4  11  23  45  73 100 142 181 234 280 350 404
#
# _framework density 24.237342000000002
#
# number of rings (size 3 to 8) (size 9 to 14) (size 15 to 20)
#    0.000    0.571    5.714    2.143    4.000    5.143 
#    0.000    0.000    0.000    0.000    0.000    0.000 
#    0.000    0.000    0.000    0.000    0.000    0.000 
#
# Total GULP energy -78465.574000 kJ/mol
# GULP energy per Si atom -5604.683857 kJ/mol
# Density = 2.418218 g / cm^3
# Si number density = 24.237342 Si / 1000 Ang^3
#
#
#
# Elastic Constant Matrix: (Units=GPa)
#
#
# Indices 1 2 3 4 5 6 
#
# 1 103.5046 13.6455 28.4559 -9.7579 11.9418 -1.2067
# 2 13.6455 85.8393 41.8862 9.2691 0.3170 11.2841
# 3 28.4559 41.8862 111.5471 12.7684 -1.9812 17.1302
# 4 -9.7579 9.2691 12.7684 44.1116 12.4945 -6.4471
# 5 11.9418 0.3170 -1.9812 12.4945 26.5407 -3.6708
# 6 -1.2067 11.2841 17.1302 -6.4471 -3.6708 39.6140
#
#
#
# Elastic Compliance Matrix: (Units=1/GPa)
#
#
# Indices 1 2 3 4 5 6 
#
# 1 0.012747 -0.001065 -0.004290 0.007277 -0.009069 0.002891
# 2 -0.001065 0.014643 -0.004512 -0.002626 0.000844 -0.002602
# 3 -0.004290 -0.004512 0.013323 -0.006056 0.005122 -0.005118
# 4 0.007277 -0.002626 -0.006056 0.032776 -0.018123 0.007243
# 5 -0.009069 0.000844 0.005122 -0.018123 0.050524 -0.000999
# 6 0.002891 -0.002602 -0.005118 0.007243 -0.000999 0.029372
#
#
# Mechanical properties :
#
#
# Convention : Reuss Voigt Hill
#
# Bulk Modulus (GPa) = 47.66378 52.09624 49.88001
# Shear Modulus (GPa) = 27.76042 36.51350 32.13696
#
# Velocity S-wave (km/s) = 3.38798 3.88557 3.64528
# Velocity P-wave (km/s) = 5.91715 6.45532 6.19208
#
# Compressibility (1/GPa) = 0.02098029
#
# Stress axis : x y z
#
# Youngs Moduli (GPa) = 78.44859 68.29214 75.05600
#
# Poissons Ratio (x) = 0.07276 0.32197
# Poissons Ratio (y) = 0.08358 0.33862
# Poissons Ratio (z) = 0.33652 0.30810
#
# Static dielectric constant tensor:
#      x y z
#    x 1.911940 -0.021660 0.026200 
#    y -0.021660 1.916370 -0.008900 
#    z 0.026200 -0.008900 1.941270 
# 
# From -- ./inp_files/157388.got.cif
#   From: 2010.05.17/outbox.cif.g08.bks.cpg/sg2_79_cif.got.tgz:157388.got - 2010.06.03 11:33:40.
