data_PCOD9058993
_publ_section_title
;
Structure prediction by ZEFSAII (Michael W. Deem and Ramdas Pophale) SiO2 
 PCOD9058993
Probable space group: P -1
;
_chemical_formula_sum "Si O2"
_cell_formula_units_Z 16
_cell_length_a 14.992261
_cell_length_b 12.233701
_cell_length_c 8.612224
_cell_angle_alpha 105.485537
_cell_angle_beta 66.931236
_cell_angle_gamma 48.268503
_cell_volume 693.620010
_symmetry_space_group_name_H-M "P -1"
_symmetry_group_IT_number 2
_symmetry_cell_setting 'triclinic'
loop_
_space_group_symop_operation_xyz
x,y,z
-x,-y,-z
loop_
_atom_site_type_symbol
_atom_site_label
_atom_site_fract_x
_atom_site_fract_y
_atom_site_fract_z
Si Si1 0.318308 0.603129 0.112346
Si Si2 0.384242 0.007128 0.649027
Si Si3 0.948485 0.976153 0.352967
Si Si4 0.220566 0.814326 0.765389
Si Si5 0.512716 0.678384 0.627333
Si Si6 0.152561 0.365804 0.204867
Si Si7 0.849038 0.828607 0.433344
Si Si8 0.537135 0.766028 0.976471
O O1 0.393518 0.400464 0.011119
O O2 0.186950 0.749050 0.099124
O O3 0.145919 0.816142 0.428263
O O4 0.500000 0.500000 0.000000
O O5 0.246697 0.103356 0.640902
O O6 0.500000 0.000000 0.500000
O O7 0.524183 0.762747 0.519213
O O8 0.257080 0.164657 0.950722
O O9 0.916558 0.889664 0.428183
O O10 0.798539 0.111962 0.363838
O O11 0.301166 0.831846 0.824669
O O12 0.348041 0.571108 0.587385
O O13 0.000000 0.000000 0.000000
O O14 0.550751 0.694901 0.773043
O O15 0.325384 0.266156 0.118093
O O16 0.000000 0.500000 0.500000
O O17 0.031436 0.563181 0.238882
O O18 0.681899 0.978239 0.732312
#
# Coordination Sequence:
#
# PCOD9058993 Si02
#       8
#     2   2   2   2   2   2   2   2
#     4  11  23  39  72 104 145 185 233 304 364 438
#     4  12  27  51  78 106 144 199 250 307 371 437
#     4  11  23  42  67 108 139 188 245 294 366 442
#     4  11  26  44  69 102 148 193 236 296 367 443
#     4  11  27  46  71 105 146 190 246 297 371 436
#     4  12  29  50  74 108 147 193 249 312 374 437
#     4  12  25  47  76 105 146 189 253 307 368 440
#     4  12  25  45  73 107 145 194 241 307 369 440
#
# _framework density 23.067384000000001
#
# number of rings (size 3 to 8) (size 9 to 14) (size 15 to 20)
#    0.000    0.500    6.250    1.125    3.500    5.000 
#    0.000    0.000    0.000    0.000    0.000    0.000 
#    0.000    0.000    0.000    0.000    0.000    0.000 
#
# Total GULP energy -89343.990123 kJ/mol
# GULP energy per Si atom -5583.999383 kJ/mol
# Density = 2.301488 g / cm^3
# Si number density = 23.067384 Si / 1000 Ang^3
#
#
#
# Elastic Constant Matrix: (Units=GPa)
#
#
# Indices 1 2 3 4 5 6 
#
# 1 152.4535 27.4637 32.1679 -5.1238 -3.2692 -7.1480
# 2 27.4637 103.5271 9.6649 18.4095 -5.3341 3.8606
# 3 32.1679 9.6649 61.7840 1.0430 -4.5659 -2.4753
# 4 -5.1238 18.4095 1.0430 39.9368 -7.8745 -0.9537
# 5 -3.2692 -5.3341 -4.5659 -7.8745 34.6559 -10.1858
# 6 -7.1480 3.8606 -2.4753 -0.9537 -10.1858 35.0381
#
#
#
# Elastic Compliance Matrix: (Units=1/GPa)
#
#
# Indices 1 2 3 4 5 6 
#
# 1 0.007924 -0.002203 -0.003665 0.002381 0.001045 0.001969
# 2 -0.002203 0.011360 -0.000647 -0.005633 -0.000419 -0.002022
# 3 -0.003665 -0.000647 0.018422 -0.000164 0.002326 0.001297
# 4 0.002381 -0.005633 -0.000164 0.029462 0.007203 0.003991
# 5 0.001045 -0.000419 0.002326 0.007203 0.033912 0.010478
# 6 0.001969 -0.002022 0.001297 0.003991 0.010478 0.032411
#
#
# Mechanical properties :
#
#
# Convention : Reuss Voigt Hill
#
# Bulk Modulus (GPa) = 40.52642 50.70638 45.61640
# Shear Modulus (GPa) = 32.31111 38.49070 35.40090
#
# Velocity S-wave (km/s) = 3.74669 4.08931 3.92174
# Velocity P-wave (km/s) = 6.02692 6.65779 6.35019
#
# Compressibility (1/GPa) = 0.02467526
#
# Stress axis : x y z
#
# Youngs Moduli (GPa) = 126.19298 88.03125 54.28435
#
# Poissons Ratio (x) = 0.19393 0.19897
# Poissons Ratio (y) = 0.27800 0.03511
# Poissons Ratio (z) = 0.46253 0.05694
#
# Static dielectric constant tensor:
#      x y z
#    x 1.849100 0.008300 -0.053770 
#    y 0.008300 1.789700 0.051830 
#    z -0.053770 0.051830 1.822850 
# 
# From -- ./inp_files/307954.got.cif
#   From: 2010.05.17/outbox.cif.g08.bks.cpg/sg2_154_cif.got.tgz:307954.got - 2010.06.03 11:33:40.
