data_PCOD9058185
_publ_section_title
;
Structure prediction by ZEFSAII (Michael W. Deem and Ramdas Pophale) SiO2 
 PCOD9058185
Probable space group: P -1
;
_chemical_formula_sum "Si O2"
_cell_formula_units_Z 14
_cell_length_a 7.945311
_cell_length_b 8.763999
_cell_length_c 15.503817
_cell_angle_alpha 66.959727
_cell_angle_beta 145.865615
_cell_angle_gamma 115.321719
_cell_volume 546.095757
_symmetry_space_group_name_H-M "P -1"
_symmetry_group_IT_number 2
_symmetry_cell_setting 'triclinic'
loop_
_space_group_symop_operation_xyz
x,y,z
-x,-y,-z
loop_
_atom_site_type_symbol
_atom_site_label
_atom_site_fract_x
_atom_site_fract_y
_atom_site_fract_z
Si Si1 0.582926 0.569936 0.112521
Si Si2 0.280969 0.772800 0.679842
Si Si3 0.592796 0.121289 0.815628
Si Si4 0.574815 0.698355 0.460069
Si Si5 0.975909 0.321410 0.070842
Si Si6 0.586397 0.823851 0.622779
Si Si7 0.777230 0.906399 0.170218
O O1 0.631219 0.410447 0.224669
O O2 0.317359 0.673166 0.997502
O O3 0.845897 0.735704 0.193355
O O4 0.500000 0.500000 0.000000
O O5 0.336637 0.826667 0.590685
O O6 0.935612 0.752272 0.573558
O O7 0.502672 0.926056 0.790793
O O8 0.595973 0.243412 0.708177
O O9 0.892962 0.183268 0.989328
O O10 0.319330 0.139619 0.761619
O O11 0.500000 0.500000 0.500000
O O12 0.515042 0.801019 0.497693
O O13 0.000000 0.500000 0.000000
O O14 0.274060 0.334249 0.251453
O O15 0.905899 0.959881 0.734194
O O16 0.500000 0.000000 0.000000
#
# Coordination Sequence:
#
# PCOD9058185 Si02
#       7
#     2   2   2   2   2   2   2
#     4  11  23  39  70 109 150 186 244 301 356 436
#     4  12  27  46  74 113 143 192 258 300 363 449
#     4  11  25  49  74 105 151 198 244 304 368 440
#     4  12  29  52  76 101 153 198 243 310 380 434
#     4  11  22  44  73 105 149 191 235 304 375 421
#     4  12  25  45  78 107 146 193 248 300 369 440
#     4  11  22  45  74 109 152 195 235 302 376 432
#
# _framework density 25.636527999999998
#
# number of rings (size 3 to 8) (size 9 to 14) (size 15 to 20)
#    0.000    0.571    5.714    3.000    2.000    4.000 
#    0.000    0.000    0.000    0.000    0.000    0.000 
#    0.000    0.000    0.000    0.000    0.000    0.000 
#
# Total GULP energy -78147.772381 kJ/mol
# GULP energy per Si atom -5581.983741 kJ/mol
# Density = 2.557818 g / cm^3
# Si number density = 25.636528 Si / 1000 Ang^3
#
#
#
# Elastic Constant Matrix: (Units=GPa)
#
#
# Indices 1 2 3 4 5 6 
#
# 1 167.8781 45.2100 72.0569 19.2864 -20.8287 2.6349
# 2 45.2100 157.9348 23.5558 6.9901 -20.4680 -1.3824
# 3 72.0569 23.5558 119.8836 -5.2733 -20.9570 -11.3595
# 4 19.2864 6.9901 -5.2733 38.9553 0.8822 -8.6102
# 5 -20.8287 -20.4680 -20.9570 0.8822 53.5351 -5.0570
# 6 2.6349 -1.3824 -11.3595 -8.6102 -5.0570 39.1760
#
#
#
# Elastic Compliance Matrix: (Units=1/GPa)
#
#
# Indices 1 2 3 4 5 6 
#
# 1 0.009889 -0.001591 -0.006172 -0.006303 0.000566 -0.003823
# 2 -0.001591 0.007092 -0.000032 -0.000420 0.002137 0.000532
# 3 -0.006172 -0.000032 0.013492 0.006163 0.003344 0.006112
# 4 -0.006303 -0.000420 0.006163 0.031728 0.000145 0.009188
# 5 0.000566 0.002137 0.003344 0.000145 0.021382 0.003799
# 6 -0.003823 0.000532 0.006112 0.009188 0.003799 0.030084
#
#
# Mechanical properties :
#
#
# Convention : Reuss Voigt Hill
#
# Bulk Modulus (GPa) = 67.18699 80.81576 74.00138
# Shear Modulus (GPa) = 37.25305 46.65818 41.95562
#
# Velocity S-wave (km/s) = 3.81612 4.27076 4.04983
# Velocity P-wave (km/s) = 6.75881 7.47739 7.12716
#
# Compressibility (1/GPa) = 0.01488383
#
# Stress axis : x y z
#
# Youngs Moduli (GPa) = 101.12668 141.00028 74.11834
#
# Poissons Ratio (x) = 0.22438 0.45743
# Poissons Ratio (y) = 0.16093 0.00234
# Poissons Ratio (z) = 0.62411 0.00444
#
# Static dielectric constant tensor:
#      x y z
#    x 2.328890 0.651180 -0.073460 
#    y 0.651180 3.216260 -0.056860 
#    z -0.073460 -0.056860 1.845310 
# 
# From -- ./inp_files/492647.got.cif
#   From: 2010.05.17/outbox.cif.g08.bks.cpg/sg2_247_cif.got.tgz:492647.got - 2010.06.03 11:33:40.
