data_PCOD9058206
_publ_section_title
;
Structure prediction by ZEFSAII (Michael W. Deem and Ramdas Pophale) SiO2 
 PCOD9058206
Probable space group: P -1
;
_chemical_formula_sum "Si O2"
_cell_formula_units_Z 16
_cell_length_a 14.641334
_cell_length_b 13.494924
_cell_length_c 8.887746
_cell_angle_alpha 124.756206
_cell_angle_beta 89.109534
_cell_angle_gamma 135.855140
_cell_volume 729.464156
_symmetry_space_group_name_H-M "P -1"
_symmetry_group_IT_number 2
_symmetry_cell_setting 'triclinic'
loop_
_space_group_symop_operation_xyz
x,y,z
-x,-y,-z
loop_
_atom_site_type_symbol
_atom_site_label
_atom_site_fract_x
_atom_site_fract_y
_atom_site_fract_z
Si Si1 0.818475 0.093024 0.014941
Si Si2 0.853818 0.144256 0.401123
Si Si3 0.441261 0.796915 0.786667
Si Si4 0.508646 0.367057 0.907224
Si Si5 0.685879 0.415549 0.723612
Si Si6 0.820839 0.633684 0.343548
Si Si7 0.089455 0.544353 0.183074
Si Si8 0.968048 0.025162 0.862780
O O1 0.905412 0.191028 0.264811
O O2 0.937305 0.307978 0.085091
O O3 0.819904 0.960288 0.834267
O O4 0.622132 0.923891 0.892449
O O5 0.832967 0.258080 0.549055
O O6 0.007361 0.255900 0.595496
O O7 0.664537 0.864205 0.190860
O O8 0.357040 0.686883 0.527919
O O9 0.303500 0.583605 0.725861
O O10 0.500000 0.000000 0.000000
O O11 0.690977 0.531001 0.126501
O O12 0.500000 0.500000 0.000000
O O13 0.517275 0.295747 0.694112
O O14 0.759412 0.385202 0.790510
O O15 0.849037 0.697636 0.948674
O O16 0.904039 0.848870 0.600674
O O17 0.000000 0.500000 0.000000
O O18 0.000000 0.000000 0.000000
#
# Coordination Sequence:
#
# PCOD9058206 Si02
#       8
#     2   2   2   2   2   2   2   2
#     4  11  24  43  72 107 135 186 241 291 360 420
#     4  12  24  47  74  99 146 189 238 294 353 428
#     4  12  25  44  74 108 141 184 243 304 349 425
#     4  12  30  46  69 109 149 192 236 294 361 430
#     4  11  26  46  70 106 145 185 241 294 363 425
#     4  12  25  47  74 104 143 189 245 292 359 424
#     4  11  25  45  72 102 141 187 236 295 365 424
#     4  11  22  44  74 101 136 185 239 302 350 415
#
# _framework density 21.933909
#
# number of rings (size 3 to 8) (size 9 to 14) (size 15 to 20)
#    0.000    0.500    3.750    4.125    3.500    4.000 
#    0.000    0.000    0.000    0.000    0.000    0.000 
#    0.000    0.000    0.000    0.000    0.000    0.000 
#
# Total GULP energy -89576.103542 kJ/mol
# GULP energy per Si atom -5598.506471 kJ/mol
# Density = 2.188399 g / cm^3
# Si number density = 21.933909 Si / 1000 Ang^3
#
#
#
# Elastic Constant Matrix: (Units=GPa)
#
#
# Indices 1 2 3 4 5 6 
#
# 1 157.5409 43.2742 32.2311 10.1942 -9.2322 -5.2667
# 2 43.2742 80.7627 24.3846 -3.0230 -8.9731 -7.6477
# 3 32.2311 24.3846 86.4147 3.7818 -14.2577 -14.2354
# 4 10.1942 -3.0230 3.7818 29.9952 -0.6066 1.8354
# 5 -9.2322 -8.9731 -14.2577 -0.6066 51.2045 4.5212
# 6 -5.2667 -7.6477 -14.2354 1.8354 4.5212 35.0139
#
#
#
# Elastic Compliance Matrix: (Units=1/GPa)
#
#
# Indices 1 2 3 4 5 6 
#
# 1 0.007950 -0.003830 -0.001756 -0.002847 0.000261 -0.000239
# 2 -0.003830 0.015633 -0.002686 0.003153 0.001213 0.001425
# 3 -0.001756 -0.002686 0.014287 -0.001706 0.002756 0.004691
# 4 -0.002847 0.003153 -0.001706 0.034983 0.000181 -0.002290
# 5 0.000261 0.001213 0.002756 0.000181 0.020669 -0.001254
# 6 -0.000239 0.001425 0.004691 -0.002290 -0.001254 0.031025
#
#
# Mechanical properties :
#
#
# Convention : Reuss Voigt Hill
#
# Bulk Modulus (GPa) = 46.89150 58.27757 52.58454
# Shear Modulus (GPa) = 33.73800 38.23128 35.98464
#
# Velocity S-wave (km/s) = 3.92620 4.17948 4.05482
# Velocity P-wave (km/s) = 6.47907 7.06527 6.77851
#
# Compressibility (1/GPa) = 0.02132583
#
# Stress axis : x y z
#
# Youngs Moduli (GPa) = 125.77961 63.96836 69.99140
#
# Poissons Ratio (x) = 0.24499 0.12294
# Poissons Ratio (y) = 0.48172 0.18800
# Poissons Ratio (z) = 0.22093 0.17182
#
# Static dielectric constant tensor:
#      x y z
#    x 1.879050 0.006220 -0.042320 
#    y 0.006220 1.801750 -0.049570 
#    z -0.042320 -0.049570 1.873450 
# 
# From -- ./inp_files/315878.got.cif
#   From: 2010.05.17/outbox.cif.g08.bks.cpg/sg2_158_cif.got.tgz:315878.got - 2010.06.03 11:33:40.
