data_PCOD9058628
_publ_section_title
;
Structure prediction by ZEFSAII (Michael W. Deem and Ramdas Pophale) SiO2 
 PCOD9058628
Probable space group: P -1
;
_chemical_formula_sum "Si O2"
_cell_formula_units_Z 10
_cell_length_a 11.508453
_cell_length_b 15.080834
_cell_length_c 6.556428
_cell_angle_alpha 69.164004
_cell_angle_beta 121.478038
_cell_angle_gamma 151.241578
_cell_volume 452.227901
_symmetry_space_group_name_H-M "P -1"
_symmetry_group_IT_number 2
_symmetry_cell_setting 'triclinic'
loop_
_space_group_symop_operation_xyz
x,y,z
-x,-y,-z
loop_
_atom_site_type_symbol
_atom_site_label
_atom_site_fract_x
_atom_site_fract_y
_atom_site_fract_z
Si Si1 0.621899 0.976003 0.043477
Si Si2 0.075015 0.100705 0.700181
Si Si3 0.739312 0.381676 0.735110
Si Si4 0.434933 0.190742 0.224031
Si Si5 0.206769 0.361397 0.399760
O O1 0.948908 0.183046 0.166671
O O2 0.504715 0.825646 0.213646
O O3 0.500000 0.000000 0.000000
O O4 0.546965 0.895668 0.815630
O O5 0.128214 0.245457 0.610144
O O6 0.346763 0.215566 0.951661
O O7 0.000000 0.000000 0.500000
O O8 0.814942 0.939659 0.742435
O O9 0.698857 0.348334 0.481785
O O10 0.756264 0.504744 0.668731
O O11 0.000000 0.500000 0.000000
O O12 0.500000 0.500000 0.500000
#
# Coordination Sequence:
#
# PCOD9058628 Si02
#       5
#     2   2   2   2   2
#     4  12  26  52  71 107 161 196 243 317 366 449
#     4  11  22  46  75 109 149 188 247 316 364 441
#     4  12  27  49  71 112 151 195 254 308 368 454
#     4  11  24  44  81 105 145 206 246 298 391 433
#     4  12  25  46  79 106 152 193 244 321 365 431
#
# _framework density 22.112742000000001
#
# number of rings (size 3 to 8) (size 9 to 14) (size 15 to 20)
#    0.000    0.400    6.000    2.400    2.800    2.400 
#    3.600    0.000    0.000    0.000    0.000    0.000 
#    0.000    0.000    0.000    0.000    0.000    0.000 
#
# Total GULP energy -55684.002603 kJ/mol
# GULP energy per Si atom -5568.400260 kJ/mol
# Density = 2.206241 g / cm^3
# Si number density = 22.112742 Si / 1000 Ang^3
#
#
#
# Elastic Constant Matrix: (Units=GPa)
#
#
# Indices 1 2 3 4 5 6 
#
# 1 141.4071 42.0648 79.9052 7.9050 13.5065 -34.7897
# 2 42.0648 122.8602 52.7050 6.3019 4.4687 -33.2328
# 3 79.9052 52.7050 176.3307 28.9724 10.8328 -26.4928
# 4 7.9050 6.3019 28.9724 45.9732 0.1827 11.2449
# 5 13.5065 4.4687 10.8328 0.1827 36.4530 -1.1318
# 6 -34.7897 -33.2328 -26.4928 11.2449 -1.1318 41.2431
#
#
#
# Elastic Compliance Matrix: (Units=1/GPa)
#
#
# Indices 1 2 3 4 5 6 
#
# 1 0.011315 -0.000150 -0.003530 -0.001521 -0.002885 0.007491
# 2 -0.000150 0.011386 -0.001532 -0.002717 -0.000598 0.008788
# 3 -0.003530 -0.001532 0.009244 -0.005806 -0.001121 0.003279
# 4 -0.001521 -0.002717 -0.005806 0.029771 0.001999 -0.015264
# 5 -0.002885 -0.000598 -0.001121 0.001999 0.028793 -0.003390
# 6 0.007491 0.008788 0.003279 -0.015264 -0.003390 0.043822
#
#
# Mechanical properties :
#
#
# Convention : Reuss Voigt Hill
#
# Bulk Modulus (GPa) = 46.46506 87.77202 67.11854
# Shear Modulus (GPa) = 32.91058 42.46206 37.68632
#
# Velocity S-wave (km/s) = 3.86205 4.38682 4.13277
# Velocity P-wave (km/s) = 6.39888 8.08938 7.29327
#
# Compressibility (1/GPa) = 0.02152155
#
# Stress axis : x y z
#
# Youngs Moduli (GPa) = 88.38085 87.82595 108.18019
#
# Poissons Ratio (x) = 0.01321 0.38183
# Poissons Ratio (y) = 0.01330 0.16568
# Poissons Ratio (z) = 0.31195 0.13451
#
# Static dielectric constant tensor:
#      x y z
#    x 1.901450 0.161230 -0.053620 
#    y 0.161230 2.135530 -0.174750 
#    z -0.053620 -0.174750 2.025410 
# 
# From -- ./inp_files/39559.got.cif
#   From: 2010.05.17/outbox.cif.g08.bks.cpg/sg2_20_cif.got.tgz:39559.got - 2010.06.03 11:33:40.
