data_PCOD9058728
_publ_section_title
;
Structure prediction by ZEFSAII (Michael W. Deem and Ramdas Pophale) SiO2 
 PCOD9058728
Probable space group: P -1
;
_chemical_formula_sum "Si O2"
_cell_formula_units_Z 14
_cell_length_a 11.088753
_cell_length_b 14.462110
_cell_length_c 8.603186
_cell_angle_alpha 122.256575
_cell_angle_beta 58.122758
_cell_angle_gamma 149.481514
_cell_volume 584.940528
_symmetry_space_group_name_H-M "P -1"
_symmetry_group_IT_number 2
_symmetry_cell_setting 'triclinic'
loop_
_space_group_symop_operation_xyz
x,y,z
-x,-y,-z
loop_
_atom_site_type_symbol
_atom_site_label
_atom_site_fract_x
_atom_site_fract_y
_atom_site_fract_z
Si Si1 0.817768 0.898519 0.330563
Si Si2 0.561094 0.975492 0.254651
Si Si3 0.678809 0.680957 0.930867
Si Si4 0.582720 0.226723 0.344519
Si Si5 0.298210 0.112765 0.144044
Si Si6 0.958455 0.433036 0.792351
Si Si7 0.024441 0.771307 0.562201
O O1 0.553002 0.761429 0.455692
O O2 0.930077 0.087667 0.426558
O O3 0.790369 0.835545 0.117771
O O4 0.051539 0.972862 0.287042
O O5 0.323587 0.750786 0.224027
O O6 0.499021 0.052699 0.288003
O O7 0.725174 0.100139 0.404816
O O8 0.731177 0.007742 0.058073
O O9 0.626776 0.732570 0.867756
O O10 0.834356 0.683441 0.744730
O O11 0.500000 0.500000 0.000000
O O12 0.504697 0.207361 0.206565
O O13 0.872793 0.399441 0.295947
O O14 0.045404 0.363498 0.634403
O O15 0.000000 0.500000 0.000000
#
# Coordination Sequence:
#
# PCOD9058728 Si02
#       7
#     2   2   2   2   2   2   2
#     4  11  22  47  75 104 145 197 251 300 376 440
#     4  12  24  48  76 102 153 198 245 299 377 433
#     4  11  23  44  75 111 144 189 255 312 366 439
#     4  12  27  45  73 109 154 196 240 304 380 436
#     4  11  23  46  73 105 147 196 242 303 370 443
#     4  12  27  45  69 109 153 192 252 304 361 447
#     4  11  23  47  75 106 147 198 248 311 364 438
#
# _framework density 23.934058
#
# number of rings (size 3 to 8) (size 9 to 14) (size 15 to 20)
#    0.000    0.571    5.714    3.000    0.000    1.714 
#    2.571    3.571    0.000    0.000    0.000    0.000 
#    0.000    0.000    0.000    0.000    0.000    0.000 
#
# Total GULP energy -78005.126438 kJ/mol
# GULP energy per Si atom -5571.794746 kJ/mol
# Density = 2.387958 g / cm^3
# Si number density = 23.934058 Si / 1000 Ang^3
#
#
#
# Elastic Constant Matrix: (Units=GPa)
#
#
# Indices 1 2 3 4 5 6 
#
# 1 99.1879 36.8114 26.7806 -11.7939 -2.1813 2.0780
# 2 36.8114 107.6058 62.3457 -20.2388 -3.7814 -1.5375
# 3 26.7806 62.3457 171.0360 -2.0476 -22.9027 5.4755
# 4 -11.7939 -20.2388 -2.0476 50.1501 5.4496 -7.2793
# 5 -2.1813 -3.7814 -22.9027 5.4496 40.8327 -6.8301
# 6 2.0780 -1.5375 5.4755 -7.2793 -6.8301 24.5138
#
#
#
# Elastic Compliance Matrix: (Units=1/GPa)
#
#
# Indices 1 2 3 4 5 6 
#
# 1 0.011675 -0.003450 -0.000573 0.001249 -0.000317 -0.000796
# 2 -0.003450 0.014380 -0.004988 0.005483 -0.001808 0.003433
# 3 -0.000573 -0.004988 0.008347 -0.002513 0.004241 -0.001693
# 4 0.001249 0.005483 -0.002513 0.023673 -0.002816 0.007044
# 5 -0.000317 -0.001808 0.004241 -0.002816 0.028055 0.005947
# 6 -0.000796 0.003433 -0.001693 0.007044 0.005947 0.045203
#
#
# Mechanical properties :
#
#
# Convention : Reuss Voigt Hill
#
# Bulk Modulus (GPa) = 61.04603 69.96723 65.50663
# Shear Modulus (GPa) = 32.29690 39.89212 36.09451
#
# Velocity S-wave (km/s) = 3.67742 4.08702 3.88762
# Velocity P-wave (km/s) = 6.60246 7.18111 6.89786
#
# Compressibility (1/GPa) = 0.01638108
#
# Stress axis : x y z
#
# Youngs Moduli (GPa) = 85.65316 69.54027 119.80891
#
# Poissons Ratio (x) = 0.23990 0.06859
# Poissons Ratio (y) = 0.29549 0.59761
# Poissons Ratio (z) = 0.04904 0.34687
#
# Static dielectric constant tensor:
#      x y z
#    x 1.999840 0.212700 -0.083210 
#    y 0.212700 2.291210 -0.196220 
#    z -0.083210 -0.196220 2.035100 
# 
# From -- ./inp_files/270842.got.cif
#   From: 2010.05.17/outbox.cif.g08.bks.cpg/sg2_136_cif.got.tgz:270842.got - 2010.06.03 11:33:40.
