data_PCOD9058025
_publ_section_title
;
Structure prediction by ZEFSAII (Michael W. Deem and Ramdas Pophale) SiO2 
 PCOD9058025
Probable space group: P -1
;
_chemical_formula_sum "Si O2"
_cell_formula_units_Z 14
_cell_length_a 6.780108
_cell_length_b 12.521465
_cell_length_c 13.055731
_cell_angle_alpha 118.325709
_cell_angle_beta 128.321178
_cell_angle_gamma 50.614993
_cell_volume 666.073782
_symmetry_space_group_name_H-M "P -1"
_symmetry_group_IT_number 2
_symmetry_cell_setting 'triclinic'
loop_
_space_group_symop_operation_xyz
x,y,z
-x,-y,-z
loop_
_atom_site_type_symbol
_atom_site_label
_atom_site_fract_x
_atom_site_fract_y
_atom_site_fract_z
Si Si1 0.964854 0.329337 0.325368
Si Si2 0.282938 0.014995 0.347881
Si Si3 0.801822 0.956633 0.208995
Si Si4 0.396816 0.633077 0.955461
Si Si5 0.727466 0.760831 0.233185
Si Si6 0.174250 0.538540 0.434087
Si Si7 0.137115 0.090832 0.036084
O O1 0.149845 0.161666 0.312095
O O2 0.134548 0.402863 0.365483
O O3 0.663355 0.383635 0.190222
O O4 0.907591 0.382862 0.447593
O O5 0.500000 0.000000 0.500000
O O6 0.464853 0.880873 0.271213
O O7 0.008943 0.020577 0.319705
O O8 0.890230 0.827146 0.253325
O O9 0.459186 0.044856 0.155156
O O10 0.842365 0.925480 0.086961
O O11 0.077724 0.749517 0.938268
O O12 0.500000 0.500000 0.000000
O O13 0.596262 0.700244 0.078676
O O14 0.947650 0.641143 0.324224
O O15 0.500000 0.500000 0.500000
O O16 0.000000 0.000000 0.000000
#
# Coordination Sequence:
#
# PCOD9058025 Si02
#       7
#     2   2   2   2   2   2   2
#     4  11  26  47  73 102 143 190 236 300 357 418
#     4  12  26  46  74 103 143 192 247 295 353 430
#     4  11  24  40  76 101 140 186 237 297 365 411
#     4  12  24  45  72 103 144 187 234 294 361 422
#     4  12  25  48  70 107 143 187 241 304 353 427
#     4  11  27  49  71 100 150 192 234 291 366 431
#     4  11  22  44  69 101 144 183 228 295 361 419
#
# _framework density 21.018694
#
# number of rings (size 3 to 8) (size 9 to 14) (size 15 to 20)
#    0.000    0.571    5.714    1.714    4.000    4.000 
#    0.000    1.429    0.000    0.000    0.000    0.000 
#    0.000    0.000    0.000    0.000    0.000    0.000 
#
# Total GULP energy -78226.675857 kJ/mol
# GULP energy per Si atom -5587.619704 kJ/mol
# Density = 2.097085 g / cm^3
# Si number density = 21.018694 Si / 1000 Ang^3
#
#
#
# Elastic Constant Matrix: (Units=GPa)
#
#
# Indices 1 2 3 4 5 6 
#
# 1 139.4281 63.3094 39.5436 -8.8490 18.6369 22.6597
# 2 63.3094 132.2638 29.9265 -18.0638 19.8359 31.3699
# 3 39.5436 29.9265 138.3179 -21.7413 23.9501 18.1161
# 4 -8.8490 -18.0638 -21.7413 39.0340 1.3031 -2.8779
# 5 18.6369 19.8359 23.9501 1.3031 30.0001 -3.0404
# 6 22.6597 31.3699 18.1161 -2.8779 -3.0404 27.8279
#
#
#
# Elastic Compliance Matrix: (Units=1/GPa)
#
#
# Indices 1 2 3 4 5 6 
#
# 1 0.010064 -0.002768 -0.000841 0.000308 -0.004266 -0.004960
# 2 -0.002768 0.015379 0.003254 0.007424 -0.013181 -0.017873
# 3 -0.000841 0.003254 0.011476 0.007302 -0.012226 -0.011035
# 4 0.000308 0.007424 0.007302 0.032798 -0.013516 -0.011459
# 5 -0.004266 -0.013181 -0.012226 -0.013516 0.058214 0.031254
# 6 -0.004960 -0.017873 -0.011035 -0.011459 0.031254 0.069536
#
#
# Mechanical properties :
#
#
# Convention : Reuss Voigt Hill
#
# Bulk Modulus (GPa) = 27.61800 75.06319 51.34060
# Shear Modulus (GPa) = 23.78154 37.85443 30.81798
#
# Velocity S-wave (km/s) = 3.36735 4.24841 3.83328
# Velocity P-wave (km/s) = 5.31855 7.73663 6.63861
#
# Compressibility (1/GPa) = 0.03620826
#
# Stress axis : x y z
#
# Youngs Moduli (GPa) = 99.36677 65.02258 87.13639
#
# Poissons Ratio (x) = 0.18001 0.07331
# Poissons Ratio (y) = 0.27508 -0.28356
# Poissons Ratio (z) = 0.08360 -0.21159
#
# Static dielectric constant tensor:
#      x y z
#    x 1.734570 0.012590 -0.007990 
#    y 0.012590 1.746650 0.006740 
#    z -0.007990 0.006740 1.825970 
# 
# From -- ./inp_files/365119.got.cif
#   From: 2010.05.17/outbox.cif.g08.bks.cpg/sg2_183_cif.got.tgz:365119.got - 2010.06.03 11:33:40.
