data_PCOD9058938
_publ_section_title
;
Structure prediction by ZEFSAII (Michael W. Deem and Ramdas Pophale) SiO2 
 PCOD9058938
Probable space group: P -1
;
_chemical_formula_sum "Si O2"
_cell_formula_units_Z 16
_cell_length_a 15.426207
_cell_length_b 14.446733
_cell_length_c 13.691010
_cell_angle_alpha 20.899465
_cell_angle_beta 134.879598
_cell_angle_gamma 125.678944
_cell_volume 735.616663
_symmetry_space_group_name_H-M "P -1"
_symmetry_group_IT_number 2
_symmetry_cell_setting 'triclinic'
loop_
_space_group_symop_operation_xyz
x,y,z
-x,-y,-z
loop_
_atom_site_type_symbol
_atom_site_label
_atom_site_fract_x
_atom_site_fract_y
_atom_site_fract_z
Si Si1 0.224260 0.383580 0.827978
Si Si2 0.846926 0.564345 0.692913
Si Si3 0.680099 0.174757 0.640422
Si Si4 0.200262 0.914812 0.986897
Si Si5 0.605448 0.764783 0.703982
Si Si6 0.748810 0.167872 0.368678
Si Si7 0.962114 0.119003 0.743693
Si Si8 0.909618 0.848794 0.636028
O O1 0.260349 0.600513 0.574297
O O2 0.090013 0.549896 0.609095
O O3 0.339709 0.284626 0.094434
O O4 0.230305 0.122835 0.026389
O O5 0.821842 0.731066 0.610493
O O6 0.811602 0.797972 0.354393
O O7 0.795545 0.317476 0.860789
O O8 0.997998 0.409249 0.978806
O O9 0.540908 0.218055 0.442242
O O10 0.680163 0.182719 0.749309
O O11 0.075065 0.979795 0.894324
O O12 0.636526 0.029279 0.428074
O O13 0.692336 0.489319 0.994596
O O14 0.835861 0.089598 0.613961
O O15 0.831624 0.048890 0.457912
O O16 0.000000 0.000000 0.000000
O O17 0.000000 0.000000 0.500000
#
# Coordination Sequence:
#
# PCOD9058938 Si02
#       8
#     2   2   2   2   2   2   2   2
#     4  11  23  39  64  90 124 178 225 268 301 362
#     4  11  24  40  65  98 127 161 206 258 322 394
#     4  12  24  43  63  87 127 182 222 261 307 366
#     4  12  25  40  63  95 135 170 205 261 319 397
#     4  11  25  42  63  91 127 170 229 267 301 362
#     4  11  25  41  67  96 127 165 210 270 320 375
#     4  11  23  40  59  98 139 168 206 254 332 379
#     4  11  23  42  72  99 129 161 205 265 330 390
#
# _framework density 21.750458999999999
#
# number of rings (size 3 to 8) (size 9 to 14) (size 15 to 20)
#    0.000    0.750    3.750    3.750    7.000    1.500 
#    0.000    0.000    0.000    4.500    0.000    0.000 
#    0.000    0.000    0.000    0.000    0.000    0.000 
#
# Total GULP energy -89391.231290 kJ/mol
# GULP energy per Si atom -5586.951956 kJ/mol
# Density = 2.170095 g / cm^3
# Si number density = 21.750459 Si / 1000 Ang^3
#
#
#
# Elastic Constant Matrix: (Units=GPa)
#
#
# Indices 1 2 3 4 5 6 
#
# 1 28.3525 7.2140 7.8992 -4.9226 3.0085 -7.2760
# 2 7.2140 96.8401 42.0354 -16.2731 9.7369 -12.6350
# 3 7.8992 42.0354 49.9169 -3.8240 -2.2028 -5.5944
# 4 -4.9226 -16.2731 -3.8240 36.6584 -2.4313 1.9280
# 5 3.0085 9.7369 -2.2028 -2.4313 26.7312 -8.1959
# 6 -7.2760 -12.6350 -5.5944 1.9280 -8.1959 35.8198
#
#
#
# Elastic Compliance Matrix: (Units=1/GPa)
#
#
# Indices 1 2 3 4 5 6 
#
# 1 0.039633 0.002187 -0.007131 0.004976 -0.003346 0.006675
# 2 0.002187 0.019365 -0.016158 0.006583 -0.007189 0.002752
# 3 -0.007131 -0.016158 0.034962 -0.003894 0.009423 0.000678
# 4 0.004976 0.006583 -0.003894 0.030395 -0.000194 0.001044
# 5 -0.003346 -0.007189 0.009423 -0.000194 0.043698 0.008265
# 6 0.006675 0.002752 0.000678 0.001044 0.008265 0.032185
#
#
# Mechanical properties :
#
#
# Convention : Reuss Voigt Hill
#
# Bulk Modulus (GPa) = 19.32220 32.15631 25.73925
# Shear Modulus (GPa) = 19.25332 27.70592 23.47962
#
# Velocity S-wave (km/s) = 2.97844 3.57292 3.28914
# Velocity P-wave (km/s) = 4.55314 5.64245 5.12681
#
# Compressibility (1/GPa) = 0.05175395
#
# Stress axis : x y z
#
# Youngs Moduli (GPa) = 25.23174 51.63881 28.60231
#
# Poissons Ratio (x) = -0.11291 0.20398
# Poissons Ratio (y) = -0.05517 0.46216
# Poissons Ratio (z) = 0.17994 0.83439
#
# Static dielectric constant tensor:
#      x y z
#    x 1.811660 -0.000910 -0.002570 
#    y -0.000910 1.843280 -0.015480 
#    z -0.002570 -0.015480 1.797670 
# 
# From -- ./inp_files/523454.got.cif
#   From: 2010.05.17/outbox.cif.g08.bks.cpg/sg2_262_cif.got.tgz:523454.got - 2010.06.03 11:33:40.
