data_PCOD9058091
_publ_section_title
;
Structure prediction by ZEFSAII (Michael W. Deem and Ramdas Pophale) SiO2 
 PCOD9058091
Probable space group: P -1
;
_chemical_formula_sum "Si O2"
_cell_formula_units_Z 14
_cell_length_a 19.019978
_cell_length_b 11.085552
_cell_length_c 9.605058
_cell_angle_alpha 56.869731
_cell_angle_beta 37.092494
_cell_angle_gamma 31.577320
_cell_volume 580.092764
_symmetry_space_group_name_H-M "P -1"
_symmetry_group_IT_number 2
_symmetry_cell_setting 'triclinic'
loop_
_space_group_symop_operation_xyz
x,y,z
-x,-y,-z
loop_
_atom_site_type_symbol
_atom_site_label
_atom_site_fract_x
_atom_site_fract_y
_atom_site_fract_z
Si Si1 0.844766 0.849971 0.498184
Si Si2 0.932186 0.804702 0.829306
Si Si3 0.092157 0.608384 0.996528
Si Si4 0.391537 0.628718 0.942936
Si Si5 0.630642 0.923720 0.033691
Si Si6 0.225456 0.496118 0.309824
Si Si7 0.679659 0.339087 0.429602
O O1 0.680785 0.924915 0.796462
O O2 0.054968 0.611751 0.401573
O O3 0.780643 0.082566 0.465240
O O4 0.905190 0.761689 0.299027
O O5 0.773745 0.870109 0.948355
O O6 0.028210 0.638656 0.920874
O O7 0.109506 0.661600 0.529264
O O8 0.805415 0.071032 0.915932
O O9 0.152239 0.714898 0.845589
O O10 0.292557 0.315415 0.912157
O O11 0.326812 0.534675 0.058268
O O12 0.500000 0.500000 0.000000
O O13 0.558286 0.520664 0.641581
O O14 0.399231 0.203725 0.253279
O O15 0.500000 0.500000 0.500000
#
# Coordination Sequence:
#
# PCOD9058091 Si02
#       7
#     2   2   2   2   2   2   2
#     4  11  24  48  71  97 135 181 234 280 333 410
#     4  11  24  43  68 105 139 176 227 286 337 402
#     4  12  26  44  69 105 139 181 223 283 352 395
#     4  12  20  40  70 100 131 179 229 274 334 400
#     4  11  25  47  70  99 142 182 226 277 336 418
#     4  11  22  44  70  99 137 179 233 278 335 403
#     4  12  25  45  70 103 137 178 227 289 340 398
#
# _framework density 24.134070000000001
#
# number of rings (size 3 to 8) (size 9 to 14) (size 15 to 20)
#    0.000    0.571    2.857    6.000    0.000    1.143 
#   10.286    0.000    0.000    0.000    0.000    0.000 
#    0.000    0.000    0.000    0.000    0.000    0.000 
#
# Total GULP energy -78496.838487 kJ/mol
# GULP energy per Si atom -5606.917035 kJ/mol
# Density = 2.407914 g / cm^3
# Si number density = 24.134070 Si / 1000 Ang^3
#
#
#
# Elastic Constant Matrix: (Units=GPa)
#
#
# Indices 1 2 3 4 5 6 
#
# 1 69.1042 -3.3039 16.6283 -16.3464 -4.4368 -11.0507
# 2 -3.3039 159.9265 32.1161 11.7235 -1.7823 0.8548
# 3 16.6283 32.1161 90.7154 -3.8077 6.8775 -12.9796
# 4 -16.3464 11.7235 -3.8077 40.2489 -3.8751 1.5364
# 5 -4.4368 -1.7823 6.8775 -3.8751 38.2827 -4.0707
# 6 -11.0507 0.8548 -12.9796 1.5364 -4.0707 35.0579
#
#
#
# Elastic Compliance Matrix: (Units=1/GPa)
#
#
# Indices 1 2 3 4 5 6 
#
# 1 0.017811 0.000417 -0.002728 0.007039 0.003789 0.004726
# 2 0.000417 0.006987 -0.002811 -0.002041 0.000574 -0.000924
# 3 -0.002728 -0.002811 0.013270 0.000593 -0.002365 0.003821
# 4 0.007039 -0.002041 0.000593 0.028647 0.003691 0.001661
# 5 0.003789 0.000574 -0.002365 0.003691 0.027743 0.003364
# 6 0.004726 -0.000924 0.003821 0.001661 0.003364 0.031769
#
#
# Mechanical properties :
#
#
# Convention : Reuss Voigt Hill
#
# Bulk Modulus (GPa) = 35.94195 45.62524 40.78359
# Shear Modulus (GPa) = 34.30619 41.00492 37.65556
#
# Velocity S-wave (km/s) = 3.77435 4.12642 3.95430
# Velocity P-wave (km/s) = 5.82402 6.45361 6.14688
#
# Compressibility (1/GPa) = 0.02782265
#
# Stress axis : x y z
#
# Youngs Moduli (GPa) = 56.14459 143.12230 75.35947
#
# Poissons Ratio (x) = -0.05965 0.20558
# Poissons Ratio (y) = -0.02340 0.21186
# Poissons Ratio (z) = 0.15316 0.40237
#
# Static dielectric constant tensor:
#      x y z
#    x 1.973850 0.051690 -0.016240 
#    y 0.051690 1.913370 -0.021740 
#    z -0.016240 -0.021740 1.901250 
# 
# From -- ./inp_files/66035.got.cif
#   From: 2010.05.17/outbox.cif.g08.bks.cpg/sg2_34_cif.got.tgz:66035.got - 2010.06.03 11:33:40.
