data_PCOD9058994
_publ_section_title
;
Structure prediction by ZEFSAII (Michael W. Deem and Ramdas Pophale) SiO2 
 PCOD9058994
Probable space group: P -1
;
_chemical_formula_sum "Si O2"
_cell_formula_units_Z 16
_cell_length_a 24.796325
_cell_length_b 11.694381
_cell_length_c 5.491986
_cell_angle_alpha 76.372683
_cell_angle_beta 112.673129
_cell_angle_gamma 152.732842
_cell_volume 651.290524
_symmetry_space_group_name_H-M "P -1"
_symmetry_group_IT_number 2
_symmetry_cell_setting 'triclinic'
loop_
_space_group_symop_operation_xyz
x,y,z
-x,-y,-z
loop_
_atom_site_type_symbol
_atom_site_label
_atom_site_fract_x
_atom_site_fract_y
_atom_site_fract_z
Si Si1 0.418951 0.201837 0.064136
Si Si2 0.134613 0.484238 0.434836
Si Si3 0.991884 0.095244 0.751721
Si Si4 0.281567 0.991921 0.428745
Si Si5 0.483873 0.833165 0.504960
Si Si6 0.241341 0.443968 0.527832
Si Si7 0.871255 0.056372 0.923123
Si Si8 0.379615 0.529035 0.042336
O O1 0.374858 0.175958 0.260183
O O2 0.420011 0.063184 0.198061
O O3 0.340953 0.111383 0.743478
O O4 0.563158 0.454917 0.077330
O O5 0.217576 0.748842 0.446890
O O6 0.205642 0.513674 0.379808
O O7 0.115851 0.372248 0.702468
O O8 0.991216 0.260861 0.213540
O O9 0.889461 0.860104 0.501478
O O10 0.924499 0.082431 0.771758
O O11 0.000000 0.000000 0.000000
O O12 0.169473 0.885406 0.242989
O O13 0.328928 0.544882 0.419590
O O14 0.491497 0.770863 0.300639
O O15 0.500000 0.000000 0.500000
O O16 0.332849 0.572695 0.843208
O O17 0.741938 0.759140 0.928258
#
# Coordination Sequence:
#
# PCOD9058994 Si02
#       8
#     2   2   2   2   2   2   2   2
#     4  11  27  52  72 111 150 202 266 312 388 446
#     4  12  27  46  72 111 158 200 257 313 386 463
#     4  12  24  43  73 111 151 196 253 316 389 456
#     4  12  30  50  78 109 157 211 260 315 377 459
#     4  11  24  43  74 111 150 193 253 317 389 456
#     4  11  23  39  72 105 151 189 243 318 388 452
#     4  12  27  48  75 110 151 205 258 315 382 462
#     4  11  24  46  75 111 149 196 259 325 387 452
#
# _framework density 24.566610000000001
#
# number of rings (size 3 to 8) (size 9 to 14) (size 15 to 20)
#    0.000    0.500    5.000    2.250    5.250    2.500 
#    0.000    0.000    0.000    0.000    0.000    0.000 
#    0.000    0.000    0.000    0.000    0.000    0.000 
#
# Total GULP energy -89178.606121 kJ/mol
# GULP energy per Si atom -5573.662883 kJ/mol
# Density = 2.451070 g / cm^3
# Si number density = 24.566610 Si / 1000 Ang^3
#
#
#
# Elastic Constant Matrix: (Units=GPa)
#
#
# Indices 1 2 3 4 5 6 
#
# 1 107.7379 22.9154 44.2695 -11.2698 15.7071 13.9781
# 2 22.9154 94.0923 25.3462 -8.1432 -5.9756 2.0009
# 3 44.2695 25.3462 145.4667 -4.6269 13.2779 6.4898
# 4 -11.2698 -8.1432 -4.6269 27.4736 2.0391 2.7089
# 5 15.7071 -5.9756 13.2779 2.0391 43.8095 -3.0221
# 6 13.9781 2.0009 6.4898 2.7089 -3.0221 38.4204
#
#
#
# Elastic Compliance Matrix: (Units=1/GPa)
#
#
# Indices 1 2 3 4 5 6 
#
# 1 0.012629 -0.002115 -0.002692 0.004905 -0.004555 -0.004734
# 2 -0.002115 0.011940 -0.001649 0.002136 0.002821 0.000497
# 3 -0.002692 -0.001649 0.008160 -0.000044 -0.001762 -0.000449
# 4 0.004905 0.002136 -0.000044 0.039799 -0.003650 -0.004982
# 5 -0.004555 0.002821 -0.001762 -0.003650 0.025831 0.004097
# 6 -0.004734 0.000497 -0.000449 -0.004982 0.004097 0.028474
#
#
# Mechanical properties :
#
#
# Convention : Reuss Voigt Hill
#
# Bulk Modulus (GPa) = 50.45596 59.15103 54.80350
# Shear Modulus (GPa) = 34.16469 38.92508 36.54489
#
# Velocity S-wave (km/s) = 3.73325 3.98486 3.86110
# Velocity P-wave (km/s) = 6.25827 6.73069 6.49877
#
# Compressibility (1/GPa) = 0.01981926
#
# Stress axis : x y z
#
# Youngs Moduli (GPa) = 79.18211 83.74903 122.54336
#
# Poissons Ratio (x) = 0.17710 0.32987
# Poissons Ratio (y) = 0.16745 0.20204
# Poissons Ratio (z) = 0.21315 0.13808
#
# Static dielectric constant tensor:
#      x y z
#    x 1.954270 0.049590 -0.076000 
#    y 0.049590 1.998910 -0.058360 
#    z -0.076000 -0.058360 2.124950 
# 
# From -- ./inp_files/123643.got.cif
#   From: 2010.05.17/outbox.cif.g08.bks.cpg/sg2_62_cif.got.tgz:123643.got - 2010.06.03 11:33:40.
