data_PCOD9058759
_publ_section_title
;
Structure prediction by ZEFSAII (Michael W. Deem and Ramdas Pophale) SiO2 
 PCOD9058759
Probable space group: P -1
;
_chemical_formula_sum "Si O2"
_cell_formula_units_Z 14
_cell_length_a 7.886342
_cell_length_b 22.275130
_cell_length_c 8.475268
_cell_angle_alpha 142.557398
_cell_angle_beta 71.613667
_cell_angle_gamma 136.244060
_cell_volume 494.238924
_symmetry_space_group_name_H-M "P -1"
_symmetry_group_IT_number 2
_symmetry_cell_setting 'triclinic'
loop_
_space_group_symop_operation_xyz
x,y,z
-x,-y,-z
loop_
_atom_site_type_symbol
_atom_site_label
_atom_site_fract_x
_atom_site_fract_y
_atom_site_fract_z
Si Si1 0.532904 0.567704 0.462529
Si Si2 0.430530 0.030818 0.241925
Si Si3 0.024745 0.122945 0.690447
Si Si4 0.634054 0.440065 0.988768
Si Si5 0.661341 0.835501 0.685118
Si Si6 0.532357 0.798373 0.966638
Si Si7 0.944755 0.344261 0.949405
O O1 0.500000 0.500000 0.500000
O O2 0.627442 0.725209 0.781155
O O3 0.748318 0.595715 0.349042
O O4 0.213071 0.422347 0.146859
O O5 0.387433 0.120258 0.361900
O O6 0.715042 0.163331 0.557087
O O7 0.137647 0.882697 0.138573
O O8 0.500000 0.000000 0.000000
O O9 0.384331 0.299981 0.907184
O O10 0.000000 0.000000 0.500000
O O11 0.781148 0.995026 0.350940
O O12 0.392073 0.302461 0.632044
O O13 0.923792 0.538476 0.997512
O O14 0.436246 0.770760 0.755672
O O15 0.000000 0.000000 0.000000
O O16 0.258991 0.682430 0.929965
#
# Coordination Sequence:
#
# PCOD9058759 Si02
#       7
#     2   2   2   2   2   2   2
#     4  12  28  47  75 111 154 200 259 313 379 452
#     4  11  28  50  79 117 157 199 254 322 382 446
#     4  11  22  48  73 107 148 204 254 297 376 462
#     4  12  26  46  77 113 152 200 256 312 373 459
#     4  12  25  46  82 109 154 207 258 303 386 458
#     4  11  25  49  76 108 155 206 248 315 384 452
#     4  11  28  50  75 113 158 194 257 316 387 446
#
# _framework density 28.326381999999999
#
# number of rings (size 3 to 8) (size 9 to 14) (size 15 to 20)
#    0.000    0.571    4.286    1.714    4.000    5.143 
#    0.000    2.857    0.000    0.000    0.000    0.000 
#    0.000    0.000    0.000    0.000    0.000    0.000 
#
# Total GULP energy -78055.136733 kJ/mol
# GULP energy per Si atom -5575.366910 kJ/mol
# Density = 2.826191 g / cm^3
# Si number density = 28.326382 Si / 1000 Ang^3
#
#
#
# Elastic Constant Matrix: (Units=GPa)
#
#
# Indices 1 2 3 4 5 6 
#
# 1 68.4363 27.2564 22.0027 -8.3011 7.1015 -38.8488
# 2 27.2564 269.1141 48.3392 -15.8633 -15.7335 13.8743
# 3 22.0027 48.3392 129.7795 -38.2568 1.6042 8.8577
# 4 -8.3011 -15.8633 -38.2568 77.8622 10.8983 -9.0181
# 5 7.1015 -15.7335 1.6042 10.8983 43.2601 -6.9521
# 6 -38.8488 13.8743 8.8577 -9.0181 -6.9521 48.3823
#
#
#
# Elastic Compliance Matrix: (Units=1/GPa)
#
#
# Indices 1 2 3 4 5 6 
#
# 1 0.037952 -0.004475 -0.005597 0.004716 -0.003510 0.033156
# 2 -0.004475 0.004636 -0.000906 -0.000781 0.001907 -0.004628
# 3 -0.005597 -0.000906 0.010580 0.004001 -0.001723 -0.005673
# 4 0.004716 -0.000781 0.004001 0.016433 -0.004430 0.005705
# 5 -0.003510 0.001907 -0.001723 -0.004430 0.025532 -0.000207
# 6 0.033156 -0.004628 -0.005673 0.005705 -0.000207 0.050691
#
#
# Mechanical properties :
#
#
# Convention : Reuss Voigt Hill
#
# Bulk Modulus (GPa) = 32.03949 73.61406 52.82678
# Shear Modulus (GPa) = 28.06095 58.54969 43.30532
#
# Velocity S-wave (km/s) = 3.15084 4.55132 3.91423
# Velocity P-wave (km/s) = 4.95706 7.32555 6.25444
#
# Compressibility (1/GPa) = 0.03121148
#
# Stress axis : x y z
#
# Youngs Moduli (GPa) = 26.34933 215.70539 94.52161
#
# Poissons Ratio (x) = 0.96530 0.52903
# Poissons Ratio (y) = 0.11792 0.08562
# Poissons Ratio (z) = 0.14747 0.19540
#
# Static dielectric constant tensor:
#      x y z
#    x 2.386790 -0.016060 0.014040 
#    y -0.016060 2.321020 0.058700 
#    z 0.014040 0.058700 2.378660 
# 
# From -- ./inp_files/226629.got.cif
#   From: 2010.05.17/outbox.cif.g08.bks.cpg/sg2_114_cif.got.tgz:226629.got - 2010.06.03 11:33:40.
