data_PCOD9058813
_publ_section_title
;
Structure prediction by ZEFSAII (Michael W. Deem and Ramdas Pophale) SiO2 
 PCOD9058813
Probable space group: P -1
;
_chemical_formula_sum "Si O2"
_cell_formula_units_Z 12
_cell_length_a 7.960992
_cell_length_b 14.535519
_cell_length_c 10.318433
_cell_angle_alpha 145.854507
_cell_angle_beta 100.276522
_cell_angle_gamma 104.179832
_cell_volume 463.800219
_symmetry_space_group_name_H-M "P -1"
_symmetry_group_IT_number 2
_symmetry_cell_setting 'triclinic'
loop_
_space_group_symop_operation_xyz
x,y,z
-x,-y,-z
loop_
_atom_site_type_symbol
_atom_site_label
_atom_site_fract_x
_atom_site_fract_y
_atom_site_fract_z
Si Si1 0.013416 0.916969 0.266227
Si Si2 0.418009 0.195590 0.029462
Si Si3 0.301129 0.149913 0.342610
Si Si4 0.912424 0.662246 0.590390
Si Si5 0.273535 0.883813 0.420602
Si Si6 0.234165 0.723264 0.504694
O O1 0.053108 0.763619 0.150093
O O2 0.797268 0.816789 0.020834
O O3 0.000000 0.000000 0.500000
O O4 0.257985 0.127677 0.465491
O O5 0.686229 0.436154 0.374143
O O6 0.391878 0.118665 0.788322
O O7 0.356350 0.989818 0.859484
O O8 0.202507 0.255296 0.399258
O O9 0.563595 0.281129 0.476298
O O10 0.128710 0.881449 0.962180
O O11 0.012042 0.595020 0.423983
O O12 0.188093 0.720292 0.340851
O O13 0.500000 0.000000 0.500000
#
# Coordination Sequence:
#
# PCOD9058813 Si02
#       6
#     2   2   2   2   2   2
#     4  10  17  37  63  84 115 160 192 243 302 345
#     4   9  21  37  64  85 120 159 198 247 293 355
#     4  11  22  39  64  85 125 161 191 254 300 349
#     4  11  23  42  56  94 123 153 206 241 300 358
#     4   9  17  36  64  83 117 155 201 240 299 350
#     4  10  21  41  62  86 121 159 192 257 294 341
#
# _framework density 25.873211999999999
#
# number of rings (size 3 to 8) (size 9 to 14) (size 15 to 20)
#    1.000    1.000    3.333    0.500    0.000    1.333 
#    6.000    8.333    0.000    0.000    0.000    0.000 
#    0.000    0.000    0.000    0.000    0.000    0.000 
#
# Total GULP energy -66848.122527 kJ/mol
# GULP energy per Si atom -5570.676877 kJ/mol
# Density = 2.581432 g / cm^3
# Si number density = 25.873212 Si / 1000 Ang^3
#
#
#
# Elastic Constant Matrix: (Units=GPa)
#
#
# Indices 1 2 3 4 5 6 
#
# 1 148.6555 32.6248 30.4214 -19.9315 23.4334 26.5869
# 2 32.6248 96.9332 4.3544 -12.8983 5.0943 19.2515
# 3 30.4214 4.3544 79.6710 8.7579 11.1790 15.7733
# 4 -19.9315 -12.8983 8.7579 24.3686 5.5976 2.2351
# 5 23.4334 5.0943 11.1790 5.5976 38.4677 -6.9465
# 6 26.5869 19.2515 15.7733 2.2351 -6.9465 53.3633
#
#
#
# Elastic Compliance Matrix: (Units=1/GPa)
#
#
# Indices 1 2 3 4 5 6 
#
# 1 0.012018 -0.000232 -0.003425 0.013735 -0.009504 -0.006704
# 2 -0.000232 0.012671 0.000098 0.007806 -0.003656 -0.005287
# 3 -0.003425 0.000098 0.015513 -0.007644 -0.001834 -0.002832
# 4 0.013735 0.007806 -0.007644 0.064633 -0.018853 -0.012561
# 5 -0.009504 -0.003656 -0.001834 -0.018853 0.037767 0.012302
# 6 -0.006704 -0.005287 -0.002832 -0.012561 0.012302 0.026951
#
#
# Mechanical properties :
#
#
# Convention : Reuss Voigt Hill
#
# Bulk Modulus (GPa) = 30.22834 51.11787 40.67310
# Shear Modulus (GPa) = 26.63835 40.43053 33.53444
#
# Velocity S-wave (km/s) = 3.21218 3.95731 3.60405
# Velocity P-wave (km/s) = 5.04639 6.37812 5.75093
#
# Compressibility (1/GPa) = 0.03308154
#
# Stress axis : x y z
#
# Youngs Moduli (GPa) = 83.21117 78.91957 64.46413
#
# Poissons Ratio (x) = 0.01834 0.22081
# Poissons Ratio (y) = 0.01934 -0.00630
# Poissons Ratio (z) = 0.28502 -0.00772
#
# Static dielectric constant tensor:
#      x y z
#    x 2.329880 -0.110950 -0.005380 
#    y -0.110950 2.080680 0.005850 
#    z -0.005380 0.005850 2.092250 
# 
# From -- ./inp_files/268070.got.cif
#   From: 2010.05.17/outbox.cif.g08.bks.cpg/sg2_135_cif.got.tgz:268070.got - 2010.06.03 11:33:40.
