data_PCOD9058848
_publ_section_title
;
Structure prediction by ZEFSAII (Michael W. Deem and Ramdas Pophale) SiO2 
 PCOD9058848
Probable space group: P -1
;
_chemical_formula_sum "Si O2"
_cell_formula_units_Z 14
_cell_length_a 20.728190
_cell_length_b 9.915476
_cell_length_c 8.516986
_cell_angle_alpha 87.095234
_cell_angle_beta 47.273491
_cell_angle_gamma 48.846319
_cell_volume 676.276054
_symmetry_space_group_name_H-M "P -1"
_symmetry_group_IT_number 2
_symmetry_cell_setting 'triclinic'
loop_
_space_group_symop_operation_xyz
x,y,z
-x,-y,-z
loop_
_atom_site_type_symbol
_atom_site_label
_atom_site_fract_x
_atom_site_fract_y
_atom_site_fract_z
Si Si1 0.478825 0.075986 0.352124
Si Si2 0.494300 0.384374 0.743032
Si Si3 0.176726 0.130225 0.597595
Si Si4 0.740852 0.537727 0.802331
Si Si5 0.390240 0.810928 0.788531
Si Si6 0.953955 0.717872 0.541662
Si Si7 0.145199 0.488280 0.701068
O O1 0.554323 0.126868 0.216754
O O2 0.286067 0.324316 0.609731
O O3 0.500000 0.000000 0.500000
O O4 0.582621 0.841893 0.080698
O O5 0.465151 0.581011 0.759996
O O6 0.548068 0.262448 0.488140
O O7 0.641576 0.155727 0.633226
O O8 0.326835 0.523668 0.056812
O O9 0.125071 0.158416 0.506009
O O10 0.163728 0.309874 0.620889
O O11 0.037281 0.256483 0.940183
O O12 0.810354 0.473216 0.518402
O O13 0.885261 0.400209 0.688494
O O14 0.190706 0.061995 0.107573
O O15 0.000000 0.500000 0.500000
#
# Coordination Sequence:
#
# PCOD9058848 Si02
#       7
#     2   2   2   2   2   2   2
#     4  12  21  38  68 100 126 166 223 272 317 379
#     4  11  26  45  67  93 136 177 212 264 333 399
#     4  11  23  42  65 100 132 171 213 271 330 379
#     4  12  23  40  67  99 129 169 219 271 322 382
#     4  11  25  45  67  94 135 175 215 263 335 390
#     4  12  24  40  68 101 130 167 222 278 319 376
#     4  11  23  37  67  97 132 166 220 272 320 379
#
# _framework density 20.701605000000001
#
# number of rings (size 3 to 8) (size 9 to 14) (size 15 to 20)
#    0.000    0.571    5.714    2.143    4.000    1.143 
#    0.000    0.714    0.000    0.000    0.000    0.000 
#    0.000    0.000    0.000    0.000    0.000    0.000 
#
# Total GULP energy -78375.472641 kJ/mol
# GULP energy per Si atom -5598.248046 kJ/mol
# Density = 2.065449 g / cm^3
# Si number density = 20.701605 Si / 1000 Ang^3
#
#
#
# Elastic Constant Matrix: (Units=GPa)
#
#
# Indices 1 2 3 4 5 6 
#
# 1 76.7141 32.0229 13.7972 -14.4378 -26.5777 -22.9063
# 2 32.0229 62.9276 18.7690 -23.3833 -7.3414 -11.4051
# 3 13.7972 18.7690 98.4399 -24.7752 -16.9598 -9.4440
# 4 -14.4378 -23.3833 -24.7752 35.8510 -6.0427 1.0511
# 5 -26.5777 -7.3414 -16.9598 -6.0427 39.8194 3.6400
# 6 -22.9063 -11.4051 -9.4440 1.0511 3.6400 31.3308
#
#
#
# Elastic Compliance Matrix: (Units=1/GPa)
#
#
# Indices 1 2 3 4 5 6 
#
# 1 0.031445 -0.005179 0.007024 0.017582 0.023878 0.019858
# 2 -0.005179 0.025272 0.000843 0.015426 0.003469 0.004747
# 3 0.007024 0.000843 0.016357 0.016732 0.013597 0.008231
# 4 0.017582 0.015426 0.016732 0.061009 0.029313 0.018061
# 5 0.023878 0.003469 0.013597 0.029313 0.050470 0.015972
# 6 0.019858 0.004747 0.008231 0.018061 0.015972 0.048183
#
#
# Mechanical properties :
#
#
# Convention : Reuss Voigt Hill
#
# Bulk Modulus (GPa) = 12.74700 40.80666 26.77683
# Shear Modulus (GPa) = 19.72305 32.96640 26.34472
#
# Velocity S-wave (km/s) = 3.08998 3.99489 3.57121
# Velocity P-wave (km/s) = 4.34759 6.40574 5.47426
#
# Compressibility (1/GPa) = 0.07844981
#
# Stress axis : x y z
#
# Youngs Moduli (GPa) = 31.80185 39.56875 61.13686
#
# Poissons Ratio (x) = 0.20492 -0.42943
# Poissons Ratio (y) = 0.16469 -0.05152
# Poissons Ratio (z) = -0.22338 -0.03334
#
# Static dielectric constant tensor:
#      x y z
#    x 1.726050 -0.005690 0.010920 
#    y -0.005690 1.716930 -0.009300 
#    z 0.010920 -0.009300 1.736260 
# 
# From -- ./inp_files/150444.got.cif
#   From: 2010.05.17/outbox.cif.g08.bks.cpg/sg2_76_cif.got.tgz:150444.got - 2010.06.03 11:33:40.
