data_PCOD9058874
_publ_section_title
;
Structure prediction by ZEFSAII (Michael W. Deem and Ramdas Pophale) SiO2 
 PCOD9058874
Probable space group: P -1
;
_chemical_formula_sum "Si O2"
_cell_formula_units_Z 14
_cell_length_a 9.915834
_cell_length_b 13.805935
_cell_length_c 14.120178
_cell_angle_alpha 29.547209
_cell_angle_beta 129.237250
_cell_angle_gamma 108.272474
_cell_volume 579.404920
_symmetry_space_group_name_H-M "P -1"
_symmetry_group_IT_number 2
_symmetry_cell_setting 'triclinic'
loop_
_space_group_symop_operation_xyz
x,y,z
-x,-y,-z
loop_
_atom_site_type_symbol
_atom_site_label
_atom_site_fract_x
_atom_site_fract_y
_atom_site_fract_z
Si Si1 0.298861 0.048152 0.924825
Si Si2 0.229427 0.532643 0.533802
Si Si3 0.621781 0.164026 0.402720
Si Si4 0.735255 0.712674 0.722281
Si Si5 0.028216 0.273955 0.926502
Si Si6 0.429193 0.404320 0.432252
Si Si7 0.133224 0.647069 0.611055
O O1 0.212361 0.308582 0.713668
O O2 0.117865 0.100464 0.725650
O O3 0.500000 0.000000 0.000000
O O4 0.387962 0.828366 0.223559
O O5 0.043968 0.737708 0.201897
O O6 0.461731 0.465031 0.659433
O O7 0.211435 0.603232 0.574289
O O8 0.379424 0.315125 0.214546
O O9 0.711488 0.317781 0.292000
O O10 0.669664 0.983569 0.489538
O O11 0.787118 0.970882 0.724828
O O12 0.616940 0.702508 0.587165
O O13 0.000000 0.500000 0.000000
O O14 0.799900 0.427764 0.754199
O O15 0.112459 0.439122 0.813127
#
# Coordination Sequence:
#
# PCOD9058874 Si02
#       7
#     2   2   2   2   2   2   2
#     4  11  23  38  64 102 140 168 210 265 331 402
#     4  11  24  39  65 102 139 173 213 267 335 408
#     4  11  25  46  71  93 133 178 226 281 331 386
#     4  11  25  47  70  95 127 178 234 280 327 393
#     4  11  23  40  69  99 137 171 216 271 333 404
#     4  12  23  42  68  97 133 179 222 268 335 393
#     4  11  24  42  64 102 138 171 216 271 333 403
#
# _framework density 24.162721999999999
#
# number of rings (size 3 to 8) (size 9 to 14) (size 15 to 20)
#    0.000    0.857    5.714    3.000    6.000    1.143 
#    0.000    5.000    0.000    0.000    0.000    0.000 
#    0.000    0.000    0.000    0.000    0.000    0.000 
#
# Total GULP energy -78325.706822 kJ/mol
# GULP energy per Si atom -5594.693344 kJ/mol
# Density = 2.410773 g / cm^3
# Si number density = 24.162722 Si / 1000 Ang^3
#
#
#
# Elastic Constant Matrix: (Units=GPa)
#
#
# Indices 1 2 3 4 5 6 
#
# 1 157.5283 48.7108 46.9143 -8.5663 21.0003 23.1508
# 2 48.7108 144.5863 18.0294 6.6977 6.0177 22.6953
# 3 46.9143 18.0294 98.0278 18.6475 10.2050 -2.5414
# 4 -8.5663 6.6977 18.6475 35.5115 -1.8905 3.8982
# 5 21.0003 6.0177 10.2050 -1.8905 45.4903 -2.1363
# 6 23.1508 22.6953 -2.5414 3.8982 -2.1363 50.6755
#
#
#
# Elastic Compliance Matrix: (Units=1/GPa)
#
#
# Indices 1 2 3 4 5 6 
#
# 1 0.009979 -0.002148 -0.005300 0.005919 -0.003097 -0.004448
# 2 -0.002148 0.008154 -0.000193 -0.001686 -0.000234 -0.002560
# 3 -0.005300 -0.000193 0.014792 -0.009497 -0.001056 0.003935
# 4 0.005919 -0.001686 -0.009497 0.035500 0.000856 -0.005120
# 5 -0.003097 -0.000234 -0.001056 0.000856 0.023829 0.002405
# 6 -0.004448 -0.002560 0.003935 -0.005120 0.002405 0.023605
#
#
# Mechanical properties :
#
#
# Convention : Reuss Voigt Hill
#
# Bulk Modulus (GPa) = 56.67872 69.71682 63.19777
# Shear Modulus (GPa) = 36.49096 45.43466 40.96281
#
# Velocity S-wave (km/s) = 3.89037 4.34102 4.12186
# Velocity P-wave (km/s) = 6.60969 7.35130 6.99034
#
# Compressibility (1/GPa) = 0.01764331
#
# Stress axis : x y z
#
# Youngs Moduli (GPa) = 100.21047 122.64320 67.60621
#
# Poissons Ratio (x) = 0.26345 0.35828
# Poissons Ratio (y) = 0.21526 0.01304
# Poissons Ratio (z) = 0.53107 0.02365
#
# Static dielectric constant tensor:
#      x y z
#    x 1.925820 -0.020740 0.050580 
#    y -0.020740 2.018130 -0.088030 
#    z 0.050580 -0.088030 2.071920 
# 
# From -- ./inp_files/221617.got.cif
#   From: 2010.05.17/outbox.cif.g08.bks.cpg/sg2_111_cif.got.tgz:221617.got - 2010.06.03 11:33:40.
