data_PCOD9058569
_publ_section_title
;
Structure prediction by ZEFSAII (Michael W. Deem and Ramdas Pophale) SiO2 
 PCOD9058569
Probable space group: P -1
;
_chemical_formula_sum "Si O2"
_cell_formula_units_Z 16
_cell_length_a 18.937434
_cell_length_b 9.355432
_cell_length_c 12.511878
_cell_angle_alpha 63.664378
_cell_angle_beta 129.939320
_cell_angle_gamma 150.045425
_cell_volume 811.101285
_symmetry_space_group_name_H-M "P -1"
_symmetry_group_IT_number 2
_symmetry_cell_setting 'triclinic'
loop_
_space_group_symop_operation_xyz
x,y,z
-x,-y,-z
loop_
_atom_site_type_symbol
_atom_site_label
_atom_site_fract_x
_atom_site_fract_y
_atom_site_fract_z
Si Si1 0.458820 0.225752 0.620985
Si Si2 0.329668 0.827665 0.440890
Si Si3 0.422974 0.893153 0.079050
Si Si4 0.511308 0.673573 0.879924
Si Si5 0.979742 0.793358 0.098554
Si Si6 0.772866 0.825008 0.599404
Si Si7 0.840694 0.200208 0.878256
Si Si8 0.193196 0.305275 0.545792
O O1 0.493118 0.128199 0.764168
O O2 0.640241 0.568504 0.647018
O O3 0.321981 0.158086 0.547038
O O4 0.381136 0.045063 0.495815
O O5 0.220997 0.739386 0.269458
O O6 0.232833 0.550557 0.503579
O O7 0.500000 0.000000 0.500000
O O8 0.463416 0.123859 0.096364
O O9 0.217551 0.556400 0.986154
O O10 0.500000 0.000000 0.000000
O O11 0.339816 0.438696 0.717703
O O12 0.679922 0.908519 0.890426
O O13 0.500000 0.500000 0.000000
O O14 0.096105 0.845932 0.123182
O O15 0.050743 0.891609 0.256944
O O16 0.000000 0.000000 0.000000
O O17 0.792352 0.733401 0.549939
O O18 0.000000 0.500000 0.000000
O O19 0.000000 0.000000 0.500000
#
# Coordination Sequence:
#
# PCOD9058569 Si02
#       8
#     2   2   2   2   2   2   2   2
#     4  11  22  46  72 102 135 185 236 288 350 417
#     4  12  22  46  75 100 136 184 241 294 350 416
#     4  12  28  48  71 102 149 191 230 290 362 427
#     4  12  29  49  71 103 145 192 238 298 362 421
#     4  12  27  44  73 109 141 184 234 291 355 428
#     4  11  25  43  74 105 138 180 236 290 349 420
#     4  12  26  47  74 106 138 186 247 299 350 424
#     4  12  29  45  72 104 143 186 234 295 358 421
#
# _framework density 19.726267
#
# number of rings (size 3 to 8) (size 9 to 14) (size 15 to 20)
#    0.000    0.250    7.500    0.000   10.500    0.000 
#    0.000    1.250    0.000    0.000    0.000    0.000 
#    0.000    0.000    0.000    0.000    0.000    0.000 
#
# Total GULP energy -89469.276833 kJ/mol
# GULP energy per Si atom -5591.829802 kJ/mol
# Density = 1.968137 g / cm^3
# Si number density = 19.726267 Si / 1000 Ang^3
#
#
#
# Elastic Constant Matrix: (Units=GPa)
#
#
# Indices 1 2 3 4 5 6 
#
# 1 83.7881 16.4352 22.5088 9.1810 5.1521 -1.2032
# 2 16.4352 109.9732 55.5449 5.5897 12.2242 7.7606
# 3 22.5088 55.5449 169.7050 5.6641 11.2271 0.1293
# 4 9.1810 5.5897 5.6641 43.3801 -10.1754 -0.1328
# 5 5.1521 12.2242 11.2271 -10.1754 32.9740 1.0945
# 6 -1.2032 7.7606 0.1293 -0.1328 1.0945 37.5131
#
#
#
# Elastic Compliance Matrix: (Units=1/GPa)
#
#
# Indices 1 2 3 4 5 6 
#
# 1 0.012908 -0.001007 -0.001139 -0.002966 -0.002193 0.000680
# 2 -0.001007 0.011574 -0.003372 -0.001646 -0.003416 -0.002321
# 3 -0.001139 -0.003372 0.007247 -0.000558 -0.001234 0.000670
# 4 -0.002966 -0.001646 -0.000558 0.026154 0.009332 0.000068
# 5 -0.002193 -0.003416 -0.001234 0.009332 0.035248 -0.000355
# 6 0.000680 -0.002321 0.000670 0.000068 -0.000355 0.027168
#
#
# Mechanical properties :
#
#
# Convention : Reuss Voigt Hill
#
# Bulk Modulus (GPa) = 48.32543 61.38267 54.85405
# Shear Modulus (GPa) = 36.17107 40.70526 38.43817
#
# Velocity S-wave (km/s) = 4.28676 4.54751 4.41906
# Velocity P-wave (km/s) = 7.00378 7.66537 7.34203
#
# Compressibility (1/GPa) = 0.02069304
#
# Stress axis : x y z
#
# Youngs Moduli (GPa) = 77.47143 86.40111 137.98831
#
# Poissons Ratio (x) = 0.08703 0.15714
# Poissons Ratio (y) = 0.07804 0.46528
# Poissons Ratio (z) = 0.08822 0.29133
#
# Static dielectric constant tensor:
#      x y z
#    x 1.767250 -0.018830 0.054930 
#    y -0.018830 1.629310 -0.012300 
#    z 0.054930 -0.012300 1.709380 
# 
# From -- ./inp_files/207089.got.cif
#   From: 2010.05.17/outbox.cif.g08.bks.cpg/sg2_104_cif.got.tgz:207089.got - 2010.06.03 11:33:40.
