data_PCOD9058468
_publ_section_title
;
Structure prediction by ZEFSAII (Michael W. Deem and Ramdas Pophale) SiO2 
 PCOD9058468
Probable space group: P -1
;
_chemical_formula_sum "Si O2"
_cell_formula_units_Z 16
_cell_length_a 11.768489
_cell_length_b 8.770359
_cell_length_c 14.377983
_cell_angle_alpha 84.024880
_cell_angle_beta 150.308667
_cell_angle_gamma 106.718060
_cell_volume 669.926342
_symmetry_space_group_name_H-M "P -1"
_symmetry_group_IT_number 2
_symmetry_cell_setting 'triclinic'
loop_
_space_group_symop_operation_xyz
x,y,z
-x,-y,-z
loop_
_atom_site_type_symbol
_atom_site_label
_atom_site_fract_x
_atom_site_fract_y
_atom_site_fract_z
Si Si1 0.024502 0.325764 0.037796
Si Si2 0.935565 0.576694 0.542931
Si Si3 0.231571 0.169131 0.328052
Si Si4 0.491713 0.681312 0.962308
Si Si5 0.143439 0.208485 0.947645
Si Si6 0.532189 0.917195 0.329401
Si Si7 0.255120 0.158235 0.685164
Si Si8 0.289546 0.733693 0.469579
O O1 0.131574 0.306334 0.215377
O O2 0.189162 0.289461 0.076876
O O3 0.000000 0.500000 0.000000
O O4 0.752371 0.180115 0.837062
O O5 0.000000 0.500000 0.500000
O O6 0.788988 0.686277 0.398878
O O7 0.776326 0.436136 0.511151
O O8 0.214075 0.674673 0.775676
O O9 0.297612 0.152071 0.482649
O O10 0.488522 0.211465 0.451308
O O11 0.020301 0.990942 0.156100
O O12 0.608619 0.741641 0.940374
O O13 0.668428 0.805711 0.156613
O O14 0.500000 0.500000 0.000000
O O15 0.962841 0.279344 0.760826
O O16 0.546616 0.877258 0.234926
O O17 0.633999 0.111679 0.413868
O O18 0.000000 0.000000 0.500000
#
# Coordination Sequence:
#
# PCOD9058468 Si02
#       8
#     2   2   2   2   2   2   2   2
#     4  12  28  41  67 109 141 183 232 297 369 420
#     4  12  26  44  75 109 138 198 245 287 362 430
#     4  11  24  45  72 101 133 194 233 283 361 430
#     4  12  26  47  76 107 143 192 248 298 349 434
#     4  11  22  47  72 100 141 182 242 292 349 433
#     4  11  25  47  69 103 147 180 232 305 365 422
#     4  12  28  50  72 108 149 189 240 306 367 422
#     4  11  22  45  75 100 141 187 243 288 351 446
#
# _framework density 23.883222
#
# number of rings (size 3 to 8) (size 9 to 14) (size 15 to 20)
#    0.000    0.500    5.000    3.375    5.250    4.000 
#    0.000    0.000    0.000    0.000    0.000    0.000 
#    0.000    0.000    0.000    0.000    0.000    0.000 
#
# Total GULP energy -89705.316412 kJ/mol
# GULP energy per Si atom -5606.582276 kJ/mol
# Density = 2.382886 g / cm^3
# Si number density = 23.883222 Si / 1000 Ang^3
#
#
#
# Elastic Constant Matrix: (Units=GPa)
#
#
# Indices 1 2 3 4 5 6 
#
# 1 97.8176 7.9497 1.4287 22.3609 1.1877 10.3512
# 2 7.9497 54.5095 9.1215 -5.6741 0.2501 24.3340
# 3 1.4287 9.1215 89.9274 6.7916 -3.3995 7.5123
# 4 22.3609 -5.6741 6.7916 34.5103 4.8350 1.1027
# 5 1.1877 0.2501 -3.3995 4.8350 38.2899 8.4924
# 6 10.3512 24.3340 7.5123 1.1027 8.4924 31.3779
#
#
#
# Elastic Compliance Matrix: (Units=1/GPa)
#
#
# Indices 1 2 3 4 5 6 
#
# 1 0.012663 -0.001380 0.000945 -0.008727 0.001568 -0.003451
# 2 -0.001380 0.030085 -0.001345 0.006276 0.004240 -0.023922
# 3 0.000945 -0.001345 0.011781 -0.003353 0.002006 -0.002515
# 4 -0.008727 0.006276 -0.003353 0.036988 -0.004455 -0.001279
# 5 0.001568 0.004240 0.002006 -0.004455 0.029465 -0.012104
# 6 -0.003451 -0.023922 -0.002515 -0.001279 -0.012104 0.055483
#
#
# Mechanical properties :
#
#
# Convention : Reuss Voigt Hill
#
# Bulk Modulus (GPa) = 19.61974 31.02826 25.32400
# Shear Modulus (GPa) = 25.37902 35.75261 30.56581
#
# Velocity S-wave (km/s) = 3.26334 3.87327 3.58131
# Velocity P-wave (km/s) = 4.73623 5.74655 5.26568
#
# Compressibility (1/GPa) = 0.05096907
#
# Stress axis : x y z
#
# Youngs Moduli (GPa) = 78.97280 33.23935 84.88522
#
# Poissons Ratio (x) = 0.04587 -0.08025
# Poissons Ratio (y) = 0.10898 0.11416
# Poissons Ratio (z) = -0.07466 0.04470
#
# Static dielectric constant tensor:
#      x y z
#    x 1.900870 -0.071050 -0.154270 
#    y -0.071050 1.864870 -0.148510 
#    z -0.154270 -0.148510 1.555150 
# 
# From -- ./inp_files/515584.got.cif
#   From: 2010.05.17/outbox.cif.g08.bks.cpg/sg2_258_cif.got.tgz:515584.got - 2010.06.03 11:33:40.
