data_PCOD9058530
_publ_section_title
;
Structure prediction by ZEFSAII (Michael W. Deem and Ramdas Pophale) SiO2 
 PCOD9058530
Probable space group: P -1
;
_chemical_formula_sum "Si O2"
_cell_formula_units_Z 16
_cell_length_a 8.821790
_cell_length_b 16.398378
_cell_length_c 9.383606
_cell_angle_alpha 142.770683
_cell_angle_beta 115.126403
_cell_angle_gamma 73.157923
_cell_volume 740.655677
_symmetry_space_group_name_H-M "P -1"
_symmetry_group_IT_number 2
_symmetry_cell_setting 'triclinic'
loop_
_space_group_symop_operation_xyz
x,y,z
-x,-y,-z
loop_
_atom_site_type_symbol
_atom_site_label
_atom_site_fract_x
_atom_site_fract_y
_atom_site_fract_z
Si Si1 0.411839 0.283956 0.693569
Si Si2 0.938144 0.876210 0.082542
Si Si3 0.941971 0.815854 0.480472
Si Si4 0.686103 0.462271 0.493196
Si Si5 0.378622 0.073786 0.157912
Si Si6 0.966449 0.649361 0.999240
Si Si7 0.715931 0.465323 0.181402
Si Si8 0.174443 0.818024 0.847762
O O1 0.258715 0.207810 0.614681
O O2 0.467876 0.184263 0.453535
O O3 0.336189 0.407115 0.751291
O O4 0.563373 0.347766 0.939545
O O5 0.763647 0.864742 0.909505
O O6 0.924575 0.785995 0.091335
O O7 0.082190 0.819185 0.963084
O O8 0.993257 0.035652 0.345089
O O9 0.027207 0.806144 0.654928
O O10 0.999951 0.696982 0.239242
O O11 0.500000 0.500000 0.500000
O O12 0.807997 0.541837 0.765130
O O13 0.740677 0.501853 0.407986
O O14 0.710326 0.303998 0.293234
O O15 0.500000 0.000000 0.000000
O O16 0.279783 0.959349 0.056443
O O17 0.120987 0.587224 0.898577
#
# Coordination Sequence:
#
# PCOD9058530 Si02
#       8
#     2   2   2   2   2   2   2   2
#     4  11  23  44  66  95 138 172 219 278 325 394
#     4  11  22  46  69  97 135 178 221 272 329 395
#     4  11  23  44  67 101 130 177 224 269 328 393
#     4  12  27  45  67  98 133 174 222 274 335 400
#     4  11  24  41  71 100 130 178 224 273 326 390
#     4  12  26  43  70  97 136 173 220 277 336 392
#     4  11  26  42  68  98 132 175 222 273 335 392
#     4  11  23  44  73  95 134 177 225 267 329 396
#
# _framework density 21.602482999999999
#
# number of rings (size 3 to 8) (size 9 to 14) (size 15 to 20)
#    0.000    0.750    3.750    3.750    7.000    3.000 
#    0.000    1.250    0.000    0.000    0.000    0.000 
#    0.000    0.000    0.000    0.000    0.000    0.000 
#
# Total GULP energy -89579.020586 kJ/mol
# GULP energy per Si atom -5598.688787 kJ/mol
# Density = 2.155331 g / cm^3
# Si number density = 21.602483 Si / 1000 Ang^3
#
#
#
# Elastic Constant Matrix: (Units=GPa)
#
#
# Indices 1 2 3 4 5 6 
#
# 1 76.3946 -17.8487 10.7711 11.2976 -16.5257 -14.7609
# 2 -17.8487 29.3904 -3.2631 7.4955 2.5215 -8.0913
# 3 10.7711 -3.2631 105.3955 2.2680 -9.9836 -4.6595
# 4 11.2976 7.4955 2.2680 12.0051 1.5890 -11.1378
# 5 -16.5257 2.5215 -9.9836 1.5890 39.1021 0.3910
# 6 -14.7609 -8.0913 -4.6595 -11.1378 0.3910 26.5237
#
#
#
# Elastic Compliance Matrix: (Units=1/GPa)
#
#
# Indices 1 2 3 4 5 6 
#
# 1 0.030925 0.030842 0.000298 -0.041833 0.012768 0.008917
# 2 0.030842 0.071798 0.002080 -0.064433 0.011432 0.012207
# 3 0.000298 0.002080 0.009886 -0.002413 0.002599 0.001486
# 4 -0.041833 -0.064433 -0.002413 0.207205 -0.023001 0.043988
# 5 0.012768 0.011432 0.002599 -0.023001 0.031822 0.000922
# 6 0.008917 0.012207 0.001486 0.043988 0.000922 0.065107
#
#
# Mechanical properties :
#
#
# Convention : Reuss Voigt Hill
#
# Bulk Modulus (GPa) = 5.58505 21.16656 13.37580
# Shear Modulus (GPa) = 12.19553 30.29425 21.24489
#
# Velocity S-wave (km/s) = 2.37859 3.74886 3.13940
# Velocity P-wave (km/s) = 3.18348 5.34398 4.39845
#
# Compressibility (1/GPa) = 0.17904950
#
# Stress axis : x y z
#
# Youngs Moduli (GPa) = 32.33628 13.92791 101.15529
#
# Poissons Ratio (x) = -0.42956 -0.03017
# Poissons Ratio (y) = -0.99731 -0.21041
# Poissons Ratio (z) = -0.00964 -0.02897
#
# Static dielectric constant tensor:
#      x y z
#    x 1.754190 0.017260 -0.006270 
#    y 0.017260 1.771050 0.006220 
#    z -0.006270 0.006220 1.777690 
# 
# From -- ./inp_files/209556.got.cif
#   From: 2010.05.17/outbox.cif.g08.bks.cpg/sg2_105_cif.got.tgz:209556.got - 2010.06.03 11:33:40.
