data_PCOD9058829
_publ_section_title
;
Structure prediction by ZEFSAII (Michael W. Deem and Ramdas Pophale) SiO2 
 PCOD9058829
Probable space group: P -1
;
_chemical_formula_sum "Si O2"
_cell_formula_units_Z 16
_cell_length_a 12.120388
_cell_length_b 10.681905
_cell_length_c 9.355057
_cell_angle_alpha 122.432370
_cell_angle_beta 85.405434
_cell_angle_gamma 59.501357
_cell_volume 770.586998
_symmetry_space_group_name_H-M "P -1"
_symmetry_group_IT_number 2
_symmetry_cell_setting 'triclinic'
loop_
_space_group_symop_operation_xyz
x,y,z
-x,-y,-z
loop_
_atom_site_type_symbol
_atom_site_label
_atom_site_fract_x
_atom_site_fract_y
_atom_site_fract_z
Si Si1 0.594210 0.296198 0.530931
Si Si2 0.356016 0.726177 0.814701
Si Si3 0.065334 0.089896 0.169133
Si Si4 0.575321 0.855590 0.536853
Si Si5 0.105149 0.517032 0.683324
Si Si6 0.118324 0.830087 0.490322
Si Si7 0.667639 0.943800 0.860542
Si Si8 0.160523 0.458494 0.298587
O O1 0.467625 0.512275 0.739157
O O2 0.637753 0.311191 0.376761
O O3 0.526548 0.195479 0.454197
O O4 0.741908 0.185251 0.535303
O O5 0.403508 0.852458 0.928921
O O6 0.187861 0.869620 0.966779
O O7 0.979690 0.252506 0.152622
O O8 0.962016 0.112505 0.312734
O O9 0.173072 0.125631 0.243758
O O10 0.740165 0.650878 0.362796
O O11 0.500000 0.000000 0.500000
O O12 0.591848 0.946691 0.729479
O O13 0.142655 0.489660 0.492137
O O14 0.985708 0.494985 0.712849
O O15 0.172388 0.612104 0.326570
O O16 0.000000 0.000000 0.500000
O O17 0.706753 0.776559 0.864060
#
# Coordination Sequence:
#
# PCOD9058829 Si02
#       8
#     2   2   2   2   2   2   2   2
#     4  11  26  39  58 100 121 157 213 272 321 352
#     4   9  22  43  65  92 124 155 214 277 303 363
#     4   8  18  40  68  88 111 168 216 249 299 370
#     4  11  23  37  61  90 135 167 195 251 318 388
#     4   8  15  32  62  88 107 156 218 247 281 362
#     4  11  23  37  61  90 135 167 195 251 318 388
#     4   8  18  40  68  88 111 168 216 249 299 370
#     4   8  15  32  62  88 107 156 218 247 281 362
#
# _framework density 20.763394000000002
#
# number of rings (size 3 to 8) (size 9 to 14) (size 15 to 20)
#    0.750    2.000    0.000    2.250   14.000    1.000 
#    0.000    2.500    0.000    1.500    0.000    0.000 
#    0.000    0.000    0.000    0.000    0.000    0.000 
#
# Total GULP energy -89128.596335 kJ/mol
# GULP energy per Si atom -5570.537271 kJ/mol
# Density = 2.071614 g / cm^3
# Si number density = 20.763394 Si / 1000 Ang^3
#
#
#
# Elastic Constant Matrix: (Units=GPa)
#
#
# Indices 1 2 3 4 5 6 
#
# 1 102.5750 34.2126 19.0747 5.2315 21.2376 -24.8581
# 2 34.2126 106.9730 21.0125 18.2592 6.3237 -31.2047
# 3 19.0747 21.0125 73.5807 20.5368 7.9430 -6.3685
# 4 5.2315 18.2592 20.5368 8.9252 -0.8421 -4.9969
# 5 21.2376 6.3237 7.9430 -0.8421 29.7912 -0.3208
# 6 -24.8581 -31.2047 -6.3685 -4.9969 -0.3208 28.6858
#
#
#
# Elastic Compliance Matrix: (Units=1/GPa)
#
#
# Indices 1 2 3 4 5 6 
#
# 1 0.015473 -0.001951 -0.004731 0.011793 -0.008890 0.012191
# 2 -0.001951 0.029933 0.026806 -0.113780 -0.015145 0.016833
# 3 -0.004731 0.026806 0.070215 -0.214520 -0.027070 0.002978
# 4 0.011793 -0.113780 -0.214520 0.832116 0.096298 -0.015149
# 5 -0.008890 -0.015145 -0.027070 0.096298 0.052921 -0.012822
# 6 0.012191 0.016833 0.002978 -0.015149 -0.012822 0.061615
#
#
# Mechanical properties :
#
#
# Convention : Reuss Voigt Hill
#
# Bulk Modulus (GPa) = 6.41558 47.96981 27.19269
# Shear Modulus (GPa) = 4.65557 27.40236 16.02897
#
# Velocity S-wave (km/s) = 1.49902 3.63677 2.78147
# Velocity P-wave (km/s) = 2.46833 6.38655 4.84152
#
# Compressibility (1/GPa) = 0.15587054
#
# Stress axis : x y z
#
# Youngs Moduli (GPa) = 64.62921 33.40758 14.24189
#
# Poissons Ratio (x) = 0.06517 0.06738
# Poissons Ratio (y) = 0.12607 -0.38177
# Poissons Ratio (z) = 0.30575 -0.89552
#
# Static dielectric constant tensor:
#      x y z
#    x 1.816060 -0.015920 0.005220 
#    y -0.015920 1.742320 0.050430 
#    z 0.005220 0.050430 1.841430 
# 
# From -- ./inp_files/422253.got.cif
#   From: 2010.05.17/outbox.cif.g08.bks.cpg/sg2_212_cif.got.tgz:422253.got - 2010.06.03 11:33:40.
