data_PCOD9058711
_publ_section_title
;
Structure prediction by ZEFSAII (Michael W. Deem and Ramdas Pophale) SiO2 
 PCOD9058711
Probable space group: P -1
;
_chemical_formula_sum "Si O2"
_cell_formula_units_Z 16
_cell_length_a 8.903818
_cell_length_b 15.013819
_cell_length_c 8.229563
_cell_angle_alpha 106.636162
_cell_angle_beta 37.379411
_cell_angle_gamma 113.587970
_cell_volume 611.081861
_symmetry_space_group_name_H-M "P -1"
_symmetry_group_IT_number 2
_symmetry_cell_setting 'triclinic'
loop_
_space_group_symop_operation_xyz
x,y,z
-x,-y,-z
loop_
_atom_site_type_symbol
_atom_site_label
_atom_site_fract_x
_atom_site_fract_y
_atom_site_fract_z
Si Si1 0.257176 0.493711 0.591177
Si Si2 0.457062 0.320129 0.720349
Si Si3 0.285981 0.021087 0.074267
Si Si4 0.358302 0.361064 0.155503
Si Si5 0.414233 0.866468 0.395713
Si Si6 0.183763 0.686044 0.060186
Si Si7 0.889358 0.176305 0.037074
Si Si8 0.031765 0.175083 0.461147
O O1 0.500000 0.500000 0.500000
O O2 0.324102 0.605901 0.539226
O O3 0.261041 0.432462 0.390719
O O4 0.010954 0.421077 0.855474
O O5 0.577191 0.243674 0.663158
O O6 0.408043 0.390340 0.941780
O O7 0.178683 0.252619 0.855429
O O8 0.324801 0.069005 0.881704
O O9 0.100744 0.912997 0.134352
O O10 0.196499 0.101096 0.296152
O O11 0.500000 0.000000 0.000000
O O12 0.153529 0.255000 0.260922
O O13 0.591029 0.335254 0.038563
O O14 0.282561 0.874195 0.685122
O O15 0.233407 0.886642 0.421113
O O16 0.025906 0.752208 0.318840
O O17 0.275982 0.757386 0.866176
#
# Coordination Sequence:
#
# PCOD9058711 Si02
#       8
#     2   2   2   2   2   2   2   2
#     4  11  26  45  74 110 145 192 246 299 357 433
#     4  12  25  48  69 109 148 191 238 300 365 423
#     4  12  27  48  75 109 144 193 245 298 365 436
#     4  11  23  46  73 102 148 187 244 295 362 434
#     4  12  25  45  73 104 148 187 241 295 367 423
#     4  11  25  46  75 106 142 196 241 298 366 426
#     4  12  27  44  73 105 149 190 236 306 362 427
#     4  11  22  47  73 102 145 184 243 299 350 441
#
# _framework density 26.183067999999999
#
# number of rings (size 3 to 8) (size 9 to 14) (size 15 to 20)
#    0.000    0.500    5.000    2.250    1.750    8.000 
#    0.000    0.000    0.000    0.000    0.000    0.000 
#    0.000    0.000    0.000    0.000    0.000    0.000 
#
# Total GULP energy -89211.633680 kJ/mol
# GULP energy per Si atom -5575.727105 kJ/mol
# Density = 2.612347 g / cm^3
# Si number density = 26.183068 Si / 1000 Ang^3
#
#
#
# Elastic Constant Matrix: (Units=GPa)
#
#
# Indices 1 2 3 4 5 6 
#
# 1 58.3797 12.5149 1.2991 -10.0356 6.5451 4.9025
# 2 12.5149 154.4731 53.9572 -1.7600 31.0793 -2.7197
# 3 1.2991 53.9572 58.3415 -5.9091 28.6479 -0.1328
# 4 -10.0356 -1.7600 -5.9091 64.8646 -4.6773 21.0493
# 5 6.5451 31.0793 28.6479 -4.6773 32.7365 0.1495
# 6 4.9025 -2.7197 -0.1328 21.0493 0.1495 38.7543
#
#
#
# Elastic Compliance Matrix: (Units=1/GPa)
#
#
# Indices 1 2 3 4 5 6 
#
# 1 0.019276 -0.002152 0.004508 0.004610 -0.005074 -0.005059
# 2 -0.002152 0.009980 -0.008383 -0.001547 -0.001937 0.001792
# 3 0.004508 -0.008383 0.037535 0.002868 -0.025368 -0.002490
# 4 0.004610 -0.001547 0.002868 0.020203 0.000977 -0.011659
# 5 -0.005074 -0.001937 -0.025368 0.000977 0.055742 -0.000326
# 6 -0.005059 0.001792 -0.002490 -0.011659 -0.000326 0.032895
#
#
# Mechanical properties :
#
#
# Convention : Reuss Voigt Hill
#
# Bulk Modulus (GPa) = 18.26916 45.19296 31.73106
# Shear Modulus (GPa) = 24.27996 40.83262 32.55629
#
# Velocity S-wave (km/s) = 3.04849 3.95334 3.53003
# Velocity P-wave (km/s) = 4.40269 6.17547 5.36284
#
# Compressibility (1/GPa) = 0.05473705
#
# Stress axis : x y z
#
# Youngs Moduli (GPa) = 51.87672 100.20077 26.64177
#
# Poissons Ratio (x) = 0.21564 -0.12011
# Poissons Ratio (y) = 0.11164 0.22335
# Poissons Ratio (z) = -0.23387 0.84002
#
# Static dielectric constant tensor:
#      x y z
#    x 2.161180 0.081680 -0.041310 
#    y 0.081680 2.163440 -0.267590 
#    z -0.041310 -0.267590 2.672680 
# 
# From -- ./inp_files/207485.got.cif
#   From: 2010.05.17/outbox.cif.g08.bks.cpg/sg2_104_cif.got.tgz:207485.got - 2010.06.03 11:33:40.
