data_PCOD9058050
_publ_section_title
;
Structure prediction by ZEFSAII (Michael W. Deem and Ramdas Pophale) SiO2 
 PCOD9058050
Probable space group: P -1
;
_chemical_formula_sum "Si O2"
_cell_formula_units_Z 16
_cell_length_a 7.948586
_cell_length_b 8.766927
_cell_length_c 17.331433
_cell_angle_alpha 88.495752
_cell_angle_beta 61.637817
_cell_angle_gamma 47.438062
_cell_volume 696.953269
_symmetry_space_group_name_H-M "P -1"
_symmetry_group_IT_number 2
_symmetry_cell_setting 'triclinic'
loop_
_space_group_symop_operation_xyz
x,y,z
-x,-y,-z
loop_
_atom_site_type_symbol
_atom_site_label
_atom_site_fract_x
_atom_site_fract_y
_atom_site_fract_z
Si Si1 0.671564 0.780536 0.020014
Si Si2 0.487418 0.181478 0.625472
Si Si3 0.078178 0.783353 0.013644
Si Si4 0.743097 0.458306 0.889660
Si Si5 0.335545 0.278671 0.406714
Si Si6 0.718041 0.227500 0.443558
Si Si7 0.653642 0.050826 0.755866
Si Si8 0.160974 0.409705 0.282215
O O1 0.076267 0.260181 0.998968
O O2 0.487517 0.825212 0.132321
O O3 0.742133 0.600843 0.948311
O O4 0.500000 0.000000 0.000000
O O5 0.717558 0.139925 0.526538
O O6 0.189059 0.392944 0.641099
O O7 0.589786 0.944962 0.606487
O O8 0.455521 0.227195 0.724226
O O9 0.429115 0.571162 0.941757
O O10 0.022415 0.794136 0.117746
O O11 0.000000 0.000000 0.000000
O O12 0.812509 0.486606 0.792617
O O13 0.562114 0.217327 0.414615
O O14 0.327635 0.359506 0.323137
O O15 0.000000 0.500000 0.500000
O O16 0.500000 0.500000 0.500000
O O17 0.029600 0.083853 0.341242
O O18 0.701750 0.839364 0.759015
#
# Coordination Sequence:
#
# PCOD9058050 Si02
#       8
#     2   2   2   2   2   2   2   2
#     4  12  23  45  73  96 147 181 228 292 347 406
#     4  11  23  44  69  96 139 181 218 281 341 405
#     4  11  23  44  69  97 133 181 236 285 341 402
#     4  11  25  45  71 102 137 188 232 284 348 410
#     4  11  24  44  70  98 135 177 224 277 342 404
#     4  12  23  45  70  97 137 175 223 282 337 409
#     4  11  24  42  66 105 132 179 230 279 342 403
#     4  11  22  44  69  97 138 179 226 273 342 411
#
# _framework density 22.957063999999999
#
# number of rings (size 3 to 8) (size 9 to 14) (size 15 to 20)
#    0.000    0.750    5.000    2.625    0.000    2.000 
#    9.000    0.000    0.000    0.000    0.000    0.000 
#    0.000    0.000    0.000    0.000    0.000    0.000 
#
# Total GULP energy -89304.622460 kJ/mol
# GULP energy per Si atom -5581.538904 kJ/mol
# Density = 2.290481 g / cm^3
# Si number density = 22.957064 Si / 1000 Ang^3
#
#
#
# Elastic Constant Matrix: (Units=GPa)
#
#
# Indices 1 2 3 4 5 6 
#
# 1 81.1406 25.4288 29.0130 -9.1070 -15.3949 -11.6557
# 2 25.4288 125.7561 30.6499 -35.9057 8.7841 -12.5991
# 3 29.0130 30.6499 111.1919 -34.5592 -0.6498 -1.5914
# 4 -9.1070 -35.9057 -34.5592 52.9021 -5.5963 0.1977
# 5 -15.3949 8.7841 -0.6498 -5.5963 32.8622 -1.7962
# 6 -11.6557 -12.5991 -1.5914 0.1977 -1.7962 36.5828
#
#
#
# Elastic Compliance Matrix: (Units=1/GPa)
#
#
# Indices 1 2 3 4 5 6 
#
# 1 0.016761 -0.002779 -0.003637 -0.000475 0.008697 0.004654
# 2 -0.002779 0.010884 -0.000261 0.006413 -0.002978 0.002671
# 3 -0.003637 -0.000261 0.012230 0.007166 -0.000214 -0.000766
# 4 -0.000475 0.006413 0.007166 0.028178 0.003133 0.002371
# 5 0.008697 -0.002978 -0.000214 0.003133 0.036020 0.003488
# 6 0.004654 0.002671 -0.000766 0.002371 0.003488 0.029863
#
#
# Mechanical properties :
#
#
# Convention : Reuss Voigt Hill
#
# Bulk Modulus (GPa) = 37.70764 54.25243 45.98004
# Shear Modulus (GPa) = 32.02418 40.00255 36.01336
#
# Velocity S-wave (km/s) = 3.73897 4.17885 3.96501
# Velocity P-wave (km/s) = 5.92459 6.85326 6.40578
#
# Compressibility (1/GPa) = 0.02651982
#
# Stress axis : x y z
#
# Youngs Moduli (GPa) = 59.66111 91.87578 81.76908
#
# Poissons Ratio (x) = 0.25536 0.29743
# Poissons Ratio (y) = 0.16582 0.02133
# Poissons Ratio (z) = 0.21701 0.02397
#
# Static dielectric constant tensor:
#      x y z
#    x 1.932000 0.009540 -0.019610 
#    y 0.009540 1.864900 -0.029110 
#    z -0.019610 -0.029110 2.066820 
# 
# From -- ./inp_files/557165.got.cif
#   From: 2010.05.17/outbox.cif.g08.bks.cpg/sg2_279_cif.got.tgz:557165.got - 2010.06.03 11:33:40.
