data_PCOD9058432
_publ_section_title
;
Structure prediction by ZEFSAII (Michael W. Deem and Ramdas Pophale) SiO2 
 PCOD9058432
Probable space group: P -1
;
_chemical_formula_sum "Si O2"
_cell_formula_units_Z 14
_cell_length_a 9.023364
_cell_length_b 18.694581
_cell_length_c 12.208474
_cell_angle_alpha 150.355350
_cell_angle_beta 129.580787
_cell_angle_gamma 41.292472
_cell_volume 671.405163
_symmetry_space_group_name_H-M "P -1"
_symmetry_group_IT_number 2
_symmetry_cell_setting 'triclinic'
loop_
_space_group_symop_operation_xyz
x,y,z
-x,-y,-z
loop_
_atom_site_type_symbol
_atom_site_label
_atom_site_fract_x
_atom_site_fract_y
_atom_site_fract_z
Si Si1 0.616228 0.010394 0.958703
Si Si2 0.075068 0.374578 0.970772
Si Si3 0.518947 0.336835 0.236948
Si Si4 0.613542 0.146653 0.470851
Si Si5 0.073639 0.049127 0.448920
Si Si6 0.874687 0.197040 0.024986
Si Si7 0.284696 0.520573 0.863233
O O1 0.482972 0.975257 0.755561
O O2 0.589106 0.190109 0.163948
O O3 0.876984 0.870639 0.903240
O O4 0.500000 0.000000 0.000000
O O5 0.293435 0.364137 0.111244
O O6 0.897687 0.435587 0.068975
O O7 0.100807 0.204636 0.703771
O O8 0.000000 0.500000 0.000000
O O9 0.500000 0.500000 0.500000
O O10 0.701182 0.274508 0.144118
O O11 0.398133 0.334805 0.614939
O O12 0.814098 0.106227 0.426777
O O13 0.751877 0.100886 0.588070
O O14 0.128204 0.963666 0.242293
O O15 0.813694 0.334673 0.083100
O O16 0.500000 0.500000 0.000000
#
# Coordination Sequence:
#
# PCOD9058432 Si02
#       7
#     2   2   2   2   2   2   2
#     4  12  26  48  74 104 139 195 240 287 361 428
#     4  12  27  45  72 107 143 187 238 292 356 420
#     4  12  31  51  66 104 153 188 235 299 358 425
#     4  11  23  42  75 105 145 177 237 302 346 425
#     4  11  22  45  73 105 140 183 236 295 353 422
#     4  12  27  45  75 102 142 192 238 288 360 429
#     4  12  23  44  73 110 138 182 238 295 359 415
#
# _framework density 20.851790000000001
#
# number of rings (size 3 to 8) (size 9 to 14) (size 15 to 20)
#    0.000    0.286    5.714    3.000    6.000    2.286 
#    0.000    0.000    0.000    0.000    0.000    0.000 
#    0.000    0.000    0.000    0.000    0.000    0.000 
#
# Total GULP energy -78258.118788 kJ/mol
# GULP energy per Si atom -5589.865628 kJ/mol
# Density = 2.080433 g / cm^3
# Si number density = 20.851790 Si / 1000 Ang^3
#
#
#
# Elastic Constant Matrix: (Units=GPa)
#
#
# Indices 1 2 3 4 5 6 
#
# 1 179.2765 80.7151 72.2960 2.0526 -10.8477 -13.9842
# 2 80.7151 137.8614 49.1135 8.6372 11.6027 -6.1843
# 3 72.2960 49.1135 171.1372 11.7028 -0.5050 -13.6275
# 4 2.0526 8.6372 11.7028 37.2173 3.3045 11.5770
# 5 -10.8477 11.6027 -0.5050 3.3045 36.5276 1.2586
# 6 -13.9842 -6.1843 -13.6275 11.5770 1.2586 42.7786
#
#
#
# Elastic Compliance Matrix: (Units=1/GPa)
#
#
# Indices 1 2 3 4 5 6 
#
# 1 0.009009 -0.004754 -0.002375 0.000615 0.004055 0.001216
# 2 -0.004754 0.010909 -0.001003 -0.001619 -0.004754 0.000282
# 3 -0.002375 -0.001003 0.007490 -0.002662 -0.000118 0.002189
# 4 0.000615 -0.001619 -0.002662 0.031085 -0.001834 -0.009240
# 5 0.004055 -0.004754 -0.000118 -0.001834 0.030248 0.000207
# 6 0.001216 0.000282 0.002189 -0.009240 0.000207 0.027006
#
#
# Mechanical properties :
#
#
# Convention : Reuss Voigt Hill
#
# Bulk Modulus (GPa) = 89.73322 99.16936 94.45129
# Shear Modulus (GPa) = 36.83904 42.38140 39.61022
#
# Velocity S-wave (km/s) = 4.20778 4.51322 4.36318
# Velocity P-wave (km/s) = 8.16912 8.64993 8.41296
#
# Compressibility (1/GPa) = 0.01114414
#
# Stress axis : x y z
#
# Youngs Moduli (GPa) = 110.99792 91.67112 133.50493
#
# Poissons Ratio (x) = 0.43580 0.31706
# Poissons Ratio (y) = 0.52768 0.13393
# Poissons Ratio (z) = 0.26361 0.09196
#
# Static dielectric constant tensor:
#      x y z
#    x 1.703910 0.057140 0.053130 
#    y 0.057140 1.792380 0.074870 
#    z 0.053130 0.074870 1.850690 
# 
# From -- ./inp_files/278840.got.cif
#   From: 2010.05.17/outbox.cif.g08.bks.cpg/sg2_140_cif.got.tgz:278840.got - 2010.06.03 11:33:40.
