data_PCOD9058692
_publ_section_title
;
Structure prediction by ZEFSAII (Michael W. Deem and Ramdas Pophale) SiO2 
 PCOD9058692
Probable space group: P -1
;
_chemical_formula_sum "Si O2"
_cell_formula_units_Z 14
_cell_length_a 7.689730
_cell_length_b 9.653082
_cell_length_c 17.410535
_cell_angle_alpha 53.124991
_cell_angle_beta 139.454017
_cell_angle_gamma 103.322048
_cell_volume 605.536895
_symmetry_space_group_name_H-M "P -1"
_symmetry_group_IT_number 2
_symmetry_cell_setting 'triclinic'
loop_
_space_group_symop_operation_xyz
x,y,z
-x,-y,-z
loop_
_atom_site_type_symbol
_atom_site_label
_atom_site_fract_x
_atom_site_fract_y
_atom_site_fract_z
Si Si1 0.227540 0.931169 0.525426
Si Si2 0.072030 0.293594 0.559788
Si Si3 0.956109 0.640951 0.096224
Si Si4 0.599804 0.319620 0.649105
Si Si5 0.908397 0.788778 0.758752
Si Si6 0.509885 0.990722 0.915103
Si Si7 0.040975 0.893998 0.919093
O O1 0.580658 0.874767 0.661821
O O2 0.197912 0.738749 0.553904
O O3 0.111204 0.090358 0.365183
O O4 0.000000 0.000000 0.500000
O O5 0.325640 0.270281 0.591850
O O6 0.217221 0.129449 0.727048
O O7 0.000000 0.500000 0.500000
O O8 0.242951 0.626371 0.245121
O O9 0.992204 0.430657 0.158906
O O10 0.911988 0.765497 0.962983
O O11 0.676839 0.778005 0.008612
O O12 0.500000 0.500000 0.500000
O O13 0.837422 0.118850 0.762270
O O14 0.123031 0.806157 0.890933
O O15 0.727244 0.096387 0.943664
O O16 0.500000 0.000000 0.000000
#
# Coordination Sequence:
#
# PCOD9058692 Si02
#       7
#     2   2   2   2   2   2   2
#     4  11  27  46  69 105 147 184 234 295 348 421
#     4  12  25  43  68 102 135 175 233 287 351 414
#     4  11  23  46  70 102 136 189 234 286 361 417
#     4  11  24  40  74 100 135 182 233 290 350 411
#     4  11  26  46  73 101 143 193 234 283 362 423
#     4  11  24  43  68 102 137 176 233 297 348 411
#     4  11  22  47  70  99 137 183 234 290 351 421
#
# _framework density 23.119979000000001
#
# number of rings (size 3 to 8) (size 9 to 14) (size 15 to 20)
#    0.000    0.857    2.857    3.857   12.000    0.000 
#    0.000    1.429    0.000    0.000    0.000    0.000 
#    0.000    0.000    0.000    0.000    0.000    0.000 
#
# Total GULP energy -78174.018647 kJ/mol
# GULP energy per Si atom -5583.858475 kJ/mol
# Density = 2.306736 g / cm^3
# Si number density = 23.119979 Si / 1000 Ang^3
#
#
#
# Elastic Constant Matrix: (Units=GPa)
#
#
# Indices 1 2 3 4 5 6 
#
# 1 115.5807 14.8613 28.3462 -8.6709 -15.9022 -10.0336
# 2 14.8613 159.1022 30.5310 -22.1721 -5.4216 -7.3569
# 3 28.3462 30.5310 86.4525 -10.5998 -23.1550 -1.2441
# 4 -8.6709 -22.1721 -10.5998 37.4306 8.5216 1.6527
# 5 -15.9022 -5.4216 -23.1550 8.5216 37.8959 0.8049
# 6 -10.0336 -7.3569 -1.2441 1.6527 0.8049 31.7448
#
#
#
# Elastic Compliance Matrix: (Units=1/GPa)
#
#
# Indices 1 2 3 4 5 6 
#
# 1 0.009908 -0.000127 -0.002411 0.000860 0.002411 0.002902
# 2 -0.000127 0.007319 -0.002419 0.003875 -0.001385 0.001395
# 3 -0.002411 -0.002419 0.015397 0.000605 0.007935 -0.000952
# 4 0.000860 0.003875 0.000605 0.030670 -0.005606 -0.000261
# 5 0.002411 -0.001385 0.007935 -0.005606 0.033306 0.000200
# 6 0.002902 0.001395 -0.000952 -0.000261 0.000200 0.032713
#
#
# Mechanical properties :
#
#
# Convention : Reuss Voigt Hill
#
# Bulk Modulus (GPa) = 44.03135 56.51247 50.27191
# Shear Modulus (GPa) = 34.06105 40.57405 37.31755
#
# Velocity S-wave (km/s) = 3.84243 4.19374 4.02192
# Velocity P-wave (km/s) = 6.22670 6.92431 6.58475
#
# Compressibility (1/GPa) = 0.02271109
#
# Stress axis : x y z
#
# Youngs Moduli (GPa) = 100.93160 136.64001 64.94634
#
# Poissons Ratio (x) = 0.01730 0.15657
# Poissons Ratio (y) = 0.01278 0.15710
# Poissons Ratio (z) = 0.24332 0.33051
#
# Static dielectric constant tensor:
#      x y z
#    x 2.046810 0.197030 0.097040 
#    y 0.197030 1.814720 0.159650 
#    z 0.097040 0.159650 1.879660 
# 
# From -- ./inp_files/557049.got.cif
#   From: 2010.05.17/outbox.cif.g08.bks.cpg/sg2_279_cif.got.tgz:557049.got - 2010.06.03 11:33:40.
