data_PCOD9058403
_publ_section_title
;
Structure prediction by ZEFSAII (Michael W. Deem and Ramdas Pophale) SiO2 
 PCOD9058403
Probable space group: P -1
;
_chemical_formula_sum "Si O2"
_cell_formula_units_Z 16
_cell_length_a 15.178020
_cell_length_b 11.945783
_cell_length_c 8.954981
_cell_angle_alpha 106.562075
_cell_angle_beta 97.558273
_cell_angle_gamma 27.283150
_cell_volume 685.424172
_symmetry_space_group_name_H-M "P -1"
_symmetry_group_IT_number 2
_symmetry_cell_setting 'triclinic'
loop_
_space_group_symop_operation_xyz
x,y,z
-x,-y,-z
loop_
_atom_site_type_symbol
_atom_site_label
_atom_site_fract_x
_atom_site_fract_y
_atom_site_fract_z
Si Si1 0.009232 0.998473 0.824437
Si Si2 0.307750 0.788150 0.633341
Si Si3 0.307971 0.437477 0.058085
Si Si4 0.689289 0.981776 0.767492
Si Si5 0.716912 0.694297 0.524026
Si Si6 0.892124 0.515857 0.165209
Si Si7 0.582536 0.074319 0.253650
Si Si8 0.919698 0.879629 0.575123
O O1 0.816382 0.298847 0.837472
O O2 0.009357 0.871402 0.701267
O O3 0.207494 0.834628 0.760731
O O4 0.000000 0.000000 0.000000
O O5 0.500000 0.500000 0.500000
O O6 0.360629 0.857898 0.712257
O O7 0.149988 0.978104 0.536018
O O8 0.422402 0.244684 0.149909
O O9 0.152886 0.531772 0.981858
O O10 0.485921 0.249698 0.908718
O O11 0.677194 0.870611 0.642112
O O12 0.745800 0.015255 0.674409
O O13 0.876673 0.751220 0.836968
O O14 0.775776 0.624847 0.336766
O O15 0.537767 0.821609 0.584458
O O16 0.916630 0.410133 0.537213
O O17 0.781687 0.761433 0.173039
#
# Coordination Sequence:
#
# PCOD9058403 Si02
#       8
#     2   2   2   2   2   2   2   2
#     4  12  28  50  73 104 147 192 240 305 363 427
#     4  12  27  46  74 107 139 191 251 298 357 422
#     4  12  28  45  69 106 149 185 238 290 365 434
#     4  11  25  43  75 108 142 188 242 290 362 426
#     4  11  22  45  72 106 141 186 242 294 353 427
#     4  11  24  44  71 107 146 188 240 290 360 426
#     4  12  25  43  71 104 146 186 232 297 361 425
#     4  11  24  46  74  99 143 189 246 300 353 422
#
# _framework density 23.343207
#
# number of rings (size 3 to 8) (size 9 to 14) (size 15 to 20)
#    0.000    0.500    1.250    7.875    7.000    1.000 
#    0.000    0.000    0.000    0.000    0.000    0.000 
#    0.000    0.000    0.000    0.000    0.000    0.000 
#
# Total GULP energy -89697.313412 kJ/mol
# GULP energy per Si atom -5606.082088 kJ/mol
# Density = 2.329008 g / cm^3
# Si number density = 23.343207 Si / 1000 Ang^3
#
#
#
# Elastic Constant Matrix: (Units=GPa)
#
#
# Indices 1 2 3 4 5 6 
#
# 1 135.2444 -5.5949 43.5457 7.1902 -9.7413 0.2022
# 2 -5.5949 80.4376 7.4578 1.5245 -15.1073 -1.7842
# 3 43.5457 7.4578 68.3030 -2.7026 -15.7038 -7.2559
# 4 7.1902 1.5245 -2.7026 48.2233 -3.6821 6.1148
# 5 -9.7413 -15.1073 -15.7038 -3.6821 28.2033 -6.8212
# 6 0.2022 -1.7842 -7.2559 6.1148 -6.8212 31.0936
#
#
#
# Elastic Compliance Matrix: (Units=1/GPa)
#
#
# Indices 1 2 3 4 5 6 
#
# 1 0.009619 0.001251 -0.006496 -0.001696 -0.000136 -0.001203
# 2 0.001251 0.014212 -0.000091 -0.000331 0.008614 0.002741
# 3 -0.006496 -0.000091 0.022529 0.002219 0.012373 0.007572
# 4 -0.001696 -0.000331 0.002219 0.021725 0.002533 -0.003207
# 5 -0.000136 0.008614 0.012373 0.002533 0.050628 0.013991
# 6 -0.001203 0.002741 0.007572 -0.003207 0.013991 0.037793
#
#
# Mechanical properties :
#
#
# Convention : Reuss Voigt Hill
#
# Bulk Modulus (GPa) = 28.01915 41.64470 34.83193
# Shear Modulus (GPa) = 27.92157 37.40913 32.66535
#
# Velocity S-wave (km/s) = 3.46227 4.00755 3.74485
# Velocity P-wave (km/s) = 5.29266 6.26840 5.80108
#
# Compressibility (1/GPa) = 0.03568988
#
# Stress axis : x y z
#
# Youngs Moduli (GPa) = 103.95736 70.36111 44.38796
#
# Poissons Ratio (x) = -0.08803 0.28832
# Poissons Ratio (y) = -0.13007 0.00403
# Poissons Ratio (z) = 0.67526 0.00639
#
# Static dielectric constant tensor:
#      x y z
#    x 1.855920 -0.017090 -0.021720 
#    y -0.017090 1.898660 -0.029130 
#    z -0.021720 -0.029130 1.873250 
# 
# From -- ./inp_files/307723.got.cif
#   From: 2010.05.17/outbox.cif.g08.bks.cpg/sg2_154_cif.got.tgz:307723.got - 2010.06.03 11:33:40.
