data_PCOD9058511
_publ_section_title
;
Structure prediction by ZEFSAII (Michael W. Deem and Ramdas Pophale) SiO2 
 PCOD9058511
Probable space group: P -1
;
_chemical_formula_sum "Si O2"
_cell_formula_units_Z 16
_cell_length_a 8.455238
_cell_length_b 9.226796
_cell_length_c 10.676440
_cell_angle_alpha 86.341642
_cell_angle_beta 122.345254
_cell_angle_gamma 110.724504
_cell_volume 649.792931
_symmetry_space_group_name_H-M "P -1"
_symmetry_group_IT_number 2
_symmetry_cell_setting 'triclinic'
loop_
_space_group_symop_operation_xyz
x,y,z
-x,-y,-z
loop_
_atom_site_type_symbol
_atom_site_label
_atom_site_fract_x
_atom_site_fract_y
_atom_site_fract_z
Si Si1 0.582801 0.584256 0.706094
Si Si2 0.055642 0.645033 0.609886
Si Si3 0.804524 0.843204 0.427015
Si Si4 0.502515 0.816001 0.803211
Si Si5 0.840984 0.136004 0.828310
Si Si6 0.947513 0.259209 0.140910
Si Si7 0.427342 0.716017 0.403540
Si Si8 0.228602 0.099095 0.867451
O O1 0.523026 0.648329 0.802403
O O2 0.450407 0.630267 0.543406
O O3 0.576239 0.410929 0.697002
O O4 0.814504 0.691551 0.775323
O O5 0.274987 0.779938 0.666481
O O6 0.073937 0.621048 0.769613
O O7 0.000000 0.500000 0.500000
O O8 0.877199 0.708251 0.512466
O O9 0.636710 0.855919 0.449323
O O10 0.736092 0.819206 0.255472
O O11 0.000000 0.000000 0.500000
O O12 0.672244 0.960604 0.793005
O O13 0.564794 0.857164 0.970408
O O14 0.752399 0.223989 0.686572
O O15 0.053197 0.129887 0.872439
O O16 0.864556 0.230566 0.965148
O O17 0.857088 0.087994 0.174149
#
# Coordination Sequence:
#
# PCOD9058511 Si02
#       8
#     2   2   2   2   2   2   2   2
#     4  11  22  46  66  91 141 178 220 276 337 395
#     4  12  27  44  66 101 134 182 225 271 341 403
#     4  12  24  45  66  98 140 178 224 281 334 393
#     4  11  24  43  70  99 135 179 225 278 334 398
#     4  11  24  43  71 106 126 174 238 272 329 399
#     4  11  22  46  70  94 140 177 217 283 335 391
#     4  11  26  40  67  98 132 184 223 272 337 397
#     4  11  23  44  71 103 137 171 227 284 335 390
#
# _framework density 24.623228000000001
#
# number of rings (size 3 to 8) (size 9 to 14) (size 15 to 20)
#    0.000    0.750    5.000    2.250    5.250    2.000 
#    2.250    1.250    0.000    0.000    0.000    0.000 
#    0.000    0.000    0.000    0.000    0.000    0.000 
#
# Total GULP energy -89471.255351 kJ/mol
# GULP energy per Si atom -5591.953459 kJ/mol
# Density = 2.456718 g / cm^3
# Si number density = 24.623228 Si / 1000 Ang^3
#
#
#
# Elastic Constant Matrix: (Units=GPa)
#
#
# Indices 1 2 3 4 5 6 
#
# 1 79.3581 13.2770 31.2639 4.9002 3.2296 -4.5307
# 2 13.2770 46.9366 32.1971 12.4102 11.7492 -3.6215
# 3 31.2639 32.1971 90.8980 9.1265 12.1269 9.6427
# 4 4.9002 12.4102 9.1265 32.3649 -7.1557 -4.9829
# 5 3.2296 11.7492 12.1269 -7.1557 38.6070 -1.0698
# 6 -4.5307 -3.6215 9.6427 -4.9829 -1.0698 34.1217
#
#
#
# Elastic Compliance Matrix: (Units=1/GPa)
#
#
# Indices 1 2 3 4 5 6 
#
# 1 0.015001 -0.000418 -0.005499 0.000146 0.000725 0.003546
# 2 -0.000418 0.033931 -0.009965 -0.011488 -0.009168 0.004397
# 3 -0.005499 -0.009965 0.017745 -0.002044 -0.002659 -0.007184
# 4 0.000146 -0.011488 -0.002044 0.039254 0.011553 0.005472
# 5 0.000725 -0.009168 -0.002659 0.011553 0.031679 0.002555
# 6 0.003546 0.004397 -0.007184 0.005472 0.002555 0.033154
#
#
# Mechanical properties :
#
#
# Convention : Reuss Voigt Hill
#
# Bulk Modulus (GPa) = 28.64230 41.18541 34.91386
# Shear Modulus (GPa) = 23.34657 30.38237 26.86447
#
# Velocity S-wave (km/s) = 3.08255 3.51649 3.30664
# Velocity P-wave (km/s) = 4.93224 5.76629 5.36550
#
# Compressibility (1/GPa) = 0.03491339
#
# Stress axis : x y z
#
# Youngs Moduli (GPa) = 66.66059 29.47182 56.35533
#
# Poissons Ratio (x) = 0.01231 0.30991
# Poissons Ratio (y) = 0.02783 0.56157
# Poissons Ratio (z) = 0.36658 0.29368
#
# Static dielectric constant tensor:
#      x y z
#    x 2.021100 0.019740 -0.020130 
#    y 0.019740 1.948520 0.067170 
#    z -0.020130 0.067170 1.972340 
# 
# From -- ./inp_files/187827.got.cif
#   From: 2010.05.17/outbox.cif.g08.bks.cpg/sg2_94_cif.got.tgz:187827.got - 2010.06.03 11:33:40.
