data_PCOD9058312
_publ_section_title
;
Structure prediction by ZEFSAII (Michael W. Deem and Ramdas Pophale) SiO2 
 PCOD9058312
Probable space group: P -1
;
_chemical_formula_sum "Si O2"
_cell_formula_units_Z 14
_cell_length_a 16.551449
_cell_length_b 8.108016
_cell_length_c 13.189397
_cell_angle_alpha 60.266822
_cell_angle_beta 156.005716
_cell_angle_gamma 122.743383
_cell_volume 605.387930
_symmetry_space_group_name_H-M "P -1"
_symmetry_group_IT_number 2
_symmetry_cell_setting 'triclinic'
loop_
_space_group_symop_operation_xyz
x,y,z
-x,-y,-z
loop_
_atom_site_type_symbol
_atom_site_label
_atom_site_fract_x
_atom_site_fract_y
_atom_site_fract_z
Si Si1 0.205875 0.051569 0.999700
Si Si2 0.779314 0.935214 0.218316
Si Si3 0.651085 0.337584 0.927513
Si Si4 0.226741 0.168903 0.396144
Si Si5 0.663985 0.168370 0.477508
Si Si6 0.532913 0.547811 0.139846
Si Si7 0.106824 0.290691 0.007058
O O1 0.439504 0.038316 0.291769
O O2 0.160155 0.177854 0.003569
O O3 0.217638 0.138969 0.872081
O O4 0.006378 0.867286 0.820605
O O5 0.660603 0.772364 0.209573
O O6 0.691406 0.125773 0.049614
O O7 0.000000 0.000000 0.500000
O O8 0.417226 0.309588 0.628159
O O9 0.657977 0.442172 0.012047
O O10 0.811412 0.480545 0.994758
O O11 0.218980 0.239986 0.250078
O O12 0.274492 0.953857 0.508471
O O13 0.635934 0.382283 0.352241
O O14 0.861388 0.211628 0.763772
O O15 0.500000 0.500000 0.000000
#
# Coordination Sequence:
#
# PCOD9058312 Si02
#       7
#     2   2   2   2   2   2   2
#     4  11  22  46  67 100 134 175 229 272 325 406
#     4  12  25  43  68  99 135 179 219 277 346 388
#     4  12  24  47  64 103 140 169 228 285 321 415
#     4  11  25  44  70 101 136 178 222 280 338 387
#     4  11  22  45  68  99 138 169 234 270 323 409
#     4  12  23  43  68  97 129 182 219 272 338 393
#     4  11  25  43  70 101 134 181 224 275 335 395
#
# _framework density 23.125668000000001
#
# number of rings (size 3 to 8) (size 9 to 14) (size 15 to 20)
#    0.000    0.571    4.286    4.286    0.000    4.571 
#    0.000    6.429    0.000    0.000    0.000    0.000 
#    0.000    0.000    0.000    0.000    0.000    0.000 
#
# Total GULP energy -78172.232199 kJ/mol
# GULP energy per Si atom -5583.730871 kJ/mol
# Density = 2.307303 g / cm^3
# Si number density = 23.125668 Si / 1000 Ang^3
#
#
#
# Elastic Constant Matrix: (Units=GPa)
#
#
# Indices 1 2 3 4 5 6 
#
# 1 88.4932 16.7849 33.5358 -7.0064 -0.6811 -2.2316
# 2 16.7849 100.1135 23.3918 -1.4089 11.7372 8.8422
# 3 33.5358 23.3918 129.4770 25.8247 6.1883 -3.2303
# 4 -7.0064 -1.4089 25.8247 46.9353 7.2501 7.5213
# 5 -0.6811 11.7372 6.1883 7.2501 33.0454 10.4503
# 6 -2.2316 8.8422 -3.2303 7.5213 10.4503 31.7639
#
#
#
# Elastic Compliance Matrix: (Units=1/GPa)
#
#
# Indices 1 2 3 4 5 6 
#
# 1 0.013434 -0.001281 -0.004124 0.004183 0.000693 -0.000337
# 2 -0.001281 0.011364 -0.002093 0.002273 -0.003240 -0.002938
# 3 -0.004124 -0.002093 0.010680 -0.006952 -0.000863 0.003309
# 4 0.004183 0.002273 -0.006952 0.027376 -0.003398 -0.006410
# 5 0.000693 -0.003240 -0.000863 -0.003398 0.035500 -0.010012
# 6 -0.000337 -0.002938 0.003309 -0.006410 -0.010012 0.037425
#
#
# Mechanical properties :
#
#
# Convention : Reuss Voigt Hill
#
# Bulk Modulus (GPa) = 48.82445 51.72320 50.27382
# Shear Modulus (GPa) = 31.72550 38.64033 35.18291
#
# Velocity S-wave (km/s) = 3.70790 4.09208 3.90472
# Velocity P-wave (km/s) = 6.28410 6.68891 6.48966
#
# Compressibility (1/GPa) = 0.02048154
#
# Stress axis : x y z
#
# Youngs Moduli (GPa) = 74.43684 87.99798 93.63300
#
# Poissons Ratio (x) = 0.11276 0.38614
# Poissons Ratio (y) = 0.09538 0.19597
# Poissons Ratio (z) = 0.30697 0.18417
#
# Static dielectric constant tensor:
#      x y z
#    x 1.929220 0.029960 0.017260 
#    y 0.029960 1.997520 0.040790 
#    z 0.017260 0.040790 1.860780 
# 
# From -- ./inp_files/299773.got.cif
#   From: 2010.05.17/outbox.cif.g08.bks.cpg/sg2_150_cif.got.tgz:299773.got - 2010.06.03 11:33:40.
