data_PCOD9058913
_publ_section_title
;
Structure prediction by ZEFSAII (Michael W. Deem and Ramdas Pophale) SiO2 
 PCOD9058913
Probable space group: P -1
;
_chemical_formula_sum "Si O2"
_cell_formula_units_Z 16
_cell_length_a 11.874930
_cell_length_b 9.360573
_cell_length_c 9.005141
_cell_angle_alpha 134.340218
_cell_angle_beta 69.948329
_cell_angle_gamma 116.583570
_cell_volume 639.508380
_symmetry_space_group_name_H-M "P -1"
_symmetry_group_IT_number 2
_symmetry_cell_setting 'triclinic'
loop_
_space_group_symop_operation_xyz
x,y,z
-x,-y,-z
loop_
_atom_site_type_symbol
_atom_site_label
_atom_site_fract_x
_atom_site_fract_y
_atom_site_fract_z
Si Si1 0.698914 0.964972 0.672462
Si Si2 0.999092 0.055896 0.364721
Si Si3 0.869110 0.313955 0.427676
Si Si4 0.109448 0.746986 0.970181
Si Si5 0.395682 0.671945 0.414345
Si Si6 0.487102 0.853086 0.217746
Si Si7 0.510566 0.335127 0.240918
Si Si8 0.793152 0.608036 0.351088
O O1 0.581200 0.834696 0.733084
O O2 0.745952 0.793593 0.437864
O O3 0.794546 0.112363 0.851153
O O4 0.649022 0.109144 0.693212
O O5 0.131778 0.252925 0.442177
O O6 0.894342 0.149146 0.413870
O O7 0.997941 0.848990 0.122073
O O8 0.000000 0.000000 0.500000
O O9 0.754527 0.401934 0.585259
O O10 0.000000 0.500000 0.500000
O O11 0.851888 0.227280 0.202209
O O12 0.107137 0.507650 0.831576
O O13 0.477749 0.699556 0.247272
O O14 0.448986 0.522854 0.384626
O O15 0.339894 0.580741 0.726705
O O16 0.420667 0.913243 0.629997
O O17 0.503690 0.766029 0.988534
#
# Coordination Sequence:
#
# PCOD9058913 Si02
#       8
#     2   2   2   2   2   2   2   2
#     4  11  23  38  71 100 139 175 232 281 344 414
#     4  11  28  48  73 102 137 185 238 293 351 410
#     4  12  26  49  72 100 142 189 240 292 343 413
#     4  11  24  46  72 101 138 182 239 284 349 418
#     4  11  27  44  67  97 150 181 227 287 361 408
#     4  11  24  43  65 104 140 185 223 288 355 427
#     4  12  23  40  70 105 137 179 231 283 353 419
#     4  11  23  41  70 102 137 176 232 285 348 412
#
# _framework density 25.019217999999999
#
# number of rings (size 3 to 8) (size 9 to 14) (size 15 to 20)
#    0.000    0.750    3.750    3.000    7.000    0.500 
#    4.500    0.000    0.000    0.000    0.000    0.000 
#    0.000    0.000    0.000    0.000    0.000    0.000 
#
# Total GULP energy -89245.778780 kJ/mol
# GULP energy per Si atom -5577.861174 kJ/mol
# Density = 2.496227 g / cm^3
# Si number density = 25.019218 Si / 1000 Ang^3
#
#
#
# Elastic Constant Matrix: (Units=GPa)
#
#
# Indices 1 2 3 4 5 6 
#
# 1 92.0120 9.6537 -7.7000 3.7595 -4.1708 -4.5006
# 2 9.6537 93.0509 6.1078 -8.3630 -1.9446 -8.2827
# 3 -7.7000 6.1078 130.3789 14.8620 -10.9765 6.7412
# 4 3.7595 -8.3630 14.8620 35.2564 -4.8030 -0.7612
# 5 -4.1708 -1.9446 -10.9765 -4.8030 43.3514 4.6492
# 6 -4.5006 -8.2827 6.7412 -0.7612 4.6492 39.1093
#
#
#
# Elastic Compliance Matrix: (Units=1/GPa)
#
#
# Indices 1 2 3 4 5 6 
#
# 1 0.011238 -0.001306 0.000975 -0.001768 0.000999 0.000696
# 2 -0.001306 0.011492 -0.001117 0.003420 0.000216 0.002517
# 3 0.000975 -0.001117 0.008467 -0.003709 0.001979 -0.001891
# 4 -0.001768 0.003420 -0.003709 0.031279 0.002350 0.001490
# 5 0.000999 0.000216 0.001979 0.002350 0.024258 -0.003019
# 6 0.000696 0.002517 -0.001891 0.001490 -0.003019 0.026896
#
#
# Mechanical properties :
#
#
# Convention : Reuss Voigt Hill
#
# Bulk Modulus (GPa) = 35.33628 36.84052 36.08840
# Shear Modulus (GPa) = 39.69471 44.03545 41.86508
#
# Velocity S-wave (km/s) = 3.98750 4.19986 4.09506
# Velocity P-wave (km/s) = 5.94596 6.18671 6.06753
#
# Compressibility (1/GPa) = 0.02829952
#
# Stress axis : x y z
#
# Youngs Moduli (GPa) = 88.98175 87.02052 118.10401
#
# Poissons Ratio (x) = 0.11365 -0.11510
# Poissons Ratio (y) = 0.11621 0.13195
# Poissons Ratio (z) = -0.08672 0.09722
#
# Static dielectric constant tensor:
#      x y z
#    x 2.085680 0.014810 -0.042730 
#    y 0.014810 2.041130 0.004040 
#    z -0.042730 0.004040 2.017960 
# 
# From -- ./inp_files/299644.got.cif
#   From: 2010.05.17/outbox.cif.g08.bks.cpg/sg2_150_cif.got.tgz:299644.got - 2010.06.03 11:33:40.
