data_PCOD9058512
_publ_section_title
;
Structure prediction by ZEFSAII (Michael W. Deem and Ramdas Pophale) SiO2 
 PCOD9058512
Probable space group: P -1
;
_chemical_formula_sum "Si O2"
_cell_formula_units_Z 14
_cell_length_a 10.030578
_cell_length_b 8.741480
_cell_length_c 15.920016
_cell_angle_alpha 89.305627
_cell_angle_beta 53.140409
_cell_angle_gamma 131.382569
_cell_volume 613.851395
_symmetry_space_group_name_H-M "P -1"
_symmetry_group_IT_number 2
_symmetry_cell_setting 'triclinic'
loop_
_space_group_symop_operation_xyz
x,y,z
-x,-y,-z
loop_
_atom_site_type_symbol
_atom_site_label
_atom_site_fract_x
_atom_site_fract_y
_atom_site_fract_z
Si Si1 0.690482 0.423707 0.248996
Si Si2 0.797725 0.734487 0.520181
Si Si3 0.267342 0.680279 0.038554
Si Si4 0.529284 0.652522 0.057897
Si Si5 0.284514 0.914031 0.283141
Si Si6 0.977508 0.790344 0.972070
Si Si7 0.315754 0.604229 0.296414
O O1 0.500646 0.392185 0.380576
O O2 0.468549 0.124020 0.293189
O O3 0.806213 0.609548 0.123209
O O4 0.991316 0.576488 0.171444
O O5 0.729301 0.534376 0.605028
O O6 0.000000 0.000000 0.500000
O O7 0.019790 0.835164 0.365494
O O8 0.484347 0.778690 0.027592
O O9 0.477413 0.906622 0.884005
O O10 0.103389 0.408945 0.059737
O O11 0.836828 0.836621 0.985943
O O12 0.281147 0.470942 0.227635
O O13 0.500000 0.500000 0.000000
O O14 0.154458 0.644290 0.349660
O O15 0.665267 0.924654 0.159916
#
# Coordination Sequence:
#
# PCOD9058512 Si02
#       7
#     2   2   2   2   2   2   2
#     4  10  17  37  61  88 119 153 196 240 297 346
#     4  10  23  35  59  88 119 160 200 245 293 349
#     4  10  19  37  61  90 127 153 185 245 311 347
#     4  10  23  34  56  94 127 153 186 250 310 346
#     4  10  20  36  60  91 120 155 199 244 288 356
#     4  10  18  35  61  93 113 150 202 251 282 342
#     4  12  20  37  63  89 117 152 212 246 283 348
#
# _framework density 22.806823000000001
#
# number of rings (size 3 to 8) (size 9 to 14) (size 15 to 20)
#    0.000    1.714    4.286    1.714    2.000    0.571 
#    0.000    0.000    0.000    8.571    0.000    0.000 
#    0.000    0.000    0.000    0.000    0.000    0.000 
#
# Total GULP energy -78126.240849 kJ/mol
# GULP energy per Si atom -5580.445775 kJ/mol
# Density = 2.275491 g / cm^3
# Si number density = 22.806823 Si / 1000 Ang^3
#
#
#
# Elastic Constant Matrix: (Units=GPa)
#
#
# Indices 1 2 3 4 5 6 
#
# 1 118.5342 12.3059 21.9192 13.0193 -30.6033 -31.2309
# 2 12.3059 97.9467 26.4236 15.0089 -14.6354 -15.7064
# 3 21.9192 26.4236 76.6470 19.1080 -34.7628 -19.1050
# 4 13.0193 15.0089 19.1080 32.4014 -18.4242 -8.0162
# 5 -30.6033 -14.6354 -34.7628 -18.4242 34.5065 15.4571
# 6 -31.2309 -15.7064 -19.1050 -8.0162 15.4571 33.0072
#
#
#
# Elastic Compliance Matrix: (Units=1/GPa)
#
#
# Indices 1 2 3 4 5 6 
#
# 1 0.013155 0.000473 0.003465 0.001602 0.011977 0.009458
# 2 0.000473 0.011975 -0.002856 -0.003723 -0.001233 0.004166
# 3 0.003465 -0.002856 0.025967 0.000741 0.026251 0.004836
# 4 0.001602 -0.003723 0.000741 0.045729 0.025248 -0.000545
# 5 0.011977 -0.001233 0.026251 0.025248 0.081798 -0.006234
# 6 0.009458 0.004166 0.004836 -0.000545 -0.006234 0.046814
#
#
# Mechanical properties :
#
#
# Convention : Reuss Voigt Hill
#
# Bulk Modulus (GPa) = 18.77527 46.04726 32.41126
# Shear Modulus (GPa) = 20.74450 35.48165 28.11307
#
# Velocity S-wave (km/s) = 3.01919 3.94858 3.51474
# Velocity P-wave (km/s) = 4.51710 6.40486 5.54195
#
# Compressibility (1/GPa) = 0.05326156
#
# Stress axis : x y z
#
# Youngs Moduli (GPa) = 76.01859 83.50698 38.50980
#
# Poissons Ratio (x) = -0.03952 -0.13344
# Poissons Ratio (y) = -0.03598 0.10999
# Poissons Ratio (z) = -0.26341 0.23851
#
# Static dielectric constant tensor:
#      x y z
#    x 1.869850 -0.001980 -0.017830 
#    y -0.001980 1.935740 0.059720 
#    z -0.017830 0.059720 1.873740 
# 
# From -- ./inp_files/422090.got.cif
#   From: 2010.05.17/outbox.cif.g08.bks.cpg/sg2_212_cif.got.tgz:422090.got - 2010.06.03 11:33:40.
