data_PCOD9058716
_publ_section_title
;
Structure prediction by ZEFSAII (Michael W. Deem and Ramdas Pophale) SiO2 
 PCOD9058716
Probable space group: P -1
;
_chemical_formula_sum "Si O2"
_cell_formula_units_Z 16
_cell_length_a 9.107441
_cell_length_b 9.538781
_cell_length_c 11.975197
_cell_angle_alpha 83.574101
_cell_angle_beta 104.923299
_cell_angle_gamma 136.953436
_cell_volume 681.566864
_symmetry_space_group_name_H-M "P -1"
_symmetry_group_IT_number 2
_symmetry_cell_setting 'triclinic'
loop_
_space_group_symop_operation_xyz
x,y,z
-x,-y,-z
loop_
_atom_site_type_symbol
_atom_site_label
_atom_site_fract_x
_atom_site_fract_y
_atom_site_fract_z
Si Si1 0.323609 0.525361 0.705464
Si Si2 0.989570 0.983701 0.864200
Si Si3 0.906219 0.207010 0.240302
Si Si4 0.940254 0.371616 0.793710
Si Si5 0.668574 0.973158 0.661996
Si Si6 0.972558 0.145779 0.504527
Si Si7 0.514737 0.591508 0.111104
Si Si8 0.581194 0.156414 0.904308
O O1 0.429155 0.742426 0.660321
O O2 0.170501 0.346927 0.599233
O O3 0.509464 0.541047 0.784295
O O4 0.164843 0.451643 0.786607
O O5 0.229605 0.191338 0.847301
O O6 0.983002 0.822286 0.826355
O O7 0.821231 0.980111 0.774906
O O8 0.000000 0.000000 0.000000
O O9 0.995372 0.422397 0.214078
O O10 0.971652 0.215885 0.378173
O O11 0.637247 0.006380 0.202329
O O12 0.815940 0.258470 0.895732
O O13 0.744215 0.182844 0.689233
O O14 0.750925 0.009743 0.548659
O O15 0.000000 0.000000 0.500000
O O16 0.391360 0.658399 0.080515
O O17 0.500000 0.500000 0.000000
O O18 0.500000 0.000000 0.000000
#
# Coordination Sequence:
#
# PCOD9058716 Si02
#       8
#     2   2   2   2   2   2   2   2
#     4  11  25  45  73 108 143 192 243 300 362 429
#     4  11  23  43  69 106 144 184 241 299 355 436
#     4  11  26  46  72 106 144 190 239 301 370 427
#     4  11  26  47  70 103 151 185 242 298 365 430
#     4  11  24  44  73 105 146 192 240 298 361 430
#     4  11  22  47  73 107 149 185 247 304 360 436
#     4  11  24  42  72 104 141 188 243 293 358 433
#     4  11  28  46  69 107 143 189 241 298 366 436
#
# _framework density 23.47532
#
# number of rings (size 3 to 8) (size 9 to 14) (size 15 to 20)
#    0.000    1.000    3.750    2.250   10.500    4.000 
#    0.000    3.750    0.000    0.000    0.000    0.000 
#    0.000    0.000    0.000    0.000    0.000    0.000 
#
# Total GULP energy -89369.899515 kJ/mol
# GULP energy per Si atom -5585.618720 kJ/mol
# Density = 2.342189 g / cm^3
# Si number density = 23.475320 Si / 1000 Ang^3
#
#
#
# Elastic Constant Matrix: (Units=GPa)
#
#
# Indices 1 2 3 4 5 6 
#
# 1 93.1334 49.9053 32.7998 7.7142 -26.3253 -6.2073
# 2 49.9053 153.1455 9.5163 1.8576 -20.0189 -16.7824
# 3 32.7998 9.5163 113.1759 3.2318 -10.4932 -11.0440
# 4 7.7142 1.8576 3.2318 35.0157 7.3732 -9.7370
# 5 -26.3253 -20.0189 -10.4932 7.3732 32.2876 0.0760
# 6 -6.2073 -16.7824 -11.0440 -9.7370 0.0760 47.3437
#
#
#
# Elastic Compliance Matrix: (Units=1/GPa)
#
#
# Indices 1 2 3 4 5 6 
#
# 1 0.018283 -0.004141 -0.003722 -0.006480 0.012612 -0.001292
# 2 -0.004141 0.008372 0.000927 0.000751 0.001938 0.002792
# 3 -0.003722 0.000927 0.010118 0.000308 0.000753 0.002263
# 4 -0.006480 0.000751 0.000308 0.034399 -0.012588 0.006583
# 5 0.012612 0.001938 0.000753 -0.012588 0.045576 -0.000146
# 6 -0.001292 0.002792 0.002263 0.006583 -0.000146 0.023825
#
#
# Mechanical properties :
#
#
# Convention : Reuss Voigt Hill
#
# Bulk Modulus (GPa) = 43.66698 60.43307 52.05002
# Shear Modulus (GPa) = 30.84938 40.74495 35.79716
#
# Velocity S-wave (km/s) = 3.62901 4.17063 3.90921
# Velocity P-wave (km/s) = 6.01675 6.99938 6.52658
#
# Compressibility (1/GPa) = 0.02290060
#
# Stress axis : x y z
#
# Youngs Moduli (GPa) = 54.69703 119.45096 98.82996
#
# Poissons Ratio (x) = 0.49462 0.36785
# Poissons Ratio (y) = 0.22649 -0.09159
# Poissons Ratio (z) = 0.20358 -0.11071
#
# Static dielectric constant tensor:
#      x y z
#    x 1.966250 0.000990 0.025210 
#    y 0.000990 1.915910 0.052750 
#    z 0.025210 0.052750 1.918120 
# 
# From -- ./inp_files/382040.got.cif
#   From: 2010.05.17/outbox.cif.g08.bks.cpg/sg2_192_cif.got.tgz:382040.got - 2010.06.03 11:33:40.
