data_PCOD9058986
_publ_section_title
;
Structure prediction by ZEFSAII (Michael W. Deem and Ramdas Pophale) SiO2 
 PCOD9058986
Probable space group: P -1
;
_chemical_formula_sum "Si O2"
_cell_formula_units_Z 16
_cell_length_a 19.674086
_cell_length_b 24.428269
_cell_length_c 10.202821
_cell_angle_alpha 144.449691
_cell_angle_beta 35.288053
_cell_angle_gamma 165.973237
_cell_volume 678.290947
_symmetry_space_group_name_H-M "P -1"
_symmetry_group_IT_number 2
_symmetry_cell_setting 'triclinic'
loop_
_space_group_symop_operation_xyz
x,y,z
-x,-y,-z
loop_
_atom_site_type_symbol
_atom_site_label
_atom_site_fract_x
_atom_site_fract_y
_atom_site_fract_z
Si Si1 0.897689 0.139656 0.927742
Si Si2 0.441814 0.680705 0.862728
Si Si3 0.517427 0.546333 0.338075
Si Si4 0.145158 0.677213 0.017685
Si Si5 0.476462 0.096206 0.378907
Si Si6 0.309899 0.589576 0.187690
Si Si7 0.061965 0.916723 0.523575
Si Si8 0.715148 0.765085 0.072834
O O1 0.855801 0.082127 0.730755
O O2 0.176294 0.279682 0.797586
O O3 0.628305 0.908290 0.981457
O O4 0.992758 0.316362 0.142976
O O5 0.549437 0.675794 0.589528
O O6 0.113043 0.455363 0.902811
O O7 0.452861 0.670775 0.980956
O O8 0.277162 0.331166 0.400011
O O9 0.372880 0.406544 0.155183
O O10 0.353828 0.901705 0.201502
O O11 0.316678 0.752513 0.777918
O O12 0.000000 0.500000 0.000000
O O13 0.636418 0.263603 0.572418
O O14 0.205719 0.963977 0.508805
O O15 0.461160 0.640055 0.163188
O O16 0.199437 0.122004 0.705876
O O17 0.000000 0.000000 0.000000
#
# Coordination Sequence:
#
# PCOD9058986 Si02
#       8
#     2   2   2   2   2   2   2   2
#     4  11  22  36  60  91 129 162 194 238 298 364
#     4  12  24  39  60  91 123 161 205 247 299 361
#     4  10  19  36  56  87 126 160 199 237 292 361
#     4  11  24  43  67  90 116 153 206 259 306 352
#     4  10  22  43  67  90 116 156 202 251 309 353
#     4  10  22  40  63  88 125 158 197 246 297 362
#     4  10  17  37  64  87 119 160 199 245 299 356
#     4   8  18  31  61  86 116 162 195 234 292 348
#
# _framework density 23.588697
#
# number of rings (size 3 to 8) (size 9 to 14) (size 15 to 20)
#    0.000    1.750    2.500    1.500    3.500    2.500 
#    0.000    3.125    0.000    0.000    0.000    0.000 
#    0.000    0.000    0.000    0.000    0.000    0.000 
#
# Total GULP energy -89363.103043 kJ/mol
# GULP energy per Si atom -5585.193940 kJ/mol
# Density = 2.353501 g / cm^3
# Si number density = 23.588697 Si / 1000 Ang^3
#
#
#
# Elastic Constant Matrix: (Units=GPa)
#
#
# Indices 1 2 3 4 5 6 
#
# 1 34.4265 21.2405 21.9536 8.2295 6.3014 -7.3492
# 2 21.2405 103.7307 40.0791 26.9510 13.3622 -14.1953
# 3 21.9536 40.0791 132.0426 36.7098 12.7514 -2.3321
# 4 8.2295 26.9510 36.7098 51.0037 11.9772 -5.9873
# 5 6.3014 13.3622 12.7514 11.9772 19.2371 -0.6401
# 6 -7.3492 -14.1953 -2.3321 -5.9873 -0.6401 38.1703
#
#
#
# Elastic Compliance Matrix: (Units=1/GPa)
#
#
# Indices 1 2 3 4 5 6 
#
# 1 0.036701 -0.004707 -0.004478 0.002016 -0.006865 0.005243
# 2 -0.004707 0.013197 -0.001770 -0.003593 -0.004106 0.003261
# 3 -0.004478 -0.001770 0.010553 -0.006006 -0.000620 -0.001828
# 4 0.002016 -0.003593 -0.006006 0.028653 -0.011924 0.002979
# 5 -0.006865 -0.004106 -0.000620 -0.011924 0.064796 -0.003670
# 6 0.005243 0.003261 -0.001828 0.002979 -0.003670 0.028715
#
#
# Mechanical properties :
#
#
# Convention : Reuss Voigt Hill
#
# Bulk Modulus (GPa) = 25.94708 48.52737 37.23723
# Shear Modulus (GPa) = 23.00219 34.14400 28.57309
#
# Velocity S-wave (km/s) = 3.12610 3.80869 3.48416
# Velocity P-wave (km/s) = 4.90446 6.32127 5.65739
#
# Compressibility (1/GPa) = 0.03853998
#
# Stress axis : x y z
#
# Youngs Moduli (GPa) = 27.24714 75.77646 94.76356
#
# Poissons Ratio (x) = 0.35667 0.42438
# Poissons Ratio (y) = 0.12825 0.16774
# Poissons Ratio (z) = 0.12202 0.13413
#
# Static dielectric constant tensor:
#      x y z
#    x 1.965420 0.020560 -0.025390 
#    y 0.020560 1.880480 0.058310 
#    z -0.025390 0.058310 1.965540 
# 
# From -- ./inp_files/475787.got.cif
#   From: 2010.05.17/outbox.cif.g08.bks.cpg/sg2_238_cif.got.tgz:475787.got - 2010.06.03 11:33:40.
