data_PCOD9058058
_publ_section_title
;
Structure prediction by ZEFSAII (Michael W. Deem and Ramdas Pophale) SiO2 
 PCOD9058058
Probable space group: P -1
;
_chemical_formula_sum "Si O2"
_cell_formula_units_Z 16
_cell_length_a 23.831686
_cell_length_b 9.218676
_cell_length_c 9.549127
_cell_angle_alpha 132.365585
_cell_angle_beta 29.018380
_cell_angle_gamma 134.037947
_cell_volume 718.368702
_symmetry_space_group_name_H-M "P -1"
_symmetry_group_IT_number 2
_symmetry_cell_setting 'triclinic'
loop_
_space_group_symop_operation_xyz
x,y,z
-x,-y,-z
loop_
_atom_site_type_symbol
_atom_site_label
_atom_site_fract_x
_atom_site_fract_y
_atom_site_fract_z
Si Si1 0.438539 0.612939 0.099547
Si Si2 0.375744 0.327175 0.777929
Si Si3 0.762404 0.429230 0.269267
Si Si4 0.377679 0.009550 0.185753
Si Si5 0.021859 0.696167 0.182473
Si Si6 0.135580 0.150936 0.833700
Si Si7 0.624180 0.334896 0.220868
Si Si8 0.885360 0.845127 0.805349
O O1 0.317098 0.618107 0.446891
O O2 0.500000 0.500000 0.000000
O O3 0.404785 0.489283 0.947273
O O4 0.548805 0.815353 0.964882
O O5 0.481607 0.223050 0.474044
O O6 0.373575 0.452146 0.720331
O O7 0.247629 0.163372 0.961283
O O8 0.826754 0.670934 0.250835
O O9 0.681390 0.359036 0.262995
O O10 0.860280 0.308927 0.992215
O O11 0.254283 0.064410 0.537713
O O12 0.500000 0.000000 0.000000
O O13 0.324532 0.793434 0.083585
O O14 0.924803 0.697657 0.514641
O O15 0.038516 0.914585 0.211277
O O16 0.000000 0.500000 0.000000
O O17 0.118414 0.234637 0.080294
O O18 0.000000 0.000000 0.000000
#
# Coordination Sequence:
#
# PCOD9058058 Si02
#       8
#     2   2   2   2   2   2   2   2
#     4  12  24  45  72 105 147 191 242 317 370 444
#     4  11  22  44  70 100 145 189 237 300 376 432
#     4  12  26  47  72 108 147 187 249 305 378 436
#     4  12  26  45  74 109 144 199 254 299 377 455
#     4  11  27  50  74 108 147 194 248 306 376 447
#     4  12  27  47  73 108 151 193 250 310 374 450
#     4  11  24  41  71 104 141 186 243 307 361 444
#     4  11  26  48  76 103 147 201 244 301 374 453
#
# _framework density 22.272684999999999
#
# number of rings (size 3 to 8) (size 9 to 14) (size 15 to 20)
#    0.000    0.500    5.000    2.250    5.250    5.000 
#    0.000    0.000    0.000    0.000    0.000    0.000 
#    0.000    0.000    0.000    0.000    0.000    0.000 
#
# Total GULP energy -89228.650124 kJ/mol
# GULP energy per Si atom -5576.790633 kJ/mol
# Density = 2.222199 g / cm^3
# Si number density = 22.272685 Si / 1000 Ang^3
#
#
#
# Elastic Constant Matrix: (Units=GPa)
#
#
# Indices 1 2 3 4 5 6 
#
# 1 96.0030 3.1738 36.6914 -1.3291 -0.0018 3.5719
# 2 3.1738 47.9928 27.0142 -2.6310 -0.6377 8.7062
# 3 36.6914 27.0142 120.4631 -7.4531 4.7057 8.0852
# 4 -1.3291 -2.6310 -7.4531 31.1648 8.1848 -0.1023
# 5 -0.0018 -0.6377 4.7057 8.1848 34.4364 4.5295
# 6 3.5719 8.7062 8.0852 -0.1023 4.5295 38.7882
#
#
#
# Elastic Compliance Matrix: (Units=1/GPa)
#
#
# Indices 1 2 3 4 5 6 
#
# 1 0.011911 0.001572 -0.003996 -0.000526 0.000794 -0.000711
# 2 0.001572 0.024894 -0.005796 0.000293 0.001806 -0.004734
# 3 -0.003996 -0.005796 0.011088 0.002564 -0.002182 -0.000381
# 4 -0.000526 0.000293 0.002564 0.034999 -0.008737 0.000561
# 5 0.000794 0.001806 -0.002182 -0.008737 0.031944 -0.003777
# 6 -0.000711 -0.004734 -0.000381 0.000561 -0.003777 0.027431
#
#
# Mechanical properties :
#
#
# Convention : Reuss Voigt Hill
#
# Bulk Modulus (GPa) = 31.79407 44.24641 38.02024
# Shear Modulus (GPa) = 29.55229 34.04983 31.80106
#
# Velocity S-wave (km/s) = 3.64653 3.91419 3.78273
# Velocity P-wave (km/s) = 5.65999 6.35112 6.01549
#
# Compressibility (1/GPa) = 0.03145241
#
# Stress axis : x y z
#
# Youngs Moduli (GPa) = 83.95649 40.17046 90.18954
#
# Poissons Ratio (x) = -0.06317 0.36043
# Poissons Ratio (y) = -0.13202 0.52276
# Poissons Ratio (z) = 0.33552 0.23284
#
# Static dielectric constant tensor:
#      x y z
#    x 1.753420 0.141320 -0.123860 
#    y 0.141320 1.642830 0.252480 
#    z -0.123860 0.252480 1.571550 
# 
# From -- ./inp_files/352379.got.cif
#   From: 2010.05.17/outbox.cif.g08.bks.cpg/sg2_177_cif.got.tgz:352379.got - 2010.06.03 11:33:40.
