data_PCOD9058857
_publ_section_title
;
Structure prediction by ZEFSAII (Michael W. Deem and Ramdas Pophale) SiO2 
 PCOD9058857
Probable space group: P -1
;
_chemical_formula_sum "Si O2"
_cell_formula_units_Z 16
_cell_length_a 19.043076
_cell_length_b 12.892251
_cell_length_c 9.659967
_cell_angle_alpha 67.823180
_cell_angle_beta 130.133361
_cell_angle_gamma 150.506087
_cell_volume 779.336174
_symmetry_space_group_name_H-M "P -1"
_symmetry_group_IT_number 2
_symmetry_cell_setting 'triclinic'
loop_
_space_group_symop_operation_xyz
x,y,z
-x,-y,-z
loop_
_atom_site_type_symbol
_atom_site_label
_atom_site_fract_x
_atom_site_fract_y
_atom_site_fract_z
Si Si1 0.684371 0.577916 0.077987
Si Si2 0.533677 0.441526 0.272873
Si Si3 0.780723 0.312591 0.840189
Si Si4 0.096860 0.035641 0.479956
Si Si5 0.507840 0.856599 0.567957
Si Si6 0.736308 0.154472 0.433388
Si Si7 0.326389 0.062005 0.781152
Si Si8 0.192171 0.677391 0.831186
O O1 0.609407 0.505216 0.178739
O O2 0.627476 0.634049 0.904946
O O3 0.551202 0.336311 0.964214
O O4 0.919398 0.816081 0.261069
O O5 0.717675 0.688990 0.470320
O O6 0.471397 0.253198 0.340492
O O7 0.716650 0.341449 0.636664
O O8 0.625495 0.045313 0.744227
O O9 0.762166 0.337248 0.962232
O O10 0.000000 0.500000 0.000000
O O11 0.196267 0.029736 0.665008
O O12 0.000000 0.000000 0.500000
O O13 0.610636 0.014887 0.480762
O O14 0.963813 0.411946 0.637492
O O15 0.698482 0.998663 0.380421
O O16 0.698059 0.207443 0.237638
O O17 0.235664 0.853503 0.840044
#
# Coordination Sequence:
#
# PCOD9058857 Si02
#       8
#     2   2   2   2   2   2   2   2
#     4   9  17  34  56  86 108 149 195 237 297 357
#     4   9  19  34  56  82 117 142 195 247 289 343
#     4  11  23  38  59  87 125 152 202 246 295 351
#     4   9  18  33  54  86 113 147 193 246 294 350
#     4  11  23  39  58  90 120 160 197 246 300 353
#     4   9  20  40  59  85 122 162 202 239 295 357
#     4   9  18  35  57  82 116 147 197 244 285 342
#     4   9  19  40  60  85 120 165 195 250 289 349
#
# _framework density 20.530293
#
# number of rings (size 3 to 8) (size 9 to 14) (size 15 to 20)
#    0.750    1.750    1.250    1.500    0.000    3.500 
#    4.500    2.500    0.000    1.500    0.000    0.000 
#    0.000    0.000    0.000    0.000    0.000    0.000 
#
# Total GULP energy -89070.170647 kJ/mol
# GULP energy per Si atom -5566.885665 kJ/mol
# Density = 2.048357 g / cm^3
# Si number density = 20.530293 Si / 1000 Ang^3
#
#
#
# Elastic Constant Matrix: (Units=GPa)
#
#
# Indices 1 2 3 4 5 6 
#
# 1 38.9418 5.7761 12.0135 2.9249 -12.0990 3.5087
# 2 5.7761 80.8619 43.3063 18.0373 -3.1943 -14.6406
# 3 12.0135 43.3063 122.1075 30.4586 -19.5036 0.9360
# 4 2.9249 18.0373 30.4586 23.3406 -3.8796 -9.2900
# 5 -12.0990 -3.1943 -19.5036 -3.8796 28.7217 3.6866
# 6 3.5087 -14.6406 0.9360 -9.2900 3.6866 29.2999
#
#
#
# Elastic Compliance Matrix: (Units=1/GPa)
#
#
# Indices 1 2 3 4 5 6 
#
# 1 0.031217 -0.002979 0.001463 -0.004530 0.014293 -0.008508
# 2 -0.002979 0.018051 -0.006450 -0.002225 -0.005150 0.009525
# 3 0.001463 -0.006450 0.017224 -0.020655 0.010319 -0.011796
# 4 -0.004530 -0.002225 -0.020655 0.081387 -0.008652 0.026985
# 5 0.014293 -0.005150 0.010319 -0.008652 0.047820 -0.013375
# 6 -0.008508 0.009525 -0.011796 0.026985 -0.013375 0.050524
#
#
# Mechanical properties :
#
#
# Convention : Reuss Voigt Hill
#
# Bulk Modulus (GPa) = 19.77765 40.45590 30.11678
# Shear Modulus (GPa) = 17.92063 28.32680 23.12371
#
# Velocity S-wave (km/s) = 2.95767 3.71854 3.35971
# Velocity P-wave (km/s) = 4.61715 6.17940 5.45449
#
# Compressibility (1/GPa) = 0.05056211
#
# Stress axis : x y z
#
# Youngs Moduli (GPa) = 32.03347 55.39839 58.05903
#
# Poissons Ratio (x) = 0.16503 -0.08497
# Poissons Ratio (y) = 0.09543 0.37445
# Poissons Ratio (z) = -0.04688 0.35729
#
# Static dielectric constant tensor:
#      x y z
#    x 1.763420 0.016220 0.006310 
#    y 0.016220 1.734760 0.003810 
#    z 0.006310 0.003810 1.820760 
# 
# From -- ./inp_files/470980.got.cif
#   From: 2010.05.17/outbox.cif.g08.bks.cpg/sg2_236_cif.got.tgz:470980.got - 2010.06.03 11:33:40.
