data_PCOD9058500
_publ_section_title
;
Structure prediction by ZEFSAII (Michael W. Deem and Ramdas Pophale) SiO2 
 PCOD9058500
Probable space group: P -1
;
_chemical_formula_sum "Si O2"
_cell_formula_units_Z 12
_cell_length_a 11.921411
_cell_length_b 11.563984
_cell_length_c 5.421294
_cell_angle_alpha 70.323252
_cell_angle_beta 74.412017
_cell_angle_gamma 49.575463
_cell_volume 534.399553
_symmetry_space_group_name_H-M "P -1"
_symmetry_group_IT_number 2
_symmetry_cell_setting 'triclinic'
loop_
_space_group_symop_operation_xyz
x,y,z
-x,-y,-z
loop_
_atom_site_type_symbol
_atom_site_label
_atom_site_fract_x
_atom_site_fract_y
_atom_site_fract_z
Si Si1 0.410544 0.525001 0.782213
Si Si2 0.746643 0.620871 0.107836
Si Si3 0.954431 0.629799 0.639834
Si Si4 0.897523 0.137475 0.264159
Si Si5 0.869104 0.909289 0.165985
Si Si6 0.592718 0.926174 0.246641
O O1 0.500000 0.500000 0.500000
O O2 0.364543 0.410869 0.897551
O O3 0.257345 0.698472 0.707253
O O4 0.500000 0.500000 0.000000
O O5 0.900992 0.459883 0.212322
O O6 0.675165 0.742233 0.290356
O O7 0.807101 0.679550 0.830283
O O8 0.000000 0.500000 0.500000
O O9 0.925550 0.780653 0.434356
O O10 0.854261 0.057790 0.156232
O O11 0.000000 0.000000 0.500000
O O12 0.005556 0.167041 0.058713
O O13 0.715648 0.951997 0.145117
O O14 0.500000 0.000000 0.500000
O O15 0.500000 0.000000 0.000000
#
# Coordination Sequence:
#
# PCOD9058500 Si02
#       6
#     2   2   2   2   2   2
#     4  12  32  51  80 116 165 210 261 329 404 473
#     4  11  27  46  77 112 151 202 255 322 397 465
#     4  11  22  45  79 112 147 189 264 332 380 463
#     4  11  28  50  81 108 153 212 272 323 378 485
#     4  11  26  47  79 108 148 200 270 317 387 459
#     4  12  29  46  74 112 159 200 251 321 393 470
#
# _framework density 22.455107000000002
#
# number of rings (size 3 to 8) (size 9 to 14) (size 15 to 20)
#    0.000    0.667    1.667    3.000   21.000    0.000 
#    0.000    0.000    0.000    0.000    0.000    0.000 
#    0.000    0.000    0.000    0.000    0.000    0.000 
#
# Total GULP energy -67124.665815 kJ/mol
# GULP energy per Si atom -5593.722151 kJ/mol
# Density = 2.240400 g / cm^3
# Si number density = 22.455107 Si / 1000 Ang^3
#
#
#
# Elastic Constant Matrix: (Units=GPa)
#
#
# Indices 1 2 3 4 5 6 
#
# 1 203.3832 60.7986 77.9869 21.7986 -10.0150 -10.3464
# 2 60.7986 149.7188 57.9541 33.0314 -15.2517 -18.0182
# 3 77.9869 57.9541 153.0658 11.3914 -18.7594 -22.7094
# 4 21.7986 33.0314 11.3914 44.4090 -2.4942 3.8607
# 5 -10.0150 -15.2517 -18.7594 -2.4942 43.9225 2.4364
# 6 -10.3464 -18.0182 -22.7094 3.8607 2.4364 41.7969
#
#
#
# Elastic Compliance Matrix: (Units=1/GPa)
#
#
# Indices 1 2 3 4 5 6 
#
# 1 0.006506 -0.001291 -0.002787 -0.001504 -0.000224 -0.000309
# 2 -0.001291 0.009969 -0.001903 -0.006491 0.001795 0.003439
# 3 -0.002787 -0.001903 0.009491 0.000191 0.002575 0.003479
# 4 -0.001504 -0.006491 0.000191 0.028495 -0.000583 -0.005665
# 5 -0.000224 0.001795 0.002575 -0.000583 0.024365 0.000751
# 6 -0.000309 0.003439 0.003479 -0.005665 0.000751 0.027701
#
#
# Mechanical properties :
#
#
# Convention : Reuss Voigt Hill
#
# Bulk Modulus (GPa) = 71.41412 99.96078 85.68745
# Shear Modulus (GPa) = 40.59822 46.65421 43.62622
#
# Velocity S-wave (km/s) = 4.25664 4.56309 4.41252
# Velocity P-wave (km/s) = 7.48537 8.50734 8.01266
#
# Compressibility (1/GPa) = 0.01400283
#
# Stress axis : x y z
#
# Youngs Moduli (GPa) = 153.70303 100.31007 105.35913
#
# Poissons Ratio (x) = 0.12952 0.29366
# Poissons Ratio (y) = 0.19847 0.20054
# Poissons Ratio (z) = 0.42840 0.19093
#
# Static dielectric constant tensor:
#      x y z
#    x 1.823690 -0.015330 0.061600 
#    y -0.015330 1.877110 -0.001240 
#    z 0.061600 -0.001240 1.871800 
# 
# From -- ./inp_files/69062.got.cif
#   From: 2010.05.17/outbox.cif.g08.bks.cpg/sg2_35_cif.got.tgz:69062.got - 2010.06.03 11:33:40.
