data_PCOD9058402
_publ_section_title
;
Structure prediction by ZEFSAII (Michael W. Deem and Ramdas Pophale) SiO2 
 PCOD9058402
Probable space group: P -1
;
_chemical_formula_sum "Si O2"
_cell_formula_units_Z 13
_cell_length_a 12.575496
_cell_length_b 8.165828
_cell_length_c 9.691339
_cell_angle_alpha 121.526677
_cell_angle_beta 57.970523
_cell_angle_gamma 135.623417
_cell_volume 572.439926
_symmetry_space_group_name_H-M "P -1"
_symmetry_group_IT_number 2
_symmetry_cell_setting 'triclinic'
loop_
_space_group_symop_operation_xyz
x,y,z
-x,-y,-z
loop_
_atom_site_type_symbol
_atom_site_label
_atom_site_fract_x
_atom_site_fract_y
_atom_site_fract_z
Si Si1 0.500000 0.500000 0.500000
Si Si2 0.410426 0.697714 0.067781
Si Si3 0.009700 0.326420 0.811706
Si Si4 0.854825 0.795401 0.100297
Si Si5 0.333953 0.662805 0.617226
Si Si6 0.335576 0.065038 0.242984
Si Si7 0.432409 0.189953 0.713518
O O1 0.389534 0.585923 0.674395
O O2 0.345648 0.239760 0.427850
O O3 0.463837 0.659403 0.159705
O O4 0.386975 0.903961 0.194109
O O5 0.247019 0.463573 0.020746
O O6 0.553513 0.797106 0.906529
O O7 0.067755 0.206732 0.814258
O O8 0.146579 0.488800 0.675517
O O9 0.841864 0.126103 0.773855
O O10 0.000000 0.500000 0.000000
O O11 0.726445 0.844553 0.218076
O O12 0.000000 0.000000 0.000000
O O13 0.457780 0.663684 0.430672
O O14 0.384561 0.925597 0.661385
#
# Coordination Sequence:
#
# PCOD9058402 Si02
#       7
#     1   2   2   2   2   2   2
#     4  12  24  46  70 104 140 186 242 284 354 428
#     4  11  22  45  72 106 137 191 242 289 357 426
#     4  12  24  45  74 106 143 185 243 297 354 428
#     4  12  25  41  73 109 142 182 240 300 354 420
#     4  11  24  43  69 101 146 190 230 297 362 421
#     4  11  24  42  77 106 137 189 242 297 351 424
#     4  11  24  43  68 106 145 188 237 293 361 426
#
# _framework density 22.709807999999999
#
# number of rings (size 3 to 8) (size 9 to 14) (size 15 to 20)
#    0.000    0.615    3.077    6.000    0.000    1.846 
#    0.000    3.846    0.000    0.000    0.000    0.000 
#    0.000    0.000    0.000    0.000    0.000    0.000 
#
# Total GULP energy -72437.646394 kJ/mol
# GULP energy per Si atom -5572.126646 kJ/mol
# Density = 2.265812 g / cm^3
# Si number density = 22.709808 Si / 1000 Ang^3
#
#
#
# Elastic Constant Matrix: (Units=GPa)
#
#
# Indices 1 2 3 4 5 6 
#
# 1 127.4446 37.1657 38.1581 -5.2963 -14.2004 19.8450
# 2 37.1657 169.4419 61.3761 -2.6184 -9.6399 26.5245
# 3 38.1581 61.3761 85.0889 -7.2515 -9.3156 22.5206
# 4 -5.2963 -2.6184 -7.2515 45.9138 -12.6771 -4.2671
# 5 -14.2004 -9.6399 -9.3156 -12.6771 36.0219 17.5199
# 6 19.8450 26.5245 22.5206 -4.2671 17.5199 44.1423
#
#
#
# Elastic Compliance Matrix: (Units=1/GPa)
#
#
# Indices 1 2 3 4 5 6 
#
# 1 0.010370 -0.000147 -0.001822 0.002384 0.007530 -0.006402
# 2 -0.000147 0.008365 -0.004672 0.000158 0.002818 -0.003680
# 3 -0.001822 -0.004672 0.020004 0.004408 0.009602 -0.009964
# 4 0.002384 0.000158 0.004408 0.026164 0.014575 -0.006671
# 5 0.007530 0.002818 0.009602 0.014575 0.053613 -0.029847
# 6 -0.006402 -0.003680 -0.009964 -0.006671 -0.029847 0.044028
#
#
# Mechanical properties :
#
#
# Convention : Reuss Voigt Hill
#
# Bulk Modulus (GPa) = 39.28322 72.81946 56.05134
# Shear Modulus (GPa) = 27.12796 41.56730 34.34763
#
# Velocity S-wave (km/s) = 3.45997 4.28292 3.89325
# Velocity P-wave (km/s) = 5.77039 7.52281 6.70411
#
# Compressibility (1/GPa) = 0.02545616
#
# Stress axis : x y z
#
# Youngs Moduli (GPa) = 96.43086 119.54412 49.99116
#
# Poissons Ratio (x) = 0.01758 0.09110
# Poissons Ratio (y) = 0.01418 0.23356
# Poissons Ratio (z) = 0.17572 0.55851
#
# Static dielectric constant tensor:
#      x y z
#    x 1.549750 0.127780 -0.197110 
#    y 0.127780 1.784680 0.109440 
#    z -0.197110 0.109440 1.822950 
# 
# From -- ./inp_files/146287.got.cif
#   From: 2010.05.17/outbox.cif.g08.bks.cpg/sg2_74_cif.got.tgz:146287.got - 2010.06.03 11:33:40.
