data_PCOD9058944
_publ_section_title
;
Structure prediction by ZEFSAII (Michael W. Deem and Ramdas Pophale) SiO2 
 PCOD9058944
Probable space group: P -1
;
_chemical_formula_sum "Si O2"
_cell_formula_units_Z 15
_cell_length_a 9.126090
_cell_length_b 11.925502
_cell_length_c 20.914393
_cell_angle_alpha 26.224748
_cell_angle_beta 32.938622
_cell_angle_gamma 37.808916
_cell_volume 540.317987
_symmetry_space_group_name_H-M "P -1"
_symmetry_group_IT_number 2
_symmetry_cell_setting 'triclinic'
loop_
_space_group_symop_operation_xyz
x,y,z
-x,-y,-z
loop_
_atom_site_type_symbol
_atom_site_label
_atom_site_fract_x
_atom_site_fract_y
_atom_site_fract_z
Si Si1 0.833542 0.501607 0.749871
Si Si2 0.912678 0.011023 0.138169
Si Si3 0.500000 0.500000 0.000000
Si Si4 0.546561 0.895281 0.173362
Si Si5 0.933265 0.030678 0.617464
Si Si6 0.315278 0.385806 0.927361
Si Si7 0.886014 0.805568 0.391056
Si Si8 0.632470 0.403018 0.334430
O O1 0.707386 0.434646 0.896771
O O2 0.970301 0.755681 0.570642
O O3 0.563364 0.527393 0.790071
O O4 0.066261 0.278018 0.750888
O O5 0.148842 0.095375 0.963658
O O6 0.977426 0.949378 0.221424
O O7 0.666381 0.244255 0.108815
O O8 0.515078 0.597211 0.332593
O O9 0.387131 0.978585 0.254219
O O10 0.392446 0.106573 0.072625
O O11 0.039798 0.089390 0.620567
O O12 0.069421 0.751935 0.687878
O O13 0.351661 0.408441 0.827341
O O14 0.000000 0.500000 0.000000
O O15 0.563123 0.804081 0.502468
O O16 0.000000 0.500000 0.500000
#
# Coordination Sequence:
#
# PCOD9058944 Si02
#       8
#     2   2   1   2   2   2   2   2
#     4  11  25  48  70 100 136 186 234 286 339 410
#     4  11  26  46  72  99 138 181 236 288 340 412
#     4  12  28  46  74  96 132 190 250 280 328 410
#     4  11  25  39  63 100 143 180 220 280 352 418
#     4  12  24  40  66 104 143 177 223 284 361 424
#     4  11  23  39  65 102 144 179 220 286 354 417
#     4  12  21  41  69 104 142 182 220 283 360 421
#     4  12  23  36  60 100 147 180 211 269 355 428
#
# _framework density 27.761430000000001
#
# number of rings (size 3 to 8) (size 9 to 14) (size 15 to 20)
#    0.000    0.533    5.333    2.800    5.600    0.000 
#    0.000    0.667    0.000   12.000    0.000    0.000 
#    0.000    0.000    0.000    0.000    0.000    0.000 
#
# Total GULP energy -83781.906274 kJ/mol
# GULP energy per Si atom -5585.460418 kJ/mol
# Density = 2.769824 g / cm^3
# Si number density = 27.761430 Si / 1000 Ang^3
#
#
#
# Elastic Constant Matrix: (Units=GPa)
#
#
# Indices 1 2 3 4 5 6 
#
# 1 77.7990 36.0511 22.0812 -6.1677 11.9627 -4.6790
# 2 36.0511 206.2695 23.8091 -17.4168 9.1452 -43.5355
# 3 22.0812 23.8091 103.8289 5.8123 -2.4643 3.4471
# 4 -6.1677 -17.4168 5.8123 57.1451 -1.1054 7.3944
# 5 11.9627 9.1452 -2.4643 -1.1054 40.9918 4.8493
# 6 -4.6790 -43.5355 3.4471 7.3944 4.8493 28.4881
#
#
#
# Elastic Compliance Matrix: (Units=1/GPa)
#
#
# Indices 1 2 3 4 5 6 
#
# 1 0.015392 -0.002007 -0.002990 0.001244 -0.004216 0.000217
# 2 -0.002007 0.008377 -0.002040 0.000804 -0.002923 0.013008
# 3 -0.002990 -0.002040 0.011039 -0.001368 0.002549 -0.005024
# 4 0.001244 0.000804 -0.001368 0.018441 0.000255 -0.003231
# 5 -0.004216 -0.002923 0.002549 0.000255 0.027649 -0.010241
# 6 0.000217 0.013008 -0.005024 -0.003231 -0.010241 0.058207
#
#
# Mechanical properties :
#
#
# Convention : Reuss Voigt Hill
#
# Bulk Modulus (GPa) = 48.23210 61.30892 54.77051
# Shear Modulus (GPa) = 31.23193 45.72206 38.47699
#
# Velocity S-wave (km/s) = 3.35776 4.06268 3.72692
# Velocity P-wave (km/s) = 5.69598 6.64374 6.18803
#
# Compressibility (1/GPa) = 0.02073308
#
# Stress axis : x y z
#
# Youngs Moduli (GPa) = 64.96706 119.36789 90.58881
#
# Poissons Ratio (x) = 0.23961 0.27087
# Poissons Ratio (y) = 0.13041 0.18484
# Poissons Ratio (z) = 0.19426 0.24356
#
# Static dielectric constant tensor:
#      x y z
#    x -0.068350 -0.753270 -0.580480 
#    y -0.753270 1.899800 -0.145170 
#    z -0.580480 -0.145170 2.052650 
# 
# From -- ./inp_files/390873.got.cif
#   From: 2010.05.17/outbox.cif.g08.bks.cpg/sg2_196_cif.got.tgz:390873.got - 2010.06.03 11:33:40.
