data_PCOD9058538
_publ_section_title
;
Structure prediction by ZEFSAII (Michael W. Deem and Ramdas Pophale) SiO2 
 PCOD9058538
Probable space group: P -1
;
_chemical_formula_sum "Si O2"
_cell_formula_units_Z 16
_cell_length_a 8.752109
_cell_length_b 13.625275
_cell_length_c 11.379768
_cell_angle_alpha 31.120036
_cell_angle_beta 97.372142
_cell_angle_gamma 89.849748
_cell_volume 678.611321
_symmetry_space_group_name_H-M "P -1"
_symmetry_group_IT_number 2
_symmetry_cell_setting 'triclinic'
loop_
_space_group_symop_operation_xyz
x,y,z
-x,-y,-z
loop_
_atom_site_type_symbol
_atom_site_label
_atom_site_fract_x
_atom_site_fract_y
_atom_site_fract_z
Si Si1 0.460877 0.795107 0.299454
Si Si2 0.001143 0.267136 0.431313
Si Si3 0.277814 0.510615 0.965451
Si Si4 0.115279 0.004247 0.119619
Si Si5 0.589434 0.354548 0.781322
Si Si6 0.464983 0.772811 0.837088
Si Si7 0.671352 0.831699 0.497939
Si Si8 0.937635 0.423157 0.694437
O O1 0.295273 0.935052 0.169464
O O2 0.469201 0.564341 0.559045
O O3 0.478440 0.786748 0.169090
O O4 0.595111 0.830122 0.364297
O O5 0.155679 0.125968 0.539258
O O6 0.058730 0.418156 0.368628
O O7 0.894788 0.386585 0.197670
O O8 0.910028 0.145177 0.629570
O O9 0.368558 0.683980 0.819420
O O10 0.360878 0.360009 0.027607
O O11 0.299500 0.376411 0.221093
O O12 0.000000 0.000000 0.000000
O O13 0.060899 0.221985 0.938418
O O14 0.760264 0.381294 0.722233
O O15 0.601986 0.273128 0.996200
O O16 0.440273 0.003988 0.604577
O O17 0.000000 0.500000 0.500000
#
# Coordination Sequence:
#
# PCOD9058538 Si02
#       8
#     2   2   2   2   2   2   2   2
#     4  11  24  43  72 103 146 179 229 291 347 419
#     4  12  26  45  73 102 139 188 231 294 349 410
#     4  11  26  49  70 101 144 183 240 291 351 407
#     4  12  25  45  67 104 145 183 231 280 350 424
#     4  11  22  46  70 102 146 188 225 288 360 413
#     4  11  25  45  74  99 141 187 233 296 347 410
#     4  12  26  46  73 108 139 182 245 286 344 425
#     4  12  24  44  69 102 144 183 228 285 349 422
#
# _framework density 23.577559999999998
#
# number of rings (size 3 to 8) (size 9 to 14) (size 15 to 20)
#    0.000    0.500    5.000    2.250    3.500    3.000 
#    0.000    0.000    0.000    0.000    0.000    0.000 
#    0.000    0.000    0.000    0.000    0.000    0.000 
#
# Total GULP energy -89526.901161 kJ/mol
# GULP energy per Si atom -5595.431323 kJ/mol
# Density = 2.352390 g / cm^3
# Si number density = 23.577560 Si / 1000 Ang^3
#
#
#
# Elastic Constant Matrix: (Units=GPa)
#
#
# Indices 1 2 3 4 5 6 
#
# 1 88.6507 13.9206 36.4473 9.9920 25.5690 -7.5413
# 2 13.9206 80.9977 32.9217 -8.1235 14.6130 -4.0623
# 3 36.4473 32.9217 123.5016 -0.4829 21.1949 2.3317
# 4 9.9920 -8.1235 -0.4829 39.0558 -7.5408 6.6488
# 5 25.5690 14.6130 21.1949 -7.5408 45.7433 -1.0891
# 6 -7.5413 -4.0623 2.3317 6.6488 -1.0891 29.5485
#
#
#
# Elastic Compliance Matrix: (Units=1/GPa)
#
#
# Indices 1 2 3 4 5 6 
#
# 1 0.016467 -0.000301 -0.003452 -0.006929 -0.008516 0.005679
# 2 -0.000301 0.014531 -0.003378 0.002308 -0.002491 0.001576
# 3 -0.003452 -0.003378 0.010369 0.000356 -0.001792 -0.002310
# 4 -0.006929 0.002308 0.000356 0.030758 0.007848 -0.008111
# 5 -0.008516 -0.002491 -0.001792 0.007848 0.029468 -0.003054
# 6 0.005679 0.001576 -0.002310 -0.008111 -0.003054 0.037404
#
#
# Mechanical properties :
#
#
# Convention : Reuss Voigt Hill
#
# Bulk Modulus (GPa) = 36.89412 51.08102 43.98757
# Shear Modulus (GPa) = 30.80847 36.86022 33.83435
#
# Velocity S-wave (km/s) = 3.61873 3.95822 3.79228
# Velocity P-wave (km/s) = 5.75693 6.52704 6.15404
#
# Compressibility (1/GPa) = 0.02710459
#
# Stress axis : x y z
#
# Youngs Moduli (GPa) = 60.72690 68.82035 96.44233
#
# Poissons Ratio (x) = 0.02069 0.33296
# Poissons Ratio (y) = 0.01826 0.32578
# Poissons Ratio (z) = 0.20965 0.23247
#
# Static dielectric constant tensor:
#      x y z
#    x 1.899820 -0.011440 -0.039980 
#    y -0.011440 1.894850 0.000570 
#    z -0.039980 0.000570 1.897380 
# 
# From -- ./inp_files/398211.got.cif
#   From: 2010.05.17/outbox.cif.g08.bks.cpg/sg2_200_cif.got.tgz:398211.got - 2010.06.03 11:33:40.
