data_PCOD9058483
_publ_section_title
;
Structure prediction by ZEFSAII (Michael W. Deem and Ramdas Pophale) SiO2 
 PCOD9058483
Probable space group: P -1
;
_chemical_formula_sum "Si O2"
_cell_formula_units_Z 10
_cell_length_a 9.273766
_cell_length_b 6.705709
_cell_length_c 14.807627
_cell_angle_alpha 98.654842
_cell_angle_beta 45.876411
_cell_angle_gamma 129.009828
_cell_volume 440.014014
_symmetry_space_group_name_H-M "P -1"
_symmetry_group_IT_number 2
_symmetry_cell_setting 'triclinic'
loop_
_space_group_symop_operation_xyz
x,y,z
-x,-y,-z
loop_
_atom_site_type_symbol
_atom_site_label
_atom_site_fract_x
_atom_site_fract_y
_atom_site_fract_z
Si Si1 0.341659 0.095730 0.059261
Si Si2 0.691041 0.341214 0.173539
Si Si3 0.243427 0.459585 0.641167
Si Si4 0.555179 0.587028 0.121059
Si Si5 0.869633 0.385275 0.648432
O O1 0.562087 0.414683 0.032746
O O2 0.268494 0.107577 0.989673
O O3 0.041246 0.885258 0.231412
O O4 0.500000 0.000000 0.000000
O O5 0.707562 0.374626 0.277344
O O6 0.628792 0.520281 0.174422
O O7 0.408465 0.982330 0.252593
O O8 0.000000 0.500000 0.000000
O O9 0.500000 0.500000 0.500000
O O10 0.125546 0.508002 0.614060
O O11 0.253237 0.486780 0.261407
O O12 0.000000 0.500000 0.500000
#
# Coordination Sequence:
#
# PCOD9058483 Si02
#       5
#     2   2   2   2   2
#     4  11  22  45  76 106 143 194 248 304 374 448
#     4  12  28  48  77 112 152 196 262 311 374 460
#     4  12  27  47  75 110 156 195 252 316 378 448
#     4  11  23  44  79 100 145 202 242 305 379 439
#     4  12  28  49  73 107 157 199 250 316 381 445
#
# _framework density 22.726547
#
# number of rings (size 3 to 8) (size 9 to 14) (size 15 to 20)
#    0.000    0.400    4.000    3.600    5.600    7.200 
#    0.000    0.000    0.000    0.000    0.000    0.000 
#    0.000    0.000    0.000    0.000    0.000    0.000 
#
# Total GULP energy -55790.362935 kJ/mol
# GULP energy per Si atom -5579.036293 kJ/mol
# Density = 2.267482 g / cm^3
# Si number density = 22.726547 Si / 1000 Ang^3
#
#
#
# Elastic Constant Matrix: (Units=GPa)
#
#
# Indices 1 2 3 4 5 6 
#
# 1 207.1656 64.8428 86.4556 17.8656 3.7741 -22.1064
# 2 64.8428 101.9322 33.7462 20.6143 -10.0812 -7.0648
# 3 86.4556 33.7462 178.2930 17.5060 -10.2183 -26.1736
# 4 17.8656 20.6143 17.5060 38.7043 -5.2513 2.6915
# 5 3.7741 -10.0812 -10.2183 -5.2513 52.2455 7.9170
# 6 -22.1064 -7.0648 -26.1736 2.6915 7.9170 41.5759
#
#
#
# Elastic Compliance Matrix: (Units=1/GPa)
#
#
# Indices 1 2 3 4 5 6 
#
# 1 0.007436 -0.003792 -0.002639 -0.000660 -0.002170 0.002104
# 2 -0.003792 0.013518 -0.000066 -0.005111 0.002337 0.000125
# 3 -0.002639 -0.000066 0.007681 -0.002331 0.000932 0.003395
# 4 -0.000660 -0.005111 -0.002331 0.030609 0.002461 -0.005137
# 5 -0.002170 0.002337 0.000932 0.002461 0.020829 -0.004296
# 6 0.002104 0.000125 0.003395 -0.005137 -0.004296 0.028481
#
#
# Mechanical properties :
#
#
# Convention : Reuss Voigt Hill
#
# Bulk Modulus (GPa) = 63.92799 95.27556 79.60178
# Shear Modulus (GPa) = 39.44421 46.66154 43.05288
#
# Velocity S-wave (km/s) = 4.17057 4.53611 4.35718
# Velocity P-wave (km/s) = 7.16811 8.33359 7.77273
#
# Compressibility (1/GPa) = 0.01564260
#
# Stress axis : x y z
#
# Youngs Moduli (GPa) = 134.47640 73.97548 130.18486
#
# Poissons Ratio (x) = 0.28053 0.34353
# Poissons Ratio (y) = 0.50996 0.00853
# Poissons Ratio (z) = 0.35486 0.00485
#
# Static dielectric constant tensor:
#      x y z
#    x 1.951800 0.027120 0.025620 
#    y 0.027120 1.993910 -0.032180 
#    z 0.025620 -0.032180 1.884060 
# 
# From -- ./inp_files/22477.got.cif
#   From: 2010.05.17/outbox.cif.g08.bks.cpg/sg2_12_cif.got.tgz:22477.got - 2010.06.03 11:33:40.
