data_PCOD9058629
_publ_section_title
;
Structure prediction by ZEFSAII (Michael W. Deem and Ramdas Pophale) SiO2 
 PCOD9058629
Probable space group: P -1
;
_chemical_formula_sum "Si O2"
_cell_formula_units_Z 14
_cell_length_a 16.076735
_cell_length_b 22.896983
_cell_length_c 5.385753
_cell_angle_alpha 76.833836
_cell_angle_beta 76.757926
_cell_angle_gamma 19.079184
_cell_volume 630.414493
_symmetry_space_group_name_H-M "P -1"
_symmetry_group_IT_number 2
_symmetry_cell_setting 'triclinic'
loop_
_space_group_symop_operation_xyz
x,y,z
-x,-y,-z
loop_
_atom_site_type_symbol
_atom_site_label
_atom_site_fract_x
_atom_site_fract_y
_atom_site_fract_z
Si Si1 0.863635 0.544839 0.862638
Si Si2 0.372613 0.229043 0.578661
Si Si3 0.075420 0.018532 0.889051
Si Si4 0.232529 0.519704 0.787284
Si Si5 0.464617 0.562303 0.212207
Si Si6 0.363168 0.065451 0.281378
Si Si7 0.605190 0.190133 0.631600
O O1 0.642755 0.731733 0.718554
O O2 0.098043 0.380485 0.666043
O O3 0.773989 0.537246 0.990928
O O4 0.000000 0.500000 0.000000
O O5 0.415949 0.258820 0.686207
O O6 0.587685 0.038131 0.652822
O O7 0.822495 0.223578 0.815718
O O8 0.239875 0.913138 0.628641
O O9 0.218634 0.937571 0.126851
O O10 0.000000 0.000000 0.000000
O O11 0.344020 0.506713 0.841253
O O12 0.440652 0.360097 0.596891
O O13 0.938397 0.721865 0.713248
O O14 0.500000 0.500000 0.500000
O O15 0.500000 0.500000 0.000000
O O16 0.500000 0.000000 0.500000
O O17 0.500000 0.000000 0.000000
#
# Coordination Sequence:
#
# PCOD9058629 Si02
#       7
#     2   2   2   2   2   2   2
#     4  11  22  46  75 111 148 195 258 318 372 464
#     4  11  26  42  74 110 154 196 257 309 386 464
#     4  12  27  51  79 111 149 195 268 322 380 456
#     4  12  27  51  80 111 158 208 259 318 398 456
#     4  12  31  53  78 113 159 203 257 324 391 460
#     4  12  29  48  71 111 160 203 251 310 387 471
#     4  12  27  46  82 113 146 203 258 321 386 453
#
# _framework density 22.207614
#
# number of rings (size 3 to 8) (size 9 to 14) (size 15 to 20)
#    0.000    0.286    4.286    3.000    8.000    2.286 
#    0.000    0.000    0.000    0.000    0.000    0.000 
#    0.000    0.000    0.000    0.000    0.000    0.000 
#
# Total GULP energy -78228.082080 kJ/mol
# GULP energy per Si atom -5587.720149 kJ/mol
# Density = 2.215707 g / cm^3
# Si number density = 22.207614 Si / 1000 Ang^3
#
#
#
# Elastic Constant Matrix: (Units=GPa)
#
#
# Indices 1 2 3 4 5 6 
#
# 1 166.5309 41.9479 74.7267 -3.4941 3.0905 -2.1218
# 2 41.9479 176.8050 67.6995 -11.5421 2.9235 7.1237
# 3 74.7267 67.6995 165.3474 -6.9195 3.1579 -9.5945
# 4 -3.4941 -11.5421 -6.9195 47.0683 -2.5167 -5.3661
# 5 3.0905 2.9235 3.1579 -2.5167 43.8865 -5.4135
# 6 -2.1218 7.1237 -9.5945 -5.3661 -5.4135 45.9485
#
#
#
# Elastic Compliance Matrix: (Units=1/GPa)
#
#
# Indices 1 2 3 4 5 6 
#
# 1 0.007589 -0.000559 -0.003215 -0.000095 -0.000306 -0.000281
# 2 -0.000559 0.006933 -0.002625 0.001075 -0.000365 -0.001566
# 3 -0.003215 -0.002625 0.008727 0.000652 0.000078 0.002166
# 4 -0.000095 0.001075 0.000652 0.021986 0.001483 0.002707
# 5 -0.000306 -0.000365 0.000078 0.001483 0.023278 0.002975
# 6 -0.000281 -0.001566 0.002166 0.002707 0.002975 0.023112
#
#
# Mechanical properties :
#
#
# Convention : Reuss Voigt Hill
#
# Bulk Modulus (GPa) = 95.68981 97.49238 96.59109
# Shear Modulus (GPa) = 46.33631 49.00127 47.66879
#
# Velocity S-wave (km/s) = 4.57278 4.70244 4.63807
# Velocity P-wave (km/s) = 8.42987 8.57203 8.50125
#
# Compressibility (1/GPa) = 0.01045043
#
# Stress axis : x y z
#
# Youngs Moduli (GPa) = 131.77803 144.23807 114.58601
#
# Poissons Ratio (x) = 0.08065 0.36840
# Poissons Ratio (y) = 0.07368 0.30077
# Poissons Ratio (z) = 0.42367 0.37861
#
# Static dielectric constant tensor:
#      x y z
#    x 1.693620 0.634680 0.584020 
#    y 0.634680 -1.153800 -2.484410 
#    z 0.584020 -2.484410 -0.208390 
# 
# From -- ./inp_files/100562.got.cif
#   From: 2010.05.17/outbox.cif.g08.bks.cpg/sg2_51_cif.got.tgz:100562.got - 2010.06.03 11:33:40.
