data_PCOD9058507
_publ_section_title
;
Structure prediction by ZEFSAII (Michael W. Deem and Ramdas Pophale) SiO2 
 PCOD9058507
Probable space group: P -1
;
_chemical_formula_sum "Si O2"
_cell_formula_units_Z 14
_cell_length_a 8.650880
_cell_length_b 12.084345
_cell_length_c 7.450254
_cell_angle_alpha 81.873333
_cell_angle_beta 71.477396
_cell_angle_gamma 49.781491
_cell_volume 561.722370
_symmetry_space_group_name_H-M "P -1"
_symmetry_group_IT_number 2
_symmetry_cell_setting 'triclinic'
loop_
_space_group_symop_operation_xyz
x,y,z
-x,-y,-z
loop_
_atom_site_type_symbol
_atom_site_label
_atom_site_fract_x
_atom_site_fract_y
_atom_site_fract_z
Si Si1 0.429268 0.196221 0.484854
Si Si2 0.998713 0.164502 0.086922
Si Si3 0.830430 0.598407 0.193940
Si Si4 0.107576 0.205169 0.380714
Si Si5 0.077283 0.044648 0.705268
Si Si6 0.195874 0.519902 0.354540
Si Si7 0.423681 0.517862 0.730203
O O1 0.349879 0.233210 0.711331
O O2 0.335133 0.353476 0.402681
O O3 0.316508 0.148429 0.423724
O O4 0.676757 0.088331 0.388086
O O5 0.140376 0.177408 0.164707
O O6 0.764592 0.315260 0.181282
O O7 0.027613 0.025288 0.180884
O O8 0.046703 0.140012 0.865014
O O9 0.669131 0.565549 0.213431
O O10 0.012546 0.562091 0.279596
O O11 0.000000 0.500000 0.000000
O O12 0.933581 0.375828 0.449765
O O13 0.009328 0.138521 0.528419
O O14 0.363468 0.540347 0.226558
O O15 0.500000 0.500000 0.500000
#
# Coordination Sequence:
#
# PCOD9058507 Si02
#       7
#     2   2   2   2   2   2   2
#     4  11  22  46  65  95 136 176 223 281 348 409
#     4  11  23  43  66  95 135 179 226 280 341 410
#     4  11  25  42  66 109 138 166 228 299 336 406
#     4  11  23  42  69  95 135 177 224 288 343 401
#     4  11  25  43  65  97 137 176 229 279 335 421
#     4  11  23  44  73  99 134 180 229 280 351 410
#     4  12  21  42  75  95 130 189 225 275 356 407
#
# _framework density 24.923344
#
# number of rings (size 3 to 8) (size 9 to 14) (size 15 to 20)
#    0.000    0.857    4.286    3.429    4.000    1.143 
#    2.571    0.000    0.000    0.000    0.000    0.000 
#    0.000    0.000    0.000    0.000    0.000    0.000 
#
# Total GULP energy -78111.713027 kJ/mol
# GULP energy per Si atom -5579.408073 kJ/mol
# Density = 2.486662 g / cm^3
# Si number density = 24.923344 Si / 1000 Ang^3
#
#
#
# Elastic Constant Matrix: (Units=GPa)
#
#
# Indices 1 2 3 4 5 6 
#
# 1 137.7830 14.1998 22.7867 2.3355 -7.2686 23.1262
# 2 14.1998 59.3709 -1.0295 20.6735 8.6463 0.5813
# 3 22.7867 -1.0295 154.4857 40.9739 16.5082 -2.1813
# 4 2.3355 20.6735 40.9739 33.3177 4.8564 -5.5437
# 5 -7.2686 8.6463 16.5082 4.8564 45.5858 4.1614
# 6 23.1262 0.5813 -2.1813 -5.5437 4.1614 30.3799
#
#
#
# Elastic Compliance Matrix: (Units=1/GPa)
#
#
# Indices 1 2 3 4 5 6 
#
# 1 0.009483 -0.004055 -0.002889 0.003688 0.003589 -0.007167
# 2 -0.004055 0.028338 0.008644 -0.027189 -0.006168 -0.000951
# 3 -0.002889 0.008644 0.012824 -0.020285 -0.004572 -0.000121
# 4 0.003688 -0.027189 -0.020285 0.072376 0.004574 0.008837
# 5 0.003589 -0.006168 -0.004572 0.004574 0.025357 -0.005581
# 6 -0.007167 -0.000951 -0.000121 0.008837 -0.005581 0.040759
#
#
# Mechanical properties :
#
#
# Convention : Reuss Voigt Hill
#
# Bulk Modulus (GPa) = 18.50293 47.06151 32.78222
# Shear Modulus (GPa) = 24.53969 42.90221 33.72095
#
# Velocity S-wave (km/s) = 3.14125 4.15344 3.68229
# Velocity P-wave (km/s) = 4.53835 6.47494 5.59113
#
# Compressibility (1/GPa) = 0.05404550
#
# Stress axis : x y z
#
# Youngs Moduli (GPa) = 105.44964 35.28850 77.97958
#
# Poissons Ratio (x) = 0.14309 0.22526
# Poissons Ratio (y) = 0.42758 -0.67404
# Poissons Ratio (z) = 0.30461 -0.30503
#
# Static dielectric constant tensor:
#      x y z
#    x 2.014440 0.022940 0.035310 
#    y 0.022940 2.234290 -0.161400 
#    z 0.035310 -0.161400 2.057350 
# 
# From -- ./inp_files/180023.got.cif
#   From: 2010.05.17/outbox.cif.g08.bks.cpg/sg2_91_cif.got.tgz:180023.got - 2010.06.03 11:33:40.
