data_PCOD9058232
_publ_section_title
;
Structure prediction by ZEFSAII (Michael W. Deem and Ramdas Pophale) SiO2 
 PCOD9058232
Probable space group: P -1
;
_chemical_formula_sum "Si O2"
_cell_formula_units_Z 16
_cell_length_a 12.637603
_cell_length_b 10.468706
_cell_length_c 25.324611
_cell_angle_alpha 31.552446
_cell_angle_beta 158.802941
_cell_angle_gamma 145.545064
_cell_volume 625.865131
_symmetry_space_group_name_H-M "P -1"
_symmetry_group_IT_number 2
_symmetry_cell_setting 'triclinic'
loop_
_space_group_symop_operation_xyz
x,y,z
-x,-y,-z
loop_
_atom_site_type_symbol
_atom_site_label
_atom_site_fract_x
_atom_site_fract_y
_atom_site_fract_z
Si Si1 0.833905 0.696144 0.286821
Si Si2 0.784438 0.226029 0.361673
Si Si3 0.725794 0.060281 0.276833
Si Si4 0.671672 0.271098 0.653701
Si Si5 0.084115 0.028962 0.205998
Si Si6 0.541011 0.417399 0.341956
Si Si7 0.129042 0.741953 0.080379
Si Si8 0.804033 0.524976 0.099417
O O1 0.172487 0.672923 0.468543
O O2 0.716183 0.465958 0.274875
O O3 0.653368 0.648516 0.273696
O O4 0.849149 0.943448 0.172828
O O5 0.802889 0.227710 0.306309
O O6 0.550380 0.980696 0.350633
O O7 0.092748 0.163284 0.551032
O O8 0.844783 0.236247 0.221432
O O9 0.379928 0.952922 0.147535
O O10 0.500000 0.500000 0.500000
O O11 0.934205 0.315665 0.802072
O O12 0.816250 0.221587 0.682520
O O13 0.362010 0.200755 0.300039
O O14 0.964250 0.165249 0.052465
O O15 0.306414 0.511338 0.238365
O O16 0.153710 0.349526 0.982119
O O17 0.500000 0.500000 0.000000
#
# Coordination Sequence:
#
# PCOD9058232 Si02
#       8
#     2   2   2   2   2   2   2   2
#     4  11  25  48  77 112 148 195 258 322 377 436
#     4  11  22  44  75 110 152 188 251 317 376 446
#     4  11  24  42  73 110 147 198 242 310 380 462
#     4  12  25  45  78 112 147 201 253 315 381 460
#     4  12  28  46  74 110 154 202 254 315 374 457
#     4  11  26  49  77 107 151 199 263 317 370 451
#     4  12  28  49  75 109 157 208 251 305 391 467
#     4  12  28  46  72 110 156 197 249 314 390 460
#
# _framework density 25.564613000000001
#
# number of rings (size 3 to 8) (size 9 to 14) (size 15 to 20)
#    0.000    0.500    5.000    2.250    5.250    4.500 
#    0.000    0.000    0.000    0.000    0.000    0.000 
#    0.000    0.000    0.000    0.000    0.000    0.000 
#
# Total GULP energy -89674.711030 kJ/mol
# GULP energy per Si atom -5604.669439 kJ/mol
# Density = 2.550643 g / cm^3
# Si number density = 25.564613 Si / 1000 Ang^3
#
#
#
# Elastic Constant Matrix: (Units=GPa)
#
#
# Indices 1 2 3 4 5 6 
#
# 1 94.0749 28.8269 27.0725 5.1322 -14.2220 37.1089
# 2 28.8269 109.2948 36.0276 26.5002 -19.5606 12.3218
# 3 27.0725 36.0276 106.6975 22.6570 -5.2882 5.8789
# 4 5.1322 26.5002 22.6570 35.7672 -1.1477 -5.4851
# 5 -14.2220 -19.5606 -5.2882 -1.1477 43.5205 -9.1996
# 6 37.1089 12.3218 5.8789 -5.4851 -9.1996 56.5249
#
#
#
# Elastic Compliance Matrix: (Units=1/GPa)
#
#
# Indices 1 2 3 4 5 6 
#
# 1 0.016096 -0.001709 -0.002716 -0.000734 0.002105 -0.009641
# 2 -0.001709 0.013311 -0.001937 -0.008495 0.004616 -0.001652
# 3 -0.002716 -0.001937 0.011878 -0.005657 -0.000389 0.000358
# 4 -0.000734 -0.008495 -0.005657 0.038831 -0.002389 0.006301
# 5 0.002105 0.004616 -0.000389 -0.002389 0.025978 0.001649
# 6 -0.009641 -0.001652 0.000358 0.006301 0.001649 0.025223
#
#
# Mechanical properties :
#
#
# Convention : Reuss Voigt Hill
#
# Bulk Modulus (GPa) = 35.01229 54.88011 44.94620
# Shear Modulus (GPa) = 32.56039 41.70520 37.13280
#
# Velocity S-wave (km/s) = 3.57270 4.04340 3.81531
# Velocity P-wave (km/s) = 5.54475 6.58123 6.08510
#
# Compressibility (1/GPa) = 0.02856140
#
# Stress axis : x y z
#
# Youngs Moduli (GPa) = 62.12664 75.12691 84.19120
#
# Poissons Ratio (x) = 0.12836 0.22864
# Poissons Ratio (y) = 0.10614 0.16311
# Poissons Ratio (z) = 0.16872 0.14555
#
# Static dielectric constant tensor:
#      x y z
#    x 2.066600 0.033480 0.008270 
#    y 0.033480 2.004270 -0.067430 
#    z 0.008270 -0.067430 2.051450 
# 
# From -- ./inp_files/623512.got.cif
#   From: 2010.05.17/outbox.cif.g08.bks.cpg/sg2_312_cif.got.tgz:623512.got - 2010.06.03 11:33:40.
