data_PCOD9058658
_publ_section_title
;
Structure prediction by ZEFSAII (Michael W. Deem and Ramdas Pophale) SiO2 
 PCOD9058658
Probable space group: P -1
;
_chemical_formula_sum "Si O2"
_cell_formula_units_Z 11
_cell_length_a 7.964746
_cell_length_b 5.337885
_cell_length_c 13.118009
_cell_angle_alpha 94.031384
_cell_angle_beta 48.524517
_cell_angle_gamma 80.035114
_cell_volume 398.424946
_symmetry_space_group_name_H-M "P -1"
_symmetry_group_IT_number 2
_symmetry_cell_setting 'triclinic'
loop_
_space_group_symop_operation_xyz
x,y,z
-x,-y,-z
loop_
_atom_site_type_symbol
_atom_site_label
_atom_site_fract_x
_atom_site_fract_y
_atom_site_fract_z
Si Si1 0.675260 0.971325 0.336911
Si Si2 0.910303 0.383494 0.719678
Si Si3 0.359925 0.916576 0.294586
Si Si4 0.842125 0.271549 0.119761
Si Si5 0.000000 0.500000 0.500000
Si Si6 0.686457 0.611899 0.007037
O O1 0.697233 0.217586 0.271394
O O2 0.500000 0.000000 0.500000
O O3 0.569429 0.819717 0.288922
O O4 0.929040 0.836838 0.279601
O O5 0.813283 0.270852 0.652075
O O6 0.064380 0.527760 0.599199
O O7 0.699659 0.535952 0.881261
O O8 0.488989 0.873007 0.131143
O O9 0.216808 0.209804 0.390030
O O10 0.045556 0.382141 0.083894
O O11 0.685135 0.408347 0.092198
O O12 0.000000 0.000000 0.000000
#
# Coordination Sequence:
#
# PCOD9058658 Si02
#       6
#     2   2   2   2   1   2
#     4  12  26  50  82 112 159 216 253 324 415 455
#     4  12  28  50  77 120 157 203 271 325 393 485
#     4  12  28  52  75 116 159 203 272 322 392 473
#     4  11  22  46  80 120 158 197 278 320 373 505
#     4  12  30  50  74 114 164 208 270 324 380 498
#     4  11  25  47  82 117 157 211 259 333 401 455
#
# _framework density 27.608712000000001
#
# number of rings (size 3 to 8) (size 9 to 14) (size 15 to 20)
#    0.000    0.364    5.455    2.182    5.091    0.727 
#    0.000    3.636    0.000    0.000    0.000    0.000 
#    0.000    0.000    0.000    0.000    0.000    0.000 
#
# Total GULP energy -61325.986395 kJ/mol
# GULP energy per Si atom -5575.089672 kJ/mol
# Density = 2.754587 g / cm^3
# Si number density = 27.608712 Si / 1000 Ang^3
#
#
#
# Elastic Constant Matrix: (Units=GPa)
#
#
# Indices 1 2 3 4 5 6 
#
# 1 116.0777 14.0165 15.7076 -2.8706 5.8528 -22.2560
# 2 14.0165 82.6574 46.8560 -4.4047 7.3256 -30.8546
# 3 15.7076 46.8560 277.4353 1.8265 14.9962 -17.8851
# 4 -2.8706 -4.4047 1.8265 49.3268 -8.6442 4.7734
# 5 5.8528 7.3256 14.9962 -8.6442 55.3730 2.0420
# 6 -22.2560 -30.8546 -17.8851 4.7734 2.0420 25.1855
#
#
#
# Elastic Compliance Matrix: (Units=1/GPa)
#
#
# Indices 1 2 3 4 5 6 
#
# 1 0.011108 0.003929 -0.000206 -0.000836 -0.002316 0.014830
# 2 0.003929 0.025709 -0.002096 -0.001535 -0.004748 0.034156
# 3 -0.000206 -0.002096 0.004041 -0.000533 -0.000889 0.000293
# 4 -0.000836 -0.001535 -0.000533 0.021537 0.004071 -0.007410
# 5 -0.002316 -0.004748 -0.000889 0.004071 0.020211 -0.010905
# 6 0.014830 0.034156 0.000293 -0.007410 -0.010905 0.097151
#
#
# Mechanical properties :
#
#
# Convention : Reuss Voigt Hill
#
# Bulk Modulus (GPa) = 22.66937 69.92564 46.29750
# Shear Modulus (GPa) = 26.15005 52.61641 39.38323
#
# Velocity S-wave (km/s) = 3.08095 4.37027 3.78097
# Velocity P-wave (km/s) = 4.57002 7.13078 5.98887
#
# Compressibility (1/GPa) = 0.04411238
#
# Stress axis : x y z
#
# Youngs Moduli (GPa) = 90.02761 38.89763 247.49325
#
# Poissons Ratio (x) = -0.15285 0.05095
# Poissons Ratio (y) = -0.35376 0.51869
# Poissons Ratio (z) = 0.01853 0.08152
#
# Static dielectric constant tensor:
#      x y z
#    x 2.231550 -0.048700 0.216160 
#    y -0.048700 1.732440 0.658140 
#    z 0.216160 0.658140 1.455140 
# 
# From -- ./inp_files/89436.got.cif
#   From: 2010.05.17/outbox.cif.g08.bks.cpg/sg2_45_cif.got.tgz:89436.got - 2010.06.03 11:33:40.
