data_PCOD9058275
_publ_section_title
;
Structure prediction by ZEFSAII (Michael W. Deem and Ramdas Pophale) SiO2 
 PCOD9058275
Probable space group: P -1
;
_chemical_formula_sum "Si O2"
_cell_formula_units_Z 16
_cell_length_a 9.254997
_cell_length_b 15.035934
_cell_length_c 12.371828
_cell_angle_alpha 30.698836
_cell_angle_beta 85.296880
_cell_angle_gamma 98.817434
_cell_volume 786.698634
_symmetry_space_group_name_H-M "P -1"
_symmetry_group_IT_number 2
_symmetry_cell_setting 'triclinic'
loop_
_space_group_symop_operation_xyz
x,y,z
-x,-y,-z
loop_
_atom_site_type_symbol
_atom_site_label
_atom_site_fract_x
_atom_site_fract_y
_atom_site_fract_z
Si Si1 0.798609 0.826883 0.049378
Si Si2 0.476536 0.780780 0.232164
Si Si3 0.355638 0.722813 0.531965
Si Si4 0.379755 0.011246 0.407098
Si Si5 0.989690 0.286059 0.240223
Si Si6 0.726521 0.674628 0.969539
Si Si7 0.144879 0.452003 0.508611
Si Si8 0.976125 0.269532 0.505154
O O1 0.627066 0.777434 0.165935
O O2 0.877075 0.732409 0.225358
O O3 0.773097 0.732626 0.030930
O O4 0.896987 0.055808 0.785343
O O5 0.459216 0.729747 0.413642
O O6 0.314086 0.629072 0.343441
O O7 0.500000 0.000000 0.000000
O O8 0.407904 0.923083 0.384438
O O9 0.172022 0.669665 0.559259
O O10 0.354115 0.558121 0.784175
O O11 0.195801 0.868064 0.601342
O O12 0.500000 0.000000 0.500000
O O13 0.381028 0.219253 0.172041
O O14 0.112156 0.255600 0.184655
O O15 0.030692 0.265833 0.383415
O O16 0.000000 0.500000 0.000000
O O17 0.119186 0.403167 0.434712
O O18 0.000000 0.500000 0.500000
#
# Coordination Sequence:
#
# PCOD9058275 Si02
#       8
#     2   2   2   2   2   2   2   2
#     4  12  24  43  72  97 138 182 226 275 353 408
#     4  12  23  43  67  97 137 185 218 275 352 401
#     4  11  22  45  69  94 144 176 222 278 347 399
#     4  11  25  46  68 103 134 174 235 284 328 406
#     4  11  23  46  73  96 138 184 223 277 349 403
#     4  12  22  45  76  93 134 191 222 274 352 403
#     4  12  24  42  68 102 136 176 234 281 330 409
#     4  11  22  45  66 102 138 172 230 288 325 407
#
# _framework density 20.338155
#
# number of rings (size 3 to 8) (size 9 to 14) (size 15 to 20)
#    0.000    0.500    8.750    1.125    0.000    0.500 
#    6.750    1.250    0.000    0.000    0.000    0.000 
#    0.000    0.000    0.000    0.000    0.000    0.000 
#
# Total GULP energy -89468.426142 kJ/mol
# GULP energy per Si atom -5591.776634 kJ/mol
# Density = 2.029186 g / cm^3
# Si number density = 20.338155 Si / 1000 Ang^3
#
#
#
# Elastic Constant Matrix: (Units=GPa)
#
#
# Indices 1 2 3 4 5 6 
#
# 1 84.9384 71.7285 51.3664 15.6316 19.6814 -15.3378
# 2 71.7285 121.4941 32.3878 29.6895 -2.0501 -14.1197
# 3 51.3664 32.3878 125.8423 -0.3513 18.7662 -0.4674
# 4 15.6316 29.6895 -0.3513 39.9633 -9.8333 -0.7863
# 5 19.6814 -2.0501 18.7662 -9.8333 41.1118 11.6600
# 6 -15.3378 -14.1197 -0.4674 -0.7863 11.6600 35.4199
#
#
#
# Elastic Compliance Matrix: (Units=1/GPa)
#
#
# Indices 1 2 3 4 5 6 
#
# 1 0.047213 -0.021093 -0.009724 -0.009188 -0.027280 0.020684
# 2 -0.021093 0.021164 0.001576 -0.004972 0.010443 -0.004224
# 3 -0.009724 0.001576 0.011299 0.002995 0.001376 -0.003820
# 4 -0.009188 -0.004972 0.002995 0.035607 0.014069 -0.009762
# 5 -0.027280 0.010443 0.001376 0.014069 0.047116 -0.022830
# 6 0.020684 -0.004224 -0.003820 -0.009762 -0.022830 0.042754
#
#
# Mechanical properties :
#
#
# Convention : Reuss Voigt Hill
#
# Bulk Modulus (GPa) = 47.18132 71.47111 59.32622
# Shear Modulus (GPa) = 18.47063 35.08516 26.77790
#
# Velocity S-wave (km/s) = 3.01687 4.15793 3.63248
# Velocity P-wave (km/s) = 5.94845 7.63340 6.84299
#
# Compressibility (1/GPa) = 0.02119483
#
# Stress axis : x y z
#
# Youngs Moduli (GPa) = 21.18045 47.24945 88.50473
#
# Poissons Ratio (x) = 0.99664 0.86058
# Poissons Ratio (y) = 0.44676 -0.13948
# Poissons Ratio (z) = 0.20595 -0.07447
#
# Static dielectric constant tensor:
#      x y z
#    x 1.673610 -0.026860 -0.004570 
#    y -0.026860 1.749940 -0.029630 
#    z -0.004570 -0.029630 1.737590 
# 
# From -- ./inp_files/398179.got.cif
#   From: 2010.05.17/outbox.cif.g08.bks.cpg/sg2_200_cif.got.tgz:398179.got - 2010.06.03 11:33:40.
