data_PCOD9058130
_publ_section_title
;
Structure prediction by ZEFSAII (Michael W. Deem and Ramdas Pophale) SiO2 
 PCOD9058130
Probable space group: P -1
;
_chemical_formula_sum "Si O2"
_cell_formula_units_Z 16
_cell_length_a 20.151544
_cell_length_b 9.342487
_cell_length_c 12.584554
_cell_angle_alpha 99.680764
_cell_angle_beta 37.071317
_cell_angle_gamma 130.776940
_cell_volume 685.849766
_symmetry_space_group_name_H-M "P -1"
_symmetry_group_IT_number 2
_symmetry_cell_setting 'triclinic'
loop_
_space_group_symop_operation_xyz
x,y,z
-x,-y,-z
loop_
_atom_site_type_symbol
_atom_site_label
_atom_site_fract_x
_atom_site_fract_y
_atom_site_fract_z
Si Si1 0.147091 0.825482 0.281651
Si Si2 0.169869 0.760001 0.902252
Si Si3 0.412896 0.842172 0.925132
Si Si4 0.436523 0.537026 0.281124
Si Si5 0.575414 0.436116 0.447911
Si Si6 0.704883 0.941601 0.650068
Si Si7 0.162578 0.472222 0.545351
Si Si8 0.845875 0.544318 0.987581
O O1 0.165905 0.913303 0.385132
O O2 0.224953 0.747014 0.179609
O O3 0.333567 0.125157 0.010622
O O4 0.921103 0.585314 0.472775
O O5 0.233829 0.695729 0.884339
O O6 0.383202 0.093086 0.628037
O O7 0.000000 0.500000 0.000000
O O8 0.032368 0.711393 0.146558
O O9 0.527418 0.869554 0.868451
O O10 0.622880 0.180295 0.657611
O O11 0.306176 0.617450 0.943417
O O12 0.406468 0.525970 0.443825
O O13 0.239548 0.396530 0.453271
O O14 0.424173 0.355428 0.244378
O O15 0.500000 0.500000 0.500000
O O16 0.800931 0.628580 0.131630
O O17 0.895335 0.178396 0.345039
#
# Coordination Sequence:
#
# PCOD9058130 Si02
#       8
#     2   2   2   2   2   2   2   2
#     4  11  24  47  72 102 140 186 238 291 352 419
#     4  12  23  44  73 101 137 186 235 287 352 420
#     4  11  22  45  70 103 142 176 233 295 352 417
#     4  11  26  46  70 100 144 188 237 285 359 421
#     4  12  27  46  73 103 146 190 234 298 353 424
#     4  12  27  43  72 107 140 186 236 294 353 423
#     4  11  22  44  71  99 136 183 232 284 354 419
#     4  12  26  45  70 107 143 181 240 290 356 425
#
# _framework density 23.328723
#
# number of rings (size 3 to 8) (size 9 to 14) (size 15 to 20)
#    0.000    0.500    3.750    4.125    3.500    6.000 
#    0.000    0.000    0.000    0.000    0.000    0.000 
#    0.000    0.000    0.000    0.000    0.000    0.000 
#
# Total GULP energy -89650.622447 kJ/mol
# GULP energy per Si atom -5603.163903 kJ/mol
# Density = 2.327563 g / cm^3
# Si number density = 23.328723 Si / 1000 Ang^3
#
#
#
# Elastic Constant Matrix: (Units=GPa)
#
#
# Indices 1 2 3 4 5 6 
#
# 1 123.2126 34.6860 34.8165 -2.0351 -8.1502 -3.3565
# 2 34.6860 98.4591 25.0601 2.3993 3.2040 -0.8538
# 3 34.8165 25.0601 98.1146 13.3999 -2.7433 -7.6215
# 4 -2.0351 2.3993 13.3999 28.4290 4.8541 -5.5460
# 5 -8.1502 3.2040 -2.7433 4.8541 31.5973 6.7385
# 6 -3.3565 -0.8538 -7.6215 -5.5460 6.7385 46.3823
#
#
#
# Elastic Compliance Matrix: (Units=1/GPa)
#
#
# Indices 1 2 3 4 5 6 
#
# 1 0.009957 -0.002865 -0.003005 0.001999 0.002273 0.000083
# 2 -0.002865 0.011757 -0.002065 0.000139 -0.002131 -0.000004
# 3 -0.003005 -0.002065 0.012723 -0.006075 0.001275 0.000923
# 4 0.001999 0.000139 -0.006075 0.040402 -0.007308 0.005041
# 5 0.002273 -0.002131 0.001275 -0.007308 0.034880 -0.005606
# 6 0.000083 -0.000004 0.000923 0.005041 -0.005606 0.023135
#
#
# Mechanical properties :
#
#
# Convention : Reuss Voigt Hill
#
# Bulk Modulus (GPa) = 53.85656 56.54573 55.20114
# Shear Modulus (GPa) = 32.27618 36.29662 34.28640
#
# Velocity S-wave (km/s) = 3.72363 3.94874 3.83784
# Velocity P-wave (km/s) = 6.45161 6.71426 6.58425
#
# Compressibility (1/GPa) = 0.01856784
#
# Stress axis : x y z
#
# Youngs Moduli (GPa) = 100.42919 85.05274 78.59787
#
# Poissons Ratio (x) = 0.24368 0.23615
# Poissons Ratio (y) = 0.28774 0.16233
# Poissons Ratio (z) = 0.30175 0.17566
#
# Static dielectric constant tensor:
#      x y z
#    x 1.887430 0.021260 -0.003380 
#    y 0.021260 1.826820 -0.003590 
#    z -0.003380 -0.003590 1.915010 
# 
# From -- ./inp_files/462197.got.cif
#   From: 2010.05.17/outbox.cif.g08.bks.cpg/sg2_232_cif.got.tgz:462197.got - 2010.06.03 11:33:40.
