data_PCOD9058889
_publ_section_title
;
Structure prediction by ZEFSAII (Michael W. Deem and Ramdas Pophale) SiO2 
 PCOD9058889
Probable space group: P -1
;
_chemical_formula_sum "Si O2"
_cell_formula_units_Z 16
_cell_length_a 8.905799
_cell_length_b 8.979326
_cell_length_c 12.557642
_cell_angle_alpha 101.727359
_cell_angle_beta 61.316646
_cell_angle_gamma 64.816207
_cell_volume 684.207696
_symmetry_space_group_name_H-M "P -1"
_symmetry_group_IT_number 2
_symmetry_cell_setting 'triclinic'
loop_
_space_group_symop_operation_xyz
x,y,z
-x,-y,-z
loop_
_atom_site_type_symbol
_atom_site_label
_atom_site_fract_x
_atom_site_fract_y
_atom_site_fract_z
Si Si1 0.495225 0.580734 0.126473
Si Si2 0.295267 0.119204 0.457999
Si Si3 0.983431 0.068781 0.687918
Si Si4 0.722641 0.739325 0.156074
Si Si5 0.037533 0.681117 0.583697
Si Si6 0.530946 0.406454 0.307756
Si Si7 0.784531 0.562308 0.324028
Si Si8 0.882879 0.968841 0.126295
O O1 0.646081 0.646974 0.092118
O O2 0.557170 0.433757 0.178696
O O3 0.249414 0.766153 0.256739
O O4 0.500000 0.500000 0.000000
O O5 0.160712 0.065653 0.561312
O O6 0.332076 0.238351 0.543601
O O7 0.141123 0.259295 0.434705
O O8 0.506529 0.928808 0.309749
O O9 0.017734 0.870940 0.639985
O O10 0.995273 0.106531 0.813569
O O11 0.845457 0.596633 0.193499
O O12 0.842033 0.819789 0.080087
O O13 0.280322 0.525219 0.436506
O O14 0.024034 0.596848 0.686978
O O15 0.632184 0.498157 0.347252
O O16 0.665152 0.182646 0.254395
O O17 0.000000 0.000000 0.000000
#
# Coordination Sequence:
#
# PCOD9058889 Si02
#       8
#     2   2   2   2   2   2   2   2
#     4  11  24  48  70  99 142 193 235 282 341 418
#     4  12  23  41  69 110 143 176 226 291 362 415
#     4  12  23  45  70 102 144 182 226 288 357 417
#     4  11  25  45  73 103 139 183 238 289 353 413
#     4  12  23  40  68 105 146 176 223 288 359 416
#     4  11  24  43  68 103 141 183 233 284 349 410
#     4  11  23  38  65 105 140 176 218 288 348 414
#     4  12  27  49  70  98 139 193 243 286 338 415
#
# _framework density 23.384712
#
# number of rings (size 3 to 8) (size 9 to 14) (size 15 to 20)
#    0.000    0.500    5.000    4.500    3.500    0.000 
#    2.250    4.375    0.000    0.000    0.000    0.000 
#    0.000    0.000    0.000    0.000    0.000    0.000 
#
# Total GULP energy -89722.544423 kJ/mol
# GULP energy per Si atom -5607.659026 kJ/mol
# Density = 2.333149 g / cm^3
# Si number density = 23.384712 Si / 1000 Ang^3
#
#
#
# Elastic Constant Matrix: (Units=GPa)
#
#
# Indices 1 2 3 4 5 6 
#
# 1 99.7199 58.6344 42.0070 -12.4435 26.6252 4.5843
# 2 58.6344 129.6436 24.7628 -9.3897 7.9616 11.1501
# 3 42.0070 24.7628 66.3817 -0.8540 14.1314 13.4446
# 4 -12.4435 -9.3897 -0.8540 47.1321 -0.0721 1.3075
# 5 26.6252 7.9616 14.1314 -0.0721 50.3833 4.6820
# 6 4.5843 11.1501 13.4446 1.3075 4.6820 53.9134
#
#
#
# Elastic Compliance Matrix: (Units=1/GPa)
#
#
# Indices 1 2 3 4 5 6 
#
# 1 0.020225 -0.006903 -0.009141 0.003717 -0.007263 0.002528
# 2 -0.006903 0.010851 0.000281 0.000400 0.002033 -0.001913
# 3 -0.009141 0.000281 0.021849 -0.001835 -0.000916 -0.004605
# 4 0.003717 0.000400 -0.001835 0.022253 -0.001448 -0.000355
# 5 -0.007263 0.002033 -0.000916 -0.001448 0.023768 -0.001603
# 6 0.002528 -0.001913 -0.004605 -0.000355 -0.001603 0.020025
#
#
# Mechanical properties :
#
#
# Convention : Reuss Voigt Hill
#
# Bulk Modulus (GPa) = 46.73769 60.72819 53.73294
# Shear Modulus (GPa) = 31.71978 41.64181 36.68080
#
# Velocity S-wave (km/s) = 3.68697 4.22445 3.96483
# Velocity P-wave (km/s) = 6.17696 7.05834 6.63231
#
# Compressibility (1/GPa) = 0.02139601
#
# Stress axis : x y z
#
# Youngs Moduli (GPa) = 49.44450 92.15982 45.76951
#
# Poissons Ratio (x) = 0.63620 0.41840
# Poissons Ratio (y) = 0.34133 -0.01284
# Poissons Ratio (z) = 0.45199 -0.02586
#
# Static dielectric constant tensor:
#      x y z
#    x 1.866550 -0.013670 -0.004780 
#    y -0.013670 1.869610 0.004820 
#    z -0.004780 0.004820 1.900020 
# 
# From -- ./inp_files/382916.got.cif
#   From: 2010.05.17/outbox.cif.g08.bks.cpg/sg2_192_cif.got.tgz:382916.got - 2010.06.03 11:33:40.
