data_PCOD9058763
_publ_section_title
;
Structure prediction by ZEFSAII (Michael W. Deem and Ramdas Pophale) SiO2 
 PCOD9058763
Probable space group: P -1
;
_chemical_formula_sum "Si O2"
_cell_formula_units_Z 13
_cell_length_a 8.767922
_cell_length_b 11.390623
_cell_length_c 9.287298
_cell_angle_alpha 70.925057
_cell_angle_beta 85.995691
_cell_angle_gamma 139.472331
_cell_volume 487.193146
_symmetry_space_group_name_H-M "P -1"
_symmetry_group_IT_number 2
_symmetry_cell_setting 'triclinic'
loop_
_space_group_symop_operation_xyz
x,y,z
-x,-y,-z
loop_
_atom_site_type_symbol
_atom_site_label
_atom_site_fract_x
_atom_site_fract_y
_atom_site_fract_z
Si Si1 0.000000 0.500000 0.000000
Si Si2 0.391770 0.657056 0.659745
Si Si3 0.295875 0.204881 0.830794
Si Si4 0.245156 0.327145 0.284040
Si Si5 0.933136 0.746781 0.362024
Si Si6 0.456821 0.869768 0.934477
Si Si7 0.723672 0.028660 0.269081
O O1 0.210010 0.565429 0.845285
O O2 0.217040 0.612194 0.078573
O O3 0.639432 0.732541 0.664254
O O4 0.197594 0.454099 0.639099
O O5 0.525228 0.862320 0.481595
O O6 0.485529 0.406518 0.847336
O O7 0.251079 0.261029 0.671973
O O8 0.373665 0.123179 0.797277
O O9 0.000000 0.000000 0.000000
O O10 0.095295 0.279889 0.455565
O O11 0.027259 0.189689 0.226753
O O12 0.250606 0.974071 0.204684
O O13 0.278320 0.828602 0.838691
O O14 0.500000 0.000000 0.000000
#
# Coordination Sequence:
#
# PCOD9058763 Si02
#       7
#     1   2   2   2   2   2   2
#     4  12  28  46  74 102 154 190 232 294 374 422
#     4  11  23  48  74 109 142 194 238 294 366 423
#     4  11  24  43  72 108 142 186 239 302 358 416
#     4  11  24  46  75 106 143 185 244 298 353 436
#     4  11  22  48  75 100 147 193 233 300 361 423
#     4  12  28  49  70 104 149 190 239 296 360 428
#     4  12  26  45  76 108 139 194 246 289 360 435
#
# _framework density 26.68346
#
# number of rings (size 3 to 8) (size 9 to 14) (size 15 to 20)
#    0.000    0.615    4.615    3.231    4.308    6.154 
#    0.000    0.000    0.000    0.000    0.000    0.000 
#    0.000    0.000    0.000    0.000    0.000    0.000 
#
# Total GULP energy -72707.413099 kJ/mol
# GULP energy per Si atom -5592.877931 kJ/mol
# Density = 2.662273 g / cm^3
# Si number density = 26.683460 Si / 1000 Ang^3
#
#
#
# Elastic Constant Matrix: (Units=GPa)
#
#
# Indices 1 2 3 4 5 6 
#
# 1 112.4522 20.6871 44.3702 4.0847 -0.2169 5.1020
# 2 20.6871 149.1996 7.5589 -0.2322 -11.1226 7.4616
# 3 44.3702 7.5589 67.6102 -0.9064 -16.5488 -3.0826
# 4 4.0847 -0.2322 -0.9064 41.8048 -3.5633 -15.7697
# 5 -0.2169 -11.1226 -16.5488 -3.5633 57.0362 2.2399
# 6 5.1020 7.4616 -3.0826 -15.7697 2.2399 51.0306
#
#
#
# Elastic Compliance Matrix: (Units=1/GPa)
#
#
# Indices 1 2 3 4 5 6 
#
# 1 0.012999 -0.001445 -0.009241 -0.002609 -0.002985 -0.002322
# 2 -0.001445 0.007039 0.000497 -0.000029 0.001546 -0.000932
# 3 -0.009241 0.000497 0.022611 0.003048 0.006700 0.002865
# 4 -0.002609 -0.000029 0.003048 0.027807 0.002255 0.008943
# 5 -0.002985 0.001546 0.006700 0.002255 0.019896 0.000301
# 6 -0.002322 -0.000932 0.002865 0.008943 0.000301 0.022888
#
#
# Mechanical properties :
#
#
# Convention : Reuss Voigt Hill
#
# Bulk Modulus (GPa) = 44.89989 52.72159 48.81074
# Shear Modulus (GPa) = 35.45048 47.08404 41.26726
#
# Velocity S-wave (km/s) = 3.64889 4.20520 3.93688
# Velocity P-wave (km/s) = 5.88353 6.58630 6.24481
#
# Compressibility (1/GPa) = 0.02227177
#
# Stress axis : x y z
#
# Youngs Moduli (GPa) = 76.92970 142.05783 44.22639
#
# Poissons Ratio (x) = 0.20523 0.40868
# Poissons Ratio (y) = 0.11114 -0.02197
# Poissons Ratio (z) = 0.71089 -0.07056
#
# Static dielectric constant tensor:
#      x y z
#    x 2.109310 -0.240920 0.250410 
#    y -0.240920 5.597890 -1.755660 
#    z 0.250410 -1.755660 3.005790 
# 
# From -- ./inp_files/157066.got.cif
#   From: 2010.05.17/outbox.cif.g08.bks.cpg/sg2_79_cif.got.tgz:157066.got - 2010.06.03 11:33:40.
