data_PCOD9058343
_publ_section_title
;
Structure prediction by ZEFSAII (Michael W. Deem and Ramdas Pophale) SiO2 
 PCOD9058343
Probable space group: P -1
;
_chemical_formula_sum "Si O2"
_cell_formula_units_Z 16
_cell_length_a 9.404146
_cell_length_b 7.986250
_cell_length_c 17.510046
_cell_angle_alpha 42.070938
_cell_angle_beta 66.132781
_cell_angle_gamma 91.845695
_cell_volume 676.803901
_symmetry_space_group_name_H-M "P -1"
_symmetry_group_IT_number 2
_symmetry_cell_setting 'triclinic'
loop_
_space_group_symop_operation_xyz
x,y,z
-x,-y,-z
loop_
_atom_site_type_symbol
_atom_site_label
_atom_site_fract_x
_atom_site_fract_y
_atom_site_fract_z
Si Si1 0.825646 0.930718 0.670810
Si Si2 0.902449 0.947097 0.814449
Si Si3 0.941487 0.276348 0.385057
Si Si4 0.860676 0.786177 0.037798
Si Si5 0.680315 0.830390 0.339119
Si Si6 0.676277 0.232143 0.336801
Si Si7 0.318905 0.704228 0.113986
Si Si8 0.184323 0.708381 0.976679
O O1 0.667382 0.580529 0.814649
O O2 0.842474 0.031376 0.720556
O O3 0.012138 0.935434 0.603132
O O4 0.821537 0.126540 0.537250
O O5 0.125480 0.151663 0.705953
O O6 0.828398 0.923820 0.924086
O O7 0.834454 0.602297 0.929653
O O8 0.842048 0.367688 0.316105
O O9 0.150136 0.544936 0.265474
O O10 0.677533 0.508919 0.207379
O O11 0.980918 0.649517 0.030216
O O12 0.000000 0.000000 0.000000
O O13 0.500000 0.500000 0.500000
O O14 0.693005 0.037293 0.335058
O O15 0.686602 0.008906 0.201062
O O16 0.500000 0.000000 0.500000
O O17 0.248755 0.775654 0.027517
O O18 0.500000 0.000000 0.000000
#
# Coordination Sequence:
#
# PCOD9058343 Si02
#       8
#     2   2   2   2   2   2   2   2
#     4   8  16  31  58  78 105 142 181 228 282 320
#     4  10  17  37  61  74 107 150 179 236 283 321
#     4   9  17  34  51  80 115 141 179 225 279 332
#     4  11  21  36  56  81 108 147 191 225 279 337
#     4  11  21  32  52  85 108 141 190 232 273 328
#     4  12  23  37  53  79 122 152 177 227 283 333
#     4   9  16  28  54  84 103 132 177 240 283 309
#     4  10  18  36  58  73 113 145 178 238 282 319
#
# _framework density 23.640526000000001
#
# number of rings (size 3 to 8) (size 9 to 14) (size 15 to 20)
#    0.750    1.250    5.000    0.750    3.500    2.000 
#    0.000    0.000    0.000    3.000    0.000    0.000 
#    0.000    0.000    0.000    0.000    0.000    0.000 
#
# Total GULP energy -89261.605135 kJ/mol
# GULP energy per Si atom -5578.850321 kJ/mol
# Density = 2.358672 g / cm^3
# Si number density = 23.640526 Si / 1000 Ang^3
#
#
#
# Elastic Constant Matrix: (Units=GPa)
#
#
# Indices 1 2 3 4 5 6 
#
# 1 33.9580 18.7672 26.5676 0.0016 9.0039 22.2442
# 2 18.7672 97.5853 57.6790 7.8183 11.3131 36.5314
# 3 26.5676 57.6790 200.4346 -1.1768 4.4504 32.3442
# 4 0.0016 7.8183 -1.1768 42.3139 14.7047 5.2527
# 5 9.0039 11.3131 4.4504 14.7047 34.9436 1.1489
# 6 22.2442 36.5314 32.3442 5.2527 1.1489 37.9320
#
#
#
# Elastic Compliance Matrix: (Units=1/GPa)
#
#
# Indices 1 2 3 4 5 6 
#
# 1 0.059315 0.006579 -0.002864 0.010640 -0.020226 -0.039539
# 2 0.006579 0.018703 -0.002967 0.001406 -0.007329 -0.019313
# 3 -0.002864 -0.002967 0.006374 0.000621 0.000658 -0.001004
# 4 0.010640 0.001406 0.000621 0.030294 -0.015634 -0.011845
# 5 -0.020226 -0.007329 0.000658 -0.015634 0.042065 0.019250
# 6 -0.039539 -0.019313 -0.001004 -0.011845 0.019250 0.070063
#
#
# Mechanical properties :
#
#
# Convention : Reuss Voigt Hill
#
# Bulk Modulus (GPa) = 11.64288 59.77838 35.71063
# Shear Modulus (GPa) = 19.68941 38.30219 28.99580
#
# Velocity S-wave (km/s) = 2.88907 4.02953 3.50598
# Velocity P-wave (km/s) = 4.00807 6.85498 5.61495
#
# Compressibility (1/GPa) = 0.08588937
#
# Stress axis : x y z
#
# Youngs Moduli (GPa) = 16.85922 53.46845 156.89947
#
# Poissons Ratio (x) = -0.35178 0.44928
# Poissons Ratio (y) = -0.11092 0.46545
# Poissons Ratio (z) = 0.04828 0.15862
#
# Static dielectric constant tensor:
#      x y z
#    x 1.941100 -0.070180 0.022450 
#    y -0.070180 1.992740 0.029120 
#    z 0.022450 0.029120 1.962560 
# 
# From -- ./inp_files/566545.got.cif
#   From: 2010.05.17/outbox.cif.g08.bks.cpg/sg2_284_cif.got.tgz:566545.got - 2010.06.03 11:33:40.
