data_PCOD9058214
_publ_section_title
;
Structure prediction by ZEFSAII (Michael W. Deem and Ramdas Pophale) SiO2 
 PCOD9058214
Probable space group: P -1
;
_chemical_formula_sum "Si O2"
_cell_formula_units_Z 16
_cell_length_a 17.486940
_cell_length_b 11.955262
_cell_length_c 8.546833
_cell_angle_alpha 94.456419
_cell_angle_beta 41.455470
_cell_angle_gamma 126.877650
_cell_volume 673.370143
_symmetry_space_group_name_H-M "P -1"
_symmetry_group_IT_number 2
_symmetry_cell_setting 'triclinic'
loop_
_space_group_symop_operation_xyz
x,y,z
-x,-y,-z
loop_
_atom_site_type_symbol
_atom_site_label
_atom_site_fract_x
_atom_site_fract_y
_atom_site_fract_z
Si Si1 0.824351 0.279410 0.167659
Si Si2 0.358010 0.880550 0.916701
Si Si3 0.243807 0.015785 0.239310
Si Si4 0.061194 0.245233 0.810430
Si Si5 0.593551 0.333770 0.191656
Si Si6 0.429455 0.569457 0.080012
Si Si7 0.753149 0.869012 0.079354
Si Si8 0.150589 0.288773 0.015621
O O1 0.779988 0.240626 0.043029
O O2 0.590944 0.109573 0.561442
O O3 0.000000 0.500000 0.000000
O O4 0.903246 0.218537 0.083413
O O5 0.380083 0.769913 0.923908
O O6 0.263035 0.898343 0.174982
O O7 0.082718 0.916910 0.607938
O O8 0.451469 0.243548 0.982758
O O9 0.182882 0.022934 0.168345
O O10 0.198185 0.390242 0.470220
O O11 0.190936 0.327875 0.774566
O O12 0.936502 0.036202 0.935286
O O13 0.436342 0.217990 0.563499
O O14 0.530459 0.364194 0.151425
O O15 0.795064 0.549253 0.974218
O O16 0.500000 0.500000 0.000000
O O17 0.724794 0.713523 0.097875
#
# Coordination Sequence:
#
# PCOD9058214 Si02
#       8
#     2   2   2   2   2   2   2   2
#     4  11  22  44  74 104 140 190 240 290 360 431
#     4  11  24  46  70 104 149 184 237 301 359 430
#     4  12  25  45  69 101 144 185 231 294 362 426
#     4  12  23  44  69 100 136 181 239 288 362 422
#     4  12  25  45  70 102 140 183 238 296 357 425
#     4  12  26  46  70 104 141 187 240 297 361 427
#     4  12  22  45  71  99 139 180 236 298 352 428
#     4  12  26  42  69 105 136 186 236 291 359 427
#
# _framework density 23.761077
#
# number of rings (size 3 to 8) (size 9 to 14) (size 15 to 20)
#    0.000    0.250    2.500    7.875    0.000    1.000 
#    2.250    0.000    0.000    0.000    0.000    0.000 
#    0.000    0.000    0.000    0.000    0.000    0.000 
#
# Total GULP energy -89482.349433 kJ/mol
# GULP energy per Si atom -5592.646840 kJ/mol
# Density = 2.370700 g / cm^3
# Si number density = 23.761077 Si / 1000 Ang^3
#
#
#
# Elastic Constant Matrix: (Units=GPa)
#
#
# Indices 1 2 3 4 5 6 
#
# 1 57.0408 30.5214 -2.6396 -11.2092 0.0307 -1.1637
# 2 30.5214 147.2678 27.5249 -8.7036 -11.5150 -11.2045
# 3 -2.6396 27.5249 60.9514 -7.7767 -9.3077 -1.9726
# 4 -11.2092 -8.7036 -7.7767 33.7775 0.1422 -8.8256
# 5 0.0307 -11.5150 -9.3077 0.1422 26.6582 -1.4779
# 6 -1.1637 -11.2045 -1.9726 -8.8256 -1.4779 35.7357
#
#
#
# Elastic Compliance Matrix: (Units=1/GPa)
#
#
# Indices 1 2 3 4 5 6 
#
# 1 0.021707 -0.004776 0.003948 0.007192 -0.000683 0.001175
# 2 -0.004776 0.008915 -0.003658 0.000561 0.002725 0.002689
# 3 0.003948 -0.003658 0.019782 0.005320 0.005383 0.001610
# 4 0.007192 0.000561 0.005320 0.035877 0.002436 0.009665
# 5 -0.000683 0.002725 0.005383 0.002436 0.040746 0.003416
# 6 0.001175 0.002689 0.001610 0.009665 0.003416 0.031482
#
#
# Mechanical properties :
#
#
# Convention : Reuss Voigt Hill
#
# Bulk Modulus (GPa) = 24.13515 41.78593 32.96054
# Shear Modulus (GPa) = 27.58016 33.22452 30.40234
#
# Velocity S-wave (km/s) = 3.41064 3.74341 3.58089
# Velocity P-wave (km/s) = 5.06848 6.02563 5.56766
#
# Compressibility (1/GPa) = 0.04143334
#
# Stress axis : x y z
#
# Youngs Moduli (GPa) = 46.06812 112.17591 50.55030
#
# Poissons Ratio (x) = 0.53571 -0.19958
# Poissons Ratio (y) = 0.22000 0.18490
# Poissons Ratio (z) = -0.18188 0.41031
#
# Static dielectric constant tensor:
#      x y z
#    x 1.913840 0.042710 -0.008530 
#    y 0.042710 1.931040 0.008280 
#    z -0.008530 0.008280 1.871760 
# 
# From -- ./inp_files/333328.got.cif
#   From: 2010.05.17/outbox.cif.g08.bks.cpg/sg2_167_cif.got.tgz:333328.got - 2010.06.03 11:33:40.
