data_PCOD9058681
_publ_section_title
;
Structure prediction by ZEFSAII (Michael W. Deem and Ramdas Pophale) SiO2 
 PCOD9058681
Probable space group: P -1
;
_chemical_formula_sum "Si O2"
_cell_formula_units_Z 16
_cell_length_a 9.184836
_cell_length_b 16.287835
_cell_length_c 5.544924
_cell_angle_alpha 107.363643
_cell_angle_beta 121.795082
_cell_angle_gamma 92.983280
_cell_volume 650.136881
_symmetry_space_group_name_H-M "P -1"
_symmetry_group_IT_number 2
_symmetry_cell_setting 'triclinic'
loop_
_space_group_symop_operation_xyz
x,y,z
-x,-y,-z
loop_
_atom_site_type_symbol
_atom_site_label
_atom_site_fract_x
_atom_site_fract_y
_atom_site_fract_z
Si Si1 0.158402 0.112280 0.662415
Si Si2 0.582764 0.704389 0.875788
Si Si3 0.151563 0.398679 0.095053
Si Si4 0.438962 0.816151 0.528979
Si Si5 0.807367 0.144020 0.261788
Si Si6 0.097124 0.700287 0.866891
Si Si7 0.744879 0.963600 0.806017
Si Si8 0.811859 0.413964 0.494594
O O1 0.155605 0.055503 0.364402
O O2 0.962768 0.124829 0.543682
O O3 0.299680 0.206928 0.815495
O O4 0.208061 0.070463 0.917188
O O5 0.690595 0.629931 0.924921
O O6 0.559035 0.748423 0.633938
O O7 0.377517 0.659458 0.720778
O O8 0.217861 0.492323 0.371099
O O9 0.080327 0.319635 0.154872
O O10 0.976084 0.401928 0.792989
O O11 0.367277 0.852826 0.741851
O O12 0.547125 0.900273 0.549299
O O13 0.263654 0.756044 0.206149
O O14 0.897994 0.239063 0.307598
O O15 0.765322 0.067204 0.957205
O O16 0.124434 0.603971 0.732710
#
# Coordination Sequence:
#
# PCOD9058681 Si02
#       8
#     2   2   2   2   2   2   2   2
#     4  11  26  46  73 107 147 191 245 300 362 435
#     4  11  22  47  69 103 142 188 237 293 369 425
#     4  11  25  44  73 100 140 183 237 302 364 439
#     4  11  25  43  68  99 144 188 238 298 356 439
#     4  12  26  44  70 101 142 194 238 300 363 428
#     4  12  23  43  70  99 141 184 242 290 368 429
#     4  11  27  46  70 107 146 192 248 301 360 427
#     4  11  23  47  68 104 137 182 239 300 364 438
#
# _framework density 24.610201
#
# number of rings (size 3 to 8) (size 9 to 14) (size 15 to 20)
#    0.000    0.750    2.500    4.125    8.750    0.500 
#    2.250    0.625    0.000    0.000    0.000    0.000 
#    0.000    0.000    0.000    0.000    0.000    0.000 
#
# Total GULP energy -89442.150386 kJ/mol
# GULP energy per Si atom -5590.134399 kJ/mol
# Density = 2.455419 g / cm^3
# Si number density = 24.610201 Si / 1000 Ang^3
#
#
#
# Elastic Constant Matrix: (Units=GPa)
#
#
# Indices 1 2 3 4 5 6 
#
# 1 94.3794 25.2398 25.1542 -6.9206 12.7578 -11.9797
# 2 25.2398 80.3245 41.5380 13.7272 1.5548 -20.0449
# 3 25.1542 41.5380 65.5367 10.8966 0.5261 -21.1548
# 4 -6.9206 13.7272 10.8966 39.3649 1.1352 3.7624
# 5 12.7578 1.5548 0.5261 1.1352 42.2634 3.2122
# 6 -11.9797 -20.0449 -21.1548 3.7624 3.2122 38.7508
#
#
#
# Elastic Compliance Matrix: (Units=1/GPa)
#
#
# Indices 1 2 3 4 5 6 
#
# 1 0.013299 -0.002704 -0.003950 0.004447 -0.004020 0.000458
# 2 -0.002704 0.020313 -0.009260 -0.005486 -0.000060 0.005154
# 3 -0.003950 -0.009260 0.026462 -0.005663 0.000677 0.008929
# 4 0.004447 -0.005486 -0.005663 0.030411 -0.001325 -0.007398
# 5 -0.004020 -0.000060 0.000677 -0.001325 0.025121 -0.002858
# 6 0.000458 0.005154 0.008929 -0.007398 -0.002858 0.034443
#
#
# Mechanical properties :
#
#
# Convention : Reuss Voigt Hill
#
# Bulk Modulus (GPa) = 35.40389 47.12271 41.26330
# Shear Modulus (GPa) = 26.13795 33.96307 30.05051
#
# Velocity S-wave (km/s) = 3.26249 3.71892 3.49816
# Velocity P-wave (km/s) = 5.34873 6.13430 5.75494
#
# Compressibility (1/GPa) = 0.02824549
#
# Stress axis : x y z
#
# Youngs Moduli (GPa) = 75.19381 49.22999 37.78975
#
# Poissons Ratio (x) = 0.13313 0.14926
# Poissons Ratio (y) = 0.20334 0.34995
# Poissons Ratio (z) = 0.29699 0.45589
#
# Static dielectric constant tensor:
#      x y z
#    x 1.939320 0.013450 -0.008940 
#    y 0.013450 2.002220 -0.031740 
#    z -0.008940 -0.031740 1.994650 
# 
# From -- ./inp_files/49180.got.cif
#   From: 2010.05.17/outbox.cif.g08.bks.cpg/sg2_25_cif.got.tgz:49180.got - 2010.06.03 11:33:40.
