data_PCOD9058353
_publ_section_title
;
Structure prediction by ZEFSAII (Michael W. Deem and Ramdas Pophale) SiO2 
 PCOD9058353
Probable space group: P -1
;
_chemical_formula_sum "Si O2"
_cell_formula_units_Z 16
_cell_length_a 14.381828
_cell_length_b 11.829150
_cell_length_c 9.219611
_cell_angle_alpha 77.698770
_cell_angle_beta 91.013110
_cell_angle_gamma 30.181391
_cell_volume 702.377322
_symmetry_space_group_name_H-M "P -1"
_symmetry_group_IT_number 2
_symmetry_cell_setting 'triclinic'
loop_
_space_group_symop_operation_xyz
x,y,z
-x,-y,-z
loop_
_atom_site_type_symbol
_atom_site_label
_atom_site_fract_x
_atom_site_fract_y
_atom_site_fract_z
Si Si1 0.852474 0.512871 0.289380
Si Si2 0.721384 0.312412 0.058306
Si Si3 0.978410 0.391150 0.643973
Si Si4 0.051572 0.762955 0.109730
Si Si5 0.582570 0.609832 0.217066
Si Si6 0.352700 0.144585 0.313640
Si Si7 0.198147 0.080701 0.191727
Si Si8 0.598117 0.015191 0.132009
O O1 0.919224 0.483832 0.455042
O O2 0.723909 0.542555 0.320492
O O3 0.711396 0.771034 0.146179
O O4 0.031406 0.266257 0.262209
O O5 0.721757 0.363074 0.207004
O O6 0.500000 0.500000 0.000000
O O7 0.775033 0.359929 0.938958
O O8 0.884533 0.037924 0.088254
O O9 0.883424 0.377636 0.707374
O O10 0.870442 0.596374 0.696941
O O11 0.219269 0.122430 0.741599
O O12 0.939502 0.795527 0.988230
O O13 0.388192 0.782885 0.256236
O O14 0.485325 0.801115 0.035981
O O15 0.322189 0.061893 0.239209
O O16 0.500000 0.000000 0.500000
O O17 0.429219 0.156311 0.199851
#
# Coordination Sequence:
#
# PCOD9058353 Si02
#       8
#     2   2   2   2   2   2   2   2
#     4  12  25  40  63  94 141 175 213 265 324 394
#     4  11  22  45  70  97 125 161 224 289 330 379
#     4  12  24  44  62  97 140 175 213 266 329 389
#     4  11  25  41  71  99 121 171 225 274 333 384
#     4  12  24  40  65  98 126 168 226 277 322 381
#     4  12  24  38  62  96 138 179 213 255 322 394
#     4  12  23  40  64  97 129 175 221 268 315 388
#     4  12  23  38  63  96 132 180 217 260 316 388
#
# _framework density 22.779778
#
# number of rings (size 3 to 8) (size 9 to 14) (size 15 to 20)
#    0.000    0.250    7.500    2.250    0.000    1.000 
#    0.000    0.625    0.000    1.500    0.000    0.000 
#    0.000    0.000    0.000    0.000    0.000    0.000 
#
# Total GULP energy -89191.100836 kJ/mol
# GULP energy per Si atom -5574.443802 kJ/mol
# Density = 2.272793 g / cm^3
# Si number density = 22.779778 Si / 1000 Ang^3
#
#
#
# Elastic Constant Matrix: (Units=GPa)
#
#
# Indices 1 2 3 4 5 6 
#
# 1 84.4064 26.6884 22.9938 6.2658 7.4279 -14.7560
# 2 26.6884 140.4799 28.9883 41.5862 -7.7499 -21.9892
# 3 22.9938 28.9883 75.0830 16.5166 12.8390 6.1610
# 4 6.2658 41.5862 16.5166 24.2704 -5.6864 -0.7252
# 5 7.4279 -7.7499 12.8390 -5.6864 35.8268 9.1936
# 6 -14.7560 -21.9892 6.1610 -0.7252 9.1936 47.4165
#
#
#
# Elastic Compliance Matrix: (Units=1/GPa)
#
#
# Indices 1 2 3 4 5 6 
#
# 1 0.014477 -0.001775 -0.003950 0.001438 -0.002972 0.004794
# 2 -0.001775 0.017151 0.000241 -0.029479 -0.002592 0.007422
# 3 -0.003950 0.000241 0.019056 -0.014214 -0.007615 -0.002335
# 4 0.001438 -0.029479 -0.014214 0.104952 0.018505 -0.013359
# 5 -0.002972 -0.002592 -0.007615 0.018505 0.035625 -0.007762
# 6 0.004794 0.007422 -0.002335 -0.013359 -0.007762 0.027627
#
#
# Mechanical properties :
#
#
# Convention : Reuss Voigt Hill
#
# Bulk Modulus (GPa) = 25.17852 50.81225 37.99539
# Shear Modulus (GPa) = 20.56795 36.25603 28.41199
#
# Velocity S-wave (km/s) = 3.00810 3.99380 3.53547
# Velocity P-wave (km/s) = 4.81060 6.60466 5.77769
#
# Compressibility (1/GPa) = 0.03971639
#
# Stress axis : x y z
#
# Youngs Moduli (GPa) = 69.07287 58.30404 52.47703
#
# Poissons Ratio (x) = 0.10347 0.20729
# Poissons Ratio (y) = 0.12258 -0.01262
# Poissons Ratio (z) = 0.27284 -0.01402
#
# Static dielectric constant tensor:
#      x y z
#    x 1.960040 0.032650 0.049210 
#    y 0.032650 1.890840 -0.003390 
#    z 0.049210 -0.003390 1.831230 
# 
# From -- ./inp_files/307572.got.cif
#   From: 2010.05.17/outbox.cif.g08.bks.cpg/sg2_154_cif.got.tgz:307572.got - 2010.06.03 11:33:40.
