data_PCOD9058928
_publ_section_title
;
Structure prediction by ZEFSAII (Michael W. Deem and Ramdas Pophale) SiO2 
 PCOD9058928
Probable space group: P -1
;
_chemical_formula_sum "Si O2"
_cell_formula_units_Z 12
_cell_length_a 7.401120
_cell_length_b 11.715181
_cell_length_c 14.718928
_cell_angle_alpha 151.886333
_cell_angle_beta 127.535836
_cell_angle_gamma 52.981455
_cell_volume 469.674348
_symmetry_space_group_name_H-M "P -1"
_symmetry_group_IT_number 2
_symmetry_cell_setting 'triclinic'
loop_
_space_group_symop_operation_xyz
x,y,z
-x,-y,-z
loop_
_atom_site_type_symbol
_atom_site_label
_atom_site_fract_x
_atom_site_fract_y
_atom_site_fract_z
Si Si1 0.664324 0.227345 0.422557
Si Si2 0.069676 0.312870 0.471184
Si Si3 0.639094 0.743144 0.819828
Si Si4 0.888209 0.120912 0.957163
Si Si5 0.463166 0.291911 0.712095
Si Si6 0.357307 0.299887 0.895205
O O1 0.602345 0.464034 0.636482
O O2 0.442556 0.232576 0.293093
O O3 0.864985 0.285721 0.458533
O O4 0.736513 0.949715 0.285740
O O5 0.276234 0.383767 0.641975
O O6 0.000000 0.500000 0.500000
O O7 0.133603 0.061719 0.260318
O O8 0.909854 0.735222 0.911091
O O9 0.500000 0.000000 0.000000
O O10 0.623505 0.241499 0.970911
O O11 0.000000 0.000000 0.000000
O O12 0.355130 0.322014 0.801727
O O13 0.500000 0.000000 0.500000
O O14 0.690864 0.426478 0.882324
#
# Coordination Sequence:
#
# PCOD9058928 Si02
#       6
#     2   2   2   2   2   2
#     4  11  25  43  66 108 141 184 243 293 352 425
#     4  12  26  45  74 104 144 190 238 295 360 426
#     4  11  23  39  63 103 147 182 230 296 353 411
#     4  12  22  41  68 102 140 185 232 291 355 421
#     4  11  25  48  73 103 140 191 238 288 363 429
#     4  11  25  45  74 100 144 188 236 297 354 427
#
# _framework density 25.549620000000001
#
# number of rings (size 3 to 8) (size 9 to 14) (size 15 to 20)
#    0.000    0.667    5.000    3.000    2.333    2.000 
#    0.000    0.833    0.000    0.000    0.000    0.000 
#    0.000    0.000    0.000    0.000    0.000    0.000 
#
# Total GULP energy -67015.207046 kJ/mol
# GULP energy per Si atom -5584.600587 kJ/mol
# Density = 2.549147 g / cm^3
# Si number density = 25.549620 Si / 1000 Ang^3
#
#
#
# Elastic Constant Matrix: (Units=GPa)
#
#
# Indices 1 2 3 4 5 6 
#
# 1 63.7986 17.6300 32.9034 5.9513 2.0055 11.8398
# 2 17.6300 113.8004 44.4970 1.4791 5.7400 29.5988
# 3 32.9034 44.4970 241.6956 12.8130 -13.3722 19.7401
# 4 5.9513 1.4791 12.8130 61.7334 4.6536 5.4825
# 5 2.0055 5.7400 -13.3722 4.6536 31.9322 9.8332
# 6 11.8398 29.5988 19.7401 5.4825 9.8332 32.8849
#
#
#
# Elastic Compliance Matrix: (Units=1/GPa)
#
#
# Indices 1 2 3 4 5 6 
#
# 1 0.017768 -0.000892 -0.001879 -0.000903 -0.000310 -0.004223
# 2 -0.000892 0.011993 -0.001310 0.000931 0.000271 -0.009923
# 3 -0.001879 -0.001310 0.005019 -0.000895 0.003190 -0.001961
# 4 -0.000903 0.000931 -0.000895 0.016808 -0.002291 -0.002093
# 5 -0.000310 0.000271 0.003190 -0.002291 0.036864 -0.012688
# 6 -0.004223 -0.009923 -0.001961 -0.002093 -0.012688 0.046181
#
#
# Mechanical properties :
#
#
# Convention : Reuss Voigt Hill
#
# Bulk Modulus (GPa) = 37.57116 67.70615 52.63866
# Shear Modulus (GPa) = 32.96687 46.92770 39.94729
#
# Velocity S-wave (km/s) = 3.59598 4.29036 3.95842
# Velocity P-wave (km/s) = 5.65496 7.14844 6.44511
#
# Compressibility (1/GPa) = 0.02661616
#
# Stress axis : x y z
#
# Youngs Moduli (GPa) = 56.28230 83.38123 199.25955
#
# Poissons Ratio (x) = 0.07439 0.37440
# Poissons Ratio (y) = 0.05021 0.26111
# Poissons Ratio (z) = 0.10575 0.10926
#
# Static dielectric constant tensor:
#      x y z
#    x 2.301210 -0.380230 -0.320070 
#    y -0.380230 2.934640 0.966100 
#    z -0.320070 0.966100 2.865060 
# 
# From -- ./inp_files/501297.got.cif
#   From: 2010.05.17/outbox.cif.g08.bks.cpg/sg2_251_cif.got.tgz:501297.got - 2010.06.03 11:33:40.
