data_PCOD9058459
_publ_section_title
;
Structure prediction by ZEFSAII (Michael W. Deem and Ramdas Pophale) SiO2 
 PCOD9058459
Probable space group: P -1
;
_chemical_formula_sum "Si O2"
_cell_formula_units_Z 14
_cell_length_a 12.579527
_cell_length_b 8.896141
_cell_length_c 25.007140
_cell_angle_alpha 46.572089
_cell_angle_beta 16.683375
_cell_angle_gamma 54.723125
_cell_volume 537.662562
_symmetry_space_group_name_H-M "P -1"
_symmetry_group_IT_number 2
_symmetry_cell_setting 'triclinic'
loop_
_space_group_symop_operation_xyz
x,y,z
-x,-y,-z
loop_
_atom_site_type_symbol
_atom_site_label
_atom_site_fract_x
_atom_site_fract_y
_atom_site_fract_z
Si Si1 0.980627 0.558457 0.169029
Si Si2 0.200109 0.507302 0.959484
Si Si3 0.589908 0.964757 0.626699
Si Si4 0.280588 0.655349 0.460773
Si Si5 0.692774 0.942406 0.091192
Si Si6 0.866686 0.070862 0.348531
Si Si7 0.333355 0.774074 0.197460
O O1 0.544016 0.554127 0.394500
O O2 0.041967 0.337047 0.209914
O O3 0.974727 0.543901 0.110602
O O4 0.278057 0.802259 0.985232
O O5 0.278189 0.283356 0.988301
O O6 0.592531 0.740382 0.708010
O O7 0.000000 0.500000 0.000000
O O8 0.868684 0.196460 0.464140
O O9 0.680228 0.960552 0.522059
O O10 0.134487 0.953059 0.859138
O O11 0.997779 0.444338 0.615470
O O12 0.556944 0.836095 0.240401
O O13 0.377925 0.795883 0.234770
O O14 0.500000 0.000000 0.500000
O O15 0.210278 0.979016 0.190181
#
# Coordination Sequence:
#
# PCOD9058459 Si02
#       7
#     2   2   2   2   2   2   2
#     4  11  23  48  72  94 150 183 229 284 353 410
#     4  12  23  44  74 104 132 187 230 294 345 407
#     4  11  24  45  75 100 142 183 233 282 361 404
#     4  11  22  45  74 111 134 178 237 296 342 418
#     4  11  23  44  74 110 132 182 236 292 344 421
#     4  12  28  48  67 103 145 192 228 287 344 416
#     4  12  28  41  72 107 144 176 241 284 348 411
#
# _framework density 26.038634999999999
#
# number of rings (size 3 to 8) (size 9 to 14) (size 15 to 20)
#    0.000    0.571    5.714    2.143    4.000    5.143 
#    0.000    0.000    0.000    0.000    0.000    0.000 
#    0.000    0.000    0.000    0.000    0.000    0.000 
#
# Total GULP energy -78306.803130 kJ/mol
# GULP energy per Si atom -5593.343081 kJ/mol
# Density = 2.597937 g / cm^3
# Si number density = 26.038635 Si / 1000 Ang^3
#
#
#
# Elastic Constant Matrix: (Units=GPa)
#
#
# Indices 1 2 3 4 5 6 
#
# 1 100.9814 27.2217 10.2371 2.0417 -11.8045 11.8486
# 2 27.2217 201.2906 28.3901 -12.7114 -14.6035 -20.1142
# 3 10.2371 28.3901 44.4717 2.1205 -5.5706 1.7911
# 4 2.0417 -12.7114 2.1205 46.4308 6.2841 -3.9611
# 5 -11.8045 -14.6035 -5.5706 6.2841 33.6333 -12.4544
# 6 11.8486 -20.1142 1.7911 -3.9611 -12.4544 51.1329
#
#
#
# Elastic Compliance Matrix: (Units=1/GPa)
#
#
# Indices 1 2 3 4 5 6 
#
# 1 0.011035 -0.001524 -0.001106 -0.001391 0.002302 -0.002665
# 2 -0.001524 0.006382 -0.003634 0.001942 0.002676 0.003793
# 3 -0.001106 -0.003634 0.025514 -0.002543 0.002085 -0.001756
# 4 -0.001391 0.001942 -0.002543 0.022908 -0.003577 0.002079
# 5 0.002302 0.002676 0.002085 -0.003577 0.036028 0.008945
# 6 -0.002665 0.003793 -0.001756 0.002079 0.008945 0.024068
#
#
# Mechanical properties :
#
#
# Convention : Reuss Voigt Hill
#
# Bulk Modulus (GPa) = 32.88902 53.16018 43.02460
# Shear Modulus (GPa) = 33.64822 44.96570 39.30696
#
# Velocity S-wave (km/s) = 3.59868 4.16009 3.88952
# Velocity P-wave (km/s) = 5.47043 6.59813 6.06056
#
# Compressibility (1/GPa) = 0.03040528
#
# Stress axis : x y z
#
# Youngs Moduli (GPa) = 90.61692 156.68270 39.19474
#
# Poissons Ratio (x) = 0.23872 0.04334
# Poissons Ratio (y) = 0.13806 0.14242
# Poissons Ratio (z) = 0.10020 0.56935
#
# Static dielectric constant tensor:
#      x y z
#    x 2.015910 -0.020740 -0.062080 
#    y -0.020740 2.058010 0.010020 
#    z -0.062080 0.010020 2.139580 
# 
# From -- ./inp_files/609999.got.cif
#   From: 2010.05.17/outbox.cif.g08.bks.cpg/sg2_305_cif.got.tgz:609999.got - 2010.06.03 11:33:40.
