data_PCOD9058226
_publ_section_title
;
Structure prediction by ZEFSAII (Michael W. Deem and Ramdas Pophale) SiO2 
 PCOD9058226
Probable space group: P -1
;
_chemical_formula_sum "Si O2"
_cell_formula_units_Z 16
_cell_length_a 8.632964
_cell_length_b 26.693826
_cell_length_c 15.636739
_cell_angle_alpha 160.724359
_cell_angle_beta 46.306423
_cell_angle_gamma 140.234552
_cell_volume 750.495012
_symmetry_space_group_name_H-M "P -1"
_symmetry_group_IT_number 2
_symmetry_cell_setting 'triclinic'
loop_
_space_group_symop_operation_xyz
x,y,z
-x,-y,-z
loop_
_atom_site_type_symbol
_atom_site_label
_atom_site_fract_x
_atom_site_fract_y
_atom_site_fract_z
Si Si1 0.816844 0.719430 0.884468
Si Si2 0.037661 0.477929 0.851567
Si Si3 0.567096 0.841698 0.041935
Si Si4 0.262503 0.975751 0.003762
Si Si5 0.591611 0.666468 0.572001
Si Si6 0.252610 0.860026 0.318953
Si Si7 0.345235 0.852935 0.600372
Si Si8 0.927860 0.015009 0.648099
O O1 0.676027 0.510076 0.610832
O O2 0.046717 0.842436 0.933500
O O3 0.629314 0.765724 0.979666
O O4 0.914684 0.796098 0.064727
O O5 0.216249 0.401648 0.632039
O O6 0.774027 0.345375 0.699460
O O7 0.151754 0.671105 0.087980
O O8 0.000000 0.500000 0.000000
O O9 0.317383 0.839424 0.162462
O O10 0.718002 0.044312 0.283646
O O11 0.589532 0.743072 0.791127
O O12 0.224359 0.875032 0.767398
O O13 0.500000 0.000000 0.000000
O O14 0.330464 0.171432 0.262372
O O15 0.040469 0.911481 0.490486
O O16 0.500000 0.000000 0.500000
O O17 0.636757 0.939618 0.645311
O O18 0.000000 0.000000 0.500000
#
# Coordination Sequence:
#
# PCOD9058226 Si02
#       8
#     2   2   2   2   2   2   2   2
#     4  12  24  45  78 100 139 192 236 292 355 427
#     4  12  27  43  71 104 138 181 238 298 350 417
#     4  11  22  44  75 100 137 177 239 296 345 411
#     4  11  25  46  69 105 148 184 226 293 363 418
#     4  11  26  45  73 112 135 182 247 293 348 424
#     4  12  24  44  72 101 133 187 236 285 348 418
#     4  11  25  46  68 104 142 182 231 297 355 418
#     4  12  26  44  69 101 144 189 235 285 358 425
#
# _framework density 21.319262999999999
#
# number of rings (size 3 to 8) (size 9 to 14) (size 15 to 20)
#    0.000    0.500    5.000    2.625    5.250    3.000 
#    2.250    0.000    0.000    0.000    0.000    0.000 
#    0.000    0.000    0.000    0.000    0.000    0.000 
#
# Total GULP energy -89111.924392 kJ/mol
# GULP energy per Si atom -5569.495274 kJ/mol
# Density = 2.127074 g / cm^3
# Si number density = 21.319263 Si / 1000 Ang^3
#
#
#
# Elastic Constant Matrix: (Units=GPa)
#
#
# Indices 1 2 3 4 5 6 
#
# 1 63.3791 9.8958 41.3796 18.8580 4.5898 3.9650
# 2 9.8958 104.5712 52.7817 9.9030 8.6761 -9.3980
# 3 41.3796 52.7817 144.1836 19.2109 11.4782 5.7511
# 4 18.8580 9.9030 19.2109 39.8687 1.6082 3.5271
# 5 4.5898 8.6761 11.4782 1.6082 27.1631 -4.0854
# 6 3.9650 -9.3980 5.7511 3.5271 -4.0854 32.1126
#
#
#
# Elastic Compliance Matrix: (Units=1/GPa)
#
#
# Indices 1 2 3 4 5 6 
#
# 1 0.021668 0.001603 -0.005629 -0.007832 -0.001409 -0.000517
# 2 0.001603 0.012558 -0.004867 -0.001860 -0.001458 0.004368
# 3 -0.005629 -0.004867 0.010768 -0.000967 -0.002417 -0.002859
# 4 -0.007832 -0.001860 -0.000967 0.029945 0.000151 -0.002674
# 5 -0.001409 -0.001458 -0.002417 0.000151 0.039308 0.005164
# 6 -0.000517 0.004368 -0.002859 -0.002674 0.005164 0.033945
#
#
# Mechanical properties :
#
#
# Convention : Reuss Voigt Hill
#
# Bulk Modulus (GPa) = 36.75600 57.80537 47.28069
# Shear Modulus (GPa) = 28.56375 33.70065 31.13220
#
# Velocity S-wave (km/s) = 3.66431 3.98019 3.82551
# Velocity P-wave (km/s) = 5.93136 6.94950 6.46052
#
# Compressibility (1/GPa) = 0.02720644
#
# Stress axis : x y z
#
# Youngs Moduli (GPa) = 46.15183 79.63346 92.86663
#
# Poissons Ratio (x) = -0.12764 0.52273
# Poissons Ratio (y) = -0.07397 0.45201
# Poissons Ratio (z) = 0.25978 0.38760
#
# Static dielectric constant tensor:
#      x y z
#    x 1.894820 -0.011930 -0.003760 
#    y -0.011930 1.979970 -0.085050 
#    z -0.003760 -0.085050 1.778310 
# 
# From -- ./inp_files/509016.got.cif
#   From: 2010.05.17/outbox.cif.g08.bks.cpg/sg2_255_cif.got.tgz:509016.got - 2010.06.03 11:33:40.
