data_PCOD9058097
_publ_section_title
;
Structure prediction by ZEFSAII (Michael W. Deem and Ramdas Pophale) SiO2 
 PCOD9058097
Probable space group: P -1
;
_chemical_formula_sum "Si O2"
_cell_formula_units_Z 14
_cell_length_a 13.377051
_cell_length_b 12.644604
_cell_length_c 9.848537
_cell_angle_alpha 124.094499
_cell_angle_beta 35.494758
_cell_angle_gamma 136.167181
_cell_volume 668.386449
_symmetry_space_group_name_H-M "P -1"
_symmetry_group_IT_number 2
_symmetry_cell_setting 'triclinic'
loop_
_space_group_symop_operation_xyz
x,y,z
-x,-y,-z
loop_
_atom_site_type_symbol
_atom_site_label
_atom_site_fract_x
_atom_site_fract_y
_atom_site_fract_z
Si Si1 0.828133 0.871335 0.697912
Si Si2 0.963196 0.299013 0.025760
Si Si3 0.446479 0.839662 0.003103
Si Si4 0.465940 0.751245 0.621005
Si Si5 0.937945 0.954704 0.189809
Si Si6 0.962305 0.454985 0.666082
Si Si7 0.239361 0.431202 0.548952
O O1 0.633010 0.883805 0.928630
O O2 0.743843 0.708265 0.607570
O O3 0.000000 0.000000 0.500000
O O4 0.935688 0.902229 0.745633
O O5 0.722937 0.242823 0.229294
O O6 0.056059 0.424098 0.134392
O O7 0.005098 0.167207 0.915024
O O8 0.075272 0.376649 0.814623
O O9 0.448541 0.754663 0.804192
O O10 0.231196 0.719269 0.224742
O O11 0.500000 0.000000 0.000000
O O12 0.695881 0.884229 0.423534
O O13 0.434456 0.591899 0.495811
O O14 0.000000 0.000000 0.000000
O O15 0.000000 0.500000 0.500000
O O16 0.152541 0.462254 0.532571
#
# Coordination Sequence:
#
# PCOD9058097 Si02
#       7
#     2   2   2   2   2   2   2
#     4  12  24  41  68 104 133 177 238 286 330 422
#     4  11  22  45  72  98 135 182 237 275 338 428
#     4  12  23  40  73 101 135 184 235 279 347 415
#     4  11  23  43  73  98 131 189 231 278 345 413
#     4  12  29  45  66 104 145 179 225 296 354 397
#     4  11  25  41  68 105 137 176 225 297 350 395
#     4  11  22  44  71 100 134 176 241 276 334 429
#
# _framework density 20.945965000000001
#
# number of rings (size 3 to 8) (size 9 to 14) (size 15 to 20)
#    0.000    0.571    5.714    2.571    4.000    4.000 
#    0.000    1.429    0.000    0.000    0.000    0.000 
#    0.000    0.000    0.000    0.000    0.000    0.000 
#
# Total GULP energy -78262.329363 kJ/mol
# GULP energy per Si atom -5590.166383 kJ/mol
# Density = 2.089829 g / cm^3
# Si number density = 20.945965 Si / 1000 Ang^3
#
#
#
# Elastic Constant Matrix: (Units=GPa)
#
#
# Indices 1 2 3 4 5 6 
#
# 1 114.6327 36.5016 45.6656 -12.7129 26.0709 11.6126
# 2 36.5016 91.8601 22.9803 5.1009 6.5861 16.7922
# 3 45.6656 22.9803 63.4932 -9.1878 15.1426 6.1938
# 4 -12.7129 5.1009 -9.1878 36.7757 -1.3273 -3.6427
# 5 26.0709 6.5861 15.1426 -1.3273 42.9899 -5.9418
# 6 11.6126 16.7922 6.1938 -3.6427 -5.9418 36.4064
#
#
#
# Elastic Compliance Matrix: (Units=1/GPa)
#
#
# Indices 1 2 3 4 5 6 
#
# 1 0.014636 -0.003292 -0.007153 0.003250 -0.006112 -0.002605
# 2 -0.003292 0.014143 -0.002837 -0.004349 -0.000056 -0.005435
# 3 -0.007153 -0.002837 0.023305 0.003563 -0.003406 -0.000574
# 4 0.003250 -0.004349 0.003563 0.030081 -0.001192 0.003178
# 5 -0.006112 -0.000056 -0.003406 -0.001192 0.029133 0.007190
# 6 -0.002605 -0.005435 -0.000574 0.003178 0.007190 0.032395
#
#
# Mechanical properties :
#
#
# Convention : Reuss Voigt Hill
#
# Bulk Modulus (GPa) = 39.18463 53.36454 46.27459
# Shear Modulus (GPa) = 27.97031 34.22364 31.09697
#
# Velocity S-wave (km/s) = 3.65822 4.04654 3.85727
# Velocity P-wave (km/s) = 6.04909 6.88224 6.47907
#
# Compressibility (1/GPa) = 0.02552021
#
# Stress axis : x y z
#
# Youngs Moduli (GPa) = 68.32698 70.70614 42.91012
#
# Poissons Ratio (x) = 0.23279 0.30691
# Poissons Ratio (y) = 0.22496 0.12172
# Poissons Ratio (z) = 0.48871 0.20056
#
# Static dielectric constant tensor:
#      x y z
#    x 1.732240 0.009640 -0.037130 
#    y 0.009640 1.867190 0.055940 
#    z -0.037130 0.055940 1.759600 
# 
# From -- ./inp_files/160181.got.cif
#   From: 2010.05.17/outbox.cif.g08.bks.cpg/sg2_81_cif.got.tgz:160181.got - 2010.06.03 11:33:40.
