data_PCOD9058325
_publ_section_title
;
Structure prediction by ZEFSAII (Michael W. Deem and Ramdas Pophale) SiO2 
 PCOD9058325
Probable space group: P -1
;
_chemical_formula_sum "Si O2"
_cell_formula_units_Z 15
_cell_length_a 15.694950
_cell_length_b 7.312502
_cell_length_c 16.287501
_cell_angle_alpha 99.879048
_cell_angle_beta 25.522535
_cell_angle_gamma 86.563883
_cell_volume 684.426854
_symmetry_space_group_name_H-M "P -1"
_symmetry_group_IT_number 2
_symmetry_cell_setting 'triclinic'
loop_
_space_group_symop_operation_xyz
x,y,z
-x,-y,-z
loop_
_atom_site_type_symbol
_atom_site_label
_atom_site_fract_x
_atom_site_fract_y
_atom_site_fract_z
Si Si1 0.480740 0.359880 0.776037
Si Si2 0.589022 0.734385 0.744011
Si Si3 0.198768 0.899451 0.885293
Si Si4 0.000000 0.500000 0.500000
Si Si5 0.905820 0.248577 0.297864
Si Si6 0.289757 0.221279 0.076094
Si Si7 0.105322 0.555775 0.990991
Si Si8 0.688556 0.720620 0.468288
O O1 0.474633 0.585790 0.816058
O O2 0.719980 0.221733 0.509447
O O3 0.448462 0.275583 0.884655
O O4 0.280685 0.383041 0.890423
O O5 0.813059 0.606421 0.594944
O O6 0.652846 0.778218 0.600206
O O7 0.418683 0.962896 0.951207
O O8 0.444423 0.868052 0.649149
O O9 0.244751 0.663212 0.844542
O O10 0.000000 0.000000 0.000000
O O11 0.084360 0.046926 0.074885
O O12 0.791927 0.649770 0.758756
O O13 0.771997 0.464252 0.375474
O O14 0.060562 0.289281 0.229210
O O15 0.890433 0.725630 0.245314
O O16 0.000000 0.500000 0.000000
#
# Coordination Sequence:
#
# PCOD9058325 Si02
#       8
#     2   2   2   1   2   2   2   2
#     4  11  24  47  73 100 142 193 229 290 362 418
#     4  11  24  48  71 104 141 183 235 288 354 425
#     4  12  27  41  68 101 134 189 242 286 345 421
#     4  12  24  48  74 108 144 178 232 304 344 426
#     4  11  22  45  69  96 138 182 233 287 351 417
#     4  12  24  46  74 104 140 184 235 290 357 422
#     4  12  25  41  67 100 139 184 236 291 349 409
#     4  11  23  46  67  91 141 182 226 296 345 404
#
# _framework density 21.916148
#
# number of rings (size 3 to 8) (size 9 to 14) (size 15 to 20)
#    0.000    0.533    8.000    1.200    3.733    2.133 
#    2.400    1.333    0.000    0.000    0.000    0.000 
#    0.000    0.000    0.000    0.000    0.000    0.000 
#
# Total GULP energy -83532.909498 kJ/mol
# GULP energy per Si atom -5568.860633 kJ/mol
# Density = 2.186627 g / cm^3
# Si number density = 21.916148 Si / 1000 Ang^3
#
#
#
# Elastic Constant Matrix: (Units=GPa)
#
#
# Indices 1 2 3 4 5 6 
#
# 1 62.2073 8.8917 -1.9821 -6.4227 -5.6528 -25.2858
# 2 8.8917 47.6100 10.6489 7.1715 2.6007 4.7163
# 3 -1.9821 10.6489 103.2351 -6.0065 -12.9122 4.9171
# 4 -6.4227 7.1715 -6.0065 31.5317 -1.2551 -3.3449
# 5 -5.6528 2.6007 -12.9122 -1.2551 46.7851 10.3231
# 6 -25.2858 4.7163 4.9171 -3.3449 10.3231 6.8177
#
#
#
# Elastic Compliance Matrix: (Units=1/GPa)
#
#
# Indices 1 2 3 4 5 6 
#
# 1 -0.007508 0.006933 0.002819 -0.008083 0.011706 -0.056366
# 2 0.006933 0.018592 -0.003952 -0.001116 -0.006999 0.025753
# 3 0.002819 -0.003952 0.010596 0.003933 0.002914 0.003065
# 4 -0.008083 -0.001116 0.003933 0.028245 0.007420 -0.029418
# 5 0.011706 -0.006999 0.002914 0.007420 0.019813 0.019795
# 6 -0.056366 0.025753 0.003065 -0.029418 0.019795 -0.126807
#
#
# Mechanical properties :
#
#
# Convention : Reuss Voigt Hill
#
# Bulk Modulus (GPa) = 30.04663 27.57438 28.81050
# Shear Modulus (GPa) = -86.84072 30.05983 -28.39044
#
# Velocity S-wave (km/s) = -6.30160 3.70751 -3.60309
# Velocity P-wave (km/s) = 6.26157 5.56206 2.03355
#
# Compressibility (1/GPa) = 0.03328160
#
# Stress axis : x y z
#
# Youngs Moduli (GPa) = -133.18777 53.78580 94.37873
#
# Poissons Ratio (x) = -0.37291 -0.26608
# Poissons Ratio (y) = 0.92344 0.37295
# Poissons Ratio (z) = 0.37549 0.21254
#
# Static dielectric constant tensor:
#      x y z
#    x 1.814010 -0.024490 -0.017670 
#    y -0.024490 1.892400 0.042940 
#    z -0.017670 0.042940 1.794820 
# 
# From -- ./inp_files/337610.got.cif
#   From: 2010.05.17/outbox.cif.g08.bks.cpg/sg2_169_cif.got.tgz:337610.got - 2010.06.03 11:33:40.
