data_PCOD9058856
_publ_section_title
;
Structure prediction by ZEFSAII (Michael W. Deem and Ramdas Pophale) SiO2 
 PCOD9058856
Probable space group: P -1
;
_chemical_formula_sum "Si O2"
_cell_formula_units_Z 16
_cell_length_a 13.264040
_cell_length_b 12.681878
_cell_length_c 15.272892
_cell_angle_alpha 104.722476
_cell_angle_beta 19.045564
_cell_angle_gamma 102.955578
_cell_volume 809.776899
_symmetry_space_group_name_H-M "P -1"
_symmetry_group_IT_number 2
_symmetry_cell_setting 'triclinic'
loop_
_space_group_symop_operation_xyz
x,y,z
-x,-y,-z
loop_
_atom_site_type_symbol
_atom_site_label
_atom_site_fract_x
_atom_site_fract_y
_atom_site_fract_z
Si Si1 0.752725 0.104012 0.621352
Si Si2 0.878098 0.432416 0.507059
Si Si3 0.796422 0.325142 0.301256
Si Si4 0.857781 0.849265 0.518292
Si Si5 0.936184 0.632420 0.086919
Si Si6 0.935069 0.794101 0.772374
Si Si7 0.248133 0.723938 0.023716
Si Si8 0.196136 0.494038 0.090815
O O1 0.960892 0.154481 0.538321
O O2 0.883772 0.124230 0.420813
O O3 0.756797 0.975491 0.611021
O O4 0.409869 0.158246 0.920693
O O5 0.000000 0.500000 0.500000
O O6 0.046021 0.315846 0.325026
O O7 0.980270 0.500429 0.353784
O O8 0.513385 0.419135 0.816496
O O9 0.431674 0.345880 0.614539
O O10 0.916322 0.243536 0.263649
O O11 0.971897 0.436951 0.196232
O O12 0.894519 0.303110 0.116277
O O13 0.068493 0.805191 0.255654
O O14 0.561044 0.777218 0.750494
O O15 0.053718 0.684093 0.091655
O O16 0.000000 0.500000 0.000000
O O17 0.312197 0.611095 0.998543
#
# Coordination Sequence:
#
# PCOD9058856 Si02
#       8
#     2   2   2   2   2   2   2   2
#     4  11  24  46  69  93 124 173 215 269 328 369
#     4  11  24  37  55  92 133 171 205 253 301 398
#     4  11  23  42  61  95 131 166 220 249 303 398
#     4  11  26  44  67  97 127 161 227 271 312 387
#     4  12  24  40  67  92 133 176 208 258 321 375
#     4  11  23  40  69  91 125 173 214 257 321 382
#     4  12  25  40  67  95 129 172 205 276 320 367
#     4  11  23  38  58  89 135 169 209 249 309 378
#
# _framework density 19.758527000000001
#
# number of rings (size 3 to 8) (size 9 to 14) (size 15 to 20)
#    0.000    0.750    1.250    7.500    7.000    2.000 
#    0.000    0.000    0.000   15.000    0.000    0.000 
#    0.000    0.000    0.000    0.000    0.000    0.000 
#
# Total GULP energy -89365.060123 kJ/mol
# GULP energy per Si atom -5585.316258 kJ/mol
# Density = 1.971356 g / cm^3
# Si number density = 19.758527 Si / 1000 Ang^3
#
#
#
# Elastic Constant Matrix: (Units=GPa)
#
#
# Indices 1 2 3 4 5 6 
#
# 1 94.8182 28.4208 37.6298 4.4342 21.0097 -21.2568
# 2 28.4208 70.2787 34.7493 2.8628 0.4660 -21.8731
# 3 37.6298 34.7493 157.0708 6.8666 0.3073 -26.8218
# 4 4.4342 2.8628 6.8666 33.2838 -6.0146 6.6135
# 5 21.0097 0.4660 0.3073 -6.0146 27.1965 -8.4940
# 6 -21.2568 -21.8731 -26.8218 6.6135 -8.4940 36.5158
#
#
#
# Elastic Compliance Matrix: (Units=1/GPa)
#
#
# Indices 1 2 3 4 5 6 
#
# 1 0.016403 -0.004277 -0.002224 -0.004258 -0.012511 0.003214
# 2 -0.004277 0.019859 -0.001622 -0.001735 0.005674 0.009848
# 3 -0.002224 -0.001622 0.008117 -0.001665 0.002733 0.004633
# 4 -0.004258 -0.001735 -0.001665 0.034374 0.008103 -0.009082
# 5 -0.012511 0.005674 0.002733 0.008103 0.050740 0.008458
# 6 0.003214 0.009848 0.004633 -0.009082 0.008458 0.042171
#
#
# Mechanical properties :
#
#
# Convention : Reuss Voigt Hill
#
# Bulk Modulus (GPa) = 35.54651 58.19640 46.87145
# Shear Modulus (GPa) = 25.34370 34.15708 29.75039
#
# Velocity S-wave (km/s) = 3.58533 4.16231 3.88454
# Velocity P-wave (km/s) = 5.93034 7.25379 6.62519
#
# Compressibility (1/GPa) = 0.02813216
#
# Stress axis : x y z
#
# Youngs Moduli (GPa) = 60.96465 50.35486 123.20019
#
# Poissons Ratio (x) = 0.21537 0.27400
# Poissons Ratio (y) = 0.26074 0.19987
# Poissons Ratio (z) = 0.13559 0.08169
#
# Static dielectric constant tensor:
#      x y z
#    x 1.748200 -0.017330 0.021310 
#    y -0.017330 1.708750 0.011740 
#    z 0.021310 0.011740 1.684090 
# 
# From -- ./inp_files/519744.got.cif
#   From: 2010.05.17/outbox.cif.g08.bks.cpg/sg2_260_cif.got.tgz:519744.got - 2010.06.03 11:33:40.
