data_PCOD9058328
_publ_section_title
;
Structure prediction by ZEFSAII (Michael W. Deem and Ramdas Pophale) SiO2 
 PCOD9058328
Probable space group: P -1
;
_chemical_formula_sum "Si O2"
_cell_formula_units_Z 16
_cell_length_a 9.624011
_cell_length_b 18.970535
_cell_length_c 5.527205
_cell_angle_alpha 127.008775
_cell_angle_beta 123.029372
_cell_angle_gamma 62.867663
_cell_volume 663.142288
_symmetry_space_group_name_H-M "P -1"
_symmetry_group_IT_number 2
_symmetry_cell_setting 'triclinic'
loop_
_space_group_symop_operation_xyz
x,y,z
-x,-y,-z
loop_
_atom_site_type_symbol
_atom_site_label
_atom_site_fract_x
_atom_site_fract_y
_atom_site_fract_z
Si Si1 0.568199 0.608074 0.205271
Si Si2 0.633586 0.781056 0.775461
Si Si3 0.952666 0.664069 0.087652
Si Si4 0.928094 0.193249 0.198368
Si Si5 0.300731 0.081169 0.237627
Si Si6 0.732660 0.533846 0.725405
Si Si7 0.179965 0.635493 0.832594
Si Si8 0.619122 0.116880 0.931078
O O1 0.617504 0.705541 0.406058
O O2 0.650662 0.570201 0.460802
O O3 0.619384 0.549748 0.891805
O O4 0.368941 0.623738 0.082155
O O5 0.669190 0.874014 0.896544
O O6 0.459914 0.802483 0.800591
O O7 0.787857 0.733989 0.985722
O O8 0.065992 0.731392 0.437181
O O9 0.052320 0.607969 0.847747
O O10 0.873804 0.594203 0.028057
O O11 0.893804 0.259946 0.075178
O O12 0.111745 0.129214 0.233000
O O13 0.774927 0.141460 0.982771
O O14 0.456391 0.102797 0.590875
O O15 0.316738 0.974598 0.048358
O O16 0.800772 0.429787 0.516763
#
# Coordination Sequence:
#
# PCOD9058328 Si02
#       8
#     2   2   2   2   2   2   2   2
#     4  11  26  45  74 104 146 187 246 297 356 434
#     4  11  22  45  69  97 140 188 235 289 372 420
#     4  11  25  42  68  99 142 190 235 301 352 435
#     4  12  25  43  71 101 144 181 246 288 366 427
#     4  11  23  46  68 103 140 178 241 296 364 429
#     4  11  27  47  71 105 143 194 242 299 358 423
#     4  12  26  43  69 103 141 191 238 299 359 424
#     4  11  25  43  73 100 136 189 230 304 361 436
#
# _framework density 24.127549999999999
#
# number of rings (size 3 to 8) (size 9 to 14) (size 15 to 20)
#    0.000    0.750    2.500    4.125   10.500    0.500 
#    0.000    0.625    0.000    0.000    0.000    0.000 
#    0.000    0.000    0.000    0.000    0.000    0.000 
#
# Total GULP energy -89490.856031 kJ/mol
# GULP energy per Si atom -5593.178502 kJ/mol
# Density = 2.407263 g / cm^3
# Si number density = 24.127550 Si / 1000 Ang^3
#
#
#
# Elastic Constant Matrix: (Units=GPa)
#
#
# Indices 1 2 3 4 5 6 
#
# 1 142.5134 41.8279 20.3739 -0.2654 8.6583 -19.3716
# 2 41.8279 119.4630 19.4812 -8.5805 13.1286 -15.0521
# 3 20.3739 19.4812 66.2385 -3.2878 3.3704 -16.0527
# 4 -0.2654 -8.5805 -3.2878 25.3806 0.2550 3.0349
# 5 8.6583 13.1286 3.3704 0.2550 37.5489 4.1793
# 6 -19.3716 -15.0521 -16.0527 3.0349 4.1793 42.9061
#
#
#
# Elastic Compliance Matrix: (Units=1/GPa)
#
#
# Indices 1 2 3 4 5 6 
#
# 1 0.008312 -0.002314 -0.001215 -0.001162 -0.001290 0.002694
# 2 -0.002314 0.010253 -0.001485 0.003032 -0.003171 0.002091
# 3 -0.001215 -0.001485 0.017360 0.001092 -0.001376 0.005482
# 4 -0.001162 0.003032 0.001092 0.040785 -0.000962 -0.001844
# 5 -0.001290 -0.003171 -0.001376 -0.000962 0.028718 -0.004939
# 6 0.002694 0.002091 0.005482 -0.001844 -0.004939 0.027919
#
#
# Mechanical properties :
#
#
# Convention : Reuss Voigt Hill
#
# Bulk Modulus (GPa) = 38.61535 54.62012 46.61773
# Shear Modulus (GPa) = 32.89275 37.60257 35.24766
#
# Velocity S-wave (km/s) = 3.69628 3.95206 3.82630
# Velocity P-wave (km/s) = 5.85286 6.59638 6.23571
#
# Compressibility (1/GPa) = 0.02589644
#
# Stress axis : x y z
#
# Youngs Moduli (GPa) = 120.30282 97.53221 57.60248
#
# Poissons Ratio (x) = 0.22573 0.06999
# Poissons Ratio (y) = 0.27844 0.08554
# Poissons Ratio (z) = 0.14618 0.14484
#
# Static dielectric constant tensor:
#      x y z
#    x 1.891980 0.008740 -0.031810 
#    y 0.008740 1.950070 -0.056190 
#    z -0.031810 -0.056190 2.003140 
# 
# From -- ./inp_files/53996.got.cif
#   From: 2010.05.17/outbox.cif.g08.bks.cpg/sg2_27_cif.got.tgz:53996.got - 2010.06.03 11:33:40.
