data_PCOD9058633
_publ_section_title
;
Structure prediction by ZEFSAII (Michael W. Deem and Ramdas Pophale) SiO2 
 PCOD9058633
Probable space group: P -1
;
_chemical_formula_sum "Si O2"
_cell_formula_units_Z 16
_cell_length_a 10.407161
_cell_length_b 16.146627
_cell_length_c 18.583146
_cell_angle_alpha 24.036499
_cell_angle_beta 33.238708
_cell_angle_gamma 34.184233
_cell_volume 668.516361
_symmetry_space_group_name_H-M "P -1"
_symmetry_group_IT_number 2
_symmetry_cell_setting 'triclinic'
loop_
_space_group_symop_operation_xyz
x,y,z
-x,-y,-z
loop_
_atom_site_type_symbol
_atom_site_label
_atom_site_fract_x
_atom_site_fract_y
_atom_site_fract_z
Si Si1 0.390053 0.779270 0.151443
Si Si2 0.905407 0.385282 0.467369
Si Si3 0.421990 0.400678 0.044464
Si Si4 0.276916 0.492635 0.310511
Si Si5 0.039593 0.399559 0.980679
Si Si6 0.541942 0.813632 0.275814
Si Si7 0.030794 0.035106 0.591762
Si Si8 0.501401 0.075455 0.626874
O O1 0.245698 0.751249 0.311848
O O2 0.271671 0.677466 0.223002
O O3 0.673273 0.645034 0.133389
O O4 0.391932 0.014461 0.942977
O O5 0.715884 0.581909 0.361552
O O6 0.103804 0.213511 0.463732
O O7 0.036448 0.493846 0.378715
O O8 0.540730 0.149203 0.192276
O O9 0.500000 0.500000 0.000000
O O10 0.530752 0.488301 0.854817
O O11 0.135515 0.459989 0.109052
O O12 0.362089 0.270374 0.488326
O O13 0.975754 0.176052 0.194873
O O14 0.000000 0.500000 0.000000
O O15 0.251687 0.846395 0.385342
O O16 0.572212 0.872001 0.298349
O O17 0.211741 0.963033 0.497171
#
# Coordination Sequence:
#
# PCOD9058633 Si02
#       8
#     2   2   2   2   2   2   2   2
#     4  11  24  47  74 101 141 193 249 285 358 433
#     4  12  28  45  70 103 153 192 227 305 366 430
#     4  12  26  43  71 114 145 184 239 309 366 414
#     4  12  25  48  69 107 146 189 245 290 362 435
#     4  11  22  46  76 103 143 188 242 301 349 432
#     4  11  25  45  74 106 136 193 246 294 352 441
#     4  11  25  46  71 108 147 180 243 303 368 418
#     4  12  24  44  77 101 140 191 242 298 353 430
#
# _framework density 23.933596000000001
#
# number of rings (size 3 to 8) (size 9 to 14) (size 15 to 20)
#    0.000    0.500    5.000    2.625    3.500    4.500 
#    4.500    0.000    0.000    0.000    0.000    0.000 
#    0.000    0.000    0.000    0.000    0.000    0.000 
#
# Total GULP energy -89628.948997 kJ/mol
# GULP energy per Si atom -5601.809312 kJ/mol
# Density = 2.387912 g / cm^3
# Si number density = 23.933596 Si / 1000 Ang^3
#
#
#
# Elastic Constant Matrix: (Units=GPa)
#
#
# Indices 1 2 3 4 5 6 
#
# 1 78.5807 10.0759 16.0610 -16.7283 -7.0702 4.3883
# 2 10.0759 82.4834 19.1373 -8.8571 0.8607 5.2922
# 3 16.0610 19.1373 87.2374 -13.3479 3.7711 -7.4900
# 4 -16.7283 -8.8571 -13.3479 45.0241 5.0160 -4.7394
# 5 -7.0702 0.8607 3.7711 5.0160 35.5860 0.4257
# 6 4.3883 5.2922 -7.4900 -4.7394 0.4257 37.4052
#
#
#
# Elastic Compliance Matrix: (Units=1/GPa)
#
#
# Indices 1 2 3 4 5 6 
#
# 1 0.014450 -0.000762 -0.002097 0.004155 0.002544 -0.001510
# 2 -0.000762 0.013126 -0.002708 0.001309 -0.000341 -0.002140
# 3 -0.002097 -0.002708 0.013368 0.003300 -0.002278 0.003750
# 4 0.004155 0.001309 0.003300 0.025693 -0.003217 0.003280
# 5 0.002544 -0.000341 -0.002278 -0.003217 0.029327 -0.001448
# 6 -0.001510 -0.002140 0.003750 0.003280 -0.001448 0.028397
#
#
# Mechanical properties :
#
#
# Convention : Reuss Voigt Hill
#
# Bulk Modulus (GPa) = 33.54533 37.64998 35.59766
# Shear Modulus (GPa) = 34.38006 37.13821 35.75914
#
# Velocity S-wave (km/s) = 3.79420 3.94346 3.86955
# Velocity P-wave (km/s) = 5.76550 6.04150 5.90511
#
# Compressibility (1/GPa) = 0.02981041
#
# Stress axis : x y z
#
# Youngs Moduli (GPa) = 69.20522 76.18188 74.80298
#
# Poissons Ratio (x) = 0.05806 0.15686
# Poissons Ratio (y) = 0.05274 0.20257
# Poissons Ratio (z) = 0.14512 0.20630
#
# Static dielectric constant tensor:
#      x y z
#    x 1.968670 -0.006890 -0.045650 
#    y -0.006890 1.903280 0.034070 
#    z -0.045650 0.034070 1.901550 
# 
# From -- ./inp_files/595907.got.cif
#   From: 2010.05.17/outbox.cif.g08.bks.cpg/sg2_298_cif.got.tgz:595907.got - 2010.06.03 11:33:40.
