data_PCOD9058677
_publ_section_title
;
Structure prediction by ZEFSAII (Michael W. Deem and Ramdas Pophale) SiO2 
 PCOD9058677
Probable space group: P -1
;
_chemical_formula_sum "Si O2"
_cell_formula_units_Z 14
_cell_length_a 12.844494
_cell_length_b 15.642442
_cell_length_c 9.531192
_cell_angle_alpha 124.972278
_cell_angle_beta 29.527434
_cell_angle_gamma 135.863850
_cell_volume 649.840447
_symmetry_space_group_name_H-M "P -1"
_symmetry_group_IT_number 2
_symmetry_cell_setting 'triclinic'
loop_
_space_group_symop_operation_xyz
x,y,z
-x,-y,-z
loop_
_atom_site_type_symbol
_atom_site_label
_atom_site_fract_x
_atom_site_fract_y
_atom_site_fract_z
Si Si1 0.611483 0.921699 0.449140
Si Si2 0.855134 0.669068 0.509802
Si Si3 0.915571 0.244780 0.138701
Si Si4 0.898581 0.805463 0.865274
Si Si5 0.795552 0.428305 0.294457
Si Si6 0.329858 0.275039 0.486320
Si Si7 0.567917 0.136504 0.078507
O O1 0.353876 0.880227 0.634201
O O2 0.499205 0.868882 0.684731
O O3 0.719901 0.846942 0.178120
O O4 0.835121 0.063223 0.340848
O O5 0.814944 0.733899 0.749510
O O6 0.804025 0.534911 0.477399
O O7 0.683743 0.651413 0.560060
O O8 0.146065 0.762282 0.205532
O O9 0.870598 0.347833 0.224078
O O10 0.065409 0.275274 0.136905
O O11 0.067838 0.216922 0.820681
O O12 0.541177 0.354702 0.430685
O O13 0.000000 0.500000 0.000000
O O14 0.388706 0.176962 0.261102
O O15 0.500000 0.000000 0.000000
#
# Coordination Sequence:
#
# PCOD9058677 Si02
#       7
#     2   2   2   2   2   2   2
#     4  11  22  47  68  98 141 184 227 270 346 411
#     4  12  26  43  70 107 136 172 237 284 331 402
#     4  12  23  44  72  96 136 188 225 271 343 410
#     4  11  26  44  68 101 141 184 220 281 348 400
#     4  12  23  43  73 101 132 180 235 282 335 400
#     4  12  23  44  73  96 137 180 225 282 345 397
#     4  12  23  44  70 106 134 172 233 283 327 412
#
# _framework density 21.543751
#
# number of rings (size 3 to 8) (size 9 to 14) (size 15 to 20)
#    0.000    0.286    8.571    0.857    0.000    2.286 
#    5.143    2.857    0.000    0.000    0.000    0.000 
#    0.000    0.000    0.000    0.000    0.000    0.000 
#
# Total GULP energy -78163.182509 kJ/mol
# GULP energy per Si atom -5583.084465 kJ/mol
# Density = 2.149472 g / cm^3
# Si number density = 21.543751 Si / 1000 Ang^3
#
#
#
# Elastic Constant Matrix: (Units=GPa)
#
#
# Indices 1 2 3 4 5 6 
#
# 1 81.9745 26.3095 31.4152 4.7774 5.0747 0.2231
# 2 26.3095 129.5228 43.7227 25.0333 -6.8522 4.5294
# 3 31.4152 43.7227 87.6284 8.5295 -1.8635 9.7304
# 4 4.7774 25.0333 8.5295 31.7395 4.3353 4.0308
# 5 5.0747 -6.8522 -1.8635 4.3353 37.9015 4.1959
# 6 0.2231 4.5294 9.7304 4.0308 4.1959 29.9247
#
#
#
# Elastic Compliance Matrix: (Units=1/GPa)
#
#
# Indices 1 2 3 4 5 6 
#
# 1 0.014705 -0.001702 -0.004757 0.000534 -0.002795 0.002015
# 2 -0.001702 0.011125 -0.004152 -0.007840 0.002895 0.000329
# 3 -0.004757 -0.004152 0.015708 0.000201 0.001148 -0.004632
# 4 0.000534 -0.007840 0.000201 0.038734 -0.005542 -0.003323
# 5 -0.002795 0.002895 0.001148 -0.005542 0.028418 -0.004029
# 6 0.002015 0.000329 -0.004632 -0.003323 -0.004029 0.035871
#
#
# Mechanical properties :
#
#
# Convention : Reuss Voigt Hill
#
# Bulk Modulus (GPa) = 49.22785 55.78006 52.50396
# Shear Modulus (GPa) = 28.97577 33.09169 31.03373
#
# Velocity S-wave (km/s) = 3.67137 3.92346 3.79951
# Velocity P-wave (km/s) = 6.39310 6.81707 6.60849
#
# Compressibility (1/GPa) = 0.02031370
#
# Stress axis : x y z
#
# Youngs Moduli (GPa) = 68.00428 89.88734 63.65994
#
# Poissons Ratio (x) = 0.15303 0.30286
# Poissons Ratio (y) = 0.11577 0.26434
# Poissons Ratio (z) = 0.32353 0.37325
#
# Static dielectric constant tensor:
#      x y z
#    x 1.865680 -0.034300 -0.036200 
#    y -0.034300 1.840380 -0.006960 
#    z -0.036200 -0.006960 1.800800 
# 
# From -- ./inp_files/273968.got.cif
#   From: 2010.05.17/outbox.cif.g08.bks.cpg/sg2_137_cif.got.tgz:273968.got - 2010.06.03 11:33:40.
