data_PCOD9058965
_publ_section_title
;
Structure prediction by ZEFSAII (Michael W. Deem and Ramdas Pophale) SiO2 
 PCOD9058965
Probable space group: P -1
;
_chemical_formula_sum "Si O2"
_cell_formula_units_Z 14
_cell_length_a 9.048834
_cell_length_b 15.980733
_cell_length_c 12.023822
_cell_angle_alpha 132.478177
_cell_angle_beta 120.367416
_cell_angle_gamma 30.946281
_cell_volume 646.891492
_symmetry_space_group_name_H-M "P -1"
_symmetry_group_IT_number 2
_symmetry_cell_setting 'triclinic'
loop_
_space_group_symop_operation_xyz
x,y,z
-x,-y,-z
loop_
_atom_site_type_symbol
_atom_site_label
_atom_site_fract_x
_atom_site_fract_y
_atom_site_fract_z
Si Si1 0.093761 0.921146 0.621894
Si Si2 0.961054 0.253147 0.815776
Si Si3 0.688914 0.792919 0.927315
Si Si4 0.148520 0.308517 0.344217
Si Si5 0.552291 0.505497 0.300675
Si Si6 0.625675 0.994960 0.433777
Si Si7 0.258478 0.836968 0.864459
O O1 0.359711 0.704810 0.472299
O O2 0.125928 0.903904 0.750608
O O3 0.082907 0.059683 0.709187
O O4 0.793132 0.019652 0.559259
O O5 0.620241 0.421455 0.814013
O O6 0.118450 0.207470 0.719374
O O7 0.049579 0.293276 0.980202
O O8 0.755556 0.705801 0.755101
O O9 0.491682 0.813449 0.940198
O O10 0.500000 0.000000 0.000000
O O11 0.380091 0.145250 0.379523
O O12 0.000000 0.500000 0.500000
O O13 0.888100 0.358302 0.278698
O O14 0.571612 0.372889 0.246110
O O15 0.500000 0.000000 0.500000
O O16 0.000000 0.000000 0.000000
#
# Coordination Sequence:
#
# PCOD9058965 Si02
#       7
#     2   2   2   2   2   2   2
#     4  11  23  46  72  96 139 184 229 284 340 411
#     4  11  24  46  71 101 138 184 230 283 346 407
#     4  12  24  45  73  95 140 185 230 280 346 419
#     4  12  24  44  70 103 132 182 234 274 336 414
#     4  11  25  44  69 105 138 175 237 283 344 407
#     4  11  23  39  67 100 134 176 224 283 335 399
#     4  12  26  44  69 101 142 182 224 289 353 405
#
# _framework density 21.641959
#
# number of rings (size 3 to 8) (size 9 to 14) (size 15 to 20)
#    0.000    0.571    2.857    6.429    2.000    4.571 
#    2.571    0.000    0.000    0.000    0.000    0.000 
#    0.000    0.000    0.000    0.000    0.000    0.000 
#
# Total GULP energy -78178.861922 kJ/mol
# GULP energy per Si atom -5584.204423 kJ/mol
# Density = 2.159270 g / cm^3
# Si number density = 21.641959 Si / 1000 Ang^3
#
#
#
# Elastic Constant Matrix: (Units=GPa)
#
#
# Indices 1 2 3 4 5 6 
#
# 1 118.8939 46.5297 23.9418 -5.0577 5.8089 -4.1232
# 2 46.5297 127.3469 27.1329 -35.7811 6.2806 -18.0170
# 3 23.9418 27.1329 79.9046 -24.4119 -9.0733 -3.5275
# 4 -5.0577 -35.7811 -24.4119 44.1560 -1.7267 8.5098
# 5 5.8089 6.2806 -9.0733 -1.7267 35.5140 -7.0242
# 6 -4.1232 -18.0170 -3.5275 8.5098 -7.0242 37.0278
#
#
#
# Elastic Compliance Matrix: (Units=1/GPa)
#
#
# Indices 1 2 3 4 5 6 
#
# 1 0.010666 -0.004334 -0.003227 -0.004021 -0.002138 -0.000710
# 2 -0.004334 0.012458 -0.000122 0.008849 -0.000412 0.003456
# 3 -0.003227 -0.000122 0.016902 0.009061 0.005332 0.000120
# 4 -0.004021 0.008849 0.009061 0.035014 0.002548 -0.002842
# 5 -0.002138 -0.000412 0.005332 0.002548 0.031133 0.005390
# 6 -0.000710 0.003456 0.000120 -0.002842 0.005390 0.030296
#
#
# Mechanical properties :
#
#
# Convention : Reuss Voigt Hill
#
# Bulk Modulus (GPa) = 40.55298 57.92823 49.24060
# Shear Modulus (GPa) = 31.23924 38.57562 34.90743
#
# Velocity S-wave (km/s) = 3.80341 4.22648 4.02051
# Velocity P-wave (km/s) = 6.16982 7.11634 6.65992
#
# Compressibility (1/GPa) = 0.02465910
#
# Stress axis : x y z
#
# Youngs Moduli (GPa) = 93.75848 80.27086 59.16344
#
# Poissons Ratio (x) = 0.34793 0.19090
# Poissons Ratio (y) = 0.40639 0.00723
# Poissons Ratio (z) = 0.30253 0.00982
#
# Static dielectric constant tensor:
#      x y z
#    x 1.809140 0.022690 -0.012780 
#    y 0.022690 1.777290 0.032970 
#    z -0.012780 0.032970 1.746270 
# 
# From -- ./inp_files/184543.got.cif
#   From: 2010.05.17/outbox.cif.g08.bks.cpg/sg2_93_cif.got.tgz:184543.got - 2010.06.03 11:33:40.
