data_PCOD9058765
_publ_section_title
;
Structure prediction by ZEFSAII (Michael W. Deem and Ramdas Pophale) SiO2 
 PCOD9058765
Probable space group: P -1
;
_chemical_formula_sum "Si O2"
_cell_formula_units_Z 13
_cell_length_a 16.542033
_cell_length_b 12.358367
_cell_length_c 9.563196
_cell_angle_alpha 142.513589
_cell_angle_beta 134.984858
_cell_angle_gamma 25.931179
_cell_volume 520.115097
_symmetry_space_group_name_H-M "P -1"
_symmetry_group_IT_number 2
_symmetry_cell_setting 'triclinic'
loop_
_space_group_symop_operation_xyz
x,y,z
-x,-y,-z
loop_
_atom_site_type_symbol
_atom_site_label
_atom_site_fract_x
_atom_site_fract_y
_atom_site_fract_z
Si Si1 0.953842 0.403243 0.950295
Si Si2 0.000000 0.000000 0.500000
Si Si3 0.947133 0.315327 0.345674
Si Si4 0.731793 0.196263 0.596470
Si Si5 0.595425 0.969530 0.221738
Si Si6 0.199238 0.120966 0.198221
Si Si7 0.587366 0.668976 0.102986
O O1 0.808219 0.651904 0.137961
O O2 0.881889 0.326913 0.696978
O O3 0.000000 0.500000 0.000000
O O4 0.114507 0.132063 0.968505
O O5 0.184309 0.882370 0.535270
O O6 0.857859 0.601562 0.596886
O O7 0.775436 0.434525 0.181097
O O8 0.097815 0.181099 0.274258
O O9 0.069709 0.056912 0.338936
O O10 0.612784 0.161585 0.437711
O O11 0.620427 0.496714 0.835674
O O12 0.540494 0.923473 0.244216
O O13 0.500000 0.000000 0.000000
O O14 0.416507 0.827660 0.154828
#
# Coordination Sequence:
#
# PCOD9058765 Si02
#       7
#     2   1   2   2   2   2   2
#     4  12  22  44  68 101 142 195 239 292 358 427
#     4  12  24  42  74 102 138 198 240 288 370 426
#     4  11  22  48  75 105 147 194 242 301 371 437
#     4  12  26  46  76 107 151 193 244 304 367 436
#     4  12  25  44  71 105 146 193 241 298 360 431
#     4  11  23  44  76 101 149 192 243 301 364 434
#     4  12  26  45  75 115 143 191 246 305 361 442
#
# _framework density 24.994468000000001
#
# number of rings (size 3 to 8) (size 9 to 14) (size 15 to 20)
#    0.000    0.308    6.154    2.769    0.000    2.462 
#    0.000    1.538    0.000    0.000    0.000    0.000 
#    0.000    0.000    0.000    0.000    0.000    0.000 
#
# Total GULP energy -72476.253610 kJ/mol
# GULP energy per Si atom -5575.096432 kJ/mol
# Density = 2.493758 g / cm^3
# Si number density = 24.994468 Si / 1000 Ang^3
#
#
#
# Elastic Constant Matrix: (Units=GPa)
#
#
# Indices 1 2 3 4 5 6 
#
# 1 65.7369 -1.0508 73.4005 4.8032 12.3494 -24.8320
# 2 -1.0508 16.3243 97.6394 -18.8006 15.0980 -40.3810
# 3 73.4005 97.6394 -19.8007 17.5231 -23.4498 13.0205
# 4 4.8032 -18.8006 17.5231 41.1091 -2.4677 -10.9098
# 5 12.3494 15.0980 -23.4498 -2.4677 39.6431 16.7490
# 6 -24.8320 -40.3810 13.0205 -10.9098 16.7490 38.7548
#
#
#
# Elastic Compliance Matrix: (Units=1/GPa)
#
#
# Indices 1 2 3 4 5 6 
#
# 1 0.015176 -0.010067 -0.000362 -0.006877 -0.000546 -0.002343
# 2 -0.010067 0.009881 0.008202 0.002426 0.004437 -0.000145
# 3 -0.000362 0.008202 0.004291 0.004356 -0.004433 0.010015
# 4 -0.006877 0.002426 0.004356 0.025118 0.004628 0.001729
# 5 -0.000546 0.004437 -0.004433 0.004628 0.022493 -0.002655
# 6 -0.002343 -0.000145 0.010015 0.001729 -0.002655 0.022420
#
#
# Mechanical properties :
#
#
# Convention : Reuss Voigt Hill
#
# Bulk Modulus (GPa) = 40.16980 44.69320 42.43150
# Shear Modulus (GPa) = 44.59107 16.71949 30.65528
#
# Velocity S-wave (km/s) = 4.22837 2.58917 3.50592
# Velocity P-wave (km/s) = 6.32022 5.18251 5.77943
#
# Compressibility (1/GPa) = 0.02489432
#
# Stress axis : x y z
#
# Youngs Moduli (GPa) = 65.89387 101.20879 233.05147
#
# Poissons Ratio (x) = 1.01882 0.08447
# Poissons Ratio (y) = 0.66332 -1.91159
# Poissons Ratio (z) = 0.02388 -0.83016
#
# Static dielectric constant tensor:
#      x y z
#    x 15.544310 9.421540 3.518760 
#    y 9.421540 8.579410 2.381250 
#    z 3.518760 2.381250 3.033190 
# 
# From -- ./inp_files/308867.got.cif
#   From: 2010.05.17/outbox.cif.g08.bks.cpg/sg2_155_cif.got.tgz:308867.got - 2010.06.03 11:33:40.
