data_PCOD9058139
_publ_section_title
;
Structure prediction by ZEFSAII (Michael W. Deem and Ramdas Pophale) SiO2 
 PCOD9058139
Probable space group: P -1
;
_chemical_formula_sum "Si O2"
_cell_formula_units_Z 16
_cell_length_a 18.386367
_cell_length_b 12.863744
_cell_length_c 9.239468
_cell_angle_alpha 149.703790
_cell_angle_beta 46.235630
_cell_angle_gamma 134.900561
_cell_volume 759.927322
_symmetry_space_group_name_H-M "P -1"
_symmetry_group_IT_number 2
_symmetry_cell_setting 'triclinic'
loop_
_space_group_symop_operation_xyz
x,y,z
-x,-y,-z
loop_
_atom_site_type_symbol
_atom_site_label
_atom_site_fract_x
_atom_site_fract_y
_atom_site_fract_z
Si Si1 0.836205 0.758419 0.298337
Si Si2 0.099763 0.425631 0.720931
Si Si3 0.668688 0.316626 0.364801
Si Si4 0.036825 0.899816 0.690905
Si Si5 0.652009 0.968687 0.765158
Si Si6 0.407464 0.781940 0.328983
Si Si7 0.500742 0.464635 0.628459
Si Si8 0.763758 0.268234 0.723013
O O1 0.875094 0.711854 0.346068
O O2 0.922549 0.923121 0.278278
O O3 0.741543 0.862991 0.561647
O O4 0.796281 0.526396 0.995946
O O5 0.206664 0.611005 0.755216
O O6 0.059007 0.285604 0.467268
O O7 0.000000 0.500000 0.000000
O O8 0.639852 0.323003 0.579526
O O9 0.614905 0.472710 0.540906
O O10 0.618675 0.073499 0.079110
O O11 0.132421 0.808110 0.496016
O O12 0.000000 0.000000 0.000000
O O13 0.696232 0.170071 0.839583
O O14 0.570079 0.784537 0.565259
O O15 0.310640 0.819393 0.416403
O O16 0.500000 0.000000 0.500000
O O17 0.452415 0.621889 0.976308
O O18 0.500000 0.500000 0.500000
#
# Coordination Sequence:
#
# PCOD9058139 Si02
#       8
#     2   2   2   2   2   2   2   2
#     4  11  22  45  73  97 137 190 240 290 360 424
#     4  12  24  47  70 103 142 187 245 299 356 423
#     4  12  26  42  70 109 143 184 243 302 358 429
#     4  11  27  41  70 104 139 185 241 304 360 421
#     4  11  22  44  72 101 132 184 241 287 348 441
#     4  12  27  46  69 107 151 186 231 303 366 428
#     4  12  24  44  74 102 143 194 237 288 365 440
#     4  11  23  46  70  98 139 188 237 290 358 434
#
# _framework density 21.054645000000001
#
# number of rings (size 3 to 8) (size 9 to 14) (size 15 to 20)
#    0.000    0.500    3.750    4.875    1.750    3.500 
#    0.000    0.000    0.000    0.000    0.000    0.000 
#    0.000    0.000    0.000    0.000    0.000    0.000 
#
# Total GULP energy -89499.548108 kJ/mol
# GULP energy per Si atom -5593.721757 kJ/mol
# Density = 2.100672 g / cm^3
# Si number density = 21.054645 Si / 1000 Ang^3
#
#
#
# Elastic Constant Matrix: (Units=GPa)
#
#
# Indices 1 2 3 4 5 6 
#
# 1 143.3540 37.4250 32.8788 -5.2100 13.3910 -5.0365
# 2 37.4250 72.9587 42.0867 -5.6833 -3.9029 -0.0871
# 3 32.8788 42.0867 113.9041 -9.2933 24.0207 -1.3910
# 4 -5.2100 -5.6833 -9.2933 37.2235 -0.3622 9.5718
# 5 13.3910 -3.9029 24.0207 -0.3622 38.5108 4.1265
# 6 -5.0365 -0.0871 -1.3910 9.5718 4.1265 35.8834
#
#
#
# Elastic Compliance Matrix: (Units=1/GPa)
#
#
# Indices 1 2 3 4 5 6 
#
# 1 0.008567 -0.004588 0.000010 0.000056 -0.003620 0.001593
# 2 -0.004588 0.021593 -0.008563 0.001206 0.009385 -0.002324
# 3 0.000010 -0.008563 0.014176 0.001837 -0.009821 0.001170
# 4 0.000056 0.001206 0.001837 0.029522 0.000070 -0.007801
# 5 -0.003620 0.009385 -0.009821 0.000070 0.034827 -0.004890
# 6 0.001593 -0.002324 0.001170 -0.007801 -0.004890 0.030775
#
#
# Mechanical properties :
#
#
# Convention : Reuss Voigt Hill
#
# Bulk Modulus (GPa) = 55.39164 61.66641 58.52903
# Shear Modulus (GPa) = 29.11037 36.84530 32.97783
#
# Velocity S-wave (km/s) = 3.72238 4.18782 3.96194
# Velocity P-wave (km/s) = 6.69630 7.26196 6.98486
#
# Compressibility (1/GPa) = 0.01805327
#
# Stress axis : x y z
#
# Youngs Moduli (GPa) = 116.72156 46.31210 70.54208
#
# Poissons Ratio (x) = 0.21246 -0.00067
# Poissons Ratio (y) = 0.53547 0.60407
# Poissons Ratio (z) = -0.00112 0.39658
#
# Static dielectric constant tensor:
#      x y z
#    x 1.945620 -0.059640 0.143360 
#    y -0.059640 1.864380 -0.055650 
#    z 0.143360 -0.055650 1.854820 
# 
# From -- ./inp_files/124691.got.cif
#   From: 2010.05.17/outbox.cif.g08.bks.cpg/sg2_63_cif.got.tgz:124691.got - 2010.06.03 11:33:40.
