data_PCOD9058176
_publ_section_title
;
Structure prediction by ZEFSAII (Michael W. Deem and Ramdas Pophale) SiO2 
 PCOD9058176
Probable space group: P -1
;
_chemical_formula_sum "Si O2"
_cell_formula_units_Z 13
_cell_length_a 11.549305
_cell_length_b 12.220647
_cell_length_c 9.363573
_cell_angle_alpha 119.211210
_cell_angle_beta 102.007570
_cell_angle_gamma 130.030096
_cell_volume 551.661165
_symmetry_space_group_name_H-M "P -1"
_symmetry_group_IT_number 2
_symmetry_cell_setting 'triclinic'
loop_
_space_group_symop_operation_xyz
x,y,z
-x,-y,-z
loop_
_atom_site_type_symbol
_atom_site_label
_atom_site_fract_x
_atom_site_fract_y
_atom_site_fract_z
Si Si1 0.929161 0.467316 0.800069
Si Si2 0.280360 0.976250 0.589947
Si Si3 0.847757 0.739228 0.254477
Si Si4 0.753369 0.302191 0.223966
Si Si5 0.499877 0.317956 0.123828
Si Si6 0.367421 0.564037 0.257401
Si Si7 0.500000 0.500000 0.500000
O O1 0.821084 0.505716 0.781107
O O2 0.166371 0.663785 0.891914
O O3 0.726247 0.179255 0.514441
O O4 0.000000 0.500000 0.000000
O O5 0.460434 0.203974 0.664979
O O6 0.323551 0.074364 0.820541
O O7 0.015139 0.773518 0.344050
O O8 0.631271 0.528370 0.176139
O O9 0.772650 0.664435 0.024206
O O10 0.000000 0.000000 0.500000
O O11 0.693796 0.394433 0.277232
O O12 0.000000 0.500000 0.500000
O O13 0.500000 0.000000 0.000000
O O14 0.416653 0.321308 0.238749
O O15 0.493678 0.608336 0.446554
#
# Coordination Sequence:
#
# PCOD9058176 Si02
#       7
#     2   2   2   2   2   2   1
#     4  12  23  47  81 117 145 194 270 333 387 466
#     4  11  22  46  78 106 147 195 261 326 394 456
#     4  11  22  44  73 102 146 194 256 311 386 448
#     4  12  27  49  76 113 164 211 252 324 420 484
#     4  11  25  47  70 105 146 205 254 315 384 472
#     4  11  25  45  72 115 150 198 256 323 392 468
#     4  12  26  46  66 104 156 202 264 308 392 482
#
# _framework density 23.565190000000001
#
# number of rings (size 3 to 8) (size 9 to 14) (size 15 to 20)
#    0.000    0.615    3.077    5.077    0.000    4.923 
#    2.769    3.846    0.000    0.000    0.000    0.000 
#    0.000    0.000    0.000    0.000    0.000    0.000 
#
# Total GULP energy -72479.214912 kJ/mol
# GULP energy per Si atom -5575.324224 kJ/mol
# Density = 2.351155 g / cm^3
# Si number density = 23.565190 Si / 1000 Ang^3
#
#
#
# Elastic Constant Matrix: (Units=GPa)
#
#
# Indices 1 2 3 4 5 6 
#
# 1 103.9369 30.8191 33.8506 -4.1941 -13.5864 -9.1800
# 2 30.8191 116.1384 70.4266 -14.2313 -15.6213 -1.0611
# 3 33.8506 70.4266 152.9020 -23.7363 -25.7612 3.2380
# 4 -4.1941 -14.2313 -23.7363 47.7011 -3.9688 -1.2364
# 5 -13.5864 -15.6213 -25.7612 -3.9688 48.7274 -4.7748
# 6 -9.1800 -1.0611 3.2380 -1.2364 -4.7748 36.5025
#
#
#
# Elastic Compliance Matrix: (Units=1/GPa)
#
#
# Indices 1 2 3 4 5 6 
#
# 1 0.011156 -0.001837 -0.001326 0.000032 0.002132 0.003150
# 2 -0.001837 0.012387 -0.004965 0.001158 0.000978 0.000506
# 3 -0.001326 -0.004965 0.010368 0.003854 0.003758 -0.000776
# 4 0.000032 0.001158 0.003854 0.023628 0.004448 0.001082
# 5 0.002132 0.000978 0.003758 0.004448 0.024126 0.003538
# 6 0.003150 0.000506 -0.000776 0.001082 0.003538 0.028770
#
#
# Mechanical properties :
#
#
# Convention : Reuss Voigt Hill
#
# Bulk Modulus (GPa) = 56.64055 71.46332 64.05193
# Shear Modulus (GPa) = 37.71414 42.44494 40.07954
#
# Velocity S-wave (km/s) = 4.00486 4.24862 4.12854
# Velocity P-wave (km/s) = 6.74337 7.37966 7.06868
#
# Compressibility (1/GPa) = 0.01765520
#
# Stress axis : x y z
#
# Youngs Moduli (GPa) = 89.63828 80.73299 96.44610
#
# Poissons Ratio (x) = 0.14828 0.12793
# Poissons Ratio (y) = 0.16463 0.47884
# Poissons Ratio (z) = 0.11890 0.40082
#
# Static dielectric constant tensor:
#      x y z
#    x 1.957150 -0.025850 -0.001080 
#    y -0.025850 1.918260 -0.009720 
#    z -0.001080 -0.009720 1.935430 
# 
# From -- ./inp_files/25898.got.cif
#   From: 2010.05.17/outbox.cif.g08.bks.cpg/sg2_13_cif.got.tgz:25898.got - 2010.06.03 11:33:40.
