data_PCOD9058449
_publ_section_title
;
Structure prediction by ZEFSAII (Michael W. Deem and Ramdas Pophale) SiO2 
 PCOD9058449
Probable space group: P -1
;
_chemical_formula_sum "Si O2"
_cell_formula_units_Z 16
_cell_length_a 9.226602
_cell_length_b 18.311365
_cell_length_c 11.248880
_cell_angle_alpha 141.222203
_cell_angle_beta 122.807156
_cell_angle_gamma 86.495370
_cell_volume 727.667171
_symmetry_space_group_name_H-M "P -1"
_symmetry_group_IT_number 2
_symmetry_cell_setting 'triclinic'
loop_
_space_group_symop_operation_xyz
x,y,z
-x,-y,-z
loop_
_atom_site_type_symbol
_atom_site_label
_atom_site_fract_x
_atom_site_fract_y
_atom_site_fract_z
Si Si1 0.366278 0.084740 0.573641
Si Si2 0.269949 0.239270 0.327118
Si Si3 0.944441 0.050379 0.319822
Si Si4 0.234573 0.660695 0.749426
Si Si5 0.527511 0.565605 0.724142
Si Si6 0.131219 0.832955 0.777968
Si Si7 0.532133 0.162347 0.476355
Si Si8 0.913063 0.170288 0.679534
O O1 0.436142 0.098576 0.486229
O O2 0.212091 0.131308 0.562607
O O3 0.186211 0.913175 0.341688
O O4 0.603559 0.198517 0.902123
O O5 0.393904 0.413793 0.558661
O O6 0.451460 0.249732 0.502727
O O7 0.043753 0.174794 0.222549
O O8 0.182637 0.111502 0.019567
O O9 0.943931 0.166353 0.386378
O O10 0.831776 0.033420 0.374393
O O11 0.399436 0.630298 0.746929
O O12 0.150150 0.709161 0.670405
O O13 0.000000 0.500000 0.500000
O O14 0.500000 0.500000 0.500000
O O15 0.806829 0.700271 0.040676
O O16 0.390744 0.006326 0.133102
O O17 0.801278 0.244392 0.696673
#
# Coordination Sequence:
#
# PCOD9058449 Si02
#       8
#     2   2   2   2   2   2   2   2
#     4  12  23  44  73 101 139 183 242 284 332 425
#     4  11  23  46  72 102 144 180 234 287 354 411
#     4  11  23  44  75 104 137 184 233 290 347 406
#     4  12  27  45  69 104 135 184 236 284 352 411
#     4  12  29  45  67 102 149 187 220 293 360 408
#     4  11  22  45  74 103 135 180 239 290 344 411
#     4  11  24  43  75 104 133 186 236 289 344 413
#     4  12  27  43  69 109 142 182 237 286 346 416
#
# _framework density 21.988074000000001
#
# number of rings (size 3 to 8) (size 9 to 14) (size 15 to 20)
#    0.000    0.500    6.250    2.250    3.500    3.500 
#    2.250    1.875    0.000    0.000    0.000    0.000 
#    0.000    0.000    0.000    0.000    0.000    0.000 
#
# Total GULP energy -89457.751826 kJ/mol
# GULP energy per Si atom -5591.109489 kJ/mol
# Density = 2.193803 g / cm^3
# Si number density = 21.988074 Si / 1000 Ang^3
#
#
#
# Elastic Constant Matrix: (Units=GPa)
#
#
# Indices 1 2 3 4 5 6 
#
# 1 103.3582 31.4235 15.3207 -21.8243 10.1909 -31.1283
# 2 31.4235 143.6550 20.9992 -9.6100 5.8946 -36.9996
# 3 15.3207 20.9992 56.7541 -7.2052 17.9170 -14.7980
# 4 -21.8243 -9.6100 -7.2052 31.7762 -4.7682 3.4123
# 5 10.1909 5.8946 17.9170 -4.7682 31.7096 -13.0488
# 6 -31.1283 -36.9996 -14.7980 3.4123 -13.0488 40.5271
#
#
#
# Elastic Compliance Matrix: (Units=1/GPa)
#
#
# Indices 1 2 3 4 5 6 
#
# 1 0.014812 0.000246 -0.000475 0.009158 0.001412 0.011111
# 2 0.000246 0.009540 -0.002018 0.002124 0.003334 0.009057
# 3 -0.000475 -0.002018 0.022915 0.002339 -0.011083 0.002395
# 4 0.009158 0.002124 0.002339 0.038743 0.004459 0.008001
# 5 0.001412 0.003334 -0.011083 0.004459 0.042967 0.013541
# 6 0.011111 0.009057 0.002395 0.008001 0.013541 0.046038
#
#
# Mechanical properties :
#
#
# Convention : Reuss Voigt Hill
#
# Bulk Modulus (GPa) = 23.37954 48.80601 36.09277
# Shear Modulus (GPa) = 25.80430 36.53751 31.17090
#
# Velocity S-wave (km/s) = 3.42944 4.08081 3.76922
# Velocity P-wave (km/s) = 5.13199 6.66700 5.94921
#
# Compressibility (1/GPa) = 0.04277245
#
# Stress axis : x y z
#
# Youngs Moduli (GPa) = 67.51452 104.82002 43.63992
#
# Poissons Ratio (x) = -0.02579 0.02075
# Poissons Ratio (y) = -0.01661 0.08805
# Poissons Ratio (z) = 0.03210 0.21149
#
# Static dielectric constant tensor:
#      x y z
#    x 1.863500 -0.084390 -0.117280 
#    y -0.084390 1.914320 0.113040 
#    z -0.117280 0.113040 2.000330 
# 
# From -- ./inp_files/317924.got.cif
#   From: 2010.05.17/outbox.cif.g08.bks.cpg/sg2_159_cif.got.tgz:317924.got - 2010.06.03 11:33:40.
