data_PCOD9058344
_publ_section_title
;
Structure prediction by ZEFSAII (Michael W. Deem and Ramdas Pophale) SiO2 
 PCOD9058344
Probable space group: P -1
;
_chemical_formula_sum "Si O2"
_cell_formula_units_Z 14
_cell_length_a 15.058754
_cell_length_b 14.490692
_cell_length_c 24.580993
_cell_angle_alpha 21.809094
_cell_angle_beta 17.967149
_cell_angle_gamma 29.131353
_cell_volume 612.528003
_symmetry_space_group_name_H-M "P -1"
_symmetry_group_IT_number 2
_symmetry_cell_setting 'triclinic'
loop_
_space_group_symop_operation_xyz
x,y,z
-x,-y,-z
loop_
_atom_site_type_symbol
_atom_site_label
_atom_site_fract_x
_atom_site_fract_y
_atom_site_fract_z
Si Si1 0.361805 0.480953 0.649406
Si Si2 0.079304 0.934845 0.587665
Si Si3 0.071648 0.552411 0.607392
Si Si4 0.150468 0.445246 0.499507
Si Si5 0.782919 0.579315 0.037614
Si Si6 0.738349 0.158539 0.086953
Si Si7 0.864869 0.136086 0.151326
O O1 0.500000 0.500000 0.500000
O O2 0.110637 0.668953 0.687615
O O3 0.616919 0.551356 0.505247
O O4 0.206961 0.217951 0.901308
O O5 0.410931 0.051050 0.326363
O O6 0.899265 0.157369 0.551990
O O7 0.935665 0.831176 0.784436
O O8 0.997887 0.515711 0.606628
O O9 0.829323 0.412750 0.862911
O O10 0.462053 0.600971 0.233770
O O11 0.000000 0.500000 0.500000
O O12 0.186232 0.148885 0.644651
O O13 0.750369 0.341835 0.145348
O O14 0.000000 0.500000 0.000000
O O15 0.753395 0.167807 0.138028
O O16 0.000000 0.000000 0.000000
#
# Coordination Sequence:
#
# PCOD9058344 Si02
#       7
#     2   2   2   2   2   2   2
#     4  11  22  45  70 105 141 183 223 294 358 421
#     4  11  26  43  71 106 138 185 235 288 358 418
#     4  12  26  45  73 103 147 181 233 297 360 422
#     4  12  28  45  69 107 142 188 239 296 349 419
#     4  11  26  48  71  98 142 195 243 285 351 428
#     4  12  21  46  73 103 141 182 231 295 366 420
#     4  11  23  43  75  97 137 185 239 288 357 421
#
# _framework density 22.856099
#
# number of rings (size 3 to 8) (size 9 to 14) (size 15 to 20)
#    0.000    0.571    4.286    3.429    6.000    1.143 
#    0.000    0.000    0.000    0.000    0.000    0.000 
#    0.000    0.000    0.000    0.000    0.000    0.000 
#
# Total GULP energy -78133.342342 kJ/mol
# GULP energy per Si atom -5580.953024 kJ/mol
# Density = 2.280408 g / cm^3
# Si number density = 22.856099 Si / 1000 Ang^3
#
#
#
# Elastic Constant Matrix: (Units=GPa)
#
#
# Indices 1 2 3 4 5 6 
#
# 1 92.2436 4.4811 -3.5990 6.6101 25.0254 4.8783
# 2 4.4811 74.1633 8.1611 -14.2387 15.2759 -3.8034
# 3 -3.5990 8.1611 149.9813 2.5948 28.5020 -14.1884
# 4 6.6101 -14.2387 2.5948 33.7415 -8.2799 -3.0107
# 5 25.0254 15.2759 28.5020 -8.2799 38.6187 -1.5486
# 6 4.8783 -3.8034 -14.1884 -3.0107 -1.5486 22.9160
#
#
#
# Elastic Compliance Matrix: (Units=1/GPa)
#
#
# Indices 1 2 3 4 5 6 
#
# 1 0.015283 0.000091 0.002737 -0.006790 -0.013550 -0.003351
# 2 0.000091 0.015755 0.000340 0.005611 -0.005211 0.003191
# 3 0.002737 0.000340 0.008828 -0.002899 -0.008887 0.003958
# 4 -0.006790 0.005611 -0.002899 0.037201 0.012550 0.006317
# 5 -0.013550 -0.005211 -0.008887 0.012550 0.046036 0.001277
# 6 -0.003351 0.003191 0.003958 0.006317 0.001277 0.048248
#
#
# Mechanical properties :
#
#
# Convention : Reuss Voigt Hill
#
# Bulk Modulus (GPa) = 21.64403 37.16383 29.40393
# Shear Modulus (GPa) = 27.71367 39.54491 33.62929
#
# Velocity S-wave (km/s) = 3.48592 4.16404 3.83998
# Velocity P-wave (km/s) = 5.06877 6.27807 5.70555
#
# Compressibility (1/GPa) = 0.04620211
#
# Stress axis : x y z
#
# Youngs Moduli (GPa) = 65.43153 63.47180 113.27529
#
# Poissons Ratio (x) = -0.00576 -0.31006
# Poissons Ratio (y) = -0.00594 -0.03851
# Poissons Ratio (z) = -0.17910 -0.02158
#
# Static dielectric constant tensor:
#      x y z
#    x 1.845980 0.013480 -0.000700 
#    y 0.013480 1.905080 -0.013430 
#    z -0.000700 -0.013430 2.002160 
# 
# From -- ./inp_files/418698.got.cif
#   From: 2010.05.17/outbox.cif.g08.bks.cpg/sg2_210_cif.got.tgz:418698.got - 2010.06.03 11:33:40.
