data_PCOD9058561
_publ_section_title
;
Structure prediction by ZEFSAII (Michael W. Deem and Ramdas Pophale) SiO2 
 PCOD9058561
Probable space group: P -1
;
_chemical_formula_sum "Si O2"
_cell_formula_units_Z 15
_cell_length_a 18.110408
_cell_length_b 9.384466
_cell_length_c 6.105844
_cell_angle_alpha 95.363318
_cell_angle_beta 60.213449
_cell_angle_gamma 137.439683
_cell_volume 539.574815
_symmetry_space_group_name_H-M "P -1"
_symmetry_group_IT_number 2
_symmetry_cell_setting 'triclinic'
loop_
_space_group_symop_operation_xyz
x,y,z
-x,-y,-z
loop_
_atom_site_type_symbol
_atom_site_label
_atom_site_fract_x
_atom_site_fract_y
_atom_site_fract_z
Si Si1 0.401132 0.567418 0.475212
Si Si2 0.879779 0.401063 0.959226
Si Si3 0.554309 0.695847 0.666663
Si Si4 0.829973 0.027654 0.033688
Si Si5 0.381622 0.969713 0.034091
Si Si6 0.233177 0.553062 0.481479
Si Si7 0.984090 0.182173 0.444118
Si Si8 0.000000 0.000000 0.000000
O O1 0.416233 0.561789 0.712455
O O2 0.443271 0.469471 0.298333
O O3 0.257118 0.435565 0.561859
O O4 0.501159 0.834541 0.294875
O O5 0.917416 0.292775 0.959837
O O6 0.000012 0.653352 0.699626
O O7 0.763003 0.218383 0.915648
O O8 0.803234 0.386414 0.261973
O O9 0.594919 0.868077 0.808401
O O10 0.676731 0.860837 0.324976
O O11 0.838382 0.988766 0.764301
O O12 0.899750 0.002902 0.077003
O O13 0.357145 0.790126 0.183929
O O14 0.105791 0.355084 0.474901
O O15 0.017971 0.095177 0.231436
#
# Coordination Sequence:
#
# PCOD9058561 Si02
#       8
#     2   2   2   2   2   2   2   1
#     4  11  25  46  73 107 148 197 247 300 364 430
#     4  11  25  47  76 108 150 190 246 301 362 436
#     4  11  26  45  74 107 147 199 245 302 360 434
#     4  12  26  49  73 107 148 191 246 296 368 435
#     4  11  22  46  71 113 143 200 241 303 364 422
#     4  11  25  47  75 111 150 188 247 300 364 435
#     4  11  28  48  76 111 140 196 237 304 371 434
#     4  12  30  48  76 106 146 188 238 306 366 440
#
# _framework density 27.799664
#
# number of rings (size 3 to 8) (size 9 to 14) (size 15 to 20)
#    0.000    0.800    2.667    2.400    5.600    7.467 
#    2.400    0.000    0.000    0.000    0.000    0.000 
#    0.000    0.000    0.000    0.000    0.000    0.000 
#
# Total GULP energy -83889.330543 kJ/mol
# GULP energy per Si atom -5592.622036 kJ/mol
# Density = 2.773639 g / cm^3
# Si number density = 27.799664 Si / 1000 Ang^3
#
#
#
# Elastic Constant Matrix: (Units=GPa)
#
#
# Indices 1 2 3 4 5 6 
#
# 1 195.0820 38.5568 16.7565 18.7361 26.2660 -34.2009
# 2 38.5568 127.0551 42.2639 22.0034 15.6129 -22.8071
# 3 16.7565 42.2639 106.2047 16.8600 12.7103 -3.0772
# 4 18.7361 22.0034 16.8600 68.3745 -7.5357 23.6811
# 5 26.2660 15.6129 12.7103 -7.5357 27.9214 0.0052
# 6 -34.2009 -22.8071 -3.0772 23.6811 0.0052 54.2329
#
#
#
# Elastic Compliance Matrix: (Units=1/GPa)
#
#
# Indices 1 2 3 4 5 6 
#
# 1 0.008705 0.001510 0.000894 -0.007657 -0.011509 0.009520
# 2 0.001510 0.012599 -0.002515 -0.008267 -0.009554 0.009719
# 3 0.000894 -0.002515 0.011553 -0.003490 -0.005637 0.001686
# 4 -0.007657 -0.008267 -0.003490 0.030121 0.021548 -0.021658
# 5 -0.011509 -0.009554 -0.005637 0.021548 0.060369 -0.021010
# 6 0.009520 0.009719 0.001686 -0.021658 -0.021010 0.038085
#
#
# Mechanical properties :
#
#
# Convention : Reuss Voigt Hill
#
# Bulk Modulus (GPa) = 30.64048 69.27736 49.95892
# Shear Modulus (GPa) = 28.98043 52.15673 40.56858
#
# Velocity S-wave (km/s) = 3.23224 4.33617 3.82425
# Velocity P-wave (km/s) = 4.99756 7.07419 6.12453
#
# Compressibility (1/GPa) = 0.03263656
#
# Stress axis : x y z
#
# Youngs Moduli (GPa) = 114.87994 79.37015 86.55912
#
# Poissons Ratio (x) = -0.11986 -0.07742
# Poissons Ratio (y) = -0.17348 0.21766
# Poissons Ratio (z) = -0.10275 0.19959
#
# Static dielectric constant tensor:
#      x y z
#    x 2.562660 0.186320 -0.032950 
#    y 0.186320 2.120160 0.056890 
#    z -0.032950 0.056890 1.923470 
# 
# From -- ./inp_files/107116.got.cif
#   From: 2010.05.17/outbox.cif.g08.bks.cpg/sg2_54_cif.got.tgz:107116.got - 2010.06.03 11:33:40.
