data_PCOD9058940
_publ_section_title
;
Structure prediction by ZEFSAII (Michael W. Deem and Ramdas Pophale) SiO2 
 PCOD9058940
Probable space group: P -1
;
_chemical_formula_sum "Si O2"
_cell_formula_units_Z 14
_cell_length_a 9.214048
_cell_length_b 22.489983
_cell_length_c 5.353125
_cell_angle_alpha 97.618991
_cell_angle_beta 69.212192
_cell_angle_gamma 44.695156
_cell_volume 591.412820
_symmetry_space_group_name_H-M "P -1"
_symmetry_group_IT_number 2
_symmetry_cell_setting 'triclinic'
loop_
_space_group_symop_operation_xyz
x,y,z
-x,-y,-z
loop_
_atom_site_type_symbol
_atom_site_label
_atom_site_fract_x
_atom_site_fract_y
_atom_site_fract_z
Si Si1 0.571062 0.120665 0.246750
Si Si2 0.278049 0.732167 0.164457
Si Si3 0.517101 0.733757 0.379110
Si Si4 0.997554 0.710046 0.523576
Si Si5 0.770607 0.555441 0.470300
Si Si6 0.805754 0.414999 0.177129
Si Si7 0.023873 0.906273 0.094789
O O1 0.443798 0.209082 0.567316
O O2 0.319291 0.179194 0.273772
O O3 0.736601 0.018612 0.238223
O O4 0.797448 0.089995 0.945043
O O5 0.497249 0.712374 0.109708
O O6 0.157935 0.721989 0.420247
O O7 0.046526 0.845696 0.243817
O O8 0.476799 0.632032 0.808430
O O9 0.694899 0.636257 0.392328
O O10 0.204315 0.825184 0.710228
O O11 0.030969 0.668590 0.745888
O O12 0.120805 0.631498 0.172395
O O13 0.852298 0.471555 0.213379
O O14 0.000000 0.500000 0.500000
O O15 0.500000 0.500000 0.500000
#
# Coordination Sequence:
#
# PCOD9058940 Si02
#       7
#     2   2   2   2   2   2   2
#     4   9  20  44  66  95 128 169 217 274 323 398
#     4  11  23  39  64  94 127 171 215 271 326 392
#     4   9  20  39  62  89 124 166 214 267 318 392
#     4  12  27  43  69  98 135 171 226 267 328 388
#     4  11  24  38  62  91 130 168 220 269 322 385
#     4  12  26  46  64  96 135 181 212 271 328 389
#     4   8  20  42  66  91 131 165 219 261 343 377
#
# _framework density 23.672128000000001
#
# number of rings (size 3 to 8) (size 9 to 14) (size 15 to 20)
#    0.857    0.857    1.429    2.143    6.000    1.714 
#    2.571    0.714    0.000    0.000    0.000    0.000 
#    0.000    0.000    0.000    0.000    0.000    0.000 
#
# Total GULP energy -78117.982451 kJ/mol
# GULP energy per Si atom -5579.855889 kJ/mol
# Density = 2.361825 g / cm^3
# Si number density = 23.672128 Si / 1000 Ang^3
#
#
#
# Elastic Constant Matrix: (Units=GPa)
#
#
# Indices 1 2 3 4 5 6 
#
# 1 52.9524 24.8263 39.4813 30.9637 13.8424 -17.6978
# 2 24.8263 162.0439 38.3306 26.7709 -2.4131 3.3809
# 3 39.4813 38.3306 -7.5666 -33.0559 -32.4528 34.0399
# 4 30.9637 26.7709 -33.0559 5.8901 -20.2221 16.2121
# 5 13.8424 -2.4131 -32.4528 -20.2221 21.9988 21.7580
# 6 -17.6978 3.3809 34.0399 16.2121 21.7580 20.8089
#
#
#
# Elastic Compliance Matrix: (Units=1/GPa)
#
#
# Indices 1 2 3 4 5 6 
#
# 1 0.012961 -0.003440 0.005216 0.002187 0.004613 -0.003478
# 2 -0.003440 0.007441 -0.001226 -0.002000 0.003019 -0.003727
# 3 0.005216 -0.001226 0.009734 -0.012925 -0.007773 0.006910
# 4 0.002187 -0.002000 -0.012925 0.026076 -0.009581 0.013031
# 5 0.004613 0.003019 -0.007773 -0.009581 0.021708 0.000914
# 6 -0.003478 -0.003727 0.006910 0.013031 0.000914 0.023292
#
#
# Mechanical properties :
#
#
# Convention : Reuss Voigt Hill
#
# Bulk Modulus (GPa) = 32.01295 45.85623 38.93459
# Shear Modulus (GPa) = 45.23931 16.72566 30.98249
#
# Velocity S-wave (km/s) = 4.37633 2.66099 3.62168
# Velocity P-wave (km/s) = 6.25214 5.37165 5.82854
#
# Compressibility (1/GPa) = 0.03123736
#
# Stress axis : x y z
#
# Youngs Moduli (GPa) = 77.15500 134.38412 102.73296
#
# Poissons Ratio (x) = 0.46223 -0.53591
# Poissons Ratio (y) = 0.26538 0.12598
# Poissons Ratio (z) = -0.40248 0.16480
#
# Static dielectric constant tensor:
#      x y z
#    x 1.942830 -0.032590 0.028370 
#    y -0.032590 1.853900 -0.000910 
#    z 0.028370 -0.000910 1.981050 
# 
# From -- ./inp_files/55038.got.cif
#   From: 2010.05.17/outbox.cif.g08.bks.cpg/sg2_28_cif.got.tgz:55038.got - 2010.06.03 11:33:40.
