data_PCOD9058974
_publ_section_title
;
Structure prediction by ZEFSAII (Michael W. Deem and Ramdas Pophale) SiO2 
 PCOD9058974
Probable space group: P -1
;
_chemical_formula_sum "Si O2"
_cell_formula_units_Z 14
_cell_length_a 14.542112
_cell_length_b 15.097696
_cell_length_c 11.468339
_cell_angle_alpha 131.393976
_cell_angle_beta 129.480844
_cell_angle_gamma 19.025431
_cell_volume 615.161493
_symmetry_space_group_name_H-M "P -1"
_symmetry_group_IT_number 2
_symmetry_cell_setting 'triclinic'
loop_
_space_group_symop_operation_xyz
x,y,z
-x,-y,-z
loop_
_atom_site_type_symbol
_atom_site_label
_atom_site_fract_x
_atom_site_fract_y
_atom_site_fract_z
Si Si1 0.030761 0.709661 0.497474
Si Si2 0.906497 0.610841 0.651199
Si Si3 0.630279 0.195399 0.434271
Si Si4 0.183058 0.930901 0.160482
Si Si5 0.471121 0.197797 0.833738
Si Si6 0.668305 0.364400 0.770015
Si Si7 0.742376 0.074209 0.149288
O O1 0.300592 0.509941 0.468080
O O2 0.087798 0.521100 0.398730
O O3 0.989207 0.820359 0.680789
O O4 0.756906 0.982227 0.435997
O O5 0.143020 0.480873 0.787962
O O6 0.000000 0.500000 0.500000
O O7 0.615017 0.943158 0.699126
O O8 0.761131 0.199223 0.592564
O O9 0.693438 0.110947 0.279006
O O10 0.382218 0.831011 0.150991
O O11 0.354176 0.698623 0.190485
O O12 0.000000 0.000000 0.000000
O O13 0.562470 0.141736 0.990815
O O14 0.386906 0.685916 0.791435
O O15 0.927391 0.221277 0.871882
#
# Coordination Sequence:
#
# PCOD9058974 Si02
#       7
#     2   2   2   2   2   2   2
#     4  11  25  45  70  99 129 179 228 275 327 395
#     4  12  26  47  71  97 134 178 228 271 329 401
#     4  11  24  43  68  97 134 178 229 269 326 398
#     4  11  24  43  67 107 141 169 214 281 345 396
#     4  12  27  43  70 102 136 175 223 275 339 392
#     4  11  23  39  67  97 139 182 219 262 334 411
#     4  12  24  44  64  99 139 178 220 274 330 398
#
# _framework density 22.758251000000001
#
# number of rings (size 3 to 8) (size 9 to 14) (size 15 to 20)
#    0.000    0.571    2.857    5.571    4.000    1.714 
#    0.000    4.286    0.000    0.000    0.000    0.000 
#    0.000    0.000    0.000    0.000    0.000    0.000 
#
# Total GULP energy -78394.647187 kJ/mol
# GULP energy per Si atom -5599.617656 kJ/mol
# Density = 2.270645 g / cm^3
# Si number density = 22.758251 Si / 1000 Ang^3
#
#
#
# Elastic Constant Matrix: (Units=GPa)
#
#
# Indices 1 2 3 4 5 6 
#
# 1 65.7486 11.0280 42.3923 -0.8106 1.8505 1.0475
# 2 11.0280 72.7303 2.2112 -4.0110 -2.6089 -5.2878
# 3 42.3923 2.2112 111.7774 -12.5978 -12.7299 10.8136
# 4 -0.8106 -4.0110 -12.5978 35.6473 5.4645 10.3788
# 5 1.8505 -2.6089 -12.7299 5.4645 34.6303 -4.0852
# 6 1.0475 -5.2878 10.8136 10.3788 -4.0852 30.7748
#
#
#
# Elastic Compliance Matrix: (Units=1/GPa)
#
#
# Indices 1 2 3 4 5 6 
#
# 1 0.021731 -0.003152 -0.009245 -0.003255 -0.003984 0.002536
# 2 -0.003152 0.014469 0.001017 0.001037 0.001718 0.002114
# 3 -0.009245 0.001017 0.014157 0.006012 0.004122 -0.005965
# 4 -0.003255 0.001037 0.006012 0.035113 -0.004765 -0.014298
# 5 -0.003984 0.001718 0.004122 -0.004765 0.032058 0.004845
# 6 0.002536 0.002114 -0.005965 -0.014298 0.004845 0.040332
#
#
# Mechanical properties :
#
#
# Convention : Reuss Voigt Hill
#
# Bulk Modulus (GPa) = 36.23669 40.16882 38.20276
# Shear Modulus (GPa) = 26.34096 33.18545 29.76321
#
# Velocity S-wave (km/s) = 3.40579 3.82274 3.62027
# Velocity P-wave (km/s) = 5.60561 6.09697 5.85644
#
# Compressibility (1/GPa) = 0.02759634
#
# Stress axis : x y z
#
# Youngs Moduli (GPa) = 46.01787 69.11340 70.63812
#
# Poissons Ratio (x) = 0.21784 0.65306
# Poissons Ratio (y) = 0.14505 -0.07185
# Poissons Ratio (z) = 0.42544 -0.07030
#
# Static dielectric constant tensor:
#      x y z
#    x 1.880560 -0.007980 0.051460 
#    y -0.007980 1.821200 -0.004400 
#    z 0.051460 -0.004400 1.886900 
# 
# From -- ./inp_files/78338.got.cif
#   From: 2010.05.17/outbox.cif.g08.bks.cpg/sg2_40_cif.got.tgz:78338.got - 2010.06.03 11:33:40.
