data_PCOD9058612
_publ_section_title
;
Structure prediction by ZEFSAII (Michael W. Deem and Ramdas Pophale) SiO2 
 PCOD9058612
Probable space group: P -1
;
_chemical_formula_sum "Si O2"
_cell_formula_units_Z 16
_cell_length_a 9.372411
_cell_length_b 8.010678
_cell_length_c 11.137694
_cell_angle_alpha 101.992476
_cell_angle_beta 57.250103
_cell_angle_gamma 118.062188
_cell_volume 619.376558
_symmetry_space_group_name_H-M "P -1"
_symmetry_group_IT_number 2
_symmetry_cell_setting 'triclinic'
loop_
_space_group_symop_operation_xyz
x,y,z
-x,-y,-z
loop_
_atom_site_type_symbol
_atom_site_label
_atom_site_fract_x
_atom_site_fract_y
_atom_site_fract_z
Si Si1 0.201541 0.775519 0.287305
Si Si2 0.832429 0.381862 0.151979
Si Si3 0.445638 0.333043 0.249490
Si Si4 0.776560 0.958937 0.877406
Si Si5 0.220385 0.465331 0.550029
Si Si6 0.528087 0.706701 0.154596
Si Si7 0.689611 0.109958 0.503161
Si Si8 0.851358 0.019215 0.207463
O O1 0.304025 0.640049 0.234355
O O2 0.317033 0.929302 0.359404
O O3 0.988072 0.683920 0.413096
O O4 0.216426 0.854858 0.159562
O O5 0.620551 0.282604 0.181589
O O6 0.802989 0.508897 0.292153
O O7 0.874441 0.215899 0.167216
O O8 0.000000 0.500000 0.000000
O O9 0.265692 0.179365 0.238883
O O10 0.371498 0.401230 0.413239
O O11 0.541505 0.514227 0.143909
O O12 0.958406 0.005790 0.884281
O O13 0.606546 0.836480 0.022650
O O14 0.258059 0.670077 0.510120
O O15 0.663876 0.847238 0.216663
O O16 0.829386 0.044565 0.363164
O O17 0.500000 0.000000 0.500000
#
# Coordination Sequence:
#
# PCOD9058612 Si02
#       8
#     2   2   2   2   2   2   2   2
#     4  12  26  46  75 106 150 193 247 305 369 437
#     4  11  27  46  76 107 148 193 244 305 373 438
#     4  12  26  48  74 109 146 193 252 303 369 436
#     4  12  29  45  73 110 150 191 252 305 368 437
#     4  11  26  44  77 109 150 187 249 299 372 435
#     4  12  26  47  75 103 151 198 248 303 368 437
#     4  11  22  46  74 104 141 193 237 302 365 436
#     4  11  25  47  72 102 147 190 244 301 369 433
#
# _framework density 25.832429000000001
#
# number of rings (size 3 to 8) (size 9 to 14) (size 15 to 20)
#    0.000    0.500    2.500    4.125   10.500    2.000 
#    0.000    0.000    0.000    0.000    0.000    0.000 
#    0.000    0.000    0.000    0.000    0.000    0.000 
#
# Total GULP energy -89469.259877 kJ/mol
# GULP energy per Si atom -5591.828742 kJ/mol
# Density = 2.577363 g / cm^3
# Si number density = 25.832429 Si / 1000 Ang^3
#
#
#
# Elastic Constant Matrix: (Units=GPa)
#
#
# Indices 1 2 3 4 5 6 
#
# 1 155.1680 36.5833 37.9043 -13.2771 -1.0361 17.3223
# 2 36.5833 59.0712 9.7033 -0.9760 7.4266 18.6766
# 3 37.9043 9.7033 97.5374 -4.6600 -1.4403 5.8363
# 4 -13.2771 -0.9760 -4.6600 43.3809 4.2092 1.1513
# 5 -1.0361 7.4266 -1.4403 4.2092 42.4049 -7.8179
# 6 17.3223 18.6766 5.8363 1.1513 -7.8179 25.4354
#
#
#
# Elastic Compliance Matrix: (Units=1/GPa)
#
#
# Indices 1 2 3 4 5 6 
#
# 1 0.008505 -0.004129 -0.002652 0.002263 0.000213 -0.002189
# 2 -0.004129 0.026688 0.000019 0.000671 -0.008419 -0.019407
# 3 -0.002652 0.000019 0.011350 0.000416 0.000130 -0.000790
# 4 0.002263 0.000671 0.000416 0.024229 -0.003231 -0.004219
# 5 0.000213 -0.008419 0.000130 -0.003231 0.028115 0.014795
# 6 -0.002189 -0.019407 -0.000790 -0.004219 0.014795 0.059976
#
#
# Mechanical properties :
#
#
# Convention : Reuss Voigt Hill
#
# Bulk Modulus (GPa) = 30.28612 53.35094 41.81853
# Shear Modulus (GPa) = 27.26350 37.41664 32.34007
#
# Velocity S-wave (km/s) = 3.25221 3.80996 3.54208
# Velocity P-wave (km/s) = 5.08449 6.32866 5.74038
#
# Compressibility (1/GPa) = 0.03301842
#
# Stress axis : x y z
#
# Youngs Moduli (GPa) = 117.57185 37.46977 88.10210
#
# Poissons Ratio (x) = 0.15471 0.23367
# Poissons Ratio (y) = 0.48546 -0.00163
# Poissons Ratio (z) = 0.31184 -0.00069
#
# Static dielectric constant tensor:
#      x y z
#    x 2.027630 -0.004440 -0.030210 
#    y -0.004440 2.034260 0.075550 
#    z -0.030210 0.075550 2.153500 
# 
# From -- ./inp_files/382546.got.cif
#   From: 2010.05.17/outbox.cif.g08.bks.cpg/sg2_192_cif.got.tgz:382546.got - 2010.06.03 11:33:40.
