data_PCOD9058218
_publ_section_title
;
Structure prediction by ZEFSAII (Michael W. Deem and Ramdas Pophale) SiO2 
 PCOD9058218
Probable space group: P -1
;
_chemical_formula_sum "Si O2"
_cell_formula_units_Z 16
_cell_length_a 9.386562
_cell_length_b 8.882212
_cell_length_c 16.353964
_cell_angle_alpha 43.582418
_cell_angle_beta 129.037937
_cell_angle_gamma 133.589885
_cell_volume 657.205908
_symmetry_space_group_name_H-M "P -1"
_symmetry_group_IT_number 2
_symmetry_cell_setting 'triclinic'
loop_
_space_group_symop_operation_xyz
x,y,z
-x,-y,-z
loop_
_atom_site_type_symbol
_atom_site_label
_atom_site_fract_x
_atom_site_fract_y
_atom_site_fract_z
Si Si1 0.682629 0.290529 0.498449
Si Si2 0.753467 0.455732 0.279127
Si Si3 0.395263 0.893279 0.092226
Si Si4 0.637258 0.731617 0.347564
Si Si5 0.005413 0.962117 0.891215
Si Si6 0.720689 0.983504 0.453030
Si Si7 0.063499 0.008587 0.319623
Si Si8 0.573335 0.764480 0.889079
O O1 0.687150 0.419658 0.363252
O O2 0.681425 0.500631 0.473749
O O3 0.479849 0.068189 0.544625
O O4 0.859127 0.200077 0.592604
O O5 0.868190 0.740386 0.186139
O O6 0.557541 0.298623 0.215369
O O7 0.861757 0.273745 0.380260
O O8 0.482491 0.094390 0.116263
O O9 0.444514 0.688767 0.235676
O O10 0.161953 0.851607 0.014509
O O11 0.500000 0.000000 0.000000
O O12 0.653015 0.857134 0.391603
O O13 0.826738 0.906832 0.292477
O O14 0.907117 0.856018 0.808666
O O15 0.186546 0.103794 0.093477
O O16 0.833981 0.886478 0.597439
O O17 0.500000 0.500000 0.000000
#
# Coordination Sequence:
#
# PCOD9058218 Si02
#       8
#     2   2   2   2   2   2   2   2
#     4  11  23  44  70 103 140 196 239 296 359 429
#     4  11  22  44  74 105 145 184 243 298 352 430
#     4  12  25  48  71 103 152 190 233 303 366 428
#     4  12  24  43  67 106 148 191 231 303 363 420
#     4  12  25  47  80 106 141 197 243 292 367 427
#     4  11  24  42  69 107 144 185 245 302 358 419
#     4  11  23  44  70 100 142 188 246 287 354 434
#     4  12  26  47  77 106 140 188 255 296 347 439
#
# _framework density 24.345490000000002
#
# number of rings (size 3 to 8) (size 9 to 14) (size 15 to 20)
#    0.000    0.500    5.000    4.500    1.750    0.000 
#    0.000    1.875    0.000    0.000    0.000    0.000 
#    0.000    0.000    0.000    0.000    0.000    0.000 
#
# Total GULP energy -89215.374515 kJ/mol
# GULP energy per Si atom -5575.960907 kJ/mol
# Density = 2.429008 g / cm^3
# Si number density = 24.345490 Si / 1000 Ang^3
#
#
#
# Elastic Constant Matrix: (Units=GPa)
#
#
# Indices 1 2 3 4 5 6 
#
# 1 127.6604 40.9253 34.7742 4.0061 -3.6282 -3.8313
# 2 40.9253 58.0963 43.0265 13.5648 0.8597 1.6369
# 3 34.7742 43.0265 134.4456 35.8024 3.9108 -1.1295
# 4 4.0061 13.5648 35.8024 40.5832 -2.5304 -11.8517
# 5 -3.6282 0.8597 3.9108 -2.5304 26.1254 2.7644
# 6 -3.8313 1.6369 -1.1295 -11.8517 2.7644 37.5253
#
#
#
# Elastic Compliance Matrix: (Units=1/GPa)
#
#
# Indices 1 2 3 4 5 6 
#
# 1 0.010567 -0.007348 -0.001316 0.003362 0.001991 0.002275
# 2 -0.007348 0.027864 -0.005797 -0.004567 -0.001142 -0.003498
# 3 -0.001316 -0.005797 0.012234 -0.009568 -0.002501 -0.002351
# 4 0.003362 -0.004567 -0.009568 0.038042 0.004471 0.011940
# 5 0.001991 -0.001142 -0.002501 0.004471 0.039538 -0.001323
# 6 0.002275 -0.003498 -0.002351 0.011940 -0.001323 0.030831
#
#
# Mechanical properties :
#
#
# Convention : Reuss Voigt Hill
#
# Bulk Modulus (GPa) = 45.98863 61.96159 53.97511
# Shear Modulus (GPa) = 25.60889 34.27853 29.94371
#
# Velocity S-wave (km/s) = 3.24681 3.75641 3.51087
# Velocity P-wave (km/s) = 5.74341 6.65735 6.21720
#
# Compressibility (1/GPa) = 0.02174450
#
# Stress axis : x y z
#
# Youngs Moduli (GPa) = 94.63847 35.88898 81.73691
#
# Poissons Ratio (x) = 0.26370 0.10754
# Poissons Ratio (y) = 0.69537 0.47381
# Poissons Ratio (z) = 0.12451 0.20804
#
# Static dielectric constant tensor:
#      x y z
#    x 1.923770 0.020870 0.090430 
#    y 0.020870 2.059020 0.115750 
#    z 0.090430 0.115750 2.285770 
# 
# From -- ./inp_files/556929.got.cif
#   From: 2010.05.17/outbox.cif.g08.bks.cpg/sg2_279_cif.got.tgz:556929.got - 2010.06.03 11:33:40.
