data_PCOD9058182
_publ_section_title
;
Structure prediction by ZEFSAII (Michael W. Deem and Ramdas Pophale) SiO2 
 PCOD9058182
Probable space group: P -1
;
_chemical_formula_sum "Si O2"
_cell_formula_units_Z 16
_cell_length_a 11.213221
_cell_length_b 13.707492
_cell_length_c 9.617927
_cell_angle_alpha 66.411382
_cell_angle_beta 121.570717
_cell_angle_gamma 65.493796
_cell_volume 693.245936
_symmetry_space_group_name_H-M "P -1"
_symmetry_group_IT_number 2
_symmetry_cell_setting 'triclinic'
loop_
_space_group_symop_operation_xyz
x,y,z
-x,-y,-z
loop_
_atom_site_type_symbol
_atom_site_label
_atom_site_fract_x
_atom_site_fract_y
_atom_site_fract_z
Si Si1 0.930750 0.969104 0.205033
Si Si2 0.338119 0.517838 0.302690
Si Si3 0.866078 0.581727 0.725105
Si Si4 0.809758 0.666731 0.185641
Si Si5 0.598281 0.028957 0.788997
Si Si6 0.312475 0.888350 0.734730
Si Si7 0.134676 0.074339 0.250373
Si Si8 0.595294 0.369455 0.253551
O O1 0.147832 0.755695 0.464964
O O2 0.844914 0.041784 0.268896
O O3 0.032952 0.018449 0.183663
O O4 0.729272 0.039750 0.952372
O O5 0.500000 0.500000 0.500000
O O6 0.303119 0.418959 0.389085
O O7 0.433552 0.459065 0.237172
O O8 0.078415 0.720187 0.029110
O O9 0.078429 0.440129 0.829093
O O10 0.681438 0.789941 0.466961
O O11 0.000000 0.500000 0.000000
O O12 0.000000 0.500000 0.500000
O O13 0.730708 0.838953 0.022147
O O14 0.562124 0.767131 0.014724
O O15 0.654216 0.021844 0.665880
O O16 0.363935 0.764616 0.726480
O O17 0.198683 0.041402 0.471263
O O18 0.500000 0.500000 0.000000
#
# Coordination Sequence:
#
# PCOD9058182 Si02
#       8
#     2   2   2   2   2   2   2   2
#     4  11  23  43  70 105 143 188 236 293 373 430
#     4  12  24  42  71 108 144 184 240 301 359 433
#     4  12  27  48  74 108 145 192 245 296 367 438
#     4  12  29  49  71 103 146 196 249 297 357 438
#     4  12  26  47  74 105 146 192 240 303 360 428
#     4  11  25  45  68 101 144 189 242 293 358 439
#     4  11  22  44  73 104 142 184 236 302 368 429
#     4  11  23  40  68 103 141 183 235 299 360 423
#
# _framework density 23.079832
#
# number of rings (size 3 to 8) (size 9 to 14) (size 15 to 20)
#    0.000    0.500    1.250    8.625    3.500    3.000 
#    0.000    0.000    0.000    0.000    0.000    0.000 
#    0.000    0.000    0.000    0.000    0.000    0.000 
#
# Total GULP energy -89414.408631 kJ/mol
# GULP energy per Si atom -5588.400539 kJ/mol
# Density = 2.302730 g / cm^3
# Si number density = 23.079832 Si / 1000 Ang^3
#
#
#
# Elastic Constant Matrix: (Units=GPa)
#
#
# Indices 1 2 3 4 5 6 
#
# 1 55.4030 17.4162 -1.7770 -8.9415 -1.2427 -2.4172
# 2 17.4162 66.2645 0.7063 -19.8544 -8.4347 -4.8007
# 3 -1.7770 0.7063 115.0407 -29.9027 -3.9053 25.5631
# 4 -8.9415 -19.8544 -29.9027 35.4583 -3.0392 -4.3127
# 5 -1.2427 -8.4347 -3.9053 -3.0392 37.0667 -0.2884
# 6 -2.4172 -4.8007 25.5631 -4.3127 -0.2884 30.5327
#
#
#
# Elastic Compliance Matrix: (Units=1/GPa)
#
#
# Indices 1 2 3 4 5 6 
#
# 1 0.020017 -0.004041 0.001260 0.003921 0.000209 0.000450
# 2 -0.004041 0.021474 0.003274 0.014604 0.006312 0.002437
# 3 0.001260 0.003274 0.014413 0.013433 0.003333 -0.009524
# 4 0.003921 0.014604 0.013433 0.049265 0.008897 -0.001598
# 5 0.000209 0.006312 0.003333 0.008897 0.029501 -0.000246
# 6 0.000450 0.002437 -0.009524 -0.001598 -0.000246 0.040916
#
#
# Mechanical properties :
#
#
# Convention : Reuss Voigt Hill
#
# Bulk Modulus (GPa) = 17.57699 29.93325 23.75512
# Shear Modulus (GPa) = 25.83154 35.30241 30.56697
#
# Velocity S-wave (km/s) = 3.34911 3.91522 3.64318
# Velocity P-wave (km/s) = 4.75265 5.78241 5.29263
#
# Compressibility (1/GPa) = 0.05689257
#
# Stress axis : x y z
#
# Youngs Moduli (GPa) = 49.95699 46.56814 69.38131
#
# Poissons Ratio (x) = 0.18816 -0.08744
# Poissons Ratio (y) = 0.20185 -0.22719
# Poissons Ratio (z) = -0.06296 -0.15249
#
# Static dielectric constant tensor:
#      x y z
#    x 2.376170 0.449660 -0.659890 
#    y 0.449660 2.224280 -0.520840 
#    z -0.659890 -0.520840 2.742280 
# 
# From -- ./inp_files/272691.got.cif
#   From: 2010.05.17/outbox.cif.g08.bks.cpg/sg2_137_cif.got.tgz:272691.got - 2010.06.03 11:33:40.
