data_PCOD9058263
_publ_section_title
;
Structure prediction by ZEFSAII (Michael W. Deem and Ramdas Pophale) SiO2 
 PCOD9058263
Probable space group: P -1
;
_chemical_formula_sum "Si O2"
_cell_formula_units_Z 16
_cell_length_a 10.199702
_cell_length_b 9.394559
_cell_length_c 10.900847
_cell_angle_alpha 79.127569
_cell_angle_beta 92.081439
_cell_angle_gamma 136.323972
_cell_volume 700.629106
_symmetry_space_group_name_H-M "P -1"
_symmetry_group_IT_number 2
_symmetry_cell_setting 'triclinic'
loop_
_space_group_symop_operation_xyz
x,y,z
-x,-y,-z
loop_
_atom_site_type_symbol
_atom_site_label
_atom_site_fract_x
_atom_site_fract_y
_atom_site_fract_z
Si Si1 0.534535 0.895255 0.922245
Si Si2 0.738703 0.958879 0.698060
Si Si3 0.749555 0.636383 0.751881
Si Si4 0.141550 0.994185 0.959800
Si Si5 0.527472 0.190604 0.500277
Si Si6 0.139100 0.328294 0.521346
Si Si7 0.340003 0.226228 0.688379
Si Si8 0.869547 0.533807 0.001835
O O1 0.665747 0.016416 0.786592
O O2 0.328257 0.671390 0.909443
O O3 0.500000 0.000000 0.000000
O O4 0.648101 0.860163 0.002341
O O5 0.767666 0.817083 0.769245
O O6 0.570602 0.808791 0.617500
O O7 0.932248 0.163894 0.604074
O O8 0.870379 0.711028 0.618236
O O9 0.530412 0.432822 0.733052
O O10 0.808758 0.568581 0.869048
O O11 0.017832 0.757541 0.036292
O O12 0.182034 0.047158 0.809100
O O13 0.000000 0.000000 0.000000
O O14 0.739145 0.427059 0.490183
O O15 0.407378 0.145903 0.621411
O O16 0.500000 0.000000 0.500000
O O17 0.258290 0.290685 0.591917
O O18 0.000000 0.500000 0.000000
#
# Coordination Sequence:
#
# PCOD9058263 Si02
#       8
#     2   2   2   2   2   2   2   2
#     4  12  28  50  68 105 153 195 248 304 369 436
#     4  12  26  45  78 106 145 195 251 300 366 452
#     4  11  22  44  79 108 145 191 248 307 366 442
#     4  12  27  46  75 111 146 195 254 304 366 443
#     4  11  26  44  70 112 149 191 236 301 375 438
#     4  11  23  47  75 112 144 184 243 304 366 442
#     4  11  22  46  77 105 151 187 239 310 364 436
#     4  12  27  47  75 104 144 203 247 303 375 433
#
# _framework density 22.836618000000001
#
# number of rings (size 3 to 8) (size 9 to 14) (size 15 to 20)
#    0.000    0.500    5.000    3.375    5.250    2.500 
#    2.250    0.000    0.000    0.000    0.000    0.000 
#    0.000    0.000    0.000    0.000    0.000    0.000 
#
# Total GULP energy -89434.307806 kJ/mol
# GULP energy per Si atom -5589.644238 kJ/mol
# Density = 2.278464 g / cm^3
# Si number density = 22.836618 Si / 1000 Ang^3
#
#
#
# Elastic Constant Matrix: (Units=GPa)
#
#
# Indices 1 2 3 4 5 6 
#
# 1 121.8707 42.0394 28.8507 -6.5962 -24.5843 -2.5828
# 2 42.0394 91.0255 11.3578 -8.5539 -35.6786 -9.5977
# 3 28.8507 11.3578 75.8129 -4.2406 -37.7101 18.0929
# 4 -6.5962 -8.5539 -4.2406 27.4949 7.6675 2.0322
# 5 -24.5843 -35.6786 -37.7101 7.6675 53.5522 5.2058
# 6 -2.5828 -9.5977 18.0929 2.0322 5.2058 42.0578
#
#
#
# Elastic Compliance Matrix: (Units=1/GPa)
#
#
# Indices 1 2 3 4 5 6 
#
# 1 0.010669 -0.004823 -0.004634 0.000732 -0.001853 0.001742
# 2 -0.004823 0.018044 0.006493 0.001548 0.014237 -0.000809
# 3 -0.004634 0.006493 0.029649 -0.000283 0.024535 -0.014580
# 4 0.000732 0.001548 -0.000283 0.038222 -0.004227 -0.000804
# 5 -0.001853 0.014237 0.024535 -0.004227 0.046450 -0.012965
# 6 0.001742 -0.000809 -0.014580 -0.000804 -0.012965 0.031615
#
#
# Mechanical properties :
#
#
# Convention : Reuss Voigt Hill
#
# Bulk Modulus (GPa) = 19.07141 50.35609 34.71375
# Shear Modulus (GPa) = 25.24579 38.38504 31.81542
#
# Velocity S-wave (km/s) = 3.32851 4.10427 3.73658
# Velocity P-wave (km/s) = 4.81054 6.67522 5.81807
#
# Compressibility (1/GPa) = 0.05243451
#
# Stress axis : x y z
#
# Youngs Moduli (GPa) = 93.73082 55.42158 33.72848
#
# Poissons Ratio (x) = 0.26729 0.15629
# Poissons Ratio (y) = 0.45204 -0.21901
# Poissons Ratio (z) = 0.43432 -0.35987
#
# Static dielectric constant tensor:
#      x y z
#    x 1.805350 -0.013890 0.032870 
#    y -0.013890 1.646630 0.126560 
#    z 0.032870 0.126560 1.838190 
# 
# From -- ./inp_files/188156.got.cif
#   From: 2010.05.17/outbox.cif.g08.bks.cpg/sg2_95_cif.got.tgz:188156.got - 2010.06.03 11:33:40.
