data_PCOD9058194
_publ_section_title
;
Structure prediction by ZEFSAII (Michael W. Deem and Ramdas Pophale) SiO2 
 PCOD9058194
Probable space group: P -1
;
_chemical_formula_sum "Si O2"
_cell_formula_units_Z 10
_cell_length_a 9.153689
_cell_length_b 11.290585
_cell_length_c 11.676820
_cell_angle_alpha 145.785905
_cell_angle_beta 45.519892
_cell_angle_gamma 111.751823
_cell_volume 413.401258
_symmetry_space_group_name_H-M "P -1"
_symmetry_group_IT_number 2
_symmetry_cell_setting 'triclinic'
loop_
_space_group_symop_operation_xyz
x,y,z
-x,-y,-z
loop_
_atom_site_type_symbol
_atom_site_label
_atom_site_fract_x
_atom_site_fract_y
_atom_site_fract_z
Si Si1 0.196429 0.256111 0.134750
Si Si2 0.233949 0.053381 0.714388
Si Si3 0.522472 0.178650 0.218290
Si Si4 0.516757 0.496336 0.851137
Si Si5 0.776930 0.410695 0.127559
O O1 0.421941 0.295043 0.042392
O O2 0.000000 0.500000 0.500000
O O3 0.132081 0.233712 0.023041
O O4 0.266981 0.005322 0.959126
O O5 0.500000 0.000000 0.500000
O O6 0.274900 0.787632 0.512426
O O7 0.047664 0.192500 0.825960
O O8 0.603267 0.329961 0.216939
O O9 0.298660 0.347799 0.560323
O O10 0.500000 0.000000 0.000000
O O11 0.299556 0.538214 0.922222
O O12 0.500000 0.500000 0.000000
#
# Coordination Sequence:
#
# PCOD9058194 Si02
#       5
#     2   2   2   2   2
#     4  12  25  45  75 108 149 189 243 304 366 433
#     4  12  27  49  69 107 152 195 241 303 364 435
#     4  11  22  44  73 111 143 184 243 308 367 425
#     4  12  26  49  71 108 145 192 248 295 366 437
#     4  11  26  44  76 106 145 191 247 297 363 440
#
# _framework density 24.189571999999998
#
# number of rings (size 3 to 8) (size 9 to 14) (size 15 to 20)
#    0.000    0.400    6.000    2.400    2.800    3.200 
#    0.000    0.000    0.000    0.000    0.000    0.000 
#    0.000    0.000    0.000    0.000    0.000    0.000 
#
# Total GULP energy -55933.453269 kJ/mol
# GULP energy per Si atom -5593.345327 kJ/mol
# Density = 2.413452 g / cm^3
# Si number density = 24.189572 Si / 1000 Ang^3
#
#
#
# Elastic Constant Matrix: (Units=GPa)
#
#
# Indices 1 2 3 4 5 6 
#
# 1 158.5148 16.5281 51.1451 -5.1161 0.2150 -46.4957
# 2 16.5281 47.3171 -4.8390 1.9297 11.0018 -21.7788
# 3 51.1451 -4.8390 97.5514 8.3492 11.1901 -23.9333
# 4 -5.1161 1.9297 8.3492 34.0896 -4.8821 2.8252
# 5 0.2150 11.0018 11.1901 -4.8821 53.1267 11.0181
# 6 -46.4957 -21.7788 -23.9333 2.8252 11.0181 44.9345
#
#
#
# Elastic Compliance Matrix: (Units=1/GPa)
#
#
# Indices 1 2 3 4 5 6 
#
# 1 0.009947 0.001034 -0.002696 0.001063 -0.001597 0.009683
# 2 0.001034 0.043324 0.013434 -0.011352 -0.020079 0.034861
# 3 -0.002696 0.013434 0.018436 -0.008634 -0.010924 0.016762
# 4 0.001063 -0.011352 -0.008634 0.034848 0.010208 -0.013694
# 5 -0.001597 -0.020079 -0.010924 0.010208 0.031531 -0.025576
# 6 0.009683 0.034861 0.016762 -0.013694 -0.025576 0.065231
#
#
# Mechanical properties :
#
#
# Convention : Reuss Voigt Hill
#
# Bulk Modulus (GPa) = 10.49847 47.67240 29.08544
# Shear Modulus (GPa) = 23.63827 42.46678 33.05252
#
# Velocity S-wave (km/s) = 3.12943 4.19451 3.70049
# Velocity P-wave (km/s) = 4.17220 6.57337 5.50529
#
# Compressibility (1/GPa) = 0.09525193
#
# Stress axis : x y z
#
# Youngs Moduli (GPa) = 100.52946 23.08203 54.24313
#
# Poissons Ratio (x) = -0.02388 0.14625
# Poissons Ratio (y) = -0.10399 -0.72873
# Poissons Ratio (z) = 0.27104 -0.31009
#
# Static dielectric constant tensor:
#      x y z
#    x 1.985670 0.007000 0.004000 
#    y 0.007000 2.021110 -0.011660 
#    z 0.004000 -0.011660 1.923450 
# 
# From -- ./inp_files/16612.got.cif
#   From: 2010.05.17/outbox.cif.g08.bks.cpg/sg2_9_cif.got.tgz:16612.got - 2010.06.03 11:33:40.
