data_PCOD9058943
_publ_section_title
;
Structure prediction by ZEFSAII (Michael W. Deem and Ramdas Pophale) SiO2 
 PCOD9058943
Probable space group: P -1
;
_chemical_formula_sum "Si O2"
_cell_formula_units_Z 14
_cell_length_a 8.314218
_cell_length_b 13.433349
_cell_length_c 13.753120
_cell_angle_alpha 148.214587
_cell_angle_beta 99.891632
_cell_angle_gamma 59.517379
_cell_volume 572.191624
_symmetry_space_group_name_H-M "P -1"
_symmetry_group_IT_number 2
_symmetry_cell_setting 'triclinic'
loop_
_space_group_symop_operation_xyz
x,y,z
-x,-y,-z
loop_
_atom_site_type_symbol
_atom_site_label
_atom_site_fract_x
_atom_site_fract_y
_atom_site_fract_z
Si Si1 0.953832 0.396003 0.199724
Si Si2 0.052193 0.145663 0.565124
Si Si3 0.428007 0.882316 0.827772
Si Si4 0.242766 0.650111 0.683929
Si Si5 0.452632 0.300128 0.730440
Si Si6 0.585358 0.628902 0.986508
Si Si7 0.104983 0.152314 0.353907
O O1 0.872080 0.301131 0.186147
O O2 0.756702 0.595989 0.269279
O O3 0.977093 0.567133 0.407103
O O4 0.191565 0.136881 0.966658
O O5 0.073605 0.085837 0.402640
O O6 0.305251 0.000903 0.505340
O O7 0.000000 0.000000 0.500000
O O8 0.829897 0.452450 0.814383
O O9 0.381461 0.733146 0.765369
O O10 0.599161 0.657759 0.580787
O O11 0.500000 0.000000 0.000000
O O12 0.056258 0.804941 0.707887
O O13 0.390438 0.350489 0.879209
O O14 0.505310 0.473890 0.846715
O O15 0.372752 0.919459 0.165141
#
# Coordination Sequence:
#
# PCOD9058943 Si02
#       7
#     2   2   2   2   2   2   2
#     4  12  25  43  66 100 141 181 225 279 336 413
#     4   9  20  38  64  93 129 173 224 284 332 398
#     4  11  25  45  68  99 133 178 235 277 326 406
#     4  11  26  46  70  99 142 185 219 280 344 398
#     4   9  20  39  61  93 125 173 226 273 334 402
#     4   9  19  38  65  90 126 173 224 279 337 392
#     4  11  23  39  64  99 132 179 227 272 333 411
#
# _framework density 24.467328999999999
#
# number of rings (size 3 to 8) (size 9 to 14) (size 15 to 20)
#    0.000    1.714    1.429    2.571    0.000   10.286 
#    0.000    1.429    0.000    0.000    0.000    0.000 
#    0.000    0.000    0.000    0.000    0.000    0.000 
#
# Total GULP energy -78398.460308 kJ/mol
# GULP energy per Si atom -5599.890022 kJ/mol
# Density = 2.441164 g / cm^3
# Si number density = 24.467329 Si / 1000 Ang^3
#
#
#
# Elastic Constant Matrix: (Units=GPa)
#
#
# Indices 1 2 3 4 5 6 
#
# 1 65.1461 48.3813 50.4591 1.1014 0.2083 -13.5930
# 2 48.3813 91.8115 36.5399 15.7599 -15.5870 -14.7662
# 3 50.4591 36.5399 182.3758 24.5488 -23.9513 -26.3378
# 4 1.1014 15.7599 24.5488 31.2216 -12.8333 1.2623
# 5 0.2083 -15.5870 -23.9513 -12.8333 65.9651 8.8493
# 6 -13.5930 -14.7662 -26.3378 1.2623 8.8493 36.5883
#
#
#
# Elastic Compliance Matrix: (Units=1/GPa)
#
#
# Indices 1 2 3 4 5 6 
#
# 1 0.035215 -0.018127 -0.008366 0.012367 -0.005100 0.000552
# 2 -0.018127 0.022509 0.003190 -0.011894 0.003661 0.004171
# 3 -0.008366 0.003190 0.009133 -0.007878 0.001953 0.004553
# 4 0.012367 -0.011894 -0.007878 0.045931 0.004368 -0.008517
# 5 -0.005100 0.003661 0.001953 0.004368 0.018074 -0.003534
# 6 0.000552 0.004171 0.004553 -0.008517 -0.003534 0.033645
#
#
# Mechanical properties :
#
#
# Convention : Reuss Voigt Hill
#
# Bulk Modulus (GPa) = 49.38406 67.78821 58.58613
# Shear Modulus (GPa) = 22.95012 40.35185 31.65099
#
# Velocity S-wave (km/s) = 3.06599 4.06546 3.60057
# Velocity P-wave (km/s) = 5.72374 7.05712 6.42511
#
# Compressibility (1/GPa) = 0.02024945
#
# Stress axis : x y z
#
# Youngs Moduli (GPa) = 28.39713 44.42702 109.49106
#
# Poissons Ratio (x) = 0.80535 0.91601
# Poissons Ratio (y) = 0.51477 -0.34925
# Poissons Ratio (z) = 0.23757 -0.14171
#
# Static dielectric constant tensor:
#      x y z
#    x 1.977480 -0.006910 0.010930 
#    y -0.006910 1.875190 0.039080 
#    z 0.010930 0.039080 1.978930 
# 
# From -- ./inp_files/505882.got.cif
#   From: 2010.05.17/outbox.cif.g08.bks.cpg/sg2_253_cif.got.tgz:505882.got - 2010.06.03 11:33:40.
