data_PCOD9058632
_publ_section_title
;
Structure prediction by ZEFSAII (Michael W. Deem and Ramdas Pophale) SiO2 
 PCOD9058632
Probable space group: P -1
;
_chemical_formula_sum "Si O2"
_cell_formula_units_Z 12
_cell_length_a 8.904891
_cell_length_b 14.034596
_cell_length_c 14.143808
_cell_angle_alpha 21.173059
_cell_angle_beta 82.956357
_cell_angle_gamma 93.742664
_cell_volume 548.338672
_symmetry_space_group_name_H-M "P -1"
_symmetry_group_IT_number 2
_symmetry_cell_setting 'triclinic'
loop_
_space_group_symop_operation_xyz
x,y,z
-x,-y,-z
loop_
_atom_site_type_symbol
_atom_site_label
_atom_site_fract_x
_atom_site_fract_y
_atom_site_fract_z
Si Si1 0.700071 0.788972 0.985688
Si Si2 0.294808 0.930242 0.774086
Si Si3 0.149188 0.318034 0.736675
Si Si4 0.015839 0.412713 0.384413
Si Si5 0.353821 0.444868 0.421118
Si Si6 0.548455 0.507784 0.880855
O O1 0.789454 0.710538 0.137057
O O2 0.526184 0.744713 0.094195
O O3 0.616346 0.578371 0.095748
O O4 0.849852 0.111768 0.638096
O O5 0.372758 0.159147 0.647383
O O6 0.311926 0.154320 0.480012
O O7 0.100679 0.682850 0.051666
O O8 0.389711 0.739459 0.915177
O O9 0.307826 0.445992 0.532448
O O10 0.059338 0.516295 0.581402
O O11 0.000000 0.000000 0.000000
O O12 0.181608 0.390968 0.428101
O O13 0.500000 0.500000 0.000000
#
# Coordination Sequence:
#
# PCOD9058632 Si02
#       6
#     2   2   2   2   2   2
#     4  11  26  42  71 104 142 191 243 293 352 421
#     4  11  22  46  76 101 144 183 229 305 353 418
#     4  12  24  40  67 105 152 196 236 283 346 427
#     4  12  23  43  69 103 154 187 238 290 349 414
#     4  11  24  45  67 105 149 195 235 287 350 421
#     4  11  26  50  78 105 137 185 240 303 366 422
#
# _framework density 21.884284999999998
#
# number of rings (size 3 to 8) (size 9 to 14) (size 15 to 20)
#    0.000    0.667    6.667    1.500    4.667    0.667 
#    0.000    1.667    0.000    0.000    0.000    0.000 
#    0.000    0.000    0.000    0.000    0.000    0.000 
#
# Total GULP energy -66959.685060 kJ/mol
# GULP energy per Si atom -5579.973755 kJ/mol
# Density = 2.183448 g / cm^3
# Si number density = 21.884285 Si / 1000 Ang^3
#
#
#
# Elastic Constant Matrix: (Units=GPa)
#
#
# Indices 1 2 3 4 5 6 
#
# 1 100.8235 45.5881 46.0627 -3.5211 -8.8853 -10.6786
# 2 45.5881 139.5580 38.5968 33.9311 5.4903 -6.2770
# 3 46.0627 38.5968 136.5173 25.0950 -13.7725 0.3360
# 4 -3.5211 33.9311 25.0950 35.7132 -4.0990 2.7118
# 5 -8.8853 5.4903 -13.7725 -4.0990 42.0627 -12.3171
# 6 -10.6786 -6.2770 0.3360 2.7118 -12.3171 35.1925
#
#
#
# Elastic Compliance Matrix: (Units=1/GPa)
#
#
# Indices 1 2 3 4 5 6 
#
# 1 0.017088 -0.007097 -0.005539 0.012566 0.005378 0.004886
# 2 -0.007097 0.012780 0.000911 -0.013954 -0.004323 -0.000320
# 3 -0.005539 0.000911 0.010662 -0.008727 0.001197 -0.000528
# 4 0.012566 -0.013954 -0.008727 0.049375 0.006382 -0.000164
# 5 0.005378 -0.004323 0.001197 0.006382 0.029630 0.010728
# 6 0.004886 -0.000320 -0.000528 -0.000164 0.010728 0.033613
#
#
# Mechanical properties :
#
#
# Convention : Reuss Voigt Hill
#
# Bulk Modulus (GPa) = 58.54227 70.82155 64.68191
# Shear Modulus (GPa) = 27.42868 39.03709 33.23288
#
# Velocity S-wave (km/s) = 3.54411 4.22808 3.90111
# Velocity P-wave (km/s) = 6.59974 7.50118 7.06485
#
# Compressibility (1/GPa) = 0.01708167
#
# Stress axis : x y z
#
# Youngs Moduli (GPa) = 58.52048 78.24572 93.78696
#
# Poissons Ratio (x) = 0.55533 0.51944
# Poissons Ratio (y) = 0.41533 -0.08546
# Poissons Ratio (z) = 0.32412 -0.07130
#
# Static dielectric constant tensor:
#      x y z
#    x 1.897930 0.062630 -0.014680 
#    y 0.062630 1.916480 -0.147970 
#    z -0.014680 -0.147970 2.043470 
# 
# From -- ./inp_files/32313.got.cif
#   From: 2010.05.17/outbox.cif.g08.bks.cpg/sg2_17_cif.got.tgz:32313.got - 2010.06.03 11:33:40.
