data_PCOD9058666
_publ_section_title
;
Structure prediction by ZEFSAII (Michael W. Deem and Ramdas Pophale) SiO2 
 PCOD9058666
Probable space group: P -1
;
_chemical_formula_sum "Si O2"
_cell_formula_units_Z 16
_cell_length_a 9.016879
_cell_length_b 8.938144
_cell_length_c 23.246442
_cell_angle_alpha 124.473714
_cell_angle_beta 151.847310
_cell_angle_gamma 49.761119
_cell_volume 674.755560
_symmetry_space_group_name_H-M "P -1"
_symmetry_group_IT_number 2
_symmetry_cell_setting 'triclinic'
loop_
_space_group_symop_operation_xyz
x,y,z
-x,-y,-z
loop_
_atom_site_type_symbol
_atom_site_label
_atom_site_fract_x
_atom_site_fract_y
_atom_site_fract_z
Si Si1 0.147023 0.589059 0.120982
Si Si2 0.783022 0.407361 0.639938
Si Si3 0.088359 0.651542 0.522423
Si Si4 0.328946 0.232651 0.393164
Si Si5 0.304395 0.060234 0.139561
Si Si6 0.781740 0.207086 0.287053
Si Si7 0.480621 0.888018 0.282232
Si Si8 0.862202 0.509121 0.118387
O O1 0.513019 0.424226 0.226923
O O2 0.208756 0.785052 0.171430
O O3 0.905306 0.614341 0.098222
O O4 0.000000 0.500000 0.000000
O O5 0.438912 0.538070 0.585437
O O6 0.675935 0.237471 0.540076
O O7 0.843255 0.545307 0.641495
O O8 0.060134 0.379603 0.776972
O O9 0.117745 0.798423 0.612913
O O10 0.000000 0.500000 0.500000
O O11 0.809892 0.755888 0.402131
O O12 0.104581 0.173427 0.350054
O O13 0.372502 0.092687 0.323452
O O14 0.557834 0.073667 0.179108
O O15 0.124700 0.283149 0.151370
O O16 0.505084 0.923753 0.231000
O O17 0.000000 0.000000 0.000000
O O18 0.500000 0.500000 0.000000
#
# Coordination Sequence:
#
# PCOD9058666 Si02
#       8
#     2   2   2   2   2   2   2   2
#     4  11  24  43  72  99 131 193 241 281 346 431
#     4  11  22  47  66 102 145 183 232 276 368 422
#     4  12  21  45  73  97 139 188 225 285 350 423
#     4  11  25  40  71 105 141 178 223 300 348 418
#     4  11  25  49  68 104 138 183 238 295 337 420
#     4  11  23  45  69  97 144 183 230 279 366 415
#     4  12  24  44  74 108 137 177 241 292 352 410
#     4  11  24  47  70  94 140 189 227 288 357 412
#
# _framework density 23.712289999999999
#
# number of rings (size 3 to 8) (size 9 to 14) (size 15 to 20)
#    0.000    0.750    6.250    1.500    1.750    3.500 
#    6.750    1.875    0.000    0.000    0.000    0.000 
#    0.000    0.000    0.000    0.000    0.000    0.000 
#
# Total GULP energy -89556.510191 kJ/mol
# GULP energy per Si atom -5597.281887 kJ/mol
# Density = 2.365832 g / cm^3
# Si number density = 23.712290 Si / 1000 Ang^3
#
#
#
# Elastic Constant Matrix: (Units=GPa)
#
#
# Indices 1 2 3 4 5 6 
#
# 1 126.2060 27.2668 61.6355 14.7932 -1.2043 25.5400
# 2 27.2668 83.8662 30.1684 21.0302 2.8341 14.4154
# 3 61.6355 30.1684 169.2824 32.8622 -7.6121 15.4717
# 4 14.7932 21.0302 32.8622 47.0460 3.2024 -0.4693
# 5 -1.2043 2.8341 -7.6121 3.2024 47.9344 13.4176
# 6 25.5400 14.4154 15.4717 -0.4693 13.4176 37.2128
#
#
#
# Elastic Compliance Matrix: (Units=1/GPa)
#
#
# Indices 1 2 3 4 5 6 
#
# 1 0.011094 -0.001207 -0.002929 -0.001092 0.001803 -0.006593
# 2 -0.001207 0.014858 -0.000545 -0.005988 0.000825 -0.005073
# 3 -0.002929 -0.000545 0.008288 -0.004794 0.002174 -0.002069
# 4 -0.001092 -0.005988 -0.004794 0.027983 -0.004249 0.006947
# 5 0.001803 0.000825 0.002174 -0.004249 0.024683 -0.011414
# 6 -0.006593 -0.005073 -0.002069 0.006947 -0.011414 0.038426
#
#
# Mechanical properties :
#
#
# Convention : Reuss Voigt Hill
#
# Bulk Modulus (GPa) = 40.19609 68.61067 54.40338
# Shear Modulus (GPa) = 34.96835 43.79089 39.37962
#
# Velocity S-wave (km/s) = 3.84434 4.30206 4.07962
# Velocity P-wave (km/s) = 6.05753 7.32628 6.72191
#
# Compressibility (1/GPa) = 0.02487804
#
# Stress axis : x y z
#
# Youngs Moduli (GPa) = 90.13915 67.30322 120.65410
#
# Poissons Ratio (x) = 0.08127 0.35334
# Poissons Ratio (y) = 0.10884 0.06576
# Poissons Ratio (z) = 0.26398 0.03668
#
# Static dielectric constant tensor:
#      x y z
#    x 1.880640 -0.028980 0.025970 
#    y -0.028980 1.983430 -0.020330 
#    z 0.025970 -0.020330 1.947700 
# 
# From -- ./inp_files/606454.got.cif
#   From: 2010.05.17/outbox.cif.g08.bks.cpg/sg2_304_cif.got.tgz:606454.got - 2010.06.03 11:33:40.
