data_PCOD9058112
_publ_section_title
;
Structure prediction by ZEFSAII (Michael W. Deem and Ramdas Pophale) SiO2 
 PCOD9058112
Probable space group: P -1
;
_chemical_formula_sum "Si O2"
_cell_formula_units_Z 14
_cell_length_a 27.249205
_cell_length_b 13.083296
_cell_length_c 8.932157
_cell_angle_alpha 34.964985
_cell_angle_beta 144.788401
_cell_angle_gamma 159.765073
_cell_volume 612.309229
_symmetry_space_group_name_H-M "P -1"
_symmetry_group_IT_number 2
_symmetry_cell_setting 'triclinic'
loop_
_space_group_symop_operation_xyz
x,y,z
-x,-y,-z
loop_
_atom_site_type_symbol
_atom_site_label
_atom_site_fract_x
_atom_site_fract_y
_atom_site_fract_z
Si Si1 0.662875 0.812210 0.331425
Si Si2 0.918831 0.702381 0.066011
Si Si3 0.130937 0.197137 0.473358
Si Si4 0.349182 0.451313 0.943559
Si Si5 0.844756 0.158006 0.650115
Si Si6 0.358214 0.637443 0.064132
Si Si7 0.943368 0.305364 0.242046
O O1 0.508151 0.632650 0.115860
O O2 0.647526 0.569256 0.617132
O O3 0.719918 0.989346 0.419721
O O4 0.785542 0.077080 0.197738
O O5 0.865082 0.646834 0.829000
O O6 0.769833 0.454915 0.084026
O O7 0.040858 0.762348 0.259205
O O8 0.000000 0.000000 0.000000
O O9 0.080141 0.937759 0.567700
O O10 0.284423 0.434205 0.655915
O O11 0.000000 0.000000 0.500000
O O12 0.341200 0.561912 0.937239
O O13 0.232337 0.097900 0.112921
O O14 0.934334 0.450690 0.620481
O O15 0.500000 0.000000 0.000000
O O16 0.000000 0.500000 0.000000
#
# Coordination Sequence:
#
# PCOD9058112 Si02
#       7
#     2   2   2   2   2   2   2
#     4  11  25  47  69 100 150 183 229 295 354 414
#     4  12  21  44  74  99 137 186 239 296 345 402
#     4  12  23  47  73  98 142 182 234 295 356 407
#     4  11  24  47  68 103 147 186 226 298 358 419
#     4  11  22  44  71 106 135 184 243 287 347 425
#     4  11  24  45  70 105 136 187 240 284 349 418
#     4  12  24  44  72 107 136 186 238 287 351 426
#
# _framework density 22.864265
#
# number of rings (size 3 to 8) (size 9 to 14) (size 15 to 20)
#    0.000    0.571    7.143    2.143    2.000    0.571 
#   10.286    0.714    0.000    0.000    0.000    0.000 
#    0.000    0.000    0.000    0.000    0.000    0.000 
#
# Total GULP energy -78215.669096 kJ/mol
# GULP energy per Si atom -5586.833507 kJ/mol
# Density = 2.281223 g / cm^3
# Si number density = 22.864265 Si / 1000 Ang^3
#
#
#
# Elastic Constant Matrix: (Units=GPa)
#
#
# Indices 1 2 3 4 5 6 
#
# 1 80.3745 46.1426 18.7957 7.4350 2.4678 8.5285
# 2 46.1426 157.8102 45.1008 21.0509 6.4232 10.4203
# 3 18.7957 45.1008 99.4699 28.7169 -5.5455 8.8083
# 4 7.4350 21.0509 28.7169 38.7482 4.6387 -1.5984
# 5 2.4678 6.4232 -5.5455 4.6387 35.7742 -4.2161
# 6 8.5285 10.4203 8.8083 -1.5984 -4.2161 43.5497
#
#
#
# Elastic Compliance Matrix: (Units=1/GPa)
#
#
# Indices 1 2 3 4 5 6 
#
# 1 0.015190 -0.004024 -0.000899 -0.000060 -0.000681 -0.001898
# 2 -0.004024 0.008635 -0.002630 -0.001823 -0.001558 -0.000964
# 3 -0.000899 -0.002630 0.014648 -0.009801 0.003823 -0.002147
# 4 -0.000060 -0.001823 -0.009801 0.034843 -0.005329 0.003193
# 5 -0.000681 -0.001558 0.003823 -0.005329 0.029849 0.002427
# 6 -0.001898 -0.000964 -0.002147 0.003193 0.002427 0.024351
#
#
# Mechanical properties :
#
#
# Convention : Reuss Voigt Hill
#
# Bulk Modulus (GPa) = 42.79204 61.97030 52.38117
# Shear Modulus (GPa) = 33.24231 38.78878 36.01555
#
# Velocity S-wave (km/s) = 3.81714 4.12330 3.97317
# Velocity P-wave (km/s) = 6.17930 7.05912 6.63381
#
# Compressibility (1/GPa) = 0.02336883
#
# Stress axis : x y z
#
# Youngs Moduli (GPa) = 65.83442 115.80626 68.26681
#
# Poissons Ratio (x) = 0.46595 0.06134
# Poissons Ratio (y) = 0.26489 0.17955
# Poissons Ratio (z) = 0.05915 0.30458
#
# Static dielectric constant tensor:
#      x y z
#    x 1.882630 0.034320 -0.037550 
#    y 0.034320 1.852450 -0.115660 
#    z -0.037550 -0.115660 2.296650 
# 
# From -- ./inp_files/183224.got.cif
#   From: 2010.05.17/outbox.cif.g08.bks.cpg/sg2_92_cif.got.tgz:183224.got - 2010.06.03 11:33:40.
