data_PCOD9058184
_publ_section_title
;
Structure prediction by ZEFSAII (Michael W. Deem and Ramdas Pophale) SiO2 
 PCOD9058184
Probable space group: P -1
;
_chemical_formula_sum "Si O2"
_cell_formula_units_Z 13
_cell_length_a 7.619335
_cell_length_b 11.087775
_cell_length_c 8.685803
_cell_angle_alpha 80.501573
_cell_angle_beta 129.477803
_cell_angle_gamma 78.534440
_cell_volume 512.250996
_symmetry_space_group_name_H-M "P -1"
_symmetry_group_IT_number 2
_symmetry_cell_setting 'triclinic'
loop_
_space_group_symop_operation_xyz
x,y,z
-x,-y,-z
loop_
_atom_site_type_symbol
_atom_site_label
_atom_site_fract_x
_atom_site_fract_y
_atom_site_fract_z
Si Si1 0.760137 0.394256 0.111501
Si Si2 0.500000 0.000000 0.000000
Si Si3 0.075987 0.547001 0.226630
Si Si4 0.194920 0.781618 0.089927
Si Si5 0.010286 0.271737 0.585987
Si Si6 0.489044 0.723946 0.543196
Si Si7 0.344483 0.079934 0.251804
O O1 0.957349 0.314991 0.369562
O O2 0.882989 0.485011 0.076639
O O3 0.500000 0.500000 0.000000
O O4 0.704773 0.285534 0.002525
O O5 0.753709 0.863595 0.218506
O O6 0.442906 0.039087 0.144049
O O7 0.117337 0.671196 0.150885
O O8 0.984691 0.606011 0.334395
O O9 0.340062 0.423082 0.387964
O O10 0.386054 0.802170 0.308012
O O11 0.938259 0.904253 0.894093
O O12 0.755023 0.260457 0.500857
O O13 0.645354 0.777915 0.728529
O O14 0.500000 0.000000 0.500000
#
# Coordination Sequence:
#
# PCOD9058184 Si02
#       7
#     2   1   2   2   2   2   2
#     4  12  24  39  71 116 149 188 246 314 380 446
#     4  12  26  50  72 106 156 196 254 304 368 444
#     4  11  22  44  73 104 150 186 238 312 372 446
#     4  11  23  46  69 107 143 194 240 298 382 444
#     4  11  25  45  70 112 148 193 250 305 377 448
#     4  11  24  47  76 102 143 194 242 307 381 442
#     4  12  27  50  74 104 149 199 254 303 369 452
#
# _framework density 25.378185999999999
#
# number of rings (size 3 to 8) (size 9 to 14) (size 15 to 20)
#    0.000    0.615    4.615    5.538    2.154    1.231 
#    2.769    0.000    0.000    0.000    0.000    0.000 
#    0.000    0.000    0.000    0.000    0.000    0.000 
#
# Total GULP energy -72479.544603 kJ/mol
# GULP energy per Si atom -5575.349585 kJ/mol
# Density = 2.532042 g / cm^3
# Si number density = 25.378186 Si / 1000 Ang^3
#
#
#
# Elastic Constant Matrix: (Units=GPa)
#
#
# Indices 1 2 3 4 5 6 
#
# 1 64.1969 33.8562 39.3951 -7.8729 8.1552 -15.4465
# 2 33.8562 123.3951 56.4289 4.2806 9.0437 -47.5515
# 3 39.3951 56.4289 183.5929 -18.2550 -5.5164 -24.9398
# 4 -7.8729 4.2806 -18.2550 65.7360 -11.2596 3.0425
# 5 8.1552 9.0437 -5.5164 -11.2596 46.9557 -0.1814
# 6 -15.4465 -47.5515 -24.9398 3.0425 -0.1814 49.0993
#
#
#
# Elastic Compliance Matrix: (Units=1/GPa)
#
#
# Indices 1 2 3 4 5 6 
#
# 1 0.020096 -0.003426 -0.003037 0.001228 -0.002887 0.001374
# 2 -0.003426 0.015641 -0.002768 -0.003393 -0.003507 0.012861
# 3 -0.003037 -0.002768 0.007234 0.002249 0.002449 -0.000092
# 4 0.001228 -0.003393 0.002249 0.017158 0.004808 -0.002803
# 5 -0.002887 -0.003507 0.002449 0.004808 0.023902 -0.003270
# 6 0.001374 0.012861 -0.000092 -0.002803 -0.003270 0.033370
#
#
# Mechanical properties :
#
#
# Convention : Reuss Voigt Hill
#
# Bulk Modulus (GPa) = 40.80216 70.06057 55.43137
# Shear Modulus (GPa) = 34.71452 48.45850 41.58651
#
# Velocity S-wave (km/s) = 3.70251 4.37447 4.05244
# Velocity P-wave (km/s) = 5.86435 7.29254 6.61709
#
# Compressibility (1/GPa) = 0.02450850
#
# Stress axis : x y z
#
# Youngs Moduli (GPa) = 49.76165 63.93556 138.23693
#
# Poissons Ratio (x) = 0.21906 0.41981
# Poissons Ratio (y) = 0.17050 0.38261
# Poissons Ratio (z) = 0.15112 0.17696
#
# Static dielectric constant tensor:
#      x y z
#    x 2.070700 0.027970 -0.087300 
#    y 0.027970 2.083760 0.022530 
#    z -0.087300 0.022530 2.053660 
# 
# From -- ./inp_files/179522.got.cif
#   From: 2010.05.17/outbox.cif.g08.bks.cpg/sg2_90_cif.got.tgz:179522.got - 2010.06.03 11:33:40.
