data_PCOD9058022
_publ_section_title
;
Structure prediction by ZEFSAII (Michael W. Deem and Ramdas Pophale) SiO2 
 PCOD9058022
Probable space group: P -1
;
_chemical_formula_sum "Si O2"
_cell_formula_units_Z 14
_cell_length_a 7.309329
_cell_length_b 13.236440
_cell_length_c 17.392390
_cell_angle_alpha 25.217939
_cell_angle_beta 116.510008
_cell_angle_gamma 103.608440
_cell_volume 575.477745
_symmetry_space_group_name_H-M "P -1"
_symmetry_group_IT_number 2
_symmetry_cell_setting 'triclinic'
loop_
_space_group_symop_operation_xyz
x,y,z
-x,-y,-z
loop_
_atom_site_type_symbol
_atom_site_label
_atom_site_fract_x
_atom_site_fract_y
_atom_site_fract_z
Si Si1 0.634014 0.479859 0.185542
Si Si2 0.907402 0.702859 0.690743
Si Si3 0.509034 0.234294 0.890103
Si Si4 0.707123 0.007808 0.306690
Si Si5 0.560931 0.325865 0.555844
Si Si6 0.998076 0.133178 0.087739
Si Si7 0.826715 0.979710 0.638784
O O1 0.844225 0.346434 0.258845
O O2 0.653950 0.650029 0.145388
O O3 0.609555 0.239646 0.389400
O O4 0.431911 0.690857 0.952310
O O5 0.720543 0.950323 0.439606
O O6 0.904320 0.439421 0.839758
O O7 0.882033 0.756182 0.739404
O O8 0.461435 0.479997 0.654093
O O9 0.762712 0.110785 0.060225
O O10 0.500000 0.000000 0.000000
O O11 0.597856 0.825479 0.377563
O O12 0.966694 0.931919 0.384250
O O13 0.500000 0.500000 0.500000
O O14 0.819364 0.097382 0.769801
O O15 0.153139 0.109626 0.208790
#
# Coordination Sequence:
#
# PCOD9058022 Si02
#       7
#     2   2   2   2   2   2   2
#     4  11  22  44  69 101 141 178 229 275 334 406
#     4  11  25  43  69 104 140 184 228 277 336 399
#     4  12  27  47  72 101 133 181 225 284 352 400
#     4  11  22  44  69 101 141 178 229 275 334 406
#     4  12  27  47  72 101 133 181 225 284 352 400
#     4  12  25  48  70 102 140 172 233 288 326 420
#     4  11  25  43  69 104 140 184 228 277 336 399
#
# _framework density 24.327612999999999
#
# number of rings (size 3 to 8) (size 9 to 14) (size 15 to 20)
#    0.000    0.571    5.714    3.000    0.000    5.714 
#    0.000    1.429    0.000    0.000    0.000    0.000 
#    0.000    0.000    0.000    0.000    0.000    0.000 
#
# Total GULP energy -78211.293740 kJ/mol
# GULP energy per Si atom -5586.520981 kJ/mol
# Density = 2.427224 g / cm^3
# Si number density = 24.327613 Si / 1000 Ang^3
#
#
#
# Elastic Constant Matrix: (Units=GPa)
#
#
# Indices 1 2 3 4 5 6 
#
# 1 23.2716 12.1588 15.6211 3.2881 -1.1618 12.3385
# 2 12.1588 106.1053 39.5929 -8.9179 16.2432 -10.1001
# 3 15.6211 39.5929 162.0906 3.8141 0.1036 -4.1015
# 4 3.2881 -8.9179 3.8141 37.3061 -3.2993 -4.5944
# 5 -1.1618 16.2432 0.1036 -3.2993 27.4449 1.4073
# 6 12.3385 -10.1001 -4.1015 -4.5944 1.4073 43.6836
#
#
#
# Elastic Compliance Matrix: (Units=1/GPa)
#
#
# Indices 1 2 3 4 5 6 
#
# 1 0.064645 -0.010155 -0.004092 -0.009679 0.008742 -0.022291
# 2 -0.010155 0.013729 -0.002309 0.004484 -0.008344 0.006566
# 3 -0.004092 -0.002309 0.007173 -0.000688 0.001023 0.001190
# 4 -0.009679 0.004484 -0.000688 0.029654 0.000154 0.006820
# 5 0.008742 -0.008344 0.001023 0.000154 0.042049 -0.005641
# 6 -0.022291 0.006566 0.001190 0.006820 -0.005641 0.031717
#
#
# Mechanical properties :
#
#
# Convention : Reuss Voigt Hill
#
# Bulk Modulus (GPa) = 19.07032 47.35702 33.21367
# Shear Modulus (GPa) = 20.87186 36.62655 28.74920
#
# Velocity S-wave (km/s) = 2.93225 3.88436 3.44139
# Velocity P-wave (km/s) = 4.39547 6.29494 5.42892
#
# Compressibility (1/GPa) = 0.05243751
#
# Stress axis : x y z
#
# Youngs Moduli (GPa) = 15.46905 72.83816 139.40533
#
# Poissons Ratio (x) = 0.73964 0.57038
# Poissons Ratio (y) = 0.15708 0.32187
# Poissons Ratio (z) = 0.06329 0.16818
#
# Static dielectric constant tensor:
#      x y z
#    x 2.019950 -0.011720 -0.054700 
#    y -0.011720 1.953850 0.042830 
#    z -0.054700 0.042830 2.018720 
# 
# From -- ./inp_files/181037.got.cif
#   From: 2010.05.17/outbox.cif.g08.bks.cpg/sg2_91_cif.got.tgz:181037.got - 2010.06.03 11:33:40.
