data_PCOD9058126
_publ_section_title
;
Structure prediction by ZEFSAII (Michael W. Deem and Ramdas Pophale) SiO2 
 PCOD9058126
Probable space group: P -1
;
_chemical_formula_sum "Si O2"
_cell_formula_units_Z 16
_cell_length_a 19.094318
_cell_length_b 27.990050
_cell_length_c 9.792850
_cell_angle_alpha 143.889992
_cell_angle_beta 33.291788
_cell_angle_gamma 161.987269
_cell_volume 885.768592
_symmetry_space_group_name_H-M "P -1"
_symmetry_group_IT_number 2
_symmetry_cell_setting 'triclinic'
loop_
_space_group_symop_operation_xyz
x,y,z
-x,-y,-z
loop_
_atom_site_type_symbol
_atom_site_label
_atom_site_fract_x
_atom_site_fract_y
_atom_site_fract_z
Si Si1 0.630549 0.063117 0.286131
Si Si2 0.622799 0.920801 0.355420
Si Si3 0.858982 0.729556 0.068382
Si Si4 0.707563 0.928131 0.781427
Si Si5 0.546387 0.488718 0.546183
Si Si6 0.170892 0.061488 0.684563
Si Si7 0.851465 0.765694 0.865932
Si Si8 0.395277 0.230201 0.149989
O O1 0.544120 0.090669 0.397615
O O2 0.500000 0.000000 0.500000
O O3 0.925164 0.219831 0.178811
O O4 0.572917 0.942382 0.041868
O O5 0.735057 0.949911 0.381355
O O6 0.503098 0.779649 0.147283
O O7 0.855514 0.071027 0.228835
O O8 0.670604 0.611587 0.223122
O O9 0.752702 0.687226 0.994044
O O10 0.010968 0.893371 0.236434
O O11 0.699017 0.884651 0.546721
O O12 0.627033 0.827445 0.802463
O O13 0.500000 0.500000 0.500000
O O14 0.773719 0.658003 0.633226
O O15 0.550414 0.394663 0.300541
O O16 0.222689 0.181948 0.924751
O O17 0.878668 0.896556 0.752127
#
# Coordination Sequence:
#
# PCOD9058126 Si02
#       8
#     2   2   2   2   2   2   2   2
#     4  10  17  37  59  85 107 141 198 232 271 323
#     4  11  20  33  60  86 111 148 180 241 272 325
#     4  10  20  37  59  82 107 155 183 227 272 333
#     4  10  19  33  61  83 105 146 185 241 265 324
#     4  12  24  36  53  86 123 148 175 226 291 340
#     4  11  19  32  53  88 114 138 189 232 282 321
#     4  11  21  35  56  84 118 143 182 228 283 337
#     4  11  18  36  58  79 114 147 187 224 283 332
#
# _framework density 18.063410000000001
#
# number of rings (size 3 to 8) (size 9 to 14) (size 15 to 20)
#    0.750    0.500    6.250    4.500    0.000    0.500 
#    0.000    0.000    0.000    7.500    0.000    0.000 
#    0.000    0.000    0.000    0.000    0.000    0.000 
#
# Total GULP energy -89186.860768 kJ/mol
# GULP energy per Si atom -5574.178798 kJ/mol
# Density = 1.802230 g / cm^3
# Si number density = 18.063410 Si / 1000 Ang^3
#
#
#
# Elastic Constant Matrix: (Units=GPa)
#
#
# Indices 1 2 3 4 5 6 
#
# 1 121.5929 1.8228 36.5894 11.0241 -8.4102 -11.8415
# 2 1.8228 32.8084 16.3034 20.6643 -3.9384 -6.4202
# 3 36.5894 16.3034 87.3131 28.8410 -9.6498 0.4425
# 4 11.0241 20.6643 28.8410 31.4320 -3.5937 2.6500
# 5 -8.4102 -3.9384 -9.6498 -3.5937 40.0493 -2.0205
# 6 -11.8415 -6.4202 0.4425 2.6500 -2.0205 12.8320
#
#
#
# Elastic Compliance Matrix: (Units=1/GPa)
#
#
# Indices 1 2 3 4 5 6 
#
# 1 0.012182 0.011428 -0.003862 -0.009558 0.002878 0.019519
# 2 0.011428 0.085179 0.001886 -0.066493 0.008705 0.068201
# 3 -0.003862 0.001886 0.018461 -0.016600 0.002360 0.000543
# 4 -0.009558 -0.066493 -0.016600 0.098637 -0.006872 -0.062968
# 5 0.002878 0.008705 0.002360 -0.006872 0.027018 0.012604
# 6 0.019519 0.068201 0.000543 -0.062968 0.012604 0.145036
#
#
# Mechanical properties :
#
#
# Convention : Reuss Voigt Hill
#
# Bulk Modulus (GPa) = 7.42249 39.01618 23.21933
# Shear Modulus (GPa) = 12.12070 29.32923 20.72496
#
# Velocity S-wave (km/s) = 2.59319 4.03386 3.39092
# Velocity P-wave (km/s) = 3.61722 6.58351 5.31163
#
# Compressibility (1/GPa) = 0.13472562
#
# Stress axis : x y z
#
# Youngs Moduli (GPa) = 82.09046 11.73992 54.16858
#
# Poissons Ratio (x) = -0.13416 0.20922
# Poissons Ratio (y) = -0.93812 -0.10217
# Poissons Ratio (z) = 0.31706 -0.02214
#
# Static dielectric constant tensor:
#      x y z
#    x 1.626320 -0.005780 -0.007120 
#    y -0.005780 1.625540 0.010660 
#    z -0.007120 0.010660 1.653490 
# 
# From -- ./inp_files/338797.got.cif
#   From: 2010.05.17/outbox.cif.g08.bks.cpg/sg2_170_cif.got.tgz:338797.got - 2010.06.03 11:33:40.
