data_PCOD9058065
_publ_section_title
;
Structure prediction by ZEFSAII (Michael W. Deem and Ramdas Pophale) SiO2 
 PCOD9058065
Probable space group: P -1
;
_chemical_formula_sum "Si O2"
_cell_formula_units_Z 15
_cell_length_a 9.813250
_cell_length_b 13.050513
_cell_length_c 17.604146
_cell_angle_alpha 147.556081
_cell_angle_beta 142.198551
_cell_angle_gamma 32.980430
_cell_volume 631.761962
_symmetry_space_group_name_H-M "P -1"
_symmetry_group_IT_number 2
_symmetry_cell_setting 'triclinic'
loop_
_space_group_symop_operation_xyz
x,y,z
-x,-y,-z
loop_
_atom_site_type_symbol
_atom_site_label
_atom_site_fract_x
_atom_site_fract_y
_atom_site_fract_z
Si Si1 0.838473 0.439294 0.215229
Si Si2 0.696458 0.182354 0.488718
Si Si3 0.533937 0.644995 0.773860
Si Si4 0.000000 0.500000 0.000000
Si Si5 0.999280 0.728761 0.655633
Si Si6 0.644234 0.845809 0.814626
Si Si7 0.421597 0.312281 0.941448
Si Si8 0.556474 0.905035 0.348950
O O1 0.757900 0.694587 0.356323
O O2 0.974228 0.277379 0.245180
O O3 0.053247 0.335798 0.179214
O O4 0.573900 0.442740 0.085657
O O5 0.640364 0.427683 0.630976
O O6 0.529761 0.185797 0.345395
O O7 0.614221 0.097964 0.474049
O O8 0.000000 0.000000 0.500000
O O9 0.543040 0.829510 0.841895
O O10 0.722622 0.570717 0.882236
O O11 0.245679 0.714558 0.715742
O O12 0.143658 0.444782 0.943318
O O13 0.000000 0.500000 0.500000
O O14 0.735181 0.959115 0.663269
O O15 0.595771 0.087858 0.927397
O O16 0.416455 0.216997 0.796403
#
# Coordination Sequence:
#
# PCOD9058065 Si02
#       8
#     2   2   2   1   2   2   2   2
#     4  12  23  46  74 101 143 193 241 294 361 441
#     4  11  22  44  70 103 141 183 244 307 360 432
#     4  12  25  45  70 104 152 187 238 311 362 431
#     4  12  26  44  66 108 150 186 244 300 364 428
#     4  12  25  49  70 108 148 183 247 307 361 437
#     4  11  24  44  76 104 138 196 249 296 371 433
#     4  11  24  45  68 106 146 185 243 300 353 440
#     4  11  25  44  74 102 137 192 243 296 366 432
#
# _framework density 23.743120000000001
#
# number of rings (size 3 to 8) (size 9 to 14) (size 15 to 20)
#    0.000    0.533    5.333    4.400    0.000    3.200 
#    2.400    0.000    0.000    0.000    0.000    0.000 
#    0.000    0.000    0.000    0.000    0.000    0.000 
#
# Total GULP energy -83736.373153 kJ/mol
# GULP energy per Si atom -5582.424877 kJ/mol
# Density = 2.368908 g / cm^3
# Si number density = 23.743120 Si / 1000 Ang^3
#
#
#
# Elastic Constant Matrix: (Units=GPa)
#
#
# Indices 1 2 3 4 5 6 
#
# 1 151.2069 40.9763 27.6894 -2.0633 18.9807 -33.2172
# 2 40.9763 85.8059 2.6942 7.2803 17.4650 -21.0935
# 3 27.6894 2.6942 54.8749 -1.1523 -2.7031 -1.7974
# 4 -2.0633 7.2803 -1.1523 20.1231 -2.4478 14.0637
# 5 18.9807 17.4650 -2.7031 -2.4478 36.1195 -3.8183
# 6 -33.2172 -21.0935 -1.7974 14.0637 -3.8183 59.5471
#
#
#
# Elastic Compliance Matrix: (Units=1/GPa)
#
#
# Indices 1 2 3 4 5 6 
#
# 1 0.009612 -0.002299 -0.004826 -0.002203 -0.003957 0.004669
# 2 -0.002299 0.017004 -0.000047 -0.012273 -0.007090 0.007184
# 3 -0.004826 -0.000047 0.020840 0.002970 0.004053 -0.002521
# 4 -0.002203 -0.012273 0.002970 0.070265 0.009808 -0.021453
# 5 -0.003957 -0.007090 0.004053 0.009808 0.033659 -0.004754
# 6 0.004669 0.007184 -0.002521 -0.021453 -0.004754 0.026628
#
#
# Mechanical properties :
#
#
# Convention : Reuss Voigt Hill
#
# Bulk Modulus (GPa) = 30.19877 48.28972 39.24425
# Shear Modulus (GPa) = 24.58358 37.85979 31.22168
#
# Velocity S-wave (km/s) = 3.22125 3.99752 3.63020
# Velocity P-wave (km/s) = 5.15576 6.45674 5.84257
#
# Compressibility (1/GPa) = 0.03311393
#
# Stress axis : x y z
#
# Youngs Moduli (GPa) = 104.03287 58.81058 47.98470
#
# Poissons Ratio (x) = 0.13520 0.23156
# Poissons Ratio (y) = 0.23916 0.00223
# Poissons Ratio (z) = 0.50203 0.00274
#
# Static dielectric constant tensor:
#      x y z
#    x 1.919530 0.040060 -0.037760 
#    y 0.040060 1.904480 -0.023610 
#    z -0.037760 -0.023610 1.880340 
# 
# From -- ./inp_files/560072.got.cif
#   From: 2010.05.17/outbox.cif.g08.bks.cpg/sg2_281_cif.got.tgz:560072.got - 2010.06.03 11:33:40.
