data_PCOD9058580
_publ_section_title
;
Structure prediction by ZEFSAII (Michael W. Deem and Ramdas Pophale) SiO2 
 PCOD9058580
Probable space group: P -1
;
_chemical_formula_sum "Si O2"
_cell_formula_units_Z 15
_cell_length_a 15.121294
_cell_length_b 28.295333
_cell_length_c 15.422519
_cell_angle_alpha 161.168304
_cell_angle_beta 27.365991
_cell_angle_gamma 160.306205
_cell_volume 717.516702
_symmetry_space_group_name_H-M "P -1"
_symmetry_group_IT_number 2
_symmetry_cell_setting 'triclinic'
loop_
_space_group_symop_operation_xyz
x,y,z
-x,-y,-z
loop_
_atom_site_type_symbol
_atom_site_label
_atom_site_fract_x
_atom_site_fract_y
_atom_site_fract_z
Si Si1 0.094783 0.279775 0.645353
Si Si2 0.072810 0.996424 0.832973
Si Si3 0.106113 0.621230 0.286973
Si Si4 0.120663 0.244972 0.063315
Si Si5 0.443190 0.150280 0.563981
Si Si6 0.500000 0.000000 0.500000
Si Si7 0.569322 0.017875 0.070264
Si Si8 0.625351 0.391549 0.421192
O O1 0.345849 0.329300 0.554029
O O2 0.100841 0.217885 0.435366
O O3 0.108112 0.459612 0.962810
O O4 0.808678 0.075541 0.574303
O O5 0.369627 0.090424 0.740978
O O6 0.056784 0.124175 0.999850
O O7 0.000000 0.000000 0.000000
O O8 0.299629 0.731425 0.393999
O O9 0.811183 0.505699 0.373913
O O10 0.218591 0.800491 0.435978
O O11 0.222592 0.455579 0.366662
O O12 0.868676 0.128437 0.020408
O O13 0.341097 0.262053 0.854868
O O14 0.506418 0.125746 0.371051
O O15 0.500000 0.000000 0.000000
O O16 0.408383 0.797526 0.865157
#
# Coordination Sequence:
#
# PCOD9058580 Si02
#       8
#     2   2   2   2   2   1   2   2
#     4  11  23  44  71 101 135 196 238 278 358 428
#     4  11  24  41  69  99 143 185 233 289 345 409
#     4  12  24  42  72 102 140 188 238 287 350 411
#     4  11  23  46  70  99 148 185 230 295 352 416
#     4  11  22  46  72  96 144 185 222 297 356 405
#     4  12  24  42  66 104 140 178 244 288 336 410
#     4  12  27  45  74 111 140 179 239 296 364 429
#     4  12  23  43  77 101 137 189 233 285 364 420
#
# _framework density 20.905436999999999
#
# number of rings (size 3 to 8) (size 9 to 14) (size 15 to 20)
#    0.000    0.533    9.333    0.800    0.000    2.667 
#    0.000    5.333    0.000    0.000    0.000    0.000 
#    0.000    0.000    0.000    0.000    0.000    0.000 
#
# Total GULP energy -83500.688726 kJ/mol
# GULP energy per Si atom -5566.712582 kJ/mol
# Density = 2.085786 g / cm^3
# Si number density = 20.905437 Si / 1000 Ang^3
#
#
#
# Elastic Constant Matrix: (Units=GPa)
#
#
# Indices 1 2 3 4 5 6 
#
# 1 80.0299 9.3213 -1.2283 -11.7195 18.1816 23.0229
# 2 9.3213 49.7655 4.0241 -3.9388 1.9077 18.5022
# 3 -1.2283 4.0241 88.7358 -14.8307 28.0363 3.7274
# 4 -11.7195 -3.9388 -14.8307 29.6328 5.1947 6.6128
# 5 18.1816 1.9077 28.0363 5.1947 27.6510 -5.5543
# 6 23.0229 18.5022 3.7274 6.6128 -5.5543 22.8473
#
#
#
# Elastic Compliance Matrix: (Units=1/GPa)
#
#
# Indices 1 2 3 4 5 6 
#
# 1 -0.005461 -0.012639 -0.013979 -0.023090 0.029370 0.031841
# 2 -0.012639 0.017462 -0.011231 -0.014699 0.023334 0.010354
# 3 -0.013979 -0.011231 0.002181 -0.015982 0.017106 0.031610
# 4 -0.023090 -0.014699 -0.015982 -0.003904 0.043053 0.049375
# 5 0.029370 0.023334 0.017106 0.043053 -0.024174 -0.069621
# 6 0.031841 0.010354 0.031610 0.049375 -0.069621 -0.033075
#
#
# Mechanical properties :
#
#
# Convention : Reuss Voigt Hill
#
# Bulk Modulus (GPa) = -16.25663 26.97394 5.35865
# Shear Modulus (GPa) = 608.19192 29.78717 318.98955
#
# Velocity S-wave (km/s) = 17.07503 3.77882 12.36601
# Velocity P-wave (km/s) = 19.51792 5.65421 14.36871
#
# Compressibility (1/GPa) = -0.06151335
#
# Stress axis : x y z
#
# Youngs Moduli (GPa) = -183.11695 57.26609 458.40618
#
# Poissons Ratio (x) = 0.72376 6.40787
# Poissons Ratio (y) = -2.31432 5.14835
# Poissons Ratio (z) = -2.55972 0.64315
#
# Static dielectric constant tensor:
#      x y z
#    x 1.764460 -0.011790 0.003570 
#    y -0.011790 1.790480 0.002260 
#    z 0.003570 0.002260 1.762430 
# 
# From -- ./inp_files/535670.got.cif
#   From: 2010.05.17/outbox.cif.g08.bks.cpg/sg2_268_cif.got.tgz:535670.got - 2010.06.03 11:33:40.
