data_PCOD9058081
_publ_section_title
;
Structure prediction by ZEFSAII (Michael W. Deem and Ramdas Pophale) SiO2 
 PCOD9058081
Probable space group: P -1
;
_chemical_formula_sum "Si O2"
_cell_formula_units_Z 16
_cell_length_a 12.373913
_cell_length_b 18.098752
_cell_length_c 8.476073
_cell_angle_alpha 102.442364
_cell_angle_beta 49.642762
_cell_angle_gamma 142.399622
_cell_volume 678.119166
_symmetry_space_group_name_H-M "P -1"
_symmetry_group_IT_number 2
_symmetry_cell_setting 'triclinic'
loop_
_space_group_symop_operation_xyz
x,y,z
-x,-y,-z
loop_
_atom_site_type_symbol
_atom_site_label
_atom_site_fract_x
_atom_site_fract_y
_atom_site_fract_z
Si Si1 0.484150 0.270675 0.597839
Si Si2 0.038362 0.679647 0.500797
Si Si3 0.552046 0.661466 0.036408
Si Si4 0.517642 0.166627 0.286901
Si Si5 0.804000 0.183328 0.248848
Si Si6 0.828581 0.406863 0.843045
Si Si7 0.718530 0.672563 0.338348
Si Si8 0.059221 0.842756 0.420457
O O1 0.354734 0.233653 0.872602
O O2 0.359229 0.140008 0.563559
O O3 0.449842 0.329979 0.551991
O O4 0.830016 0.414973 0.367074
O O5 0.685274 0.504658 0.731543
O O6 0.165852 0.807054 0.333045
O O7 0.095896 0.726612 0.648202
O O8 0.170672 0.661881 0.314385
O O9 0.364122 0.616639 0.058619
O O10 0.814401 0.741306 0.741295
O O11 0.732046 0.207150 0.186531
O O12 0.690592 0.308914 0.086569
O O13 0.299899 0.018494 0.311910
O O14 0.500000 0.000000 0.500000
O O15 0.056771 0.245808 0.976101
O O16 0.500000 0.500000 0.500000
O O17 0.911435 0.778825 0.360837
#
# Coordination Sequence:
#
# PCOD9058081 Si02
#       8
#     2   2   2   2   2   2   2   2
#     4  11  24  45  70 101 134 179 230 277 338 403
#     4  11  22  44  70  97 131 177 228 280 334 404
#     4  11  23  44  71  98 132 176 231 278 335 402
#     4  12  26  44  66 101 143 178 222 279 343 409
#     4  12  25  44  69 102 139 177 225 279 343 406
#     4  11  24  43  72  98 135 178 225 281 335 407
#     4  12  26  46  72 101 136 181 233 284 338 407
#     4  12  26  43  66 101 138 179 222 279 342 401
#
# _framework density 23.594674000000001
#
# number of rings (size 3 to 8) (size 9 to 14) (size 15 to 20)
#    0.000    0.500    1.250    9.000    1.750    3.500 
#    0.000    0.000    0.000    0.000    0.000    0.000 
#    0.000    0.000    0.000    0.000    0.000    0.000 
#
# Total GULP energy -89681.921566 kJ/mol
# GULP energy per Si atom -5605.120098 kJ/mol
# Density = 2.354097 g / cm^3
# Si number density = 23.594674 Si / 1000 Ang^3
#
#
#
# Elastic Constant Matrix: (Units=GPa)
#
#
# Indices 1 2 3 4 5 6 
#
# 1 112.3735 17.8031 -10.1219 -6.1023 -1.3605 3.5944
# 2 17.8031 122.6917 31.8858 11.2710 -6.9117 21.2606
# 3 -10.1219 31.8858 77.0866 5.4380 -0.0686 -4.0964
# 4 -6.1023 11.2710 5.4380 25.3852 2.0111 9.4000
# 5 -1.3605 -6.9117 -0.0686 2.0111 28.9203 10.5269
# 6 3.5944 21.2606 -4.0964 9.4000 10.5269 44.5539
#
#
#
# Elastic Compliance Matrix: (Units=1/GPa)
#
#
# Indices 1 2 3 4 5 6 
#
# 1 0.009573 -0.002147 0.001933 0.002907 -0.000212 -0.000133
# 2 -0.002147 0.011446 -0.005178 -0.002508 0.005145 -0.006451
# 3 0.001933 -0.005178 0.015780 -0.002206 -0.002731 0.004876
# 4 0.002907 -0.002508 -0.002206 0.044901 -0.000458 -0.008606
# 5 -0.000212 0.005145 -0.002731 -0.000458 0.040226 -0.012097
# 6 -0.000133 -0.006451 0.004876 -0.008606 -0.012097 0.030656
#
#
# Mechanical properties :
#
#
# Convention : Reuss Voigt Hill
#
# Bulk Modulus (GPa) = 38.44003 43.47617 40.95810
# Shear Modulus (GPa) = 29.06357 37.94421 33.50389
#
# Velocity S-wave (km/s) = 3.51349 4.01455 3.77235
# Velocity P-wave (km/s) = 5.72596 6.32100 6.03083
#
# Compressibility (1/GPa) = 0.02601455
#
# Stress axis : x y z
#
# Youngs Moduli (GPa) = 104.46370 87.36874 63.37051
#
# Poissons Ratio (x) = 0.18760 -0.12248
# Poissons Ratio (y) = 0.22431 0.32811
# Poissons Ratio (z) = -0.20191 0.45236
#
# Static dielectric constant tensor:
#      x y z
#    x 1.860990 0.004080 0.022620 
#    y 0.004080 1.902750 0.001030 
#    z 0.022620 0.001030 1.895420 
# 
# From -- ./inp_files/207783.got.cif
#   From: 2010.05.17/outbox.cif.g08.bks.cpg/sg2_104_cif.got.tgz:207783.got - 2010.06.03 11:33:40.
