data_PCOD9058582
_publ_section_title
;
Structure prediction by ZEFSAII (Michael W. Deem and Ramdas Pophale) SiO2 
 PCOD9058582
Probable space group: P -1
;
_chemical_formula_sum "Si O2"
_cell_formula_units_Z 16
_cell_length_a 12.137889
_cell_length_b 9.257388
_cell_length_c 17.984240
_cell_angle_alpha 152.519640
_cell_angle_beta 127.489992
_cell_angle_gamma 57.783709
_cell_volume 739.762652
_symmetry_space_group_name_H-M "P -1"
_symmetry_group_IT_number 2
_symmetry_cell_setting 'triclinic'
loop_
_space_group_symop_operation_xyz
x,y,z
-x,-y,-z
loop_
_atom_site_type_symbol
_atom_site_label
_atom_site_fract_x
_atom_site_fract_y
_atom_site_fract_z
Si Si1 0.024432 0.818168 0.502419
Si Si2 0.342952 0.839401 0.146150
Si Si3 0.578896 0.865506 0.542269
Si Si4 0.152153 0.389599 0.542803
Si Si5 0.273349 0.175211 0.849935
Si Si6 0.789423 0.924583 0.064130
Si Si7 0.547516 0.805281 0.792540
Si Si8 0.038927 0.081381 0.137646
O O1 0.033803 0.451376 0.319923
O O2 0.894917 0.844277 0.517624
O O3 0.162283 0.955181 0.661459
O O4 0.000000 0.000000 0.500000
O O5 0.424946 0.891540 0.280282
O O6 0.401602 0.035365 0.190488
O O7 0.192741 0.971601 0.161711
O O8 0.318518 0.471847 0.954474
O O9 0.735062 0.765536 0.535368
O O10 0.500696 0.553648 0.397380
O O11 0.500000 0.000000 0.500000
O O12 0.000000 0.500000 0.500000
O O13 0.219641 0.708617 0.748856
O O14 0.210487 0.265611 0.945649
O O15 0.411341 0.993411 0.843881
O O16 0.664935 0.835381 0.917280
O O17 0.931652 0.907952 0.069222
O O18 0.000000 0.000000 0.000000
#
# Coordination Sequence:
#
# PCOD9058582 Si02
#       8
#     2   2   2   2   2   2   2   2
#     4  11  25  43  72 100 134 184 236 282 339 420
#     4  12  27  44  70 102 144 178 229 293 347 410
#     4  12  27  46  70 107 140 180 234 292 357 408
#     4  11  22  46  72  98 135 187 232 285 342 414
#     4  12  25  45  70 104 135 186 237 274 344 422
#     4  11  23  42  75  94 136 183 231 278 342 418
#     4  12  25  47  71  96 142 189 225 280 350 425
#     4  11  23  46  69 103 141 175 231 294 353 393
#
# _framework density 21.628558999999999
#
# number of rings (size 3 to 8) (size 9 to 14) (size 15 to 20)
#    0.000    0.500    3.750    4.875    3.500    2.500 
#    4.500    0.000    0.000    0.000    0.000    0.000 
#    0.000    0.000    0.000    0.000    0.000    0.000 
#
# Total GULP energy -89500.284352 kJ/mol
# GULP energy per Si atom -5593.767772 kJ/mol
# Density = 2.157933 g / cm^3
# Si number density = 21.628559 Si / 1000 Ang^3
#
#
#
# Elastic Constant Matrix: (Units=GPa)
#
#
# Indices 1 2 3 4 5 6 
#
# 1 109.9377 35.3858 33.8840 -10.0202 23.4169 17.4823
# 2 35.3858 85.7626 16.2291 -9.8885 16.1585 25.5575
# 3 33.8840 16.2291 108.3788 -6.5357 14.4185 14.9921
# 4 -10.0202 -9.8885 -6.5357 41.2789 10.0087 -1.5661
# 5 23.4169 16.1585 14.4185 10.0087 33.4915 2.7311
# 6 17.4823 25.5575 14.9921 -1.5661 2.7311 37.5360
#
#
#
# Elastic Compliance Matrix: (Units=1/GPa)
#
#
# Indices 1 2 3 4 5 6 
#
# 1 0.012999 -0.002009 -0.001973 0.004253 -0.008287 -0.003118
# 2 -0.002009 0.017682 0.000883 0.005493 -0.008281 -0.010624
# 3 -0.001973 0.000883 0.010906 0.002325 -0.004140 -0.003640
# 4 0.004253 0.005493 0.002325 0.030513 -0.015396 -0.004256
# 5 -0.008287 -0.008281 -0.004140 -0.015396 0.045443 0.007202
# 6 -0.003118 -0.010624 -0.003640 -0.004256 0.007202 0.036079
#
#
# Mechanical properties :
#
#
# Convention : Reuss Voigt Hill
#
# Bulk Modulus (GPa) = 28.25802 52.78633 40.52218
# Shear Modulus (GPa) = 29.13449 37.03330 33.08390
#
# Velocity S-wave (km/s) = 3.67418 4.14241 3.91530
# Velocity P-wave (km/s) = 5.57611 6.88028 6.26224
#
# Compressibility (1/GPa) = 0.03538818
#
# Stress axis : x y z
#
# Youngs Moduli (GPa) = 76.92604 56.55586 91.69267
#
# Poissons Ratio (x) = 0.11365 0.18092
# Poissons Ratio (y) = 0.15458 -0.08097
# Poissons Ratio (z) = 0.15178 -0.04994
#
# Static dielectric constant tensor:
#      x y z
#    x 1.858030 0.053660 -0.087400 
#    y 0.053660 1.802070 -0.017130 
#    z -0.087400 -0.017130 1.935630 
# 
# From -- ./inp_files/507355.got.cif
#   From: 2010.05.17/outbox.cif.g08.bks.cpg/sg2_254_cif.got.tgz:507355.got - 2010.06.03 11:33:40.
