data_PCOD9058799
_publ_section_title
;
Structure prediction by ZEFSAII (Michael W. Deem and Ramdas Pophale) SiO2 
 PCOD9058799
Probable space group: P -1
;
_chemical_formula_sum "Si O2"
_cell_formula_units_Z 16
_cell_length_a 20.568289
_cell_length_b 7.277082
_cell_length_c 16.203956
_cell_angle_alpha 127.236527
_cell_angle_beta 27.772179
_cell_angle_gamma 144.363559
_cell_volume 597.582432
_symmetry_space_group_name_H-M "P -1"
_symmetry_group_IT_number 2
_symmetry_cell_setting 'triclinic'
loop_
_space_group_symop_operation_xyz
x,y,z
-x,-y,-z
loop_
_atom_site_type_symbol
_atom_site_label
_atom_site_fract_x
_atom_site_fract_y
_atom_site_fract_z
Si Si1 0.656988 0.529311 0.638195
Si Si2 0.205261 0.543366 0.374608
Si Si3 0.467411 0.706716 0.993358
Si Si4 0.609053 0.379322 0.167643
Si Si5 0.263091 0.708594 0.835473
Si Si6 0.896598 0.501353 0.266020
Si Si7 0.140325 0.663380 0.202943
Si Si8 0.504288 0.673440 0.462900
O O1 0.775769 0.606949 0.610760
O O2 0.537482 0.615589 0.820098
O O3 0.817402 0.661459 0.420585
O O4 0.472436 0.116374 0.721011
O O5 0.992400 0.425095 0.592415
O O6 0.395820 0.964731 0.285689
O O7 0.248852 0.452716 0.218185
O O8 0.647494 0.920732 0.920869
O O9 0.500000 0.000000 0.000000
O O10 0.729190 0.447497 0.135368
O O11 0.538471 0.552210 0.312704
O O12 0.777063 0.497565 0.943350
O O13 0.302025 0.589366 0.681106
O O14 0.073440 0.652272 0.042238
O O15 0.001376 0.550245 0.249077
O O16 0.704357 0.087349 0.355205
O O17 0.500000 0.500000 0.500000
#
# Coordination Sequence:
#
# PCOD9058799 Si02
#       8
#     2   2   2   2   2   2   2   2
#     4   9  18  33  50  69  95 128 162 200 245 288
#     4   9  18  33  51  70  97 128 162 199 238 289
#     4  11  23  35  49  71  96 125 164 206 248 292
#     4   8  15  26  42  70 104 130 152 188 239 287
#     4   8  15  26  41  66  98 128 157 190 231 280
#     4   9  17  28  46  73 100 128 164 199 234 286
#     4   9  18  31  46  67  95 126 162 198 237 283
#     4   9  15  23  40  71 109 135 151 185 243 293
#
# _framework density 26.774546999999998
#
# number of rings (size 3 to 8) (size 9 to 14) (size 15 to 20)
#    0.000    3.000    0.000    3.375    0.000    9.000 
#    0.000    0.000    0.000    0.000    0.000   14.000 
#    0.000   56.000    0.000    0.000    0.000    0.000 
#
# Total GULP energy -89394.078437 kJ/mol
# GULP energy per Si atom -5587.129902 kJ/mol
# Density = 2.671361 g / cm^3
# Si number density = 26.774547 Si / 1000 Ang^3
#
#
#
# Elastic Constant Matrix: (Units=GPa)
#
#
# Indices 1 2 3 4 5 6 
#
# 1 70.4301 10.6199 32.5117 19.9968 10.4920 1.0566
# 2 10.6199 75.5419 65.9273 42.5646 7.7639 18.4971
# 3 32.5117 65.9273 307.5317 69.2999 10.5952 21.6781
# 4 19.9968 42.5646 69.2999 65.6361 3.9025 4.5924
# 5 10.4920 7.7639 10.5952 3.9025 48.9618 15.8180
# 6 1.0566 18.4971 21.6781 4.5924 15.8180 29.6740
#
#
#
# Elastic Compliance Matrix: (Units=1/GPa)
#
#
# Indices 1 2 3 4 5 6 
#
# 1 0.016303 0.000886 -0.000930 -0.004492 -0.003809 0.002272
# 2 0.000886 0.025767 -0.001414 -0.014626 0.001607 -0.013653
# 3 -0.000930 -0.001414 0.004578 -0.003510 0.000389 -0.002094
# 4 -0.004492 -0.014626 -0.003510 0.029301 -0.000791 0.007728
# 5 -0.003809 0.001607 0.000389 -0.000791 0.025727 -0.014742
# 6 0.002272 -0.013653 -0.002094 0.007728 -0.014742 0.050321
#
#
# Mechanical properties :
#
#
# Convention : Reuss Voigt Hill
#
# Bulk Modulus (GPa) = 22.86734 74.62462 48.74598
# Shear Modulus (GPa) = 29.49995 51.81738 40.65866
#
# Velocity S-wave (km/s) = 3.32292 4.40400 3.90109
# Velocity P-wave (km/s) = 4.82511 7.33432 6.20782
#
# Compressibility (1/GPa) = 0.04373049
#
# Stress axis : x y z
#
# Youngs Moduli (GPa) = 61.33871 38.80975 218.41652
#
# Poissons Ratio (x) = -0.03438 0.20317
# Poissons Ratio (y) = -0.05434 0.30894
# Poissons Ratio (z) = 0.05706 0.05489
#
# Static dielectric constant tensor:
#      x y z
#    x 2.197870 0.040170 -0.025370 
#    y 0.040170 2.036050 0.041170 
#    z -0.025370 0.041170 2.185140 
# 
# From -- ./inp_files/201278.got.cif
#   From: 2010.05.17/outbox.cif.g08.bks.cpg/sg2_101_cif.got.tgz:201278.got - 2010.06.03 11:33:40.
