data_PCOD9058018
_publ_section_title
;
Structure prediction by ZEFSAII (Michael W. Deem and Ramdas Pophale) SiO2 
 PCOD9058018
Probable space group: P -1
;
_chemical_formula_sum "Si O2"
_cell_formula_units_Z 14
_cell_length_a 10.419360
_cell_length_b 12.554672
_cell_length_c 12.019760
_cell_angle_alpha 140.999710
_cell_angle_beta 123.455964
_cell_angle_gamma 36.250653
_cell_volume 572.967971
_symmetry_space_group_name_H-M "P -1"
_symmetry_group_IT_number 2
_symmetry_cell_setting 'triclinic'
loop_
_space_group_symop_operation_xyz
x,y,z
-x,-y,-z
loop_
_atom_site_type_symbol
_atom_site_label
_atom_site_fract_x
_atom_site_fract_y
_atom_site_fract_z
Si Si1 0.065186 0.111657 0.050563
Si Si2 0.150418 0.852857 0.654814
Si Si3 0.515315 0.710922 0.577856
Si Si4 0.128711 0.505986 0.156007
Si Si5 0.363169 0.086166 0.341974
Si Si6 0.500000 0.000000 0.000000
Si Si7 0.000000 0.000000 0.500000
Si Si8 0.182233 0.368840 0.699269
O O1 0.241435 0.078779 0.180850
O O2 0.866946 0.400111 0.171269
O O3 0.137673 0.992944 0.864520
O O4 0.000000 0.000000 0.000000
O O5 0.266811 0.828944 0.571174
O O6 0.308889 0.575592 0.544234
O O7 0.927907 0.992786 0.596777
O O8 0.577547 0.768663 0.548073
O O9 0.502175 0.862832 0.788704
O O10 0.090785 0.730225 0.298920
O O11 0.023768 0.526190 0.239050
O O12 0.376859 0.242655 0.060378
O O13 0.000000 0.500000 0.000000
O O14 0.201486 0.237226 0.492564
O O15 0.591713 0.824529 0.280544
#
# Coordination Sequence:
#
# PCOD9058018 Si02
#       8
#     2   2   2   2   2   1   1   2
#     4  12  27  46  72 108 151 196 253 321 390 467
#     4  11  25  42  67 108 144 191 250 312 382 451
#     4  11  22  44  69 101 139 192 247 303 380 457
#     4  12  26  45  74 111 152 198 259 314 393 462
#     4  11  25  46  76 103 144 203 251 316 381 467
#     4  12  22  42  72  98 148 190 240 310 378 446
#     4  12  24  44  70 108 152 196 252 326 368 466
#     4  11  25  47  74 107 144 202 259 308 392 467
#
# _framework density 24.434173999999999
#
# number of rings (size 3 to 8) (size 9 to 14) (size 15 to 20)
#    0.000    0.571    1.429    7.286    2.000    0.571 
#    5.143    0.000    0.000    0.000    0.000    0.000 
#    0.000    0.000    0.000    0.000    0.000    0.000 
#
# Total GULP energy -77941.219257 kJ/mol
# GULP energy per Si atom -5567.229947 kJ/mol
# Density = 2.437856 g / cm^3
# Si number density = 24.434174 Si / 1000 Ang^3
#
#
#
# Elastic Constant Matrix: (Units=GPa)
#
#
# Indices 1 2 3 4 5 6 
#
# 1 103.2934 39.2831 28.7965 -6.1964 -1.3452 17.0551
# 2 39.2831 198.7209 90.4329 35.2288 16.3735 26.0144
# 3 28.7965 90.4329 205.6911 1.4084 9.0146 0.2725
# 4 -6.1964 35.2288 1.4084 66.7326 17.8016 5.7962
# 5 -1.3452 16.3735 9.0146 17.8016 36.4404 0.9789
# 6 17.0551 26.0144 0.2725 5.7962 0.9789 23.5466
#
#
#
# Elastic Compliance Matrix: (Units=1/GPa)
#
#
# Indices 1 2 3 4 5 6 
#
# 1 0.011918 -0.001269 -0.001131 0.002391 0.000332 -0.007820
# 2 -0.001269 0.008623 -0.003532 -0.003650 -0.001059 -0.007624
# 3 -0.001131 -0.003532 0.006598 0.001494 -0.000933 0.004316
# 4 0.002391 -0.003650 0.001494 0.019447 -0.008083 -0.002167
# 5 0.000332 -0.001059 -0.000933 -0.008083 0.032067 0.001597
# 6 -0.007820 -0.007624 0.004316 -0.002167 0.001597 0.056973
#
#
# Mechanical properties :
#
#
# Convention : Reuss Voigt Hill
#
# Bulk Modulus (GPa) = 65.46696 91.63670 78.55183
# Shear Modulus (GPa) = 32.76943 48.62344 40.69643
#
# Velocity S-wave (km/s) = 3.66612 4.46576 4.08555
# Velocity P-wave (km/s) = 6.69118 8.01096 7.38063
#
# Compressibility (1/GPa) = 0.01527488
#
# Stress axis : x y z
#
# Youngs Moduli (GPa) = 83.90706 115.97243 151.56591
#
# Poissons Ratio (x) = 0.14712 0.17147
# Poissons Ratio (y) = 0.10644 0.53532
# Poissons Ratio (z) = 0.09493 0.40960
#
# Static dielectric constant tensor:
#      x y z
#    x 1.952170 -0.052170 -0.025780 
#    y -0.052170 2.094100 -0.066260 
#    z -0.025780 -0.066260 1.909150 
# 
# From -- ./inp_files/426999.got.cif
#   From: 2010.05.17/outbox.cif.g08.bks.cpg/sg2_214_cif.got.tgz:426999.got - 2010.06.03 11:33:40.
