data_PCOD9058676
_publ_section_title
;
Structure prediction by ZEFSAII (Michael W. Deem and Ramdas Pophale) SiO2 
 PCOD9058676
Probable space group: P -1
;
_chemical_formula_sum "Si O2"
_cell_formula_units_Z 16
_cell_length_a 9.350304
_cell_length_b 11.651701
_cell_length_c 17.880103
_cell_angle_alpha 33.034202
_cell_angle_beta 133.236096
_cell_angle_gamma 118.273163
_cell_volume 748.421206
_symmetry_space_group_name_H-M "P -1"
_symmetry_group_IT_number 2
_symmetry_cell_setting 'triclinic'
loop_
_space_group_symop_operation_xyz
x,y,z
-x,-y,-z
loop_
_atom_site_type_symbol
_atom_site_label
_atom_site_fract_x
_atom_site_fract_y
_atom_site_fract_z
Si Si1 0.562500 0.102103 0.201270
Si Si2 0.805966 0.650438 0.557469
Si Si3 0.831583 0.725389 0.933307
Si Si4 0.040532 0.752226 0.732011
Si Si5 0.888204 0.445125 0.415705
Si Si6 0.724627 0.025494 0.586130
Si Si7 0.846586 0.192778 0.882739
Si Si8 0.413737 0.105113 0.989273
O O1 0.357577 0.222429 0.104585
O O2 0.763163 0.167459 0.264937
O O3 0.606079 0.845446 0.373589
O O4 0.551698 0.149721 0.082463
O O5 0.776531 0.411045 0.690583
O O6 0.933451 0.695532 0.650048
O O7 0.938384 0.650673 0.530727
O O8 0.784975 0.884551 0.759698
O O9 0.879108 0.470820 0.070849
O O10 0.029447 0.758373 0.028229
O O11 0.878827 0.920459 0.632208
O O12 0.750609 0.670300 0.210064
O O13 0.000000 0.500000 0.500000
O O14 0.754967 0.268873 0.476113
O O15 0.500000 0.000000 0.500000
O O16 0.672405 0.085289 0.902999
O O17 0.000000 0.000000 0.000000
O O18 0.500000 0.000000 0.000000
#
# Coordination Sequence:
#
# PCOD9058676 Si02
#       8
#     2   2   2   2   2   2   2   2
#     4  12  24  43  71 105 134 188 233 293 353 427
#     4  11  24  44  76  96 139 187 238 290 353 428
#     4  11  25  43  71  99 142 180 234 293 354 423
#     4  11  25  46  72  99 142 187 235 291 363 420
#     4  12  26  47  72 103 145 192 233 299 363 418
#     4  12  28  45  73 108 142 186 242 299 353 427
#     4  11  22  47  68  98 137 186 231 288 353 422
#     4  12  27  43  70 103 141 183 240 291 356 430
#
# _framework density 21.378336999999998
#
# number of rings (size 3 to 8) (size 9 to 14) (size 15 to 20)
#    0.000    0.500    3.750    4.125    5.250    3.500 
#    0.000    0.000    0.000    0.000    0.000    0.000 
#    0.000    0.000    0.000    0.000    0.000    0.000 
#
# Total GULP energy -89484.659971 kJ/mol
# GULP energy per Si atom -5592.791248 kJ/mol
# Density = 2.132968 g / cm^3
# Si number density = 21.378337 Si / 1000 Ang^3
#
#
#
# Elastic Constant Matrix: (Units=GPa)
#
#
# Indices 1 2 3 4 5 6 
#
# 1 54.8154 25.1876 -8.5500 -2.1182 -6.2741 -3.2642
# 2 25.1876 107.9468 41.7394 -10.5667 -9.1287 9.3980
# 3 -8.5500 41.7394 119.1392 -10.2808 -12.5009 12.0233
# 4 -2.1182 -10.5667 -10.2808 38.2988 -1.5668 -9.5095
# 5 -6.2741 -9.1287 -12.5009 -1.5668 39.4964 -3.1339
# 6 -3.2642 9.3980 12.0233 -9.5095 -3.1339 37.8812
#
#
#
# Elastic Compliance Matrix: (Units=1/GPa)
#
#
# Indices 1 2 3 4 5 6 
#
# 1 0.022624 -0.006705 0.004181 0.001403 0.003656 0.002941
# 2 -0.006705 0.012977 -0.004667 0.001497 0.000365 -0.001910
# 3 0.004181 -0.004667 0.010918 0.001680 0.003006 -0.001277
# 4 0.001403 0.001497 0.001680 0.028825 0.002774 0.006682
# 5 0.003656 0.000365 0.003006 0.002774 0.027222 0.002219
# 6 0.002941 -0.001910 -0.001277 0.006682 0.002219 0.029392
#
#
# Mechanical properties :
#
#
# Convention : Reuss Voigt Hill
#
# Bulk Modulus (GPa) = 31.11826 44.29503 37.70665
# Shear Modulus (GPa) = 31.83676 38.03692 34.93684
#
# Velocity S-wave (km/s) = 3.86321 4.22266 4.04693
# Velocity P-wave (km/s) = 5.87254 6.67376 6.28593
#
# Compressibility (1/GPa) = 0.03213547
#
# Stress axis : x y z
#
# Youngs Moduli (GPa) = 44.20114 77.06164 91.59220
#
# Poissons Ratio (x) = 0.51669 -0.38291
# Poissons Ratio (y) = 0.29636 0.42748
# Poissons Ratio (z) = -0.18479 0.35966
#
# Static dielectric constant tensor:
#      x y z
#    x 1.757670 -0.001450 0.016800 
#    y -0.001450 1.826130 -0.027130 
#    z 0.016800 -0.027130 1.766100 
# 
# From -- ./inp_files/333013.got.cif
#   From: 2010.05.17/outbox.cif.g08.bks.cpg/sg2_167_cif.got.tgz:333013.got - 2010.06.03 11:33:40.
