data_PCOD9058493
_publ_section_title
;
Structure prediction by ZEFSAII (Michael W. Deem and Ramdas Pophale) SiO2 
 PCOD9058493
Probable space group: P -1
;
_chemical_formula_sum "Si O2"
_cell_formula_units_Z 13
_cell_length_a 6.688296
_cell_length_b 13.157523
_cell_length_c 11.396693
_cell_angle_alpha 32.337966
_cell_angle_beta 86.876208
_cell_angle_gamma 100.039025
_cell_volume 487.964647
_symmetry_space_group_name_H-M "P -1"
_symmetry_group_IT_number 2
_symmetry_cell_setting 'triclinic'
loop_
_space_group_symop_operation_xyz
x,y,z
-x,-y,-z
loop_
_atom_site_type_symbol
_atom_site_label
_atom_site_fract_x
_atom_site_fract_y
_atom_site_fract_z
Si Si1 0.500000 0.500000 0.000000
Si Si2 0.654283 0.578700 0.652445
Si Si3 0.894055 0.693439 0.881350
Si Si4 0.838956 0.255851 0.940330
Si Si5 0.696431 0.014181 0.562829
Si Si6 0.567380 0.160254 0.661373
Si Si7 0.961276 0.195631 0.761758
O O1 0.376539 0.385853 0.244450
O O2 0.267311 0.528891 0.944409
O O3 0.662900 0.355528 0.860638
O O4 0.463409 0.624907 0.550671
O O5 0.879286 0.711210 0.444917
O O6 0.076273 0.842850 0.644110
O O7 0.695833 0.779685 0.805465
O O8 0.006853 0.700867 0.993668
O O9 0.985910 0.331520 0.745790
O O10 0.682109 0.012788 0.169980
O O11 0.678352 0.111104 0.591721
O O12 0.500000 0.000000 0.500000
O O13 0.713805 0.141204 0.780600
O O14 0.000000 0.000000 0.000000
#
# Coordination Sequence:
#
# PCOD9058493 Si02
#       7
#     1   2   2   2   2   2   2
#     4  12  28  50  72 116 162 200 258 326 390 466
#     4  12  30  50  77 119 155 208 261 325 391 471
#     4  11  26  46  74 112 158 208 263 323 392 470
#     4  12  27  51  77 114 158 205 260 325 393 467
#     4  11  22  45  77 111 154 208 266 321 394 469
#     4  12  26  49  79 115 155 208 259 324 396 463
#     4  12  27  54  82 112 157 210 265 324 391 467
#
# _framework density 26.641272000000001
#
# number of rings (size 3 to 8) (size 9 to 14) (size 15 to 20)
#    0.000    0.308    3.077    4.615    6.462    1.231 
#    0.000    0.000    0.000    0.000    0.000    0.000 
#    0.000    0.000    0.000    0.000    0.000    0.000 
#
# Total GULP energy -72659.873286 kJ/mol
# GULP energy per Si atom -5589.221022 kJ/mol
# Density = 2.658064 g / cm^3
# Si number density = 26.641272 Si / 1000 Ang^3
#
#
#
# Elastic Constant Matrix: (Units=GPa)
#
#
# Indices 1 2 3 4 5 6 
#
# 1 163.2133 64.4543 63.2147 3.7031 14.1667 9.4050
# 2 64.4543 97.8709 43.1431 28.5167 3.3691 1.7885
# 3 63.2147 43.1431 114.8532 26.1408 -17.3702 -5.8014
# 4 3.7031 28.5167 26.1408 47.2846 -17.6720 0.0585
# 5 14.1667 3.3691 -17.3702 -17.6720 81.8176 -1.3011
# 6 9.4050 1.7885 -5.8014 0.0585 -1.3011 69.2602
#
#
#
# Elastic Compliance Matrix: (Units=1/GPa)
#
#
# Indices 1 2 3 4 5 6 
#
# 1 0.010634 -0.006188 -0.005012 0.005081 -0.001581 -0.001738
# 2 -0.006188 0.017983 -0.001286 -0.010472 -0.002200 0.000236
# 3 -0.005012 -0.001286 0.013679 -0.005391 0.002691 0.001915
# 4 0.005081 -0.010472 -0.005391 0.032033 0.005313 -0.000798
# 5 -0.001581 -0.002200 0.002691 0.005313 0.014318 0.000761
# 6 -0.001738 0.000236 0.001915 -0.000798 0.000761 0.014844
#
#
# Mechanical properties :
#
#
# Convention : Reuss Voigt Hill
#
# Bulk Modulus (GPa) = 57.72707 79.72906 68.72807
# Shear Modulus (GPa) = 37.24774 53.34751 45.29763
#
# Velocity S-wave (km/s) = 3.74320 4.47972 4.12792
# Velocity P-wave (km/s) = 6.35590 7.53319 6.96945
#
# Compressibility (1/GPa) = 0.01732290
#
# Stress axis : x y z
#
# Youngs Moduli (GPa) = 94.03907 55.60931 73.10495
#
# Poissons Ratio (x) = 0.34413 0.36638
# Poissons Ratio (y) = 0.58194 0.09404
# Poissons Ratio (z) = 0.47129 0.07153
#
# Static dielectric constant tensor:
#      x y z
#    x 1.962450 -0.421450 0.234040 
#    y -0.421450 1.043450 0.439280 
#    z 0.234040 0.439280 1.944850 
# 
# From -- ./inp_files/47635.got.cif
#   From: 2010.05.17/outbox.cif.g08.bks.cpg/sg2_24_cif.got.tgz:47635.got - 2010.06.03 11:33:40.
