data_PCOD9058443
_publ_section_title
;
Structure prediction by ZEFSAII (Michael W. Deem and Ramdas Pophale) SiO2 
 PCOD9058443
Probable space group: P -1
;
_chemical_formula_sum "Si O2"
_cell_formula_units_Z 16
_cell_length_a 10.602608
_cell_length_b 11.912359
_cell_length_c 17.306358
_cell_angle_alpha 159.065439
_cell_angle_beta 115.606477
_cell_angle_gamma 64.350391
_cell_volume 701.393269
_symmetry_space_group_name_H-M "P -1"
_symmetry_group_IT_number 2
_symmetry_cell_setting 'triclinic'
loop_
_space_group_symop_operation_xyz
x,y,z
-x,-y,-z
loop_
_atom_site_type_symbol
_atom_site_label
_atom_site_fract_x
_atom_site_fract_y
_atom_site_fract_z
Si Si1 0.399307 0.750058 0.344647
Si Si2 0.438204 0.285487 0.913324
Si Si3 0.885914 0.246722 0.323682
Si Si4 0.309830 0.059709 0.156972
Si Si5 0.404169 0.714260 0.809407
Si Si6 0.058777 0.744434 0.952097
Si Si7 0.877974 0.377732 0.575930
Si Si8 0.192817 0.081393 0.616400
O O1 0.484570 0.575530 0.325768
O O2 0.500000 0.000000 0.500000
O O3 0.257598 0.926685 0.455322
O O4 0.384792 0.504564 0.112948
O O5 0.317875 0.117607 0.732836
O O6 0.552629 0.022258 0.808799
O O7 0.500000 0.500000 0.000000
O O8 0.722550 0.343117 0.319489
O O9 0.896447 0.188891 0.380613
O O10 0.000000 0.500000 0.500000
O O11 0.934687 0.931194 0.086866
O O12 0.268489 0.403060 0.331100
O O13 0.325758 0.813752 0.932619
O O14 0.179796 0.972831 0.117949
O O15 0.500000 0.000000 0.000000
O O16 0.127526 0.434926 0.813583
O O17 0.995281 0.622954 0.777547
O O18 0.893975 0.160203 0.515505
#
# Coordination Sequence:
#
# PCOD9058443 Si02
#       8
#     2   2   2   2   2   2   2   2
#     4  11  24  43  70 101 140 189 233 288 359 434
#     4  11  23  43  69 105 141 181 239 292 351 425
#     4  12  27  46  77 106 139 195 248 292 361 436
#     4  11  22  45  73  97 142 186 231 303 346 424
#     4  11  25  45  71 105 146 183 234 306 366 410
#     4  12  25  50  70  99 151 187 239 294 354 437
#     4  12  27  43  70 107 138 187 243 291 359 420
#     4  12  27  44  70 105 146 186 232 297 362 423
#
# _framework density 22.81174
#
# number of rings (size 3 to 8) (size 9 to 14) (size 15 to 20)
#    0.000    0.500    5.000    3.000    5.250    3.000 
#    0.000    0.000    0.000    0.000    0.000    0.000 
#    0.000    0.000    0.000    0.000    0.000    0.000 
#
# Total GULP energy -89480.433595 kJ/mol
# GULP energy per Si atom -5592.527100 kJ/mol
# Density = 2.275982 g / cm^3
# Si number density = 22.811740 Si / 1000 Ang^3
#
#
#
# Elastic Constant Matrix: (Units=GPa)
#
#
# Indices 1 2 3 4 5 6 
#
# 1 42.1891 3.2211 18.5936 -3.7585 0.4136 8.1404
# 2 3.2211 112.9924 27.7165 7.7223 -0.5404 -8.8321
# 3 18.5936 27.7165 66.6147 3.1410 -5.9772 -4.4688
# 4 -3.7585 7.7223 3.1410 61.6220 1.5319 2.2613
# 5 0.4136 -0.5404 -5.9772 1.5319 42.7383 -2.8251
# 6 8.1404 -8.8321 -4.4688 2.2613 -2.8251 33.5738
#
#
#
# Elastic Compliance Matrix: (Units=1/GPa)
#
#
# Indices 1 2 3 4 5 6 
#
# 1 0.029758 0.000607 -0.009467 0.002597 -0.002271 -0.008682
# 2 0.000607 0.010094 -0.004211 -0.001079 -0.000297 0.001995
# 3 -0.009467 -0.004211 0.020034 -0.001304 0.003165 0.004208
# 4 0.002597 -0.001079 -0.001304 0.016696 -0.000971 -0.002293
# 5 -0.002271 -0.000297 0.003165 -0.000971 0.024091 0.002987
# 6 -0.008682 0.001995 0.004208 -0.002293 0.002987 0.033381
#
#
# Mechanical properties :
#
#
# Convention : Reuss Voigt Hill
#
# Bulk Modulus (GPa) = 29.63563 35.65096 32.64329
# Shear Modulus (GPa) = 29.16389 39.07115 34.11752
#
# Velocity S-wave (km/s) = 3.57943 4.14305 3.87151
# Velocity P-wave (km/s) = 5.48660 6.20876 5.85882
#
# Compressibility (1/GPa) = 0.03374317
#
# Stress axis : x y z
#
# Youngs Moduli (GPa) = 33.60494 99.06743 49.91472
#
# Poissons Ratio (x) = -0.06014 0.47255
# Poissons Ratio (y) = -0.02040 0.21020
# Poissons Ratio (z) = 0.31814 0.41719
#
# Static dielectric constant tensor:
#      x y z
#    x 1.963240 0.015690 0.049820 
#    y 0.015690 1.849380 0.028030 
#    z 0.049820 0.028030 1.872490 
# 
# From -- ./inp_files/437350.got.cif
#   From: 2010.05.17/outbox.cif.g08.bks.cpg/sg2_219_cif.got.tgz:437350.got - 2010.06.03 11:33:40.
