data_PCOD9058552
_publ_section_title
;
Structure prediction by ZEFSAII (Michael W. Deem and Ramdas Pophale) SiO2 
 PCOD9058552
Probable space group: P -1
;
_chemical_formula_sum "Si O2"
_cell_formula_units_Z 14
_cell_length_a 8.221551
_cell_length_b 18.310949
_cell_length_c 8.505449
_cell_angle_alpha 50.059398
_cell_angle_beta 55.551332
_cell_angle_gamma 93.544560
_cell_volume 599.406424
_symmetry_space_group_name_H-M "P -1"
_symmetry_group_IT_number 2
_symmetry_cell_setting 'triclinic'
loop_
_space_group_symop_operation_xyz
x,y,z
-x,-y,-z
loop_
_atom_site_type_symbol
_atom_site_label
_atom_site_fract_x
_atom_site_fract_y
_atom_site_fract_z
Si Si1 0.262611 0.704273 0.803798
Si Si2 0.210972 0.046143 0.949528
Si Si3 0.716647 0.635710 0.106473
Si Si4 0.991272 0.877028 0.820154
Si Si5 0.464331 0.941467 0.924838
Si Si6 0.631814 0.463212 0.870647
Si Si7 0.860582 0.250301 0.876605
O O1 0.508345 0.807975 0.414331
O O2 0.278833 0.599221 0.990002
O O3 0.317267 0.775381 0.841993
O O4 0.993957 0.663563 0.930933
O O5 0.262256 0.958632 0.976634
O O6 0.092558 0.045639 0.180195
O O7 0.000000 0.000000 0.000000
O O8 0.500000 0.500000 0.500000
O O9 0.589336 0.622760 0.026231
O O10 0.776317 0.753371 0.001182
O O11 0.264428 0.966630 0.448135
O O12 0.026314 0.814222 0.033034
O O13 0.298385 0.801036 0.130816
O O14 0.500000 0.000000 0.000000
O O15 0.898180 0.596516 0.469840
O O16 0.500000 0.500000 0.000000
#
# Coordination Sequence:
#
# PCOD9058552 Si02
#       7
#     2   2   2   2   2   2   2
#     4  11  25  46  75 109 146 192 247 302 370 434
#     4  12  24  44  77 104 139 198 242 291 370 434
#     4  11  24  46  72 106 148 190 242 300 368 434
#     4  11  23  46  73 102 145 190 238 302 364 432
#     4  12  27  45  71 107 144 182 245 305 362 434
#     4  12  27  44  72 109 145 192 244 300 365 443
#     4  11  22  46  71 100 143 191 234 299 362 429
#
# _framework density 23.356439000000002
#
# number of rings (size 3 to 8) (size 9 to 14) (size 15 to 20)
#    0.000    0.571    7.143    2.571    2.000    2.286 
#    0.000    0.000    0.000    0.000    0.000    0.000 
#    0.000    0.000    0.000    0.000    0.000    0.000 
#
# Total GULP energy -77936.191815 kJ/mol
# GULP energy per Si atom -5566.870844 kJ/mol
# Density = 2.330328 g / cm^3
# Si number density = 23.356439 Si / 1000 Ang^3
#
#
#
# Elastic Constant Matrix: (Units=GPa)
#
#
# Indices 1 2 3 4 5 6 
#
# 1 70.6013 9.7621 34.6681 -13.9110 -6.2084 11.2804
# 2 9.7621 146.1602 20.5161 1.9229 -21.3951 22.6041
# 3 34.6681 20.5161 167.6642 6.1986 -10.9672 -0.2873
# 4 -13.9110 1.9229 6.1986 39.5953 -3.1833 -13.2973
# 5 -6.2084 -21.3951 -10.9672 -3.1833 31.4398 -10.6640
# 6 11.2804 22.6041 -0.2873 -13.2973 -10.6640 50.9080
#
#
#
# Elastic Compliance Matrix: (Units=1/GPa)
#
#
# Indices 1 2 3 4 5 6 
#
# 1 0.017763 -0.000158 -0.003754 0.006417 0.002143 -0.001762
# 2 -0.000158 0.008009 -0.000647 -0.000996 0.004100 -0.002926
# 3 -0.003754 -0.000647 0.006983 -0.001956 0.001373 0.000935
# 4 0.006417 -0.000996 -0.001956 0.031155 0.005905 0.008384
# 5 0.002143 0.004100 0.001373 0.005905 0.038586 0.007338
# 6 -0.001762 -0.002926 0.000935 0.008384 0.007338 0.025065
#
#
# Mechanical properties :
#
#
# Convention : Reuss Voigt Hill
#
# Bulk Modulus (GPa) = 42.30448 57.14645 49.72546
# Shear Modulus (GPa) = 34.58797 45.68726 40.13761
#
# Velocity S-wave (km/s) = 3.85239 4.42757 4.14995
# Velocity P-wave (km/s) = 6.15952 7.11744 6.65574
#
# Compressibility (1/GPa) = 0.02363816
#
# Stress axis : x y z
#
# Youngs Moduli (GPa) = 56.29550 124.85941 143.19577
#
# Poissons Ratio (x) = 0.01969 0.53752
# Poissons Ratio (y) = 0.00888 0.09271
# Poissons Ratio (z) = 0.21132 0.08084
#
# Static dielectric constant tensor:
#      x y z
#    x -2.639110 -1.362910 1.736630 
#    y -1.362910 1.463450 0.584320 
#    z 1.736630 0.584320 1.438040 
# 
# From -- ./inp_files/216968.got.cif
#   From: 2010.05.17/outbox.cif.g08.bks.cpg/sg2_109_cif.got.tgz:216968.got - 2010.06.03 11:33:40.
