data_PCOD9058564
_publ_section_title
;
Structure prediction by ZEFSAII (Michael W. Deem and Ramdas Pophale) SiO2 
 PCOD9058564
Probable space group: P -1
;
_chemical_formula_sum "Si O2"
_cell_formula_units_Z 16
_cell_length_a 18.535675
_cell_length_b 8.090635
_cell_length_c 19.680303
_cell_angle_alpha 122.391920
_cell_angle_beta 20.897513
_cell_angle_gamma 132.720714
_cell_volume 717.192815
_symmetry_space_group_name_H-M "P -1"
_symmetry_group_IT_number 2
_symmetry_cell_setting 'triclinic'
loop_
_space_group_symop_operation_xyz
x,y,z
-x,-y,-z
loop_
_atom_site_type_symbol
_atom_site_label
_atom_site_fract_x
_atom_site_fract_y
_atom_site_fract_z
Si Si1 0.407682 0.447379 0.645802
Si Si2 0.102630 0.871131 0.922083
Si Si3 0.640663 0.307667 0.588917
Si Si4 0.271971 0.604240 0.314298
Si Si5 0.121688 0.090191 0.337931
Si Si6 0.303874 0.914567 0.032318
Si Si7 0.596133 0.734281 0.676323
Si Si8 0.169261 0.576503 0.689306
O O1 0.500000 0.500000 0.500000
O O2 0.487288 0.652928 0.677969
O O3 0.546633 0.334026 0.528238
O O4 0.110116 0.283732 0.869363
O O5 0.104895 0.697028 0.828296
O O6 0.371774 0.057629 0.758359
O O7 0.000000 0.000000 0.000000
O O8 0.726782 0.326840 0.593538
O O9 0.613548 0.525752 0.646034
O O10 0.827908 0.342826 0.372609
O O11 0.290056 0.378595 0.249274
O O12 0.000000 0.500000 0.500000
O O13 0.505832 0.834066 0.119682
O O14 0.257724 0.978692 0.161772
O O15 0.000000 0.000000 0.500000
O O16 0.875489 0.978726 0.483253
O O17 0.027173 0.715420 0.200542
O O18 0.432725 0.776667 0.878885
#
# Coordination Sequence:
#
# PCOD9058564 Si02
#       8
#     2   2   2   2   2   2   2   2
#     4  11  25  42  67 104 141 183 227 279 349 416
#     4  12  23  43  70 104 141 181 233 282 342 419
#     4  11  24  46  71 103 142 183 238 287 338 427
#     4  12  27  47  69 106 139 179 237 299 344 404
#     4  12  24  49  73  98 137 184 235 289 350 421
#     4  12  24  44  74 100 140 182 227 295 352 404
#     4  11  22  46  71  98 142 181 234 277 350 422
#     4  11  23  45  70 100 141 186 226 281 349 426
#
# _framework density 22.309204000000001
#
# number of rings (size 3 to 8) (size 9 to 14) (size 15 to 20)
#    0.000    0.500    8.750    0.750    1.750    2.000 
#    2.250    1.250    0.000    0.000    0.000    0.000 
#    0.000    0.000    0.000    0.000    0.000    0.000 
#
# Total GULP energy -89400.945081 kJ/mol
# GULP energy per Si atom -5587.559068 kJ/mol
# Density = 2.225843 g / cm^3
# Si number density = 22.309204 Si / 1000 Ang^3
#
#
#
# Elastic Constant Matrix: (Units=GPa)
#
#
# Indices 1 2 3 4 5 6 
#
# 1 115.5448 35.6489 47.0500 -7.8721 24.3953 30.1289
# 2 35.6489 112.1702 57.8108 -4.8045 15.6462 23.1661
# 3 47.0500 57.8108 148.7426 -3.9035 30.6548 20.3791
# 4 -7.8721 -4.8045 -3.9035 58.9073 9.9944 -2.7785
# 5 24.3953 15.6462 30.6548 9.9944 36.3680 3.4789
# 6 30.1289 23.1661 20.3791 -2.7785 3.4789 24.5307
#
#
#
# Elastic Compliance Matrix: (Units=1/GPa)
#
#
# Indices 1 2 3 4 5 6 
#
# 1 0.015361 0.000394 -0.000761 0.002752 -0.008960 -0.017025
# 2 0.000394 0.012794 -0.003314 0.000824 -0.002303 -0.009393
# 3 -0.000761 -0.003314 0.010090 0.001265 -0.006607 -0.003238
# 4 0.002752 0.000824 0.001265 0.018805 -0.008252 -0.001909
# 5 -0.008960 -0.002303 -0.006607 -0.008252 0.041197 0.011892
# 6 -0.017025 -0.009393 -0.003238 -0.001909 0.011892 0.071333
#
#
# Mechanical properties :
#
#
# Convention : Reuss Voigt Hill
#
# Bulk Modulus (GPa) = 32.37929 73.05299 52.71614
# Shear Modulus (GPa) = 26.70401 39.69104 33.19753
#
# Velocity S-wave (km/s) = 3.46352 4.22255 3.86173
# Velocity P-wave (km/s) = 5.52630 7.52263 6.60038
#
# Compressibility (1/GPa) = 0.03088394
#
# Stress axis : x y z
#
# Youngs Moduli (GPa) = 65.09797 78.15947 99.10608
#
# Poissons Ratio (x) = -0.03078 0.07540
# Poissons Ratio (y) = -0.02563 0.32844
# Poissons Ratio (z) = 0.04953 0.25902
#
# Static dielectric constant tensor:
#      x y z
#    x 1.874720 -0.024630 -0.005530 
#    y -0.024630 1.871490 -0.009010 
#    z -0.005530 -0.009010 1.858520 
# 
# From -- ./inp_files/601183.got.cif
#   From: 2010.05.17/outbox.cif.g08.bks.cpg/sg2_301_cif.got.tgz:601183.got - 2010.06.03 11:33:40.
