data_PCOD9058380
_publ_section_title
;
Structure prediction by ZEFSAII (Michael W. Deem and Ramdas Pophale) SiO2 
 PCOD9058380
Probable space group: P -1
;
_chemical_formula_sum "Si O2"
_cell_formula_units_Z 16
_cell_length_a 16.069087
_cell_length_b 5.225659
_cell_length_c 11.698823
_cell_angle_alpha 103.114856
_cell_angle_beta 130.517964
_cell_angle_gamma 91.283965
_cell_volume 707.928335
_symmetry_space_group_name_H-M "P -1"
_symmetry_group_IT_number 2
_symmetry_cell_setting 'triclinic'
loop_
_space_group_symop_operation_xyz
x,y,z
-x,-y,-z
loop_
_atom_site_type_symbol
_atom_site_label
_atom_site_fract_x
_atom_site_fract_y
_atom_site_fract_z
Si Si1 0.358625 0.531534 0.686192
Si Si2 0.877459 0.416949 0.827014
Si Si3 0.860259 0.829924 0.651512
Si Si4 0.409084 0.504031 0.078112
Si Si5 0.033887 0.805514 0.606932
Si Si6 0.701436 0.112388 0.135709
Si Si7 0.485988 0.743413 0.591983
Si Si8 0.344115 0.771065 0.261289
O O1 0.251057 0.302902 0.532919
O O2 0.457773 0.415812 0.821227
O O3 0.322304 0.759139 0.751921
O O4 0.419890 0.665567 0.640710
O O5 0.858994 0.648239 0.746198
O O6 0.784620 0.352926 0.838192
O O7 0.865132 0.136792 0.719994
O O8 0.000000 0.500000 0.000000
O O9 0.965662 0.821689 0.663853
O O10 0.389813 0.562550 0.200654
O O11 0.338912 0.685169 0.967408
O O12 0.366238 0.191937 0.976147
O O13 0.166997 0.880156 0.754766
O O14 0.000000 0.500000 0.500000
O O15 0.000000 0.000000 0.500000
O O16 0.500000 0.500000 0.500000
O O17 0.399618 0.855231 0.444010
O O18 0.605450 0.951780 0.732163
#
# Coordination Sequence:
#
# PCOD9058380 Si02
#       8
#     2   2   2   2   2   2   2   2
#     4  12  25  49  78 111 155 196 266 307 380 459
#     4  12  29  49  74 112 153 197 251 318 389 461
#     4  12  28  48  80 109 150 200 259 321 381 450
#     4  12  28  47  74 108 159 203 239 316 383 457
#     4  12  26  51  78 108 145 197 262 322 373 443
#     4  12  29  48  75 109 154 201 254 311 383 450
#     4  11  22  45  71 106 142 188 248 314 361 447
#     4  11  26  43  74 106 147 195 252 303 391 444
#
# _framework density 22.601156
#
# number of rings (size 3 to 8) (size 9 to 14) (size 15 to 20)
#    0.000    0.250    3.750    4.125    5.250    2.000 
#    0.000    0.000    0.000    0.000    0.000    0.000 
#    0.000    0.000    0.000    0.000    0.000    0.000 
#
# Total GULP energy -89573.075212 kJ/mol
# GULP energy per Si atom -5598.317201 kJ/mol
# Density = 2.254972 g / cm^3
# Si number density = 22.601156 Si / 1000 Ang^3
#
#
#
# Elastic Constant Matrix: (Units=GPa)
#
#
# Indices 1 2 3 4 5 6 
#
# 1 173.6529 14.2534 44.6566 11.1736 18.2450 2.7978
# 2 14.2534 106.5013 33.4712 2.9901 0.1429 3.6845
# 3 44.6566 33.4712 125.6768 5.7771 24.6284 2.0548
# 4 11.1736 2.9901 5.7771 43.3142 -9.3682 -4.0720
# 5 18.2450 0.1429 24.6284 -9.3682 53.7704 -2.5001
# 6 2.7978 3.6845 2.0548 -4.0720 -2.5001 29.1535
#
#
#
# Elastic Compliance Matrix: (Units=1/GPa)
#
#
# Indices 1 2 3 4 5 6 
#
# 1 0.006569 -0.000218 -0.001829 -0.001901 -0.001763 -0.000891
# 2 -0.000218 0.010372 -0.002926 -0.000075 0.001328 -0.000980
# 3 -0.001829 -0.002926 0.010353 -0.001747 -0.004456 -0.000811
# 4 -0.001901 -0.000075 -0.001747 0.025550 0.006102 0.004407
# 5 -0.001763 0.001328 -0.004456 0.006102 0.022440 0.003092
# 6 -0.000891 -0.000980 -0.000811 0.004407 0.003092 0.035448
#
#
# Mechanical properties :
#
#
# Convention : Reuss Voigt Hill
#
# Bulk Modulus (GPa) = 57.63948 65.62149 61.63048
# Shear Modulus (GPa) = 39.53847 46.14428 42.84138
#
# Velocity S-wave (km/s) = 4.18712 4.52340 4.35850
# Velocity P-wave (km/s) = 6.99530 7.50860 7.25649
#
# Compressibility (1/GPa) = 0.01734922
#
# Stress axis : x y z
#
# Youngs Moduli (GPa) = 152.23882 96.40900 96.59427
#
# Poissons Ratio (x) = 0.02101 0.17662
# Poissons Ratio (y) = 0.03317 0.28262
# Poissons Ratio (z) = 0.27837 0.28208
#
# Static dielectric constant tensor:
#      x y z
#    x 1.886580 -0.002200 -0.000420 
#    y -0.002200 1.924320 -0.100530 
#    z -0.000420 -0.100530 1.888140 
# 
# From -- ./inp_files/442199.got.cif
#   From: 2010.05.17/outbox.cif.g08.bks.cpg/sg2_222_cif.got.tgz:442199.got - 2010.06.03 11:33:40.
