data_PCOD9058101
_publ_section_title
;
Structure prediction by ZEFSAII (Michael W. Deem and Ramdas Pophale) SiO2 
 PCOD9058101
Probable space group: P -1
;
_chemical_formula_sum "Si O2"
_cell_formula_units_Z 16
_cell_length_a 7.419958
_cell_length_b 11.526662
_cell_length_c 9.211336
_cell_angle_alpha 97.404367
_cell_angle_beta 119.085664
_cell_angle_gamma 82.696362
_cell_volume 680.838608
_symmetry_space_group_name_H-M "P -1"
_symmetry_group_IT_number 2
_symmetry_cell_setting 'triclinic'
loop_
_space_group_symop_operation_xyz
x,y,z
-x,-y,-z
loop_
_atom_site_type_symbol
_atom_site_label
_atom_site_fract_x
_atom_site_fract_y
_atom_site_fract_z
Si Si1 0.795536 0.940109 0.870327
Si Si2 0.551696 0.558224 0.878234
Si Si3 0.746887 0.780904 0.070151
Si Si4 0.174712 0.629209 0.191411
Si Si5 0.985366 0.136384 0.558850
Si Si6 0.615833 0.153208 0.649965
Si Si7 0.211575 0.504457 0.494700
Si Si8 0.176938 0.238128 0.390007
O O1 0.864445 0.823974 0.786423
O O2 0.661811 0.038638 0.745736
O O3 0.698697 0.893640 0.970166
O O4 0.000000 0.000000 0.000000
O O5 0.761456 0.485949 0.894406
O O6 0.387648 0.538772 0.681958
O O7 0.500000 0.500000 0.000000
O O8 0.575058 0.692197 0.953390
O O9 0.819378 0.826513 0.262102
O O10 0.956466 0.701390 0.095131
O O11 0.339703 0.724625 0.235454
O O12 0.191614 0.588184 0.360322
O O13 0.997960 0.216207 0.432824
O O14 0.780092 0.150863 0.580404
O O15 0.000000 0.000000 0.500000
O O16 0.382085 0.163249 0.511307
O O17 0.240257 0.370609 0.426124
O O18 0.000000 0.500000 0.500000
#
# Coordination Sequence:
#
# PCOD9058101 Si02
#       8
#     2   2   2   2   2   2   2   2
#     4  12  23  45  70 105 137 183 234 297 354 417
#     4  12  25  44  70 106 147 179 234 303 359 422
#     4  11  25  44  73 102 142 181 236 296 364 415
#     4  11  23  45  71  97 142 189 232 284 358 432
#     4  11  22  44  71 102 137 185 237 287 348 429
#     4  11  24  45  75  98 141 190 235 287 355 426
#     4  12  26  47  72 105 138 190 244 289 357 441
#     4  12  25  45  75  97 140 187 240 285 358 431
#
# _framework density 23.500430999999999
#
# number of rings (size 3 to 8) (size 9 to 14) (size 15 to 20)
#    0.000    0.500    5.000    4.875    1.750    1.000 
#    0.000    0.625    2.750    0.000    0.000    0.000 
#    0.000    0.000    0.000    0.000    0.000    0.000 
#
# Total GULP energy -89488.923138 kJ/mol
# GULP energy per Si atom -5593.057696 kJ/mol
# Density = 2.344694 g / cm^3
# Si number density = 23.500431 Si / 1000 Ang^3
#
#
#
# Elastic Constant Matrix: (Units=GPa)
#
#
# Indices 1 2 3 4 5 6 
#
# 1 51.1253 7.8197 23.7245 -8.1056 3.5156 -3.3934
# 2 7.8197 140.1266 54.9957 3.0887 9.7316 17.8868
# 3 23.7245 54.9957 99.2759 7.4108 -4.6042 4.4867
# 4 -8.1056 3.0887 7.4108 61.6240 10.9774 -0.5499
# 5 3.5156 9.7316 -4.6042 10.9774 33.1693 3.8858
# 6 -3.3934 17.8868 4.4867 -0.5499 3.8858 36.3276
#
#
#
# Elastic Compliance Matrix: (Units=1/GPa)
#
#
# Indices 1 2 3 4 5 6 
#
# 1 0.024213 0.001457 -0.007401 0.005115 -0.006087 0.003187
# 2 0.001457 0.010153 -0.006068 0.001074 -0.003900 -0.003680
# 3 -0.007401 -0.006068 0.015768 -0.003637 0.005998 -0.000348
# 4 0.005115 0.001074 -0.003637 0.018672 -0.007718 0.001506
# 5 -0.006087 -0.003900 0.005998 -0.007718 0.035714 -0.003326
# 6 0.003187 -0.003680 -0.000348 0.001506 -0.003326 0.030059
#
#
# Mechanical properties :
#
#
# Convention : Reuss Voigt Hill
#
# Bulk Modulus (GPa) = 38.29934 51.51196 44.90565
# Shear Modulus (GPa) = 29.88519 39.82337 34.85428
#
# Velocity S-wave (km/s) = 3.56994 4.12099 3.85533
# Velocity P-wave (km/s) = 5.77281 6.67912 6.24243
#
# Compressibility (1/GPa) = 0.02611011
#
# Stress axis : x y z
#
# Youngs Moduli (GPa) = 41.30088 98.48910 63.41816
#
# Poissons Ratio (x) = -0.14349 0.46938
# Poissons Ratio (y) = -0.06017 0.38479
# Poissons Ratio (z) = 0.30569 0.59759
#
# Static dielectric constant tensor:
#      x y z
#    x 1.907910 -0.012400 -0.035220 
#    y -0.012400 1.877680 0.051700 
#    z -0.035220 0.051700 1.973590 
# 
# From -- ./inp_files/180702.got.cif
#   From: 2010.05.17/outbox.cif.g08.bks.cpg/sg2_91_cif.got.tgz:180702.got - 2010.06.03 11:33:40.
