data_PCOD9058414
_publ_section_title
;
Structure prediction by ZEFSAII (Michael W. Deem and Ramdas Pophale) SiO2 
 PCOD9058414
Probable space group: P -1
;
_chemical_formula_sum "Si O2"
_cell_formula_units_Z 16
_cell_length_a 13.956301
_cell_length_b 9.283751
_cell_length_c 13.648179
_cell_angle_alpha 90.079455
_cell_angle_beta 36.143714
_cell_angle_gamma 66.132430
_cell_volume 756.991002
_symmetry_space_group_name_H-M "P -1"
_symmetry_group_IT_number 2
_symmetry_cell_setting 'triclinic'
loop_
_space_group_symop_operation_xyz
x,y,z
-x,-y,-z
loop_
_atom_site_type_symbol
_atom_site_label
_atom_site_fract_x
_atom_site_fract_y
_atom_site_fract_z
Si Si1 0.807041 0.043026 0.223807
Si Si2 0.968957 0.628702 0.115595
Si Si3 0.955614 0.154280 0.256596
Si Si4 0.423378 0.764705 0.883728
Si Si5 0.166510 0.797283 0.420259
Si Si6 0.677633 0.508147 0.020875
Si Si7 0.334267 0.395338 0.520602
Si Si8 0.798016 0.532446 0.712716
O O1 0.850971 0.074177 0.296739
O O2 0.566441 0.242649 0.387056
O O3 0.847160 0.848998 0.183262
O O4 0.000000 0.000000 0.000000
O O5 0.814446 0.648142 0.324749
O O6 0.201386 0.526523 0.977632
O O7 0.000000 0.500000 0.000000
O O8 0.932988 0.171521 0.391258
O O9 0.813256 0.374134 0.333323
O O10 0.220479 0.989842 0.017683
O O11 0.595438 0.644744 0.651299
O O12 0.561733 0.732661 0.863702
O O13 0.321443 0.667576 0.989083
O O14 0.189740 0.636156 0.340604
O O15 0.415589 0.706634 0.231502
O O16 0.000000 0.000000 0.500000
O O17 0.793307 0.516698 0.833368
O O18 0.000000 0.500000 0.500000
#
# Coordination Sequence:
#
# PCOD9058414 Si02
#       8
#     2   2   2   2   2   2   2   2
#     4  12  25  47  73  99 139 193 235 292 349 424
#     4  12  28  46  70 108 144 186 240 296 360 415
#     4  12  23  43  76 101 139 185 243 281 353 423
#     4  11  22  46  73 104 140 186 237 287 345 434
#     4  11  24  43  70 108 135 184 243 285 344 434
#     4  11  22  45  72  98 144 190 233 287 350 427
#     4  12  25  45  69 106 144 180 236 297 356 410
#     4  11  23  44  72 102 146 181 226 298 361 411
#
# _framework density 21.136315
#
# number of rings (size 3 to 8) (size 9 to 14) (size 15 to 20)
#    0.000    0.500    5.000    5.250    1.750    0.000 
#    2.250    1.250    0.000    0.000    0.000    0.000 
#    0.000    0.000    0.000    0.000    0.000    0.000 
#
# Total GULP energy -89484.840432 kJ/mol
# GULP energy per Si atom -5592.802527 kJ/mol
# Density = 2.108821 g / cm^3
# Si number density = 21.136315 Si / 1000 Ang^3
#
#
#
# Elastic Constant Matrix: (Units=GPa)
#
#
# Indices 1 2 3 4 5 6 
#
# 1 97.9927 26.9724 15.8978 18.0121 -19.0919 -15.6491
# 2 26.9724 123.8557 49.2336 19.5728 -16.1687 -11.1946
# 3 15.8978 49.2336 95.9082 9.1116 -21.8327 -5.6758
# 4 18.0121 19.5728 9.1116 48.5860 -9.1604 -6.1140
# 5 -19.0919 -16.1687 -21.8327 -9.1604 44.2569 7.9919
# 6 -15.6491 -11.1946 -5.6758 -6.1140 7.9919 26.3755
#
#
#
# Elastic Compliance Matrix: (Units=1/GPa)
#
#
# Indices 1 2 3 4 5 6 
#
# 1 0.012598 -0.001370 -0.000037 -0.002817 0.003393 0.005204
# 2 -0.001370 0.010994 -0.005034 -0.002708 -0.000005 0.002144
# 3 -0.000037 -0.005034 0.014158 0.000306 0.005310 -0.000650
# 4 -0.002817 -0.002708 0.000306 0.023361 0.002434 0.001923
# 5 0.003393 -0.000005 0.005310 0.002434 0.028044 -0.004780
# 6 0.005204 0.002144 -0.000650 0.001923 -0.004780 0.043666
#
#
# Mechanical properties :
#
#
# Convention : Reuss Voigt Hill
#
# Bulk Modulus (GPa) = 40.21172 55.77381 47.99277
# Shear Modulus (GPa) = 32.46924 38.88720 35.67822
#
# Velocity S-wave (km/s) = 3.92367 4.29398 4.11299
# Velocity P-wave (km/s) = 6.29231 7.14348 6.73136
#
# Compressibility (1/GPa) = 0.02486837
#
# Stress axis : x y z
#
# Youngs Moduli (GPa) = 79.37837 90.95582 70.63106
#
# Poissons Ratio (x) = 0.12465 0.00260
# Poissons Ratio (y) = 0.10878 0.35554
# Poissons Ratio (z) = 0.00292 0.45785
#
# Static dielectric constant tensor:
#      x y z
#    x 1.786530 -0.024100 -0.002500 
#    y -0.024100 1.765330 0.018690 
#    z -0.002500 0.018690 1.770080 
# 
# From -- ./inp_files/529739.got.cif
#   From: 2010.05.17/outbox.cif.g08.bks.cpg/sg2_265_cif.got.tgz:529739.got - 2010.06.03 11:33:40.
