data_PCOD9058160
_publ_section_title
;
Structure prediction by ZEFSAII (Michael W. Deem and Ramdas Pophale) SiO2 
 PCOD9058160
Probable space group: P -1
;
_chemical_formula_sum "Si O2"
_cell_formula_units_Z 14
_cell_length_a 8.583881
_cell_length_b 14.363629
_cell_length_c 14.139620
_cell_angle_alpha 31.546619
_cell_angle_beta 139.188174
_cell_angle_gamma 137.188070
_cell_volume 575.783858
_symmetry_space_group_name_H-M "P -1"
_symmetry_group_IT_number 2
_symmetry_cell_setting 'triclinic'
loop_
_space_group_symop_operation_xyz
x,y,z
-x,-y,-z
loop_
_atom_site_type_symbol
_atom_site_label
_atom_site_fract_x
_atom_site_fract_y
_atom_site_fract_z
Si Si1 0.028575 0.188909 0.400571
Si Si2 0.881084 0.432288 0.605894
Si Si3 0.790747 0.027384 0.623550
Si Si4 0.383255 0.666822 0.962011
Si Si5 0.577627 0.459589 0.706504
Si Si6 0.777370 0.055291 0.799003
Si Si7 0.924582 0.637535 0.050559
O O1 0.881039 0.294211 0.173958
O O2 0.289491 0.325439 0.414775
O O3 0.912937 0.145130 0.488540
O O4 0.000000 0.000000 0.500000
O O5 0.689153 0.547121 0.454387
O O6 0.733442 0.219432 0.699997
O O7 0.073328 0.416391 0.790806
O O8 0.000000 0.500000 0.500000
O O9 0.500000 0.000000 0.500000
O O10 0.853891 0.125929 0.667650
O O11 0.875487 0.836721 0.835967
O O12 0.294136 0.511472 0.975279
O O13 0.560461 0.868206 0.846338
O O14 0.480191 0.602803 0.157912
O O15 0.794567 0.368992 0.846504
O O16 0.000000 0.000000 0.000000
#
# Coordination Sequence:
#
# PCOD9058160 Si02
#       7
#     2   2   2   2   2   2   2
#     4  11  22  44  72 109 147 190 252 305 366 437
#     4  12  28  48  77 108 155 195 245 305 374 445
#     4  12  26  46  77 109 149 197 253 307 367 441
#     4  11  24  46  75 103 143 193 248 303 362 438
#     4  11  25  47  76 108 147 198 244 309 376 436
#     4  12  26  49  68 111 151 194 245 306 370 434
#     4  11  26  50  71 112 145 194 252 305 371 438
#
# _framework density 24.314681
#
# number of rings (size 3 to 8) (size 9 to 14) (size 15 to 20)
#    0.000    0.571    2.857    5.571    6.000    0.571 
#    2.571    1.429    0.000    0.000    0.000    0.000 
#    0.000    0.000    0.000    0.000    0.000    0.000 
#
# Total GULP energy -78251.615250 kJ/mol
# GULP energy per Si atom -5589.401089 kJ/mol
# Density = 2.425934 g / cm^3
# Si number density = 24.314681 Si / 1000 Ang^3
#
#
#
# Elastic Constant Matrix: (Units=GPa)
#
#
# Indices 1 2 3 4 5 6 
#
# 1 59.6227 7.9403 30.0284 0.8179 2.0181 0.1418
# 2 7.9403 97.3977 27.1583 -0.9233 2.8911 -5.2903
# 3 30.0284 27.1583 139.9302 23.0758 8.2692 1.6372
# 4 0.8179 -0.9233 23.0758 45.0943 -1.6573 -2.2531
# 5 2.0181 2.8911 8.2692 -1.6573 62.0337 2.7295
# 6 0.1418 -5.2903 1.6372 -2.2531 2.7295 44.1863
#
#
#
# Elastic Compliance Matrix: (Units=1/GPa)
#
#
# Indices 1 2 3 4 5 6 
#
# 1 0.018963 -0.000316 -0.004319 0.001868 0.000017 0.000156
# 2 -0.000316 0.011043 -0.002326 0.001489 -0.000221 0.001499
# 3 -0.004319 -0.002326 0.009400 -0.004860 -0.001099 -0.000793
# 4 0.001868 0.001489 -0.004860 0.024777 0.001112 0.001547
# 5 0.000017 -0.000221 -0.001099 0.001112 0.016348 -0.000939
# 6 0.000156 0.001499 -0.000793 0.001547 -0.000939 0.022977
#
#
# Mechanical properties :
#
#
# Convention : Reuss Voigt Hill
#
# Bulk Modulus (GPa) = 39.23775 47.46718 43.35247
# Shear Modulus (GPa) = 39.70649 45.71777 42.71213
#
# Velocity S-wave (km/s) = 4.04545 4.34089 4.19578
# Velocity P-wave (km/s) = 6.16388 6.68497 6.42971
#
# Compressibility (1/GPa) = 0.02548566
#
# Stress axis : x y z
#
# Youngs Moduli (GPa) = 52.73481 90.55117 106.38063
#
# Poissons Ratio (x) = 0.02861 0.45944
# Poissons Ratio (y) = 0.01666 0.24739
# Poissons Ratio (z) = 0.22775 0.21058
#
# Static dielectric constant tensor:
#      x y z
#    x 1.981270 0.010350 0.056390 
#    y 0.010350 1.783200 -0.033580 
#    z 0.056390 -0.033580 1.873710 
# 
# From -- ./inp_files/505182.got.cif
#   From: 2010.05.17/outbox.cif.g08.bks.cpg/sg2_253_cif.got.tgz:505182.got - 2010.06.03 11:33:40.
