data_PCOD9058405
_publ_section_title
;
Structure prediction by ZEFSAII (Michael W. Deem and Ramdas Pophale) SiO2 
 PCOD9058405
Probable space group: P -1
;
_chemical_formula_sum "Si O2"
_cell_formula_units_Z 15
_cell_length_a 10.402749
_cell_length_b 15.046996
_cell_length_c 6.539003
_cell_angle_alpha 46.469822
_cell_angle_beta 113.215624
_cell_angle_gamma 124.714751
_cell_volume 609.989835
_symmetry_space_group_name_H-M "P -1"
_symmetry_group_IT_number 2
_symmetry_cell_setting 'triclinic'
loop_
_space_group_symop_operation_xyz
x,y,z
-x,-y,-z
loop_
_atom_site_type_symbol
_atom_site_label
_atom_site_fract_x
_atom_site_fract_y
_atom_site_fract_z
Si Si1 0.265126 0.404717 0.529184
Si Si2 0.991043 0.496569 0.740706
Si Si3 0.479650 0.398116 0.336217
Si Si4 0.852567 0.862155 0.878314
Si Si5 0.637221 0.898655 0.382322
Si Si6 0.500000 0.000000 0.500000
Si Si7 0.177334 0.938583 0.116503
Si Si8 0.231989 0.721431 0.770385
O O1 0.106225 0.418795 0.395183
O O2 0.321173 0.372435 0.400043
O O3 0.392280 0.541087 0.499856
O O4 0.251634 0.288841 0.864434
O O5 0.000000 0.500000 0.500000
O O6 0.164597 0.582188 0.809957
O O7 0.884665 0.344199 0.005354
O O8 0.478436 0.259490 0.474840
O O9 0.500000 0.500000 0.000000
O O10 0.791640 0.891703 0.582244
O O11 0.839715 0.961945 0.884246
O O12 0.027043 0.879309 0.972690
O O13 0.584905 0.974089 0.398439
O O14 0.676620 0.977858 0.068245
O O15 0.410916 0.824074 0.770469
O O16 0.201537 0.827981 0.439843
#
# Coordination Sequence:
#
# PCOD9058405 Si02
#       8
#     2   2   2   2   2   1   2   2
#     4  11  24  45  72 106 142 184 248 300 359 450
#     4  11  28  50  76 105 149 201 248 306 376 439
#     4  11  25  42  73 107 144 191 239 304 374 428
#     4  11  22  45  72 108 139 178 245 303 357 446
#     4  12  26  46  72 109 148 196 239 300 384 434
#     4  12  30  46  74 108 156 196 250 302 364 472
#     4  11  24  46  74 105 140 188 241 310 365 429
#     4  11  27  50  71 109 149 195 255 301 364 452
#
# _framework density 24.590574
#
# number of rings (size 3 to 8) (size 9 to 14) (size 15 to 20)
#    0.000    0.800    5.333    0.400    5.600    2.667 
#    7.200    0.000    0.000    0.000    0.000    0.000 
#    0.000    0.000    0.000    0.000    0.000    0.000 
#
# Total GULP energy -83614.109309 kJ/mol
# GULP energy per Si atom -5574.273954 kJ/mol
# Density = 2.453461 g / cm^3
# Si number density = 24.590574 Si / 1000 Ang^3
#
#
#
# Elastic Constant Matrix: (Units=GPa)
#
#
# Indices 1 2 3 4 5 6 
#
# 1 31.0481 -16.3896 20.4862 6.1783 0.0458 -3.1663
# 2 -16.3896 67.3998 12.5853 2.8523 -5.4077 -2.0608
# 3 20.4862 12.5853 174.7573 -16.7576 -24.7581 -2.5000
# 4 6.1783 2.8523 -16.7576 37.2495 2.6223 1.5427
# 5 0.0458 -5.4077 -24.7581 2.6223 39.9106 -1.5137
# 6 -3.1663 -2.0608 -2.5000 1.5427 -1.5137 25.9687
#
#
#
# Elastic Compliance Matrix: (Units=1/GPa)
#
#
# Indices 1 2 3 4 5 6 
#
# 1 0.048016 0.013759 -0.008042 -0.012771 -0.002082 0.006809
# 2 0.013759 0.019216 -0.003331 -0.005458 0.001004 0.003265
# 3 -0.008042 -0.003331 0.007955 0.004897 0.004151 -0.000528
# 4 -0.012771 -0.005458 0.004897 0.031719 0.000100 -0.003397
# 5 -0.002082 0.001004 0.004151 0.000100 0.027833 0.001842
# 6 0.006809 0.003265 -0.000528 -0.003397 0.001842 0.039856
#
#
# Mechanical properties :
#
#
# Convention : Reuss Voigt Hill
#
# Bulk Modulus (GPa) = 12.50628 34.06321 23.28475
# Shear Modulus (GPa) = 25.44847 37.72730 31.58789
#
# Velocity S-wave (km/s) = 3.22046 3.92116 3.58795
# Velocity P-wave (km/s) = 4.35032 5.86369 5.16276
#
# Compressibility (1/GPa) = 0.07995980
#
# Stress axis : x y z
#
# Youngs Moduli (GPa) = 20.82624 52.03975 125.70779
#
# Poissons Ratio (x) = -0.71603 1.01092
# Poissons Ratio (y) = -0.28656 0.41877
# Poissons Ratio (z) = 0.16748 0.17336
#
# Static dielectric constant tensor:
#      x y z
#    x 2.104950 0.234270 0.025330 
#    y 0.234270 2.208830 -0.013070 
#    z 0.025330 -0.013070 1.933570 
# 
# From -- ./inp_files/75321.got.cif
#   From: 2010.05.17/outbox.cif.g08.bks.cpg/sg2_38_cif.got.tgz:75321.got - 2010.06.03 11:33:40.
