data_PCOD9058957
_publ_section_title
;
Structure prediction by ZEFSAII (Michael W. Deem and Ramdas Pophale) SiO2 
 PCOD9058957
Probable space group: P -1
;
_chemical_formula_sum "Si O2"
_cell_formula_units_Z 16
_cell_length_a 14.753389
_cell_length_b 10.495369
_cell_length_c 6.368880
_cell_angle_alpha 78.213571
_cell_angle_beta 100.622914
_cell_angle_gamma 50.276882
_cell_volume 674.460305
_symmetry_space_group_name_H-M "P -1"
_symmetry_group_IT_number 2
_symmetry_cell_setting 'triclinic'
loop_
_space_group_symop_operation_xyz
x,y,z
-x,-y,-z
loop_
_atom_site_type_symbol
_atom_site_label
_atom_site_fract_x
_atom_site_fract_y
_atom_site_fract_z
Si Si1 0.425169 0.974774 0.331723
Si Si2 0.701641 0.650847 0.988318
Si Si3 0.425536 0.391863 0.731071
Si Si4 0.131943 0.343661 0.725494
Si Si5 0.085931 0.153218 0.051300
Si Si6 0.206879 0.613405 0.229063
Si Si7 0.299753 0.775252 0.017571
Si Si8 0.230070 0.035139 0.546103
O O1 0.515266 0.788957 0.307696
O O2 0.500000 0.000000 0.500000
O O3 0.333273 0.982771 0.439031
O O4 0.353710 0.147537 0.092633
O O5 0.608253 0.635174 0.048172
O O6 0.817300 0.562706 0.228529
O O7 0.748494 0.564634 0.806711
O O8 0.295940 0.557107 0.489403
O O9 0.547553 0.368319 0.809178
O O10 0.210548 0.171068 0.658583
O O11 0.000000 0.500000 0.500000
O O12 0.101559 0.286390 0.936964
O O13 0.103759 0.129700 0.317991
O O14 0.205696 0.954292 0.068083
O O15 0.948836 0.237916 0.874243
O O16 0.244787 0.686738 0.053151
O O17 0.279367 0.860989 0.753250
#
# Coordination Sequence:
#
# PCOD9058957 Si02
#       8
#     2   2   2   2   2   2   2   2
#     4  12  21  41  69  97 135 175 219 276 342 409
#     4  12  25  41  66 108 137 176 221 280 350 410
#     4  12  25  46  69 102 140 177 231 288 344 400
#     4  11  23  39  66 103 142 172 220 280 345 415
#     4  11  24  46  71 101 136 185 228 282 345 403
#     4  12  28  45  70 102 139 183 231 285 343 401
#     4  11  26  48  71  99 134 186 240 281 329 407
#     4  11  23  43  71  97 135 182 229 276 339 409
#
# _framework density 23.722673
#
# number of rings (size 3 to 8) (size 9 to 14) (size 15 to 20)
#    0.000    0.500    3.750    4.875    1.750    4.000 
#    0.000    0.000    0.000    0.000    0.000    0.000 
#    0.000    0.000    0.000    0.000    0.000    0.000 
#
# Total GULP energy -89444.373625 kJ/mol
# GULP energy per Si atom -5590.273352 kJ/mol
# Density = 2.366868 g / cm^3
# Si number density = 23.722673 Si / 1000 Ang^3
#
#
#
# Elastic Constant Matrix: (Units=GPa)
#
#
# Indices 1 2 3 4 5 6 
#
# 1 115.3457 10.8230 14.4253 -13.2443 6.4973 -23.0448
# 2 10.8230 38.5454 16.3253 1.9050 0.4009 -2.4851
# 3 14.4253 16.3253 94.8668 -6.4688 4.5251 -17.3119
# 4 -13.2443 1.9050 -6.4688 24.6025 -0.0266 1.5397
# 5 6.4973 0.4009 4.5251 -0.0266 42.1276 -9.0782
# 6 -23.0448 -2.4851 -17.3119 1.5397 -9.0782 29.1855
#
#
#
# Elastic Compliance Matrix: (Units=1/GPa)
#
#
# Indices 1 2 3 4 5 6 
#
# 1 0.011332 -0.003276 0.000871 0.006026 0.000112 0.008902
# 2 -0.003276 0.029236 -0.005448 -0.005272 0.000162 -0.003000
# 3 0.000871 -0.005448 0.013023 0.003826 0.000204 0.007810
# 4 0.006026 -0.005272 0.003826 0.045049 -0.000382 0.004084
# 5 0.000112 0.000162 0.000204 -0.000382 0.025455 0.008161
# 6 0.008902 -0.003000 0.007810 0.004084 0.008161 0.047993
#
#
# Mechanical properties :
#
#
# Convention : Reuss Voigt Hill
#
# Bulk Modulus (GPa) = 26.39549 36.87835 31.63692
# Shear Modulus (GPa) = 24.94743 32.99541 28.97142
#
# Velocity S-wave (km/s) = 3.24640 3.73350 3.49844
# Velocity P-wave (km/s) = 5.02026 5.84506 5.44829
#
# Compressibility (1/GPa) = 0.03788527
#
# Stress axis : x y z
#
# Youngs Moduli (GPa) = 88.24330 34.20451 76.79011
#
# Poissons Ratio (x) = 0.11205 -0.06686
# Poissons Ratio (y) = 0.28906 0.41833
# Poissons Ratio (z) = -0.07683 0.18633
#
# Static dielectric constant tensor:
#      x y z
#    x 1.653450 0.066280 -0.610370 
#    y 0.066280 2.034430 0.275320 
#    z -0.610370 0.275320 0.432040 
# 
# From -- ./inp_files/94618.got.cif
#   From: 2010.05.17/outbox.cif.g08.bks.cpg/sg2_48_cif.got.tgz:94618.got - 2010.06.03 11:33:40.
