data_PCOD9058608
_publ_section_title
;
Structure prediction by ZEFSAII (Michael W. Deem and Ramdas Pophale) SiO2 
 PCOD9058608
Probable space group: P -1
;
_chemical_formula_sum "Si O2"
_cell_formula_units_Z 14
_cell_length_a 19.034551
_cell_length_b 9.555472
_cell_length_c 9.682957
_cell_angle_alpha 125.162316
_cell_angle_beta 27.323748
_cell_angle_gamma 122.250500
_cell_volume 659.760640
_symmetry_space_group_name_H-M "P -1"
_symmetry_group_IT_number 2
_symmetry_cell_setting 'triclinic'
loop_
_space_group_symop_operation_xyz
x,y,z
-x,-y,-z
loop_
_atom_site_type_symbol
_atom_site_label
_atom_site_fract_x
_atom_site_fract_y
_atom_site_fract_z
Si Si1 0.655431 0.602376 0.915049
Si Si2 0.283129 0.280317 0.438297
Si Si3 0.613475 0.198826 0.794278
Si Si4 0.606290 0.152883 0.472724
Si Si5 0.042862 0.342975 0.433989
Si Si6 0.096423 0.960254 0.672999
Si Si7 0.120507 0.597545 0.955369
O O1 0.700627 0.671115 0.723443
O O2 0.650250 0.398170 0.806064
O O3 0.777928 0.657318 0.847317
O O4 0.495777 0.682171 0.269177
O O5 0.238168 0.448630 0.692617
O O6 0.147655 0.137875 0.613259
O O7 0.443568 0.202261 0.156746
O O8 0.611464 0.103358 0.596831
O O9 0.748678 0.131151 0.609348
O O10 0.776643 0.230915 0.174700
O O11 0.500000 0.000000 0.500000
O O12 0.992691 0.167936 0.347091
O O13 0.000000 0.500000 0.500000
O O14 0.964981 0.363563 0.731462
O O15 0.000000 0.000000 0.000000
O O16 0.000000 0.500000 0.000000
#
# Coordination Sequence:
#
# PCOD9058608 Si02
#       7
#     2   2   2   2   2   2   2
#     4  11  22  46  73  99 140 187 232 283 357 428
#     4  11  23  44  70 100 135 188 232 288 351 421
#     4  11  22  48  69  98 142 188 229 282 364 425
#     4  11  25  42  74 106 137 181 245 298 346 422
#     4  12  26  44  70 103 144 184 236 294 356 422
#     4  12  29  44  68 102 146 187 234 295 359 417
#     4  12  24  45  75 107 141 187 239 294 358 423
#
# _framework density 21.219816000000002
#
# number of rings (size 3 to 8) (size 9 to 14) (size 15 to 20)
#    0.000    0.571    5.714    2.143    8.000    0.571 
#    0.000    1.429    0.000    0.000    0.000    0.000 
#    0.000    0.000    0.000    0.000    0.000    0.000 
#
# Total GULP energy -78226.305502 kJ/mol
# GULP energy per Si atom -5587.593250 kJ/mol
# Density = 2.117152 g / cm^3
# Si number density = 21.219816 Si / 1000 Ang^3
#
#
#
# Elastic Constant Matrix: (Units=GPa)
#
#
# Indices 1 2 3 4 5 6 
#
# 1 96.4769 20.5277 26.8627 -3.1648 -6.6470 37.4825
# 2 20.5277 123.4176 21.7830 -18.5897 13.0903 26.9734
# 3 26.8627 21.7830 90.0222 -14.6992 3.1161 7.8474
# 4 -3.1648 -18.5897 -14.6992 33.2319 1.2888 -5.7079
# 5 -6.6470 13.0903 3.1161 1.2888 37.0622 6.2973
# 6 37.4825 26.9734 7.8474 -5.7079 6.2973 41.2125
#
#
#
# Elastic Compliance Matrix: (Units=1/GPa)
#
#
# Indices 1 2 3 4 5 6 
#
# 1 0.019145 0.000428 -0.005047 -0.003580 0.006938 -0.018287
# 2 0.000428 0.010527 -0.001339 0.004408 -0.002661 -0.006007
# 3 -0.005047 -0.001339 0.013581 0.005564 -0.002451 0.004026
# 4 -0.003580 0.004408 0.005564 0.035718 -0.004756 0.004985
# 5 0.006938 -0.002661 -0.002451 -0.004756 0.031155 -0.009521
# 6 -0.018287 -0.006007 0.004026 0.004985 -0.009521 0.046207
#
#
# Mechanical properties :
#
#
# Convention : Reuss Voigt Hill
#
# Bulk Modulus (GPa) = 31.91212 49.80708 40.85960
# Shear Modulus (GPa) = 27.98071 38.35087 33.16579
#
# Velocity S-wave (km/s) = 3.63521 4.25586 3.95772
# Velocity P-wave (km/s) = 5.71762 6.90455 6.33892
#
# Compressibility (1/GPa) = 0.03133606
#
# Stress axis : x y z
#
# Youngs Moduli (GPa) = 52.23360 94.99473 73.63301
#
# Poissons Ratio (x) = -0.04067 0.37162
# Poissons Ratio (y) = -0.02236 0.09862
# Poissons Ratio (z) = 0.26362 0.12724
#
# Static dielectric constant tensor:
#      x y z
#    x 1.751700 0.019110 -0.035010 
#    y 0.019110 1.806220 -0.014100 
#    z -0.035010 -0.014100 1.800050 
# 
# From -- ./inp_files/156749.got.cif
#   From: 2010.05.17/outbox.cif.g08.bks.cpg/sg2_79_cif.got.tgz:156749.got - 2010.06.03 11:33:40.
