data_PCOD9058144
_publ_section_title
;
Structure prediction by ZEFSAII (Michael W. Deem and Ramdas Pophale) SiO2 
 PCOD9058144
Probable space group: P -1
;
_chemical_formula_sum "Si O2"
_cell_formula_units_Z 16
_cell_length_a 16.824465
_cell_length_b 5.636222
_cell_length_c 13.284130
_cell_angle_alpha 108.047309
_cell_angle_beta 33.250296
_cell_angle_gamma 98.029728
_cell_volume 639.247410
_symmetry_space_group_name_H-M "P -1"
_symmetry_group_IT_number 2
_symmetry_cell_setting 'triclinic'
loop_
_space_group_symop_operation_xyz
x,y,z
-x,-y,-z
loop_
_atom_site_type_symbol
_atom_site_label
_atom_site_fract_x
_atom_site_fract_y
_atom_site_fract_z
Si Si1 0.384698 0.376690 0.540907
Si Si2 0.325383 0.173850 0.777856
Si Si3 0.154170 0.413402 0.462742
Si Si4 0.476228 0.262108 0.196039
Si Si5 0.382398 0.278738 0.943345
Si Si6 0.083720 0.164321 0.316782
Si Si7 0.067893 0.660518 0.154743
Si Si8 0.112120 0.815138 0.928124
O O1 0.500000 0.500000 0.500000
O O2 0.370389 0.160048 0.610970
O O3 0.442403 0.330867 0.359626
O O4 0.221896 0.568441 0.732209
O O5 0.424821 0.172141 0.771292
O O6 0.228347 0.967094 0.871006
O O7 0.214607 0.451075 0.944640
O O8 0.323967 0.343599 0.305248
O O9 0.116706 0.191021 0.402568
O O10 0.081920 0.672347 0.512215
O O11 0.055943 0.443868 0.670638
O O12 0.577059 0.444211 0.064817
O O13 0.539857 0.952396 0.093518
O O14 0.207067 0.297102 0.150779
O O15 0.106406 0.885321 0.210053
O O16 0.011296 0.761083 0.118971
O O17 0.000000 0.000000 0.000000
#
# Coordination Sequence:
#
# PCOD9058144 Si02
#       8
#     2   2   2   2   2   2   2   2
#     4  11  25  41  65  99 142 191 237 285 351 437
#     4  11  23  43  69 101 140 193 246 285 367 438
#     4  11  27  46  72 112 137 188 246 316 369 429
#     4  12  30  46  73 111 153 190 244 311 364 427
#     4  12  25  49  75 103 148 201 239 297 370 444
#     4  11  25  48  79  98 142 191 250 301 374 450
#     4  11  22  44  72 103 142 187 242 301 364 442
#     4  11  26  39  67 103 141 187 237 303 359 429
#
# _framework density 25.029430999999999
#
# number of rings (size 3 to 8) (size 9 to 14) (size 15 to 20)
#    0.000    0.750    3.750    1.875    8.750    3.000 
#    0.000    0.000    0.000    0.000    0.000    0.000 
#    0.000    0.000    0.000    0.000    0.000    0.000 
#
# Total GULP energy -89471.550495 kJ/mol
# GULP energy per Si atom -5591.971906 kJ/mol
# Density = 2.497246 g / cm^3
# Si number density = 25.029431 Si / 1000 Ang^3
#
#
#
# Elastic Constant Matrix: (Units=GPa)
#
#
# Indices 1 2 3 4 5 6 
#
# 1 96.5589 25.8023 23.4611 7.2722 -18.2573 -21.6148
# 2 25.8023 106.9637 22.2323 5.0624 -13.8331 -14.9117
# 3 23.4611 22.2323 72.7090 5.3488 9.8203 -15.4233
# 4 7.2722 5.0624 5.3488 37.2693 -4.2647 1.8970
# 5 -18.2573 -13.8331 9.8203 -4.2647 45.6432 6.8610
# 6 -21.6148 -14.9117 -15.4233 1.8970 6.8610 36.4054
#
#
#
# Elastic Compliance Matrix: (Units=1/GPa)
#
#
# Indices 1 2 3 4 5 6 
#
# 1 0.013782 -0.001122 -0.003500 -0.001743 0.004952 0.005399
# 2 -0.001122 0.010945 -0.002940 -0.000588 0.003144 0.002010
# 3 -0.003500 -0.002940 0.018241 -0.002682 -0.007364 0.005973
# 4 -0.001743 -0.000588 -0.002682 0.028207 0.003006 -0.004448
# 5 0.004952 0.003144 -0.007364 0.003006 0.027339 -0.004201
# 6 0.005399 0.002010 0.005973 -0.004448 -0.004201 0.035051
#
#
# Mechanical properties :
#
#
# Convention : Reuss Voigt Hill
#
# Bulk Modulus (GPa) = 35.91191 46.58031 41.24611
# Shear Modulus (GPa) = 31.65162 37.51263 34.58213
#
# Velocity S-wave (km/s) = 3.55995 3.87556 3.72110
# Velocity P-wave (km/s) = 5.59255 6.21910 5.91413
#
# Compressibility (1/GPa) = 0.02784592
#
# Stress axis : x y z
#
# Youngs Moduli (GPa) = 72.55622 91.36409 54.82295
#
# Poissons Ratio (x) = 0.10249 0.19186
# Poissons Ratio (y) = 0.08140 0.16116
# Poissons Ratio (z) = 0.25392 0.26859
#
# Static dielectric constant tensor:
#      x y z
#    x 1.990830 -0.040040 0.009650 
#    y -0.040040 2.045250 -0.015810 
#    z 0.009650 -0.015810 1.981520 
# 
# From -- ./inp_files/98468.got.cif
#   From: 2010.05.17/outbox.cif.g08.bks.cpg/sg2_50_cif.got.tgz:98468.got - 2010.06.03 11:33:40.
