data_PCOD9058152
_publ_section_title
;
Structure prediction by ZEFSAII (Michael W. Deem and Ramdas Pophale) SiO2 
 PCOD9058152
Probable space group: P -1
;
_chemical_formula_sum "Si O2"
_cell_formula_units_Z 16
_cell_length_a 8.579109
_cell_length_b 22.097738
_cell_length_c 12.141158
_cell_angle_alpha 27.346368
_cell_angle_beta 138.705062
_cell_angle_gamma 128.862056
_cell_volume 691.697077
_symmetry_space_group_name_H-M "P -1"
_symmetry_group_IT_number 2
_symmetry_cell_setting 'triclinic'
loop_
_space_group_symop_operation_xyz
x,y,z
-x,-y,-z
loop_
_atom_site_type_symbol
_atom_site_label
_atom_site_fract_x
_atom_site_fract_y
_atom_site_fract_z
Si Si1 0.766921 0.263956 0.617316
Si Si2 0.288473 0.182322 0.418096
Si Si3 0.198536 0.504643 0.189913
Si Si4 0.101661 0.137832 0.822950
Si Si5 0.900451 0.202479 0.368649
Si Si6 0.079825 0.468902 0.772216
Si Si7 0.663425 0.090222 0.239834
Si Si8 0.301081 0.675328 0.277087
O O1 0.564307 0.186506 0.584965
O O2 0.745276 0.424057 0.334814
O O3 0.756607 0.241703 0.777220
O O4 0.002148 0.219079 0.745880
O O5 0.138179 0.190279 0.438794
O O6 0.251128 0.051859 0.540575
O O7 0.220748 0.322036 0.094962
O O8 0.427664 0.395746 0.473493
O O9 0.062380 0.493683 0.250064
O O10 0.257022 0.654897 0.965649
O O11 0.000000 0.500000 0.000000
O O12 0.991654 0.193503 0.557428
O O13 0.384287 0.116550 0.020155
O O14 0.000000 0.000000 0.000000
O O15 0.746183 0.097057 0.400138
O O16 0.863594 0.442688 0.620342
O O17 0.756094 0.218113 0.023556
#
# Coordination Sequence:
#
# PCOD9058152 Si02
#       8
#     2   2   2   2   2   2   2   2
#     4  12  26  45  68 103 151 185 232 300 363 427
#     4  11  24  46  72 107 138 191 241 296 356 429
#     4  11  22  44  72 105 136 190 248 292 358 422
#     4  12  28  49  70 108 147 193 238 292 373 433
#     4  11  26  46  77 105 142 192 245 302 349 433
#     4  11  24  43  69 108 143 182 240 296 363 426
#     4  12  25  49  77 105 146 191 249 295 353 439
#     4  12  25  43  74 107 142 190 239 302 355 425
#
# _framework density 23.131513000000002
#
# number of rings (size 3 to 8) (size 9 to 14) (size 15 to 20)
#    0.000    0.500    3.750    6.000    3.500    2.500 
#    2.250    0.000    0.000    0.000    0.000    0.000 
#    0.000    0.000    0.000    0.000    0.000    0.000 
#
# Total GULP energy -89420.702079 kJ/mol
# GULP energy per Si atom -5588.793880 kJ/mol
# Density = 2.307886 g / cm^3
# Si number density = 23.131513 Si / 1000 Ang^3
#
#
#
# Elastic Constant Matrix: (Units=GPa)
#
#
# Indices 1 2 3 4 5 6 
#
# 1 54.1041 16.0861 34.5682 5.5204 11.2720 -15.7506
# 2 16.0861 112.4378 6.4930 -2.6327 7.1886 -3.5505
# 3 34.5682 6.4930 63.5782 -3.2754 16.3026 -14.2204
# 4 5.5204 -2.6327 -3.2754 40.9748 1.7789 -1.2859
# 5 11.2720 7.1886 16.3026 1.7789 19.3864 -12.2277
# 6 -15.7506 -3.5505 -14.2204 -1.2859 -12.2277 43.2598
#
#
#
# Elastic Compliance Matrix: (Units=1/GPa)
#
#
# Indices 1 2 3 4 5 6 
#
# 1 0.032134 -0.003645 -0.016198 -0.005696 0.000654 0.006091
# 2 -0.003645 0.009548 0.001805 0.001378 -0.003661 -0.000944
# 3 -0.016198 0.001805 0.028627 0.005270 -0.016308 -0.000792
# 4 -0.005696 0.001378 0.005270 0.025853 -0.004457 -0.000720
# 5 0.000654 -0.003661 -0.016308 -0.004457 0.076886 0.016177
# 6 0.006091 -0.000944 -0.000792 -0.000720 0.016177 0.029547
#
#
# Mechanical properties :
#
#
# Convention : Reuss Voigt Hill
#
# Bulk Modulus (GPa) = 29.21078 38.26832 33.73955
# Shear Modulus (GPa) = 19.99351 32.25572 26.12462
#
# Velocity S-wave (km/s) = 2.94316 3.73828 3.36429
# Velocity P-wave (km/s) = 4.91987 5.93403 5.45059
#
# Compressibility (1/GPa) = 0.03423394
#
# Stress axis : x y z
#
# Youngs Moduli (GPa) = 31.11966 104.73934 34.93170
#
# Poissons Ratio (x) = 0.38175 0.56582
# Poissons Ratio (y) = 0.11342 -0.06306
# Poissons Ratio (z) = 0.50408 -0.18908
#
# Static dielectric constant tensor:
#      x y z
#    x 1.978400 -0.096570 -0.020400 
#    y -0.096570 2.005990 0.011180 
#    z -0.020400 0.011180 1.913470 
# 
# From -- ./inp_files/357080.got.cif
#   From: 2010.05.17/outbox.cif.g08.bks.cpg/sg2_179_cif.got.tgz:357080.got - 2010.06.03 11:33:40.
