data_PCOD9058372
_publ_section_title
;
Structure prediction by ZEFSAII (Michael W. Deem and Ramdas Pophale) SiO2 
 PCOD9058372
Probable space group: P -1
;
_chemical_formula_sum "Si O2"
_cell_formula_units_Z 14
_cell_length_a 12.872950
_cell_length_b 22.213730
_cell_length_c 15.769016
_cell_angle_alpha 151.577801
_cell_angle_beta 36.963309
_cell_angle_gamma 161.512177
_cell_volume 661.969106
_symmetry_space_group_name_H-M "P -1"
_symmetry_group_IT_number 2
_symmetry_cell_setting 'triclinic'
loop_
_space_group_symop_operation_xyz
x,y,z
-x,-y,-z
loop_
_atom_site_type_symbol
_atom_site_label
_atom_site_fract_x
_atom_site_fract_y
_atom_site_fract_z
Si Si1 0.296082 0.137147 0.828892
Si Si2 0.481290 0.077369 0.311724
Si Si3 0.535811 0.251194 0.316194
Si Si4 0.171002 0.482368 0.902892
Si Si5 0.271717 0.615743 0.306716
Si Si6 0.382551 0.414493 0.373751
Si Si7 0.953709 0.172310 0.031716
O O1 0.436931 0.183497 0.703202
O O2 0.605492 0.342847 0.945340
O O3 0.011826 0.866226 0.715060
O O4 0.127371 0.168241 0.963713
O O5 0.446575 0.144814 0.335846
O O6 0.648897 0.257204 0.502698
O O7 0.720203 0.112099 0.169480
O O8 0.123084 0.798614 0.227691
O O9 0.542309 0.405965 0.498126
O O10 0.912886 0.436645 0.282501
O O11 0.280577 0.034079 0.144645
O O12 0.413651 0.568888 0.783695
O O13 0.000000 0.500000 0.000000
O O14 0.218973 0.435981 0.143326
O O15 0.500000 0.500000 0.500000
#
# Coordination Sequence:
#
# PCOD9058372 Si02
#       7
#     2   2   2   2   2   2   2
#     4  12  26  46  71  99 142 180 231 284 346 411
#     4  11  25  46  72 104 139 181 233 284 341 407
#     4  11  24  44  75 100 144 180 229 284 344 409
#     4  12  29  48  72 100 139 184 231 283 349 414
#     4  11  25  43  74 105 137 183 227 289 339 410
#     4  12  27  47  70 105 138 181 231 287 344 406
#     4  11  22  45  71 103 138 181 228 280 348 403
#
# _framework density 21.149021999999999
#
# number of rings (size 3 to 8) (size 9 to 14) (size 15 to 20)
#    0.000    0.571    1.429    7.714    8.000    1.143 
#    0.000    0.000    0.000    0.000    0.000    0.000 
#    0.000    0.000    0.000    0.000    0.000    0.000 
#
# Total GULP energy -78456.638708 kJ/mol
# GULP energy per Si atom -5604.045622 kJ/mol
# Density = 2.110089 g / cm^3
# Si number density = 21.149022 Si / 1000 Ang^3
#
#
#
# Elastic Constant Matrix: (Units=GPa)
#
#
# Indices 1 2 3 4 5 6 
#
# 1 124.2706 29.2010 61.2952 6.1618 2.3646 14.7964
# 2 29.2010 106.3437 40.8282 13.7711 5.5576 -21.5240
# 3 61.2952 40.8282 120.0085 5.0219 5.8097 1.5766
# 4 6.1618 13.7711 5.0219 33.3333 -4.0615 8.7015
# 5 2.3646 5.5576 5.8097 -4.0615 28.4309 5.2214
# 6 14.7964 -21.5240 1.5766 8.7015 5.2214 27.6479
#
#
#
# Elastic Compliance Matrix: (Units=1/GPa)
#
#
# Indices 1 2 3 4 5 6 
#
# 1 0.012906 -0.004773 -0.005157 0.004032 0.003749 -0.012305
# 2 -0.004773 0.018989 -0.003328 -0.013686 -0.008909 0.023517
# 3 -0.005157 -0.003328 0.012146 0.000457 -0.001258 -0.000430
# 4 0.004032 -0.013686 0.000457 0.044213 0.013960 -0.029390
# 5 0.003749 -0.008909 -0.001258 0.013960 0.042774 -0.021342
# 6 -0.012305 0.023517 -0.000430 -0.029390 -0.021342 0.074368
#
#
# Mechanical properties :
#
#
# Convention : Reuss Voigt Hill
#
# Bulk Modulus (GPa) = 57.05368 68.14128 62.59748
# Shear Modulus (GPa) = 21.03027 32.50233 26.76630
#
# Velocity S-wave (km/s) = 3.15681 3.92449 3.56139
# Velocity P-wave (km/s) = 6.35002 7.26808 6.82451
#
# Compressibility (1/GPa) = 0.01752735
#
# Stress axis : x y z
#
# Youngs Moduli (GPa) = 77.48470 52.66089 82.33154
#
# Poissons Ratio (x) = 0.25134 0.42455
# Poissons Ratio (y) = 0.36982 0.27397
# Poissons Ratio (z) = 0.39955 0.17523
#
# Static dielectric constant tensor:
#      x y z
#    x 1.732600 -0.009940 -0.009780 
#    y -0.009940 1.752420 0.002000 
#    z -0.009780 0.002000 1.732500 
# 
# From -- ./inp_files/188259.got.cif
#   From: 2010.05.17/outbox.cif.g08.bks.cpg/sg2_95_cif.got.tgz:188259.got - 2010.06.03 11:33:40.
