data_PCOD9058494
_publ_section_title
;
Structure prediction by ZEFSAII (Michael W. Deem and Ramdas Pophale) SiO2 
 PCOD9058494
Probable space group: P -1
;
_chemical_formula_sum "Si O2"
_cell_formula_units_Z 16
_cell_length_a 17.331209
_cell_length_b 9.469196
_cell_length_c 18.051652
_cell_angle_alpha 149.369791
_cell_angle_beta 150.444884
_cell_angle_gamma 37.537266
_cell_volume 732.781878
_symmetry_space_group_name_H-M "P -1"
_symmetry_group_IT_number 2
_symmetry_cell_setting 'triclinic'
loop_
_space_group_symop_operation_xyz
x,y,z
-x,-y,-z
loop_
_atom_site_type_symbol
_atom_site_label
_atom_site_fract_x
_atom_site_fract_y
_atom_site_fract_z
Si Si1 0.902290 0.374682 0.789560
Si Si2 0.878417 0.765642 0.489313
Si Si3 0.367736 0.942828 0.304257
Si Si4 0.839054 0.905387 0.348955
Si Si5 0.652773 0.466355 0.497552
Si Si6 0.490383 0.230971 0.817267
Si Si7 0.654217 0.719695 0.828783
Si Si8 0.794069 0.561256 0.017380
O O1 0.741100 0.393110 0.614945
O O2 0.832941 0.592790 0.893627
O O3 0.029746 0.457110 0.876603
O O4 0.936195 0.048742 0.693607
O O5 0.874259 0.778611 0.402417
O O6 0.694591 0.766180 0.354501
O O7 0.000000 0.500000 0.500000
O O8 0.427504 0.805244 0.211938
O O9 0.500000 0.000000 0.500000
O O10 0.288732 0.262003 0.362972
O O11 0.261978 0.737903 0.160447
O O12 0.789947 0.688960 0.152752
O O13 0.705334 0.185372 0.367085
O O14 0.000000 0.000000 0.500000
O O15 0.464534 0.507007 0.371163
O O16 0.571521 0.968429 0.818576
O O17 0.500000 0.500000 0.000000
O O18 0.682426 0.771272 0.962429
#
# Coordination Sequence:
#
# PCOD9058494 Si02
#       8
#     2   2   2   2   2   2   2   2
#     4  11  23  48  73 104 140 198 244 294 368 438
#     4  11  25  46  75 105 143 188 244 302 367 438
#     4  12  27  47  71 114 149 190 251 312 375 433
#     4  11  23  48  71 107 148 190 244 299 380 435
#     4  11  22  45  77  99 141 198 241 301 365 435
#     4  12  27  48  75 109 147 196 254 305 367 447
#     4  12  24  47  76 102 147 193 248 299 362 446
#     4  12  27  46  73 111 149 191 245 307 372 445
#
# _framework density 21.834600999999999
#
# number of rings (size 3 to 8) (size 9 to 14) (size 15 to 20)
#    0.000    0.500    7.500    2.250    1.750    3.000 
#    0.000    0.000    0.000    0.000    0.000    0.000 
#    0.000    0.000    0.000    0.000    0.000    0.000 
#
# Total GULP energy -89342.470955 kJ/mol
# GULP energy per Si atom -5583.904435 kJ/mol
# Density = 2.178490 g / cm^3
# Si number density = 21.834601 Si / 1000 Ang^3
#
#
#
# Elastic Constant Matrix: (Units=GPa)
#
#
# Indices 1 2 3 4 5 6 
#
# 1 92.0622 46.3511 45.5622 0.8128 7.1096 -6.7055
# 2 46.3511 143.1705 33.5666 19.5126 5.7390 1.6286
# 3 45.5622 33.5666 117.6396 23.8130 -0.9460 -2.5829
# 4 0.8128 19.5126 23.8130 33.4455 2.8652 -1.8799
# 5 7.1096 5.7390 -0.9460 2.8652 47.8174 -6.4555
# 6 -6.7055 1.6286 -2.5829 -1.8799 -6.4555 19.3598
#
#
#
# Elastic Compliance Matrix: (Units=1/GPa)
#
#
# Indices 1 2 3 4 5 6 
#
# 1 0.017189 -0.005049 -0.006676 0.007751 -0.001784 0.005645
# 2 -0.005049 0.009370 0.000372 -0.005749 -0.000454 -0.003197
# 3 -0.006676 0.000372 0.012878 -0.009420 0.001633 -0.000996
# 4 0.007751 -0.005749 -0.009420 0.040259 -0.002383 0.005026
# 5 -0.001784 -0.000454 0.001633 -0.002383 0.022333 0.006854
# 6 0.005645 -0.003197 -0.000996 0.005026 0.006854 0.056518
#
#
# Mechanical properties :
#
#
# Convention : Reuss Voigt Hill
#
# Bulk Modulus (GPa) = 59.76958 67.09245 63.43101
# Shear Modulus (GPa) = 26.76232 35.28404 31.02318
#
# Velocity S-wave (km/s) = 3.50477 4.02427 3.77347
# Velocity P-wave (km/s) = 6.61900 7.23791 6.93536
#
# Compressibility (1/GPa) = 0.01673092
#
# Stress axis : x y z
#
# Youngs Moduli (GPa) = 58.17787 106.72171 77.65080
#
# Poissons Ratio (x) = 0.53880 0.51840
# Poissons Ratio (y) = 0.29372 -0.02887
# Poissons Ratio (z) = 0.38840 -0.03967
#
# Static dielectric constant tensor:
#      x y z
#    x 1.891290 -0.024100 -0.049610 
#    y -0.024100 1.835700 0.011000 
#    z -0.049610 0.011000 1.881650 
# 
# From -- ./inp_files/575630.got.cif
#   From: 2010.05.17/outbox.cif.g08.bks.cpg/sg2_288_cif.got.tgz:575630.got - 2010.06.03 11:33:40.
