data_PCOD9058981
_publ_section_title
;
Structure prediction by ZEFSAII (Michael W. Deem and Ramdas Pophale) SiO2 
 PCOD9058981
Probable space group: P -1
;
_chemical_formula_sum "Si O2"
_cell_formula_units_Z 16
_cell_length_a 10.122679
_cell_length_b 6.528383
_cell_length_c 14.523487
_cell_angle_alpha 134.041422
_cell_angle_beta 79.655098
_cell_angle_gamma 95.290187
_cell_volume 677.988053
_symmetry_space_group_name_H-M "P -1"
_symmetry_group_IT_number 2
_symmetry_cell_setting 'triclinic'
loop_
_space_group_symop_operation_xyz
x,y,z
-x,-y,-z
loop_
_atom_site_type_symbol
_atom_site_label
_atom_site_fract_x
_atom_site_fract_y
_atom_site_fract_z
Si Si1 0.793650 0.341926 0.766841
Si Si2 0.381066 0.196877 0.727257
Si Si3 0.969680 0.514476 0.653513
Si Si4 0.540063 0.734717 0.842460
Si Si5 0.203383 0.700352 0.560786
Si Si6 0.950511 0.078298 0.928833
Si Si7 0.198132 0.410997 0.954555
Si Si8 0.380972 0.168020 0.344354
O O1 0.933923 0.332617 0.690931
O O2 0.671400 0.540210 0.799337
O O3 0.746177 0.024698 0.684969
O O4 0.807823 0.474536 0.906487
O O5 0.426111 0.496230 0.774313
O O6 0.336879 0.267712 0.860272
O O7 0.256098 0.020685 0.651093
O O8 0.507773 0.976919 0.648328
O O9 0.889363 0.372420 0.537165
O O10 0.116309 0.595949 0.626385
O O11 0.905983 0.817494 0.792246
O O12 0.571775 0.848599 0.772625
O O13 0.500000 0.000000 0.000000
O O14 0.334162 0.488611 0.472717
O O15 0.075730 0.204704 0.899494
O O16 0.834717 0.322347 0.024289
O O17 0.000000 0.000000 0.000000
#
# Coordination Sequence:
#
# PCOD9058981 Si02
#       8
#     2   2   2   2   2   2   2   2
#     4  11  23  42  70 104 136 176 237 286 352 419
#     4  11  25  44  68 106 137 183 239 279 347 424
#     4  11  23  44  71  99 140 182 235 285 345 412
#     4  11  24  43  71 102 138 183 227 292 356 407
#     4  11  24  46  70  97 144 191 235 285 338 416
#     4  11  23  42  68 101 140 177 222 291 355 413
#     4  11  23  39  69 102 140 172 225 292 354 411
#     4  11  24  45  68  97 141 187 233 290 341 405
#
# _framework density 23.599236000000001
#
# number of rings (size 3 to 8) (size 9 to 14) (size 15 to 20)
#    0.000    1.000    3.750    2.625    1.750    4.000 
#    2.250    0.000    0.000    0.000    0.000    0.000 
#    0.000    0.000    0.000    0.000    0.000    0.000 
#
# Total GULP energy -89381.717848 kJ/mol
# GULP energy per Si atom -5586.357365 kJ/mol
# Density = 2.354552 g / cm^3
# Si number density = 23.599236 Si / 1000 Ang^3
#
#
#
# Elastic Constant Matrix: (Units=GPa)
#
#
# Indices 1 2 3 4 5 6 
#
# 1 64.2722 24.1761 20.6372 10.2563 5.5739 18.2463
# 2 24.1761 89.8528 34.2120 15.7122 8.8812 19.4238
# 3 20.6372 34.2120 81.6975 16.5324 0.9331 21.5845
# 4 10.2563 15.7122 16.5324 25.4382 6.5526 9.0510
# 5 5.5739 8.8812 0.9331 6.5526 39.8073 7.9061
# 6 18.2463 19.4238 21.5845 9.0510 7.9061 46.8468
#
#
#
# Elastic Compliance Matrix: (Units=1/GPa)
#
#
# Indices 1 2 3 4 5 6 
#
# 1 0.019071 -0.002862 -0.001758 -0.002938 -0.000560 -0.004769
# 2 -0.002862 0.014788 -0.004065 -0.004168 -0.001710 -0.002050
# 3 -0.001758 -0.004065 0.016961 -0.006893 0.002801 -0.004585
# 4 -0.002938 -0.004168 -0.006893 0.050070 -0.006228 -0.002574
# 5 -0.000560 -0.001710 0.002801 -0.006228 0.027288 -0.003766
# 6 -0.004769 -0.002050 -0.004585 -0.002574 -0.003766 0.027299
#
#
# Mechanical properties :
#
#
# Convention : Reuss Voigt Hill
#
# Bulk Modulus (GPa) = 29.89516 43.76368 36.82942
# Shear Modulus (GPa) = 27.17408 32.87160 30.02284
#
# Velocity S-wave (km/s) = 3.39703 3.73622 3.57065
# Velocity P-wave (km/s) = 5.29922 6.09895 5.71310
#
# Compressibility (1/GPa) = 0.03345023
#
# Stress axis : x y z
#
# Youngs Moduli (GPa) = 52.43521 67.62113 58.95820
#
# Poissons Ratio (x) = 0.19352 0.10365
# Poissons Ratio (y) = 0.15006 0.23968
# Poissons Ratio (z) = 0.09219 0.27490
#
# Static dielectric constant tensor:
#      x y z
#    x 1.925060 0.026190 0.001690 
#    y 0.026190 1.944590 0.010940 
#    z 0.001690 0.010940 1.894840 
# 
# From -- ./inp_files/410317.got.cif
#   From: 2010.05.17/outbox.cif.g08.bks.cpg/sg2_206_cif.got.tgz:410317.got - 2010.06.03 11:33:40.
