data_PCOD9058825
_publ_section_title
;
Structure prediction by ZEFSAII (Michael W. Deem and Ramdas Pophale) SiO2 
 PCOD9058825
Probable space group: P -1
;
_chemical_formula_sum "Si O2"
_cell_formula_units_Z 14
_cell_length_a 9.809289
_cell_length_b 14.169636
_cell_length_c 9.081504
_cell_angle_alpha 59.146030
_cell_angle_beta 63.542018
_cell_angle_gamma 28.933518
_cell_volume 524.239764
_symmetry_space_group_name_H-M "P -1"
_symmetry_group_IT_number 2
_symmetry_cell_setting 'triclinic'
loop_
_space_group_symop_operation_xyz
x,y,z
-x,-y,-z
loop_
_atom_site_type_symbol
_atom_site_label
_atom_site_fract_x
_atom_site_fract_y
_atom_site_fract_z
Si Si1 0.876418 0.490798 0.839626
Si Si2 0.226360 0.167172 0.684148
Si Si3 0.804553 0.500107 0.369285
Si Si4 0.760599 0.378821 0.222841
Si Si5 0.557669 0.166105 0.482527
Si Si6 0.818446 0.234219 0.850825
Si Si7 0.002494 0.037984 0.227521
O O1 0.645766 0.669761 0.686287
O O2 0.107565 0.279720 0.807250
O O3 0.042937 0.498471 0.801574
O O4 0.771344 0.477248 0.030601
O O5 0.514927 0.059386 0.604114
O O6 0.023280 0.340765 0.520408
O O7 0.128927 0.099327 0.782796
O O8 0.774210 0.411204 0.356633
O O9 0.547016 0.712207 0.413014
O O10 0.443551 0.523761 0.234552
O O11 0.998492 0.149771 0.238447
O O12 0.852833 0.036756 0.397941
O O13 0.824141 0.187587 0.050967
O O14 0.762735 0.171350 0.809466
#
# Coordination Sequence:
#
# PCOD9058825 Si02
#       7
#     2   2   2   2   2   2   2
#     4   9  16  33  59  84 111 151 192 226 271 338
#     4   9  18  36  57  83 114 147 189 233 272 334
#     4   9  20  32  57  91 115 144 192 226 282 346
#     4  12  20  36  61  85 116 154 178 235 291 325
#     4   9  18  36  57  83 114 147 189 233 272 334
#     4  11  23  37  59  87 111 148 197 232 274 339
#     4  11  23  37  59  87 111 148 197 232 274 339
#
# _framework density 26.70534
#
# number of rings (size 3 to 8) (size 9 to 14) (size 15 to 20)
#    0.000    2.000    2.857    4.286    0.000    2.857 
#    0.000    2.857    0.000    5.143    0.000    0.000 
#    0.000    0.000    0.000    0.000    0.000    0.000 
#
# Total GULP energy -78224.764849 kJ/mol
# GULP energy per Si atom -5587.483203 kJ/mol
# Density = 2.664456 g / cm^3
# Si number density = 26.705340 Si / 1000 Ang^3
#
#
#
# Elastic Constant Matrix: (Units=GPa)
#
#
# Indices 1 2 3 4 5 6 
#
# 1 85.7197 29.3053 50.6575 9.7098 -11.2270 30.0526
# 2 29.3053 91.8674 18.4254 13.5722 12.1219 19.6064
# 3 50.6575 18.4254 130.8493 14.0611 -18.9145 9.7600
# 4 9.7098 13.5722 14.0611 32.1734 9.6760 4.3250
# 5 -11.2270 12.1219 -18.9145 9.6760 47.1992 8.0105
# 6 30.0526 19.6064 9.7600 4.3250 8.0105 35.4092
#
#
#
# Elastic Compliance Matrix: (Units=1/GPa)
#
#
# Indices 1 2 3 4 5 6 
#
# 1 0.024235 -0.003122 -0.006059 -0.003245 0.007956 -0.018574
# 2 -0.003122 0.013659 -0.000575 -0.003109 -0.003225 -0.003646
# 3 -0.006059 -0.000575 0.010846 -0.004016 0.003508 0.002168
# 4 -0.003245 -0.003109 -0.004016 0.037657 -0.009847 0.003210
# 5 0.007956 -0.003225 0.003508 -0.009847 0.029258 -0.011350
# 6 -0.018574 -0.003646 0.002168 0.003210 -0.011350 0.047602
#
#
# Mechanical properties :
#
#
# Convention : Reuss Voigt Hill
#
# Bulk Modulus (GPa) = 34.21263 56.13476 45.17369
# Shear Modulus (GPa) = 25.97235 36.95957 31.46596
#
# Velocity S-wave (km/s) = 3.12196 3.72422 3.43631
# Velocity P-wave (km/s) = 5.08276 6.28958 5.71810
#
# Compressibility (1/GPa) = 0.02922897
#
# Stress axis : x y z
#
# Youngs Moduli (GPa) = 41.26227 73.20973 92.20136
#
# Poissons Ratio (x) = 0.22857 0.55862
# Poissons Ratio (y) = 0.12883 0.05301
# Poissons Ratio (z) = 0.24999 0.04209
#
# Static dielectric constant tensor:
#      x y z
#    x 2.218190 -0.013030 -0.045990 
#    y -0.013030 2.089670 -0.012020 
#    z -0.045990 -0.012020 2.007700 
# 
# From -- ./inp_files/169798.got.cif
#   From: 2010.05.17/outbox.cif.g08.bks.cpg/sg2_85_cif.got.tgz:169798.got - 2010.06.03 11:33:40.
