data_PCOD9058826
_publ_section_title
;
Structure prediction by ZEFSAII (Michael W. Deem and Ramdas Pophale) SiO2 
 PCOD9058826
Probable space group: P -1
;
_chemical_formula_sum "Si O2"
_cell_formula_units_Z 8
_cell_length_a 6.680945
_cell_length_b 7.168832
_cell_length_c 8.781159
_cell_angle_alpha 112.989465
_cell_angle_beta 88.738228
_cell_angle_gamma 56.163158
_cell_volume 305.409962
_symmetry_space_group_name_H-M "P -1"
_symmetry_group_IT_number 2
_symmetry_cell_setting 'triclinic'
loop_
_space_group_symop_operation_xyz
x,y,z
-x,-y,-z
loop_
_atom_site_type_symbol
_atom_site_label
_atom_site_fract_x
_atom_site_fract_y
_atom_site_fract_z
Si Si1 0.927742 0.248217 0.393697
Si Si2 0.693258 0.212189 0.956636
Si Si3 0.233348 0.264038 0.634786
Si Si4 0.774051 0.959196 0.158253
O O1 0.995909 0.286755 0.571351
O O2 0.802914 0.498115 0.370676
O O3 0.765913 0.145204 0.343922
O O4 0.199257 0.014293 0.240584
O O5 0.598898 0.146104 0.084196
O O6 0.500000 0.500000 0.000000
O O7 0.950366 0.185343 0.970085
O O8 0.233333 0.239870 0.809521
O O9 0.500000 0.000000 0.500000
#
# Coordination Sequence:
#
# PCOD9058826 Si02
#       4
#     2   2   2   2
#     4   9  22  39  57  88 115 146 196 230 278 349
#     4   9  20  39  63  82 111 154 191 233 286 328
#     4  11  23  37  59  88 117 150 187 234 288 333
#     4   9  21  40  59  85 114 149 194 232 279 344
#
# _framework density 26.194296000000001
#
# number of rings (size 3 to 8) (size 9 to 14) (size 15 to 20)
#    1.500    1.000    0.000    0.750    3.500    6.000 
#    0.000    2.500    0.000    0.000    0.000    0.000 
#    0.000    0.000    0.000    0.000    0.000    0.000 
#
# Total GULP energy -44640.598840 kJ/mol
# GULP energy per Si atom -5580.074855 kJ/mol
# Density = 2.613468 g / cm^3
# Si number density = 26.194296 Si / 1000 Ang^3
#
#
#
# Elastic Constant Matrix: (Units=GPa)
#
#
# Indices 1 2 3 4 5 6 
#
# 1 38.9587 34.1958 13.3939 2.3230 -2.5660 2.4949
# 2 34.1958 291.9815 54.9078 -13.3739 -21.0281 -14.6371
# 3 13.3939 54.9078 54.3751 -6.3296 -8.3022 -5.9100
# 4 2.3230 -13.3739 -6.3296 56.1745 2.5897 -2.8913
# 5 -2.5660 -21.0281 -8.3022 2.5897 30.7390 6.7200
# 6 2.4949 -14.6371 -5.9100 -2.8913 6.7200 34.7679
#
#
#
# Elastic Compliance Matrix: (Units=1/GPa)
#
#
# Indices 1 2 3 4 5 6 
#
# 1 0.030551 -0.002903 -0.005369 -0.002815 0.000364 -0.004632
# 2 -0.002903 0.004642 -0.003483 0.000826 0.001633 0.001323
# 3 -0.005369 -0.003483 0.024215 0.002121 0.002954 0.002641
# 4 -0.002815 0.000826 0.002121 0.018550 -0.001249 0.002694
# 5 0.000364 0.001633 0.002954 -0.001249 0.035866 -0.005873
# 6 -0.004632 0.001323 0.002641 0.002694 -0.005873 0.031460
#
#
# Mechanical properties :
#
#
# Convention : Reuss Voigt Hill
#
# Bulk Modulus (GPa) = 27.85728 65.59003 46.72366
# Shear Modulus (GPa) = 27.66106 43.19079 35.42593
#
# Velocity S-wave (km/s) = 3.25313 4.06502 3.68153
# Velocity P-wave (km/s) = 4.97679 6.86489 5.99563
#
# Compressibility (1/GPa) = 0.03589726
#
# Stress axis : x y z
#
# Youngs Moduli (GPa) = 32.73227 215.44328 41.29670
#
# Poissons Ratio (x) = 0.62548 0.22173
# Poissons Ratio (y) = 0.09503 0.14382
# Poissons Ratio (z) = 0.17575 0.75030
#
# Static dielectric constant tensor:
#      x y z
#    x 2.164990 -0.002990 0.076970 
#    y -0.002990 2.072670 -0.030150 
#    z 0.076970 -0.030150 2.119890 
# 
# From -- ./inp_files/1333.got.cif
#   From: 2010.05.17/outbox.cif.g08.bks.cpg/sg2_1_cif.got.tgz:1333.got - 2010.06.03 11:33:40.
