data_PCOD9058575
_publ_section_title
;
Structure prediction by ZEFSAII (Michael W. Deem and Ramdas Pophale) SiO2 
 PCOD9058575
Probable space group: P -1
;
_chemical_formula_sum "Si O2"
_cell_formula_units_Z 16
_cell_length_a 11.740691
_cell_length_b 15.599601
_cell_length_c 9.540380
_cell_angle_alpha 99.767497
_cell_angle_beta 72.291194
_cell_angle_gamma 152.354208
_cell_volume 752.401624
_symmetry_space_group_name_H-M "P -1"
_symmetry_group_IT_number 2
_symmetry_cell_setting 'triclinic'
loop_
_space_group_symop_operation_xyz
x,y,z
-x,-y,-z
loop_
_atom_site_type_symbol
_atom_site_label
_atom_site_fract_x
_atom_site_fract_y
_atom_site_fract_z
Si Si1 0.852790 0.404468 0.673727
Si Si2 0.362473 0.977817 0.655704
Si Si3 0.752461 0.814152 0.635083
Si Si4 0.184923 0.067820 0.053269
Si Si5 0.321458 0.532114 0.158537
Si Si6 0.856687 0.562544 0.281654
Si Si7 0.161810 0.331025 0.409150
Si Si8 0.945801 0.217081 0.012493
O O1 0.564563 0.184771 0.677896
O O2 0.878028 0.518943 0.748655
O O3 0.000000 0.500000 0.500000
O O4 0.988007 0.424003 0.732298
O O5 0.500000 0.000000 0.500000
O O6 0.267338 0.885733 0.822077
O O7 0.103536 0.842740 0.633010
O O8 0.828923 0.900891 0.780547
O O9 0.456713 0.655254 0.670505
O O10 0.738637 0.700789 0.609056
O O11 0.000000 0.000000 0.500000
O O12 0.461584 0.272611 0.944655
O O13 0.131858 0.931147 0.036274
O O14 0.000000 0.000000 0.000000
O O15 0.368173 0.516599 0.285626
O O16 0.210053 0.389677 0.053612
O O17 0.891830 0.652029 0.423208
O O18 0.982554 0.682630 0.125509
#
# Coordination Sequence:
#
# PCOD9058575 Si02
#       8
#     2   2   2   2   2   2   2   2
#     4  12  24  45  76 105 143 192 245 294 359 443
#     4  11  22  46  72 108 139 190 247 287 356 435
#     4  12  29  48  70 109 145 192 242 299 374 432
#     4  12  26  45  76 103 145 194 245 297 356 438
#     4  11  24  47  71 107 142 186 245 297 355 438
#     4  12  26  47  72 107 151 190 237 313 366 423
#     4  11  25  45  76 101 144 193 239 300 359 438
#     4  11  25  47  69 109 145 185 244 299 368 418
#
# _framework density 21.265239999999999
#
# number of rings (size 3 to 8) (size 9 to 14) (size 15 to 20)
#    0.000    0.500    5.000    3.375    5.250    2.000 
#    0.000    0.000    0.000    0.000    0.000    0.000 
#    0.000    0.000    0.000    0.000    0.000    0.000 
#
# Total GULP energy -89330.898802 kJ/mol
# GULP energy per Si atom -5583.181175 kJ/mol
# Density = 2.121684 g / cm^3
# Si number density = 21.265240 Si / 1000 Ang^3
#
#
#
# Elastic Constant Matrix: (Units=GPa)
#
#
# Indices 1 2 3 4 5 6 
#
# 1 27.6799 -9.0921 12.9347 -1.0353 11.1263 -9.3840
# 2 -9.0921 92.8021 26.0545 -4.3791 10.6262 -7.0918
# 3 12.9347 26.0545 153.3673 -11.8567 24.8675 -14.8224
# 4 -1.0353 -4.3791 -11.8567 40.3998 -8.3821 3.6023
# 5 11.1263 10.6262 24.8675 -8.3821 27.9318 5.3217
# 6 -9.3840 -7.0918 -14.8224 3.6023 5.3217 39.0508
#
#
#
# Elastic Compliance Matrix: (Units=1/GPa)
#
#
# Indices 1 2 3 4 5 6 
#
# 1 0.061077 0.011315 0.000253 -0.006374 -0.034998 0.022185
# 2 0.011315 0.013805 -0.001105 -0.001252 -0.010358 0.006334
# 3 0.000253 -0.001105 0.008373 0.000363 -0.007801 0.004068
# 4 -0.006374 -0.001252 0.000363 0.027584 0.012077 -0.005812
# 5 -0.034998 -0.010358 -0.007801 0.012077 0.068775 -0.023739
# 6 0.022185 0.006334 0.004068 -0.005812 -0.023739 0.037404
#
#
# Mechanical properties :
#
#
# Convention : Reuss Voigt Hill
#
# Bulk Modulus (GPa) = 9.59871 37.07149 23.33510
# Shear Modulus (GPa) = 21.66203 37.73997 29.70100
#
# Velocity S-wave (km/s) = 3.19511 4.21732 3.74129
# Velocity P-wave (km/s) = 4.25855 6.41756 5.44612
#
# Compressibility (1/GPa) = 0.10418062
#
# Stress axis : x y z
#
# Youngs Moduli (GPa) = 16.37289 72.43589 119.43661
#
# Poissons Ratio (x) = -0.81961 -0.03020
# Poissons Ratio (y) = -0.18526 0.13194
# Poissons Ratio (z) = -0.00414 0.08002
#
# Static dielectric constant tensor:
#      x y z
#    x 1.711120 0.071540 0.021890 
#    y 0.071540 1.721060 -0.046920 
#    z 0.021890 -0.046920 1.742070 
# 
# From -- ./inp_files/273370.got.cif
#   From: 2010.05.17/outbox.cif.g08.bks.cpg/sg2_137_cif.got.tgz:273370.got - 2010.06.03 11:33:40.
