data_PCOD9058723
_publ_section_title
;
Structure prediction by ZEFSAII (Michael W. Deem and Ramdas Pophale) SiO2 
 PCOD9058723
Probable space group: P -1
;
_chemical_formula_sum "Si O2"
_cell_formula_units_Z 13
_cell_length_a 7.591950
_cell_length_b 13.055634
_cell_length_c 5.090948
_cell_angle_alpha 112.136850
_cell_angle_beta 91.908212
_cell_angle_gamma 83.746199
_cell_volume 464.609138
_symmetry_space_group_name_H-M "P -1"
_symmetry_group_IT_number 2
_symmetry_cell_setting 'triclinic'
loop_
_space_group_symop_operation_xyz
x,y,z
-x,-y,-z
loop_
_atom_site_type_symbol
_atom_site_label
_atom_site_fract_x
_atom_site_fract_y
_atom_site_fract_z
Si Si1 0.368516 0.070304 0.359190
Si Si2 0.659496 0.436730 0.741938
Si Si3 0.000000 0.000000 0.000000
Si Si4 0.890521 0.414395 0.247356
Si Si5 0.142223 0.204992 0.871296
Si Si6 0.705120 0.133052 0.121895
Si Si7 0.481390 0.317190 0.013961
O O1 0.234619 0.167236 0.563056
O O2 0.521728 0.109117 0.221399
O O3 0.500000 0.000000 0.500000
O O4 0.238113 0.983196 0.153807
O O5 0.772753 0.383589 0.458729
O O6 0.567324 0.556840 0.767867
O O7 0.774923 0.461118 0.033285
O O8 0.527137 0.348637 0.745576
O O9 0.880735 0.112135 0.277080
O O10 0.077915 0.096839 0.896479
O O11 0.000000 0.500000 0.500000
O O12 0.003000 0.310676 0.017328
O O13 0.318269 0.254526 0.036766
O O14 0.649550 0.231820 0.017804
#
# Coordination Sequence:
#
# PCOD9058723 Si02
#       7
#     2   2   1   2   2   2   2
#     4  11  22  47  74 108 147 204 262 313 389 486
#     4  11  28  51  79 119 160 206 277 322 397 466
#     4  12  26  46  70 118 154 198 252 332 402 472
#     4  12  27  53  81 121 161 210 261 335 398 467
#     4  12  26  45  77 113 155 208 258 329 395 471
#     4  11  24  45  74 110 155 199 260 321 396 475
#     4  11  25  49  78 113 150 218 259 333 381 487
#
# _framework density 27.980506999999999
#
# number of rings (size 3 to 8) (size 9 to 14) (size 15 to 20)
#    0.000    0.615    4.615    2.308    0.000   10.462 
#    0.000    0.000    0.000    0.000    0.000    0.000 
#    0.000    0.000    0.000    0.000    0.000    0.000 
#
# Total GULP energy -72411.293022 kJ/mol
# GULP energy per Si atom -5570.099463 kJ/mol
# Density = 2.791682 g / cm^3
# Si number density = 27.980507 Si / 1000 Ang^3
#
#
#
# Elastic Constant Matrix: (Units=GPa)
#
#
# Indices 1 2 3 4 5 6 
#
# 1 195.2128 81.4916 41.2620 6.8109 -37.7925 -1.0309
# 2 81.4916 166.3930 47.8866 4.8756 -21.2062 -25.4501
# 3 41.2620 47.8866 123.7252 16.2155 -29.9856 -12.8427
# 4 6.8109 4.8756 16.2155 38.7419 -6.3193 -13.7197
# 5 -37.7925 -21.2062 -29.9856 -6.3193 62.2704 -5.5619
# 6 -1.0309 -25.4501 -12.8427 -13.7197 -5.5619 61.9282
#
#
#
# Elastic Compliance Matrix: (Units=1/GPa)
#
#
# Indices 1 2 3 4 5 6 
#
# 1 0.007099 -0.003126 -0.000513 -0.000584 0.002835 -0.001148
# 2 -0.003126 0.008687 -0.002034 0.001643 0.000561 0.003510
# 3 -0.000513 -0.002034 0.010470 -0.003063 0.003815 0.000991
# 4 -0.000584 0.001643 -0.003063 0.029799 0.002366 0.006844
# 5 0.002835 0.000561 0.003815 0.002366 0.020354 0.003421
# 6 -0.001148 0.003510 0.000991 0.006844 0.003421 0.019600
#
#
# Mechanical properties :
#
#
# Convention : Reuss Voigt Hill
#
# Bulk Modulus (GPa) = 67.07648 91.84571 79.46109
# Shear Modulus (GPa) = 44.51317 53.56750 49.04034
#
# Velocity S-wave (km/s) = 3.99289 4.38020 4.19102
# Velocity P-wave (km/s) = 6.72920 7.64707 7.20277
#
# Compressibility (1/GPa) = 0.01490836
#
# Stress axis : x y z
#
# Youngs Moduli (GPa) = 140.85773 115.11662 95.51317
#
# Poissons Ratio (x) = 0.35990 0.04901
# Poissons Ratio (y) = 0.44038 0.19431
# Poissons Ratio (z) = 0.07227 0.23419
#
# Static dielectric constant tensor:
#      x y z
#    x 2.781910 -0.198770 0.203910 
#    y -0.198770 2.394950 0.008810 
#    z 0.203910 0.008810 2.428750 
# 
# From -- ./inp_files/25671.got.cif
#   From: 2010.05.17/outbox.cif.g08.bks.cpg/sg2_13_cif.got.tgz:25671.got - 2010.06.03 11:33:40.
