data_PCOD9058975
_publ_section_title
;
Structure prediction by ZEFSAII (Michael W. Deem and Ramdas Pophale) SiO2 
 PCOD9058975
Probable space group: P -1
;
_chemical_formula_sum "Si O2"
_cell_formula_units_Z 16
_cell_length_a 11.925525
_cell_length_b 9.271980
_cell_length_c 9.647886
_cell_angle_alpha 134.383642
_cell_angle_beta 84.166872
_cell_angle_gamma 88.838891
_cell_volume 752.176559
_symmetry_space_group_name_H-M "P -1"
_symmetry_group_IT_number 2
_symmetry_cell_setting 'triclinic'
loop_
_space_group_symop_operation_xyz
x,y,z
-x,-y,-z
loop_
_atom_site_type_symbol
_atom_site_label
_atom_site_fract_x
_atom_site_fract_y
_atom_site_fract_z
Si Si1 0.527283 0.214562 0.199056
Si Si2 0.221259 0.714762 0.786368
Si Si3 0.778306 0.247187 0.624233
Si Si4 0.036185 0.718512 0.601868
Si Si5 0.572905 0.595899 0.937484
Si Si6 0.620943 0.905485 0.357831
Si Si7 0.174597 0.947472 0.222851
Si Si8 0.332788 0.273560 0.481668
O O1 0.659437 0.207136 0.212533
O O2 0.493637 0.362857 0.171102
O O3 0.448687 0.278500 0.385030
O O4 0.500000 0.000000 0.000000
O O5 0.111542 0.797439 0.768041
O O6 0.247467 0.474080 0.594119
O O7 0.196239 0.776622 0.988870
O O8 0.875814 0.305092 0.551776
O O9 0.685622 0.440920 0.793434
O O10 0.707583 0.072268 0.455283
O O11 0.834278 0.156221 0.697791
O O12 0.000000 0.500000 0.500000
O O13 0.930778 0.885386 0.689528
O O14 0.500000 0.500000 0.000000
O O15 0.603628 0.801837 0.143825
O O16 0.660436 0.741682 0.363066
O O17 0.500000 0.000000 0.500000
O O18 0.283136 0.071072 0.302213
#
# Coordination Sequence:
#
# PCOD9058975 Si02
#       8
#     2   2   2   2   2   2   2   2
#     4  12  25  41  69 106 146 179 227 280 350 428
#     4  12  25  43  72  97 139 185 226 288 354 398
#     4  11  26  45  72 101 138 185 230 286 351 405
#     4  12  27  50  73  98 137 185 245 295 336 401
#     4  12  24  43  67 105 148 179 221 280 347 426
#     4  11  23  39  68 101 144 181 222 270 349 422
#     4  11  24  49  70  98 136 180 235 290 339 410
#     4  11  23  42  67 103 141 178 226 285 346 417
#
# _framework density 21.271601
#
# number of rings (size 3 to 8) (size 9 to 14) (size 15 to 20)
#    0.000    0.500    3.750    4.875    3.500    0.000 
#    2.250    0.625    0.000    0.000    0.000    0.000 
#    0.000    0.000    0.000    0.000    0.000    0.000 
#
# Total GULP energy -89560.816601 kJ/mol
# GULP energy per Si atom -5597.551038 kJ/mol
# Density = 2.122319 g / cm^3
# Si number density = 21.271601 Si / 1000 Ang^3
#
#
#
# Elastic Constant Matrix: (Units=GPa)
#
#
# Indices 1 2 3 4 5 6 
#
# 1 109.6005 51.4385 25.6853 -14.5643 3.5307 8.0389
# 2 51.4385 107.4539 29.9648 -11.1676 -0.2895 16.2430
# 3 25.6853 29.9648 104.1209 -7.7148 6.8320 18.0598
# 4 -14.5643 -11.1676 -7.7148 32.5366 -5.6754 -7.5885
# 5 3.5307 -0.2895 6.8320 -5.6754 36.6522 -9.6717
# 6 8.0389 16.2430 18.0598 -7.5885 -9.6717 35.1460
#
#
#
# Elastic Compliance Matrix: (Units=1/GPa)
#
#
# Indices 1 2 3 4 5 6 
#
# 1 0.012353 -0.005306 -0.001439 0.003608 -0.000111 0.001115
# 2 -0.005306 0.012972 -0.001729 0.000822 0.000089 -0.003691
# 3 -0.001439 -0.001729 0.011708 -0.000517 -0.003727 -0.006025
# 4 0.003608 0.000822 -0.000517 0.035931 0.007676 0.008931
# 5 -0.000111 0.000089 -0.003727 0.007676 0.032475 0.012493
# 6 0.001115 -0.003691 -0.006025 0.008931 0.012493 0.038366
#
#
# Mechanical properties :
#
#
# Convention : Reuss Voigt Hill
#
# Bulk Modulus (GPa) = 49.78821 59.48363 54.63592
# Shear Modulus (GPa) = 29.86010 35.13940 32.49975
#
# Velocity S-wave (km/s) = 3.75074 4.06882 3.91301
# Velocity P-wave (km/s) = 6.49724 7.07801 6.79383
#
# Compressibility (1/GPa) = 0.02008508
#
# Stress axis : x y z
#
# Youngs Moduli (GPa) = 80.95406 77.08896 85.41021
#
# Poissons Ratio (x) = 0.40902 0.12291
# Poissons Ratio (y) = 0.42953 0.14768
# Poissons Ratio (z) = 0.11650 0.13329
#
# Static dielectric constant tensor:
#      x y z
#    x 1.753300 -0.016900 0.023290 
#    y -0.016900 1.820010 -0.019580 
#    z 0.023290 -0.019580 1.811920 
# 
# From -- ./inp_files/188152.got.cif
#   From: 2010.05.17/outbox.cif.g08.bks.cpg/sg2_95_cif.got.tgz:188152.got - 2010.06.03 11:33:40.
