data_PCOD9058306
_publ_section_title
;
Structure prediction by ZEFSAII (Michael W. Deem and Ramdas Pophale) SiO2 
 PCOD9058306
Probable space group: P -1
;
_chemical_formula_sum "Si O2"
_cell_formula_units_Z 16
_cell_length_a 9.562631
_cell_length_b 8.036747
_cell_length_c 10.886479
_cell_angle_alpha 82.391607
_cell_angle_beta 71.679473
_cell_angle_gamma 121.162067
_cell_volume 633.223774
_symmetry_space_group_name_H-M "P -1"
_symmetry_group_IT_number 2
_symmetry_cell_setting 'triclinic'
loop_
_space_group_symop_operation_xyz
x,y,z
-x,-y,-z
loop_
_atom_site_type_symbol
_atom_site_label
_atom_site_fract_x
_atom_site_fract_y
_atom_site_fract_z
Si Si1 0.486583 0.926964 0.319501
Si Si2 0.246973 0.465417 0.684210
Si Si3 0.587874 0.688493 0.760458
Si Si4 0.592603 0.207960 0.032927
Si Si5 0.178165 0.914086 0.477644
Si Si6 0.991786 0.569399 0.859719
Si Si7 0.161040 0.040924 0.723111
Si Si8 0.222141 0.484284 0.398426
O O1 0.365163 0.939440 0.454942
O O2 0.313610 0.723418 0.321097
O O3 0.593749 0.121590 0.177551
O O4 0.632296 0.883437 0.315711
O O5 0.428221 0.590076 0.707987
O O6 0.127309 0.548154 0.742326
O O7 0.276197 0.486400 0.526783
O O8 0.143838 0.216927 0.762342
O O9 0.508264 0.686697 0.914121
O O10 0.683631 0.580234 0.714253
O O11 0.750267 0.934764 0.672632
O O12 0.783706 0.387426 0.904393
O O13 0.500000 0.000000 0.000000
O O14 0.141392 0.024337 0.583218
O O15 0.995634 0.683504 0.536245
O O16 0.037629 0.798679 0.822767
O O17 0.000000 0.500000 0.000000
#
# Coordination Sequence:
#
# PCOD9058306 Si02
#       8
#     2   2   2   2   2   2   2   2
#     4  11  23  43  68  97 139 186 232 284 352 418
#     4  12  25  44  76 105 142 187 228 293 347 422
#     4  11  22  45  68  96 142 180 226 288 347 413
#     4  11  27  47  70  95 139 189 232 289 348 413
#     4  11  24  39  66 103 143 180 228 291 349 414
#     4  12  25  48  69  99 139 187 241 282 336 415
#     4  12  24  44  73 104 138 186 237 286 349 416
#     4  12  24  41  69 108 143 173 232 291 361 408
#
# _framework density 25.267529
#
# number of rings (size 3 to 8) (size 9 to 14) (size 15 to 20)
#    0.000    0.500    5.000    3.750    5.250    0.500 
#    2.250    0.625    0.000    0.000    0.000    0.000 
#    0.000    0.000    0.000    0.000    0.000    0.000 
#
# Total GULP energy -89418.930706 kJ/mol
# GULP energy per Si atom -5588.683169 kJ/mol
# Density = 2.521002 g / cm^3
# Si number density = 25.267529 Si / 1000 Ang^3
#
#
#
# Elastic Constant Matrix: (Units=GPa)
#
#
# Indices 1 2 3 4 5 6 
#
# 1 74.3142 36.8315 37.9022 -3.7634 -14.0222 3.0293
# 2 36.8315 176.8997 48.2093 -22.3835 -3.1905 -5.8867
# 3 37.9022 48.2093 83.3273 -10.9554 -14.3120 4.1673
# 4 -3.7634 -22.3835 -10.9554 59.5365 2.3690 -4.0021
# 5 -14.0222 -3.1905 -14.3120 2.3690 33.4512 -6.8228
# 6 3.0293 -5.8867 4.1673 -4.0021 -6.8228 47.8849
#
#
#
# Elastic Compliance Matrix: (Units=1/GPa)
#
#
# Indices 1 2 3 4 5 6 
#
# 1 0.018756 -0.002171 -0.006564 -0.001051 0.004865 -0.000277
# 2 -0.002171 0.007282 -0.003266 0.002146 -0.001503 0.001282
# 3 -0.006564 -0.003266 0.017842 0.001415 0.004306 -0.000807
# 4 -0.001051 0.002146 0.001415 0.017929 -0.000569 0.001625
# 5 0.004865 -0.001503 0.004306 -0.000569 0.034488 0.003999
# 6 -0.000277 0.001282 -0.000807 0.001625 0.003999 0.021834
#
#
# Mechanical properties :
#
#
# Convention : Reuss Voigt Hill
#
# Bulk Modulus (GPa) = 50.30544 64.49192 57.39868
# Shear Modulus (GPa) = 33.61131 42.28105 37.94618
#
# Velocity S-wave (km/s) = 3.65117 4.09508 3.87948
# Velocity P-wave (km/s) = 6.14224 6.92377 6.54468
#
# Compressibility (1/GPa) = 0.01987857
#
# Stress axis : x y z
#
# Youngs Moduli (GPa) = 53.31585 137.32680 56.04714
#
# Poissons Ratio (x) = 0.29808 0.36791
# Poissons Ratio (y) = 0.11573 0.18304
# Poissons Ratio (z) = 0.34998 0.44849
#
# Static dielectric constant tensor:
#      x y z
#    x 2.113530 -0.008210 0.034420 
#    y -0.008210 2.019730 0.006130 
#    z 0.034420 0.006130 1.991980 
# 
# From -- ./inp_files/419450.got.cif
#   From: 2010.05.17/outbox.cif.g08.bks.cpg/sg2_210_cif.got.tgz:419450.got - 2010.06.03 11:33:40.
