data_PCOD9058224
_publ_section_title
;
Structure prediction by ZEFSAII (Michael W. Deem and Ramdas Pophale) SiO2 
 PCOD9058224
Probable space group: P -1
;
_chemical_formula_sum "Si O2"
_cell_formula_units_Z 15
_cell_length_a 6.313906
_cell_length_b 16.929779
_cell_length_c 13.573580
_cell_angle_alpha 149.237230
_cell_angle_beta 51.570846
_cell_angle_gamma 124.875601
_cell_volume 578.783056
_symmetry_space_group_name_H-M "P -1"
_symmetry_group_IT_number 2
_symmetry_cell_setting 'triclinic'
loop_
_space_group_symop_operation_xyz
x,y,z
-x,-y,-z
loop_
_atom_site_type_symbol
_atom_site_label
_atom_site_fract_x
_atom_site_fract_y
_atom_site_fract_z
Si Si1 0.523938 0.011432 0.888751
Si Si2 0.782746 0.310214 0.372941
Si Si3 0.218150 0.638274 0.345881
Si Si4 0.318425 0.240336 0.041678
Si Si5 0.686733 0.530838 0.298589
Si Si6 0.826233 0.646663 0.192711
Si Si7 0.158110 0.983514 0.649142
Si Si8 0.000000 0.000000 0.500000
O O1 0.331079 0.863412 0.754062
O O2 0.834486 0.005812 0.763323
O O3 0.500000 0.000000 0.000000
O O4 0.409708 0.153995 0.020810
O O5 0.844331 0.374949 0.533670
O O6 0.546210 0.406331 0.498869
O O7 0.030802 0.300004 0.217209
O O8 0.524369 0.609493 0.196732
O O9 0.983077 0.515954 0.238698
O O10 0.191134 0.815314 0.507673
O O11 0.545419 0.384464 0.124210
O O12 0.284416 0.120795 0.832496
O O13 0.743274 0.673408 0.359097
O O14 0.971078 0.809077 0.290257
O O15 0.000000 0.500000 0.000000
O O16 0.215375 0.988075 0.520452
#
# Coordination Sequence:
#
# PCOD9058224 Si02
#       8
#     2   2   2   2   2   2   2   1
#     4  12  23  42  75 114 157 204 270 326 391 482
#     4  11  22  44  74 112 159 213 262 323 396 481
#     4  11  23  49  81 109 161 212 254 334 408 478
#     4  12  27  43  77 119 158 213 271 327 400 483
#     4  11  26  49  72 114 164 202 267 330 405 481
#     4  11  28  53  83 117 154 207 276 342 408 486
#     4  12  25  48  80 117 157 214 269 337 405 483
#     4  12  28  56  84 118 160 208 280 344 412 484
#
# _framework density 25.916447000000002
#
# number of rings (size 3 to 8) (size 9 to 14) (size 15 to 20)
#    0.000    0.533    5.333    2.400    1.867    3.733 
#    2.400    0.000    0.000    0.000    0.000    0.000 
#    0.000    0.000    0.000    0.000    0.000    0.000 
#
# Total GULP energy -83604.692244 kJ/mol
# GULP energy per Si atom -5573.646150 kJ/mol
# Density = 2.585746 g / cm^3
# Si number density = 25.916447 Si / 1000 Ang^3
#
#
#
# Elastic Constant Matrix: (Units=GPa)
#
#
# Indices 1 2 3 4 5 6 
#
# 1 145.6799 36.4777 74.6198 5.7276 -4.1117 12.9468
# 2 36.4777 80.3980 67.0730 22.7441 -12.3400 7.6562
# 3 74.6198 67.0730 135.7554 15.8924 -15.2889 17.5145
# 4 5.7276 22.7441 15.8924 43.3653 -0.8483 -4.6255
# 5 -4.1117 -12.3400 -15.2889 -0.8483 58.1838 -6.3617
# 6 12.9468 7.6562 17.5145 -4.6255 -6.3617 53.7237
#
#
#
# Elastic Compliance Matrix: (Units=1/GPa)
#
#
# Indices 1 2 3 4 5 6 
#
# 1 0.009626 -0.000237 -0.005270 0.000704 -0.000811 -0.000603
# 2 -0.000237 0.024143 -0.010461 -0.008805 0.002175 -0.000474
# 3 -0.005270 -0.010461 0.015851 0.000161 0.001332 -0.002235
# 4 0.000704 -0.008805 0.000161 0.027860 -0.001007 0.003312
# 5 -0.000811 0.002175 0.001332 -0.001007 0.018091 0.001507
# 6 -0.000603 -0.000474 -0.002235 0.003312 0.001507 0.020019
#
#
# Mechanical properties :
#
#
# Convention : Reuss Voigt Hill
#
# Bulk Modulus (GPa) = 56.54969 79.79716 68.17342
# Shear Modulus (GPa) = 32.59025 43.29873 37.94449
#
# Velocity S-wave (km/s) = 3.54999 4.09186 3.83052
# Velocity P-wave (km/s) = 6.21857 7.29256 6.77687
#
# Compressibility (1/GPa) = 0.01768356
#
# Stress axis : x y z
#
# Youngs Moduli (GPa) = 103.88425 41.41994 63.08815
#
# Poissons Ratio (x) = 0.00983 0.33246
# Poissons Ratio (y) = 0.02465 0.65997
# Poissons Ratio (z) = 0.54744 0.43330
#
# Static dielectric constant tensor:
#      x y z
#    x 2.187070 0.004240 0.059050 
#    y 0.004240 2.015220 -0.130050 
#    z 0.059050 -0.130050 2.120420 
# 
# From -- ./inp_files/485067.got.cif
#   From: 2010.05.17/outbox.cif.g08.bks.cpg/sg2_243_cif.got.tgz:485067.got - 2010.06.03 11:33:40.
