data_PCOD9058248
_publ_section_title
;
Structure prediction by ZEFSAII (Michael W. Deem and Ramdas Pophale) SiO2 
 PCOD9058248
Probable space group: P -1
;
_chemical_formula_sum "Si O2"
_cell_formula_units_Z 16
_cell_length_a 15.178676
_cell_length_b 5.214226
_cell_length_c 9.173946
_cell_angle_alpha 102.979741
_cell_angle_beta 97.272217
_cell_angle_gamma 116.269451
_cell_volume 612.863864
_symmetry_space_group_name_H-M "P -1"
_symmetry_group_IT_number 2
_symmetry_cell_setting 'triclinic'
loop_
_space_group_symop_operation_xyz
x,y,z
-x,-y,-z
loop_
_atom_site_type_symbol
_atom_site_label
_atom_site_fract_x
_atom_site_fract_y
_atom_site_fract_z
Si Si1 0.300561 0.726399 0.503763
Si Si2 0.536895 0.330177 0.100233
Si Si3 0.157939 0.190642 0.564934
Si Si4 0.275349 0.087887 0.795543
Si Si5 0.986138 0.593019 0.349283
Si Si6 0.220328 0.022698 0.109189
Si Si7 0.875982 0.552515 0.799024
Si Si8 0.420576 0.209874 0.358524
O O1 0.263400 0.399683 0.528613
O O2 0.195656 0.629081 0.378692
O O3 0.324375 0.943991 0.677161
O O4 0.382781 0.917577 0.420303
O O5 0.656080 0.551459 0.152986
O O6 0.489405 0.258726 0.239789
O O7 0.500000 0.500000 0.000000
O O8 0.500000 0.000000 0.000000
O O9 0.174958 0.016402 0.677535
O O10 0.118062 0.395942 0.662512
O O11 0.073248 0.952345 0.406508
O O12 0.257788 0.020577 0.952918
O O13 0.013967 0.402545 0.218036
O O14 0.000000 0.500000 0.500000
O O15 0.152592 0.189563 0.133692
O O16 0.319246 0.185968 0.257591
O O17 0.159992 0.682013 0.107066
O O18 0.500000 0.500000 0.500000
#
# Coordination Sequence:
#
# PCOD9058248 Si02
#       8
#     2   2   2   2   2   2   2   2
#     4  11  24  42  75 107 147 187 265 301 370 441
#     4  12  29  51  73 109 154 203 252 310 384 445
#     4  11  24  42  76 114 144 202 244 317 379 448
#     4  12  26  47  74 107 152 202 251 306 382 455
#     4  11  22  44  76 112 153 183 257 315 381 449
#     4  11  28  45  73 104 157 196 244 305 384 444
#     4  11  24  47  71 111 143 197 242 313 368 446
#     4  11  25  49  74 113 146 200 256 322 369 444
#
# _framework density 26.106940000000002
#
# number of rings (size 3 to 8) (size 9 to 14) (size 15 to 20)
#    0.000    0.750    5.000    0.750   10.500    0.000 
#    0.000    5.000    0.000    0.000    0.000    0.000 
#    0.000    0.000    0.000    0.000    0.000    0.000 
#
# Total GULP energy -89440.635256 kJ/mol
# GULP energy per Si atom -5590.039703 kJ/mol
# Density = 2.604752 g / cm^3
# Si number density = 26.106940 Si / 1000 Ang^3
#
#
#
# Elastic Constant Matrix: (Units=GPa)
#
#
# Indices 1 2 3 4 5 6 
#
# 1 72.0127 15.9238 26.3574 -11.6244 -3.2451 -7.1893
# 2 15.9238 152.4664 56.9050 -25.5333 -6.4479 3.2814
# 3 26.3574 56.9050 185.5584 -30.5546 -21.5627 -3.2766
# 4 -11.6244 -25.5333 -30.5546 53.9079 6.9846 -7.2531
# 5 -3.2451 -6.4479 -21.5627 6.9846 35.5715 0.5513
# 6 -7.1893 3.2814 -3.2766 -7.2531 0.5513 43.4888
#
#
#
# Elastic Compliance Matrix: (Units=1/GPa)
#
#
# Indices 1 2 3 4 5 6 
#
# 1 0.015279 -0.000676 -0.001518 0.002527 -0.000190 0.002886
# 2 -0.000676 0.007749 -0.001924 0.002413 -0.000291 -0.000435
# 3 -0.001518 -0.001924 0.006983 0.002401 0.003262 0.000780
# 4 0.002527 0.002413 0.002401 0.022468 -0.002353 0.004194
# 5 -0.000190 -0.000291 0.003262 -0.002353 0.030490 -0.000543
# 6 0.002886 -0.000435 0.000780 0.004194 -0.000543 0.024269
#
#
# Mechanical properties :
#
#
# Convention : Reuss Voigt Hill
#
# Bulk Modulus (GPa) = 45.92637 67.60109 56.76373
# Shear Modulus (GPa) = 40.73850 47.31705 44.02778
#
# Velocity S-wave (km/s) = 3.95454 4.26189 4.11108
# Velocity P-wave (km/s) = 6.20330 7.08296 6.65768
#
# Compressibility (1/GPa) = 0.02177398
#
# Stress axis : x y z
#
# Youngs Moduli (GPa) = 65.44908 129.05152 143.20108
#
# Poissons Ratio (x) = 0.08726 0.21737
# Poissons Ratio (y) = 0.04426 0.27558
# Poissons Ratio (z) = 0.09935 0.24835
#
# Static dielectric constant tensor:
#      x y z
#    x 2.208350 0.012360 0.015420 
#    y 0.012360 2.079710 0.050430 
#    z 0.015420 0.050430 2.010290 
# 
# From -- ./inp_files/322910.got.cif
#   From: 2010.05.17/outbox.cif.g08.bks.cpg/sg2_162_cif.got.tgz:322910.got - 2010.06.03 11:33:40.
