data_PCOD9058717
_publ_section_title
;
Structure prediction by ZEFSAII (Michael W. Deem and Ramdas Pophale) SiO2 
 PCOD9058717
Probable space group: P -1
;
_chemical_formula_sum "Si O2"
_cell_formula_units_Z 16
_cell_length_a 16.269801
_cell_length_b 9.237213
_cell_length_c 9.184522
_cell_angle_alpha 115.221793
_cell_angle_beta 33.423563
_cell_angle_gamma 117.313735
_cell_volume 672.913559
_symmetry_space_group_name_H-M "P -1"
_symmetry_group_IT_number 2
_symmetry_cell_setting 'triclinic'
loop_
_space_group_symop_operation_xyz
x,y,z
-x,-y,-z
loop_
_atom_site_type_symbol
_atom_site_label
_atom_site_fract_x
_atom_site_fract_y
_atom_site_fract_z
Si Si1 0.166286 0.263378 0.690917
Si Si2 0.265019 0.124865 0.955317
Si Si3 0.842859 0.998565 0.646530
Si Si4 0.145263 0.421968 0.260908
Si Si5 0.725298 0.302765 0.020357
Si Si6 0.333488 0.517038 0.314257
Si Si7 0.812945 0.246818 0.191823
Si Si8 0.421893 0.310805 0.559272
O O1 0.154466 0.096727 0.546472
O O2 0.272401 0.396997 0.487691
O O3 0.261221 0.260852 0.695437
O O4 0.994468 0.291802 0.977808
O O5 0.404722 0.245370 0.721638
O O6 0.232416 0.948685 0.851602
O O7 0.279002 0.095417 0.093941
O O8 0.133432 0.229767 0.173302
O O9 0.000000 0.000000 0.500000
O O10 0.810099 0.177919 0.761132
O O11 0.221151 0.459261 0.321196
O O12 0.000000 0.500000 0.500000
O O13 0.250048 0.528401 0.030075
O O14 0.789047 0.321792 0.099176
O O15 0.546849 0.225115 0.261837
O O16 0.292369 0.686413 0.506199
O O17 0.500000 0.500000 0.000000
O O18 0.500000 0.500000 0.500000
#
# Coordination Sequence:
#
# PCOD9058717 Si02
#       8
#     2   2   2   2   2   2   2   2
#     4  12  25  46  78 104 155 193 250 307 374 438
#     4  11  25  47  76 106 152 191 248 303 378 435
#     4  11  22  47  73 109 144 192 243 308 367 438
#     4  12  25  43  74 106 139 194 248 303 363 435
#     4  11  24  44  75 103 152 190 247 299 379 435
#     4  12  28  46  71 109 152 191 248 301 374 448
#     4  11  27  49  77 109 142 199 250 306 373 445
#     4  12  27  45  69 107 151 194 243 307 369 439
#
# _framework density 23.777197000000001
#
# number of rings (size 3 to 8) (size 9 to 14) (size 15 to 20)
#    0.000    0.500    5.000    3.375    3.500    5.000 
#    0.000    0.000    0.000    0.000    0.000    0.000 
#    0.000    0.000    0.000    0.000    0.000    0.000 
#
# Total GULP energy -89492.247056 kJ/mol
# GULP energy per Si atom -5593.265441 kJ/mol
# Density = 2.372308 g / cm^3
# Si number density = 23.777197 Si / 1000 Ang^3
#
#
#
# Elastic Constant Matrix: (Units=GPa)
#
#
# Indices 1 2 3 4 5 6 
#
# 1 95.7645 9.6172 18.3197 13.2053 6.3491 8.6965
# 2 9.6172 119.0045 34.2012 24.8154 19.9194 -8.2314
# 3 18.3197 34.2012 151.9607 18.8872 6.5668 6.8405
# 4 13.2053 24.8154 18.8872 55.4208 0.5965 13.1559
# 5 6.3491 19.9194 6.5668 0.5965 30.5556 0.6970
# 6 8.6965 -8.2314 6.8405 13.1559 0.6970 33.3949
#
#
#
# Elastic Compliance Matrix: (Units=1/GPa)
#
#
# Indices 1 2 3 4 5 6 
#
# 1 0.011192 -0.000054 -0.000934 -0.001835 -0.002009 -0.001972
# 2 -0.000054 0.011801 -0.001857 -0.005935 -0.007299 0.005794
# 3 -0.000934 -0.001857 0.007314 -0.001138 -0.000116 -0.001262
# 4 -0.001835 -0.005935 -0.001138 0.023917 0.004262 -0.010263
# 5 -0.002009 -0.007299 -0.000116 0.004262 0.037930 -0.003723
# 6 -0.001972 0.005794 -0.001262 -0.010263 -0.003723 0.036266
#
#
# Mechanical properties :
#
#
# Convention : Reuss Voigt Hill
#
# Bulk Modulus (GPa) = 40.61994 54.55622 47.58808
# Shear Modulus (GPa) = 35.13341 44.18034 39.65688
#
# Velocity S-wave (km/s) = 3.84814 4.31524 4.08837
# Velocity P-wave (km/s) = 6.07165 6.91542 6.50722
#
# Compressibility (1/GPa) = 0.02461845
#
# Stress axis : x y z
#
# Youngs Moduli (GPa) = 89.35349 84.73599 136.71542
#
# Poissons Ratio (x) = 0.00454 0.12762
# Poissons Ratio (y) = 0.00479 0.25392
# Poissons Ratio (z) = 0.08341 0.15738
#
# Static dielectric constant tensor:
#      x y z
#    x 1.844070 0.010470 -0.007210 
#    y 0.010470 1.893690 -0.004750 
#    z -0.007210 -0.004750 2.073380 
# 
# From -- ./inp_files/299067.got.cif
#   From: 2010.05.17/outbox.cif.g08.bks.cpg/sg2_150_cif.got.tgz:299067.got - 2010.06.03 11:33:40.
