data_PCOD9058640
_publ_section_title
;
Structure prediction by ZEFSAII (Michael W. Deem and Ramdas Pophale) SiO2 
 PCOD9058640
Probable space group: P -1
;
_chemical_formula_sum "Si O2"
_cell_formula_units_Z 16
_cell_length_a 12.309169
_cell_length_b 16.530924
_cell_length_c 5.240041
_cell_angle_alpha 81.758635
_cell_angle_beta 77.447188
_cell_angle_gamma 139.386681
_cell_volume 592.374232
_symmetry_space_group_name_H-M "P -1"
_symmetry_group_IT_number 2
_symmetry_cell_setting 'triclinic'
loop_
_space_group_symop_operation_xyz
x,y,z
-x,-y,-z
loop_
_atom_site_type_symbol
_atom_site_label
_atom_site_fract_x
_atom_site_fract_y
_atom_site_fract_z
Si Si1 0.928403 0.164587 0.175865
Si Si2 0.364693 0.911576 0.359085
Si Si3 0.555867 0.802341 0.812098
Si Si4 0.825965 0.948570 0.002495
Si Si5 0.727078 0.627586 0.759536
Si Si6 0.685027 0.298710 0.521362
Si Si7 0.840293 0.569076 0.362420
Si Si8 0.573614 0.668421 0.536755
O O1 0.128279 0.253629 0.155427
O O2 0.787346 0.108401 0.500340
O O3 0.983027 0.278136 0.930018
O O4 0.833411 0.038976 0.104572
O O5 0.563050 0.235144 0.872216
O O6 0.249795 0.756178 0.480773
O O7 0.552206 0.224725 0.367352
O O8 0.500000 0.000000 0.000000
O O9 0.541320 0.697855 0.801957
O O10 0.780126 0.938798 0.733765
O O11 0.653805 0.784462 0.252726
O O12 0.000000 0.000000 0.000000
O O13 0.810305 0.589740 0.648845
O O14 0.729144 0.691651 0.491992
O O15 0.500000 0.500000 0.000000
O O16 0.829188 0.464140 0.380679
O O17 0.500000 0.000000 0.500000
O O18 0.639615 0.481670 0.377411
#
# Coordination Sequence:
#
# PCOD9058640 Si02
#       8
#     2   2   2   2   2   2   2   2
#     4  12  30  48  77 121 160 216 273 339 401 491
#     4  12  30  56  83 118 160 209 270 349 415 470
#     4  11  22  46  76 115 146 208 264 322 393 478
#     4  12  26  44  73 119 167 210 265 327 403 485
#     4  12  25  44  75 115 166 212 266 325 405 482
#     4  11  25  48  85 109 147 209 269 322 404 471
#     4  11  25  46  76 113 161 212 268 327 398 490
#     4  11  24  43  76 107 159 215 258 318 400 475
#
# _framework density 27.009954
#
# number of rings (size 3 to 8) (size 9 to 14) (size 15 to 20)
#    0.000    0.500    3.750    4.125    7.000    3.500 
#    0.000    0.625    0.000    0.000    0.000    0.000 
#    0.000    0.000    0.000    0.000    0.000    0.000 
#
# Total GULP energy -89495.420036 kJ/mol
# GULP energy per Si atom -5593.463752 kJ/mol
# Density = 2.694848 g / cm^3
# Si number density = 27.009954 Si / 1000 Ang^3
#
#
#
# Elastic Constant Matrix: (Units=GPa)
#
#
# Indices 1 2 3 4 5 6 
#
# 1 70.9357 31.8761 23.6862 -1.4012 5.8069 -25.3161
# 2 31.8761 163.9624 45.6852 9.9715 16.1630 -17.9686
# 3 23.6862 45.6852 135.0699 9.3837 3.2608 4.6115
# 4 -1.4012 9.9715 9.3837 55.7337 -2.7090 11.1037
# 5 5.8069 16.1630 3.2608 -2.7090 31.2565 -6.0619
# 6 -25.3161 -17.9686 4.6115 11.1037 -6.0619 59.7176
#
#
#
# Elastic Compliance Matrix: (Units=1/GPa)
#
#
# Indices 1 2 3 4 5 6 
#
# 1 0.018648 -0.001922 -0.002842 -0.000242 -0.000737 0.007517
# 2 -0.001922 0.007649 -0.002121 -0.001536 -0.003198 0.001611
# 3 -0.002842 -0.002121 0.008743 -0.000682 0.000194 -0.002372
# 4 -0.000242 -0.001536 -0.000682 0.019191 0.001818 -0.003896
# 5 -0.000737 -0.003198 0.000194 0.001818 0.034280 0.001852
# 6 0.007517 0.001611 -0.002372 -0.003896 0.001852 0.021513
#
#
# Mechanical properties :
#
#
# Convention : Reuss Voigt Hill
#
# Bulk Modulus (GPa) = 47.01617 63.60698 55.31157
# Shear Modulus (GPa) = 38.20159 47.25626 42.72892
#
# Velocity S-wave (km/s) = 3.76487 4.18734 3.98171
# Velocity P-wave (km/s) = 6.02858 6.85413 6.45456
#
# Compressibility (1/GPa) = 0.02126928
#
# Stress axis : x y z
#
# Youngs Moduli (GPa) = 53.62403 130.73740 114.37626
#
# Poissons Ratio (x) = 0.25133 0.32506
# Poissons Ratio (y) = 0.10309 0.24260
# Poissons Ratio (z) = 0.15240 0.27731
#
# Static dielectric constant tensor:
#      x y z
#    x 2.179880 0.016520 0.046600 
#    y 0.016520 2.142030 -0.069610 
#    z 0.046600 -0.069610 2.265140 
# 
# From -- ./inp_files/98034.got.cif
#   From: 2010.05.17/outbox.cif.g08.bks.cpg/sg2_50_cif.got.tgz:98034.got - 2010.06.03 11:33:40.
