data_PCOD9058947
_publ_section_title
;
Structure prediction by ZEFSAII (Michael W. Deem and Ramdas Pophale) SiO2 
 PCOD9058947
Probable space group: P -1
;
_chemical_formula_sum "Si O2"
_cell_formula_units_Z 14
_cell_length_a 7.209533
_cell_length_b 12.969658
_cell_length_c 7.574719
_cell_angle_alpha 78.219838
_cell_angle_beta 120.975886
_cell_angle_gamma 115.837801
_cell_volume 546.370305
_symmetry_space_group_name_H-M "P -1"
_symmetry_group_IT_number 2
_symmetry_cell_setting 'triclinic'
loop_
_space_group_symop_operation_xyz
x,y,z
-x,-y,-z
loop_
_atom_site_type_symbol
_atom_site_label
_atom_site_fract_x
_atom_site_fract_y
_atom_site_fract_z
Si Si1 0.721808 0.006214 0.981258
Si Si2 0.176649 0.540722 0.354339
Si Si3 0.458375 0.336441 0.789755
Si Si4 0.960499 0.892363 0.388966
Si Si5 0.561307 0.143625 0.408095
Si Si6 0.749155 0.226709 0.823867
Si Si7 0.672800 0.390391 0.217181
O O1 0.634938 0.950859 0.768131
O O2 0.865997 0.142701 0.976338
O O3 0.856950 0.935591 0.157033
O O4 0.500000 0.000000 0.000000
O O5 0.387240 0.568298 0.308456
O O6 0.115068 0.654570 0.254605
O O7 0.268162 0.534957 0.598706
O O8 0.932477 0.435602 0.239314
O O9 0.219291 0.242025 0.629027
O O10 0.620124 0.260704 0.907317
O O11 0.480119 0.386125 0.978831
O O12 0.205350 0.879860 0.496383
O O13 0.000000 0.000000 0.500000
O O14 0.545591 0.156021 0.606852
O O15 0.591515 0.263955 0.298827
#
# Coordination Sequence:
#
# PCOD9058947 Si02
#       7
#     2   2   2   2   2   2   2
#     4  12  19  38  59  80 114 161 196 238 303 343
#     4   8  19  33  62  94 108 153 203 238 291 355
#     4  10  19  37  59  85 117 154 198 235 291 354
#     4  12  24  35  58  89 120 157 199 243 290 354
#     4  11  22  37  58  87 118 154 196 249 294 345
#     4   9  20  35  58  85 116 152 199 241 289 356
#     4  10  17  37  64  85 117 154 194 244 298 342
#
# _framework density 25.623646999999998
#
# number of rings (size 3 to 8) (size 9 to 14) (size 15 to 20)
#    0.857    0.857    4.286    0.857    0.000    0.571 
#    0.000    2.143    0.000    7.714    0.000    0.000 
#    0.000    0.000    0.000    0.000    0.000    0.000 
#
# Total GULP energy -78137.712188 kJ/mol
# GULP energy per Si atom -5581.265156 kJ/mol
# Density = 2.556533 g / cm^3
# Si number density = 25.623647 Si / 1000 Ang^3
#
#
#
# Elastic Constant Matrix: (Units=GPa)
#
#
# Indices 1 2 3 4 5 6 
#
# 1 64.7284 3.3532 18.5741 10.9429 3.7937 -0.1385
# 2 3.3532 76.6329 1.5026 12.6697 -2.4798 18.8952
# 3 18.5741 1.5026 92.0070 17.8586 -11.5193 13.3949
# 4 10.9429 12.6697 17.8586 47.2847 -2.7288 -3.2385
# 5 3.7937 -2.4798 -11.5193 -2.7288 29.8676 2.1547
# 6 -0.1385 18.8952 13.3949 -3.2385 2.1547 38.9178
#
#
#
# Elastic Compliance Matrix: (Units=1/GPa)
#
#
# Indices 1 2 3 4 5 6 
#
# 1 0.017227 -0.000846 -0.003756 -0.002454 -0.004060 0.001785
# 2 -0.000846 0.016423 0.002744 -0.005739 0.002694 -0.009548
# 3 -0.003756 0.002744 0.014467 -0.005455 0.006301 -0.007128
# 4 -0.002454 -0.005739 -0.005455 0.025758 -0.000407 0.006821
# 5 -0.004060 0.002694 0.006301 -0.000407 0.037015 -0.005574
# 6 0.001785 -0.009548 -0.007128 0.006821 -0.005574 0.033667
#
#
# Mechanical properties :
#
#
# Convention : Reuss Voigt Hill
#
# Bulk Modulus (GPa) = 22.52206 31.13643 26.82924
# Shear Modulus (GPa) = 30.66089 37.20992 33.93541
#
# Velocity S-wave (km/s) = 3.46292 3.81487 3.64315
# Velocity P-wave (km/s) = 4.97973 5.61980 5.30942
#
# Compressibility (1/GPa) = 0.04440092
#
# Stress axis : x y z
#
# Youngs Moduli (GPa) = 58.04710 60.89158 69.12061
#
# Poissons Ratio (x) = 0.05152 0.25962
# Poissons Ratio (y) = 0.04912 -0.18966
# Poissons Ratio (z) = 0.21803 -0.16708
#
# Static dielectric constant tensor:
#      x y z
#    x 2.056270 0.010530 -0.028760 
#    y 0.010530 2.061250 0.001870 
#    z -0.028760 0.001870 2.027010 
# 
# From -- ./inp_files/196657.got.cif
#   From: 2010.05.17/outbox.cif.g08.bks.cpg/sg2_99_cif.got.tgz:196657.got - 2010.06.03 11:33:40.
