data_PCOD9058005
_publ_section_title
;
Structure prediction by ZEFSAII (Michael W. Deem and Ramdas Pophale) SiO2 
 PCOD9058005
Probable space group: P -1
;
_chemical_formula_sum "Si O2"
_cell_formula_units_Z 14
_cell_length_a 9.771909
_cell_length_b 8.394968
_cell_length_c 11.686980
_cell_angle_alpha 58.313168
_cell_angle_beta 97.788219
_cell_angle_gamma 132.900720
_cell_volume 558.410102
_symmetry_space_group_name_H-M "P -1"
_symmetry_group_IT_number 2
_symmetry_cell_setting 'triclinic'
loop_
_space_group_symop_operation_xyz
x,y,z
-x,-y,-z
loop_
_atom_site_type_symbol
_atom_site_label
_atom_site_fract_x
_atom_site_fract_y
_atom_site_fract_z
Si Si1 0.497436 0.581139 0.841896
Si Si2 0.348383 0.185281 0.630671
Si Si3 0.405067 0.904347 0.263982
Si Si4 0.055331 0.743903 0.160720
Si Si5 0.892834 0.947433 0.142791
Si Si6 0.263790 0.763365 0.528679
Si Si7 0.837765 0.958203 0.568232
O O1 0.303960 0.323683 0.844672
O O2 0.682597 0.705154 0.731515
O O3 0.508566 0.815906 0.780493
O O4 0.500000 0.500000 0.000000
O O5 0.500000 0.500000 0.500000
O O6 0.433230 0.094556 0.747218
O O7 0.165096 0.084520 0.721313
O O8 0.279821 0.059425 0.545226
O O9 0.250562 0.813843 0.183221
O O10 0.290657 0.688228 0.436891
O O11 0.058501 0.950301 0.145362
O O12 0.866670 0.461656 0.303928
O O13 0.041376 0.796482 0.008128
O O14 0.500000 0.000000 0.500000
O O15 0.132097 0.815030 0.451891
O O16 0.000000 0.000000 0.500000
#
# Coordination Sequence:
#
# PCOD9058005 Si02
#       7
#     2   2   2   2   2   2   2
#     4  11  23  48  73 100 139 189 229 284 354 422
#     4  12  25  44  67 104 141 181 224 295 349 405
#     4  11  24  41  71 100 134 183 236 277 346 419
#     4  11  24  42  68 102 132 179 235 287 337 423
#     4  11  25  43  70 100 141 178 228 288 355 407
#     4  11  22  44  68  96 134 183 231 278 344 420
#     4  11  26  42  69 102 138 180 235 288 346 406
#
# _framework density 25.071179000000001
#
# number of rings (size 3 to 8) (size 9 to 14) (size 15 to 20)
#    0.000    0.857    4.286    3.000    6.000    0.571 
#    2.571    0.714    0.000    0.000    0.000    0.000 
#    0.000    0.000    0.000    0.000    0.000    0.000 
#
# Total GULP energy -78104.941480 kJ/mol
# GULP energy per Si atom -5578.924391 kJ/mol
# Density = 2.501412 g / cm^3
# Si number density = 25.071179 Si / 1000 Ang^3
#
#
#
# Elastic Constant Matrix: (Units=GPa)
#
#
# Indices 1 2 3 4 5 6 
#
# 1 147.3487 -11.1271 22.7032 -7.4901 2.5644 -6.7202
# 2 -11.1271 41.1184 5.8521 -8.8075 2.4840 15.7200
# 3 22.7032 5.8521 158.2307 -6.3013 -4.5937 4.8073
# 4 -7.4901 -8.8075 -6.3013 41.5095 1.6126 0.2802
# 5 2.5644 2.4840 -4.5937 1.6126 51.6844 6.3900
# 6 -6.7202 15.7200 4.8073 0.2802 6.3900 27.0290
#
#
#
# Elastic Compliance Matrix: (Units=1/GPa)
#
#
# Indices 1 2 3 4 5 6 
#
# 1 0.007257 0.002172 -0.001105 0.001625 -0.000724 0.000892
# 2 0.002172 0.033978 -0.000670 0.007616 0.000344 -0.019263
# 3 -0.001105 -0.000670 0.006590 0.000636 0.000808 -0.001255
# 4 0.001625 0.007616 0.000636 0.026152 -0.000681 -0.004249
# 5 -0.000724 0.000344 0.000808 -0.000681 0.020112 -0.005271
# 6 0.000892 -0.019263 -0.001255 -0.004249 -0.005271 0.049935
#
#
# Mechanical properties :
#
#
# Convention : Reuss Voigt Hill
#
# Bulk Modulus (GPa) = 20.56819 42.39490 31.48154
# Shear Modulus (GPa) = 31.36046 45.99589 38.67818
#
# Velocity S-wave (km/s) = 3.54058 4.28788 3.93203
# Velocity P-wave (km/s) = 4.99360 6.43903 5.76182
#
# Compressibility (1/GPa) = 0.04861877
#
# Stress axis : x y z
#
# Youngs Moduli (GPa) = 137.80329 29.43090 151.74258
#
# Poissons Ratio (x) = -0.06392 0.16767
# Poissons Ratio (y) = -0.29927 0.10163
# Poissons Ratio (z) = 0.15226 0.01971
#
# Static dielectric constant tensor:
#      x y z
#    x 2.650760 -0.671450 -0.010290 
#    y -0.671450 3.047960 0.033010 
#    z -0.010290 0.033010 2.036070 
# 
# From -- ./inp_files/381096.got.cif
#   From: 2010.05.17/outbox.cif.g08.bks.cpg/sg2_191_cif.got.tgz:381096.got - 2010.06.03 11:33:40.
