data_PCOD9058631
_publ_section_title
;
Structure prediction by ZEFSAII (Michael W. Deem and Ramdas Pophale) SiO2 
 PCOD9058631
Probable space group: P -1
;
_chemical_formula_sum "Si O2"
_cell_formula_units_Z 16
_cell_length_a 20.421665
_cell_length_b 11.539890
_cell_length_c 7.190204
_cell_angle_alpha 82.161858
_cell_angle_beta 86.255111
_cell_angle_gamma 27.121157
_cell_volume 759.327557
_symmetry_space_group_name_H-M "P -1"
_symmetry_group_IT_number 2
_symmetry_cell_setting 'triclinic'
loop_
_space_group_symop_operation_xyz
x,y,z
-x,-y,-z
loop_
_atom_site_type_symbol
_atom_site_label
_atom_site_fract_x
_atom_site_fract_y
_atom_site_fract_z
Si Si1 0.576325 0.319595 0.202336
Si Si2 0.335980 0.356534 0.120907
Si Si3 0.827454 0.063370 0.407339
Si Si4 0.050733 0.254036 0.197627
Si Si5 0.370788 0.483151 0.412603
Si Si6 0.762308 0.851025 0.032095
Si Si7 0.008992 0.846869 0.063776
Si Si8 0.488877 0.878191 0.208597
O O1 0.684077 0.236134 0.303589
O O2 0.452739 0.467993 0.328665
O O3 0.673305 0.058011 0.165092
O O4 0.500000 0.500000 0.000000
O O5 0.339271 0.454614 0.246404
O O6 0.178720 0.549690 0.109324
O O7 0.452219 0.071814 0.209597
O O8 0.378036 0.337054 0.914064
O O9 0.772253 0.256453 0.504475
O O10 0.903768 0.851348 0.579515
O O11 0.930159 0.938921 0.248862
O O12 0.890885 0.564877 0.147361
O O13 0.160642 0.172670 0.103821
O O14 0.054188 0.132654 0.094284
O O15 0.473624 0.249821 0.585062
O O16 0.646513 0.964004 0.907419
O O17 0.000000 0.000000 0.000000
#
# Coordination Sequence:
#
# PCOD9058631 Si02
#       8
#     2   2   2   2   2   2   2   2
#     4  12  25  44  73 102 136 175 225 285 346 398
#     4  11  25  43  68 101 135 181 225 277 339 399
#     4  12  27  45  69 101 135 181 229 278 337 406
#     4  11  25  46  71 101 137 178 230 276 345 402
#     4  12  25  42  71 100 133 180 224 283 336 405
#     4  11  22  46  75  99 138 179 219 290 342 398
#     4  12  26  45  69  96 141 185 228 277 333 406
#     4  11  23  45  70 102 136 174 226 282 342 398
#
# _framework density 21.071273000000001
#
# number of rings (size 3 to 8) (size 9 to 14) (size 15 to 20)
#    0.000    0.500    3.750    4.500    1.750    4.500 
#    0.000    0.000    0.000    0.000    0.000    0.000 
#    0.000    0.000    0.000    0.000    0.000    0.000 
#
# Total GULP energy -89596.288674 kJ/mol
# GULP energy per Si atom -5599.768042 kJ/mol
# Density = 2.102331 g / cm^3
# Si number density = 21.071273 Si / 1000 Ang^3
#
#
#
# Elastic Constant Matrix: (Units=GPa)
#
#
# Indices 1 2 3 4 5 6 
#
# 1 90.0026 18.2972 43.6049 11.8164 -1.7625 -6.7329
# 2 18.2972 72.3945 42.2272 11.1038 3.6805 -0.9661
# 3 43.6049 42.2272 135.4695 -3.6106 -18.5088 -7.6660
# 4 11.8164 11.1038 -3.6106 33.2161 11.9664 -4.3058
# 5 -1.7625 3.6805 -18.5088 11.9664 23.7686 5.9296
# 6 -6.7329 -0.9661 -7.6660 -4.3058 5.9296 42.1583
#
#
#
# Elastic Compliance Matrix: (Units=1/GPa)
#
#
# Indices 1 2 3 4 5 6 
#
# 1 0.014139 -0.000020 -0.004649 -0.005389 -0.000073 0.000872
# 2 -0.000020 0.018829 -0.006780 -0.005123 -0.005478 -0.000557
# 3 -0.004649 -0.006780 0.012322 0.001957 0.009255 0.000241
# 4 -0.005389 -0.005123 0.001957 0.042417 -0.021104 0.006678
# 5 -0.000073 -0.005478 0.009255 -0.021104 0.063113 -0.009487
# 6 0.000872 -0.000557 0.000241 0.006678 -0.009487 0.025907
#
#
# Mechanical properties :
#
#
# Convention : Reuss Voigt Hill
#
# Bulk Modulus (GPa) = 44.65673 56.23613 50.44643
# Shear Modulus (GPa) = 24.14438 32.74443 28.44441
#
# Velocity S-wave (km/s) = 3.38870 3.94634 3.67810
# Velocity P-wave (km/s) = 6.04568 6.89284 6.48311
#
# Compressibility (1/GPa) = 0.02239304
#
# Stress axis : x y z
#
# Youngs Moduli (GPa) = 70.72886 53.10819 81.15789
#
# Poissons Ratio (x) = 0.00105 0.37731
# Poissons Ratio (y) = 0.00140 0.55021
# Poissons Ratio (z) = 0.32882 0.36005
#
# Static dielectric constant tensor:
#      x y z
#    x 1.753060 0.017680 0.008450 
#    y 0.017680 1.789800 -0.002460 
#    z 0.008450 -0.002460 1.705870 
# 
# From -- ./inp_files/70706.got.cif
#   From: 2010.05.17/outbox.cif.g08.bks.cpg/sg2_36_cif.got.tgz:70706.got - 2010.06.03 11:33:40.
