data_PCOD9058967
_publ_section_title
;
Structure prediction by ZEFSAII (Michael W. Deem and Ramdas Pophale) SiO2 
 PCOD9058967
Probable space group: P -1
;
_chemical_formula_sum "Si O2"
_cell_formula_units_Z 16
_cell_length_a 11.950882
_cell_length_b 13.448698
_cell_length_c 14.348960
_cell_angle_alpha 150.346190
_cell_angle_beta 138.211118
_cell_angle_gamma 49.586121
_cell_volume 760.362094
_symmetry_space_group_name_H-M "P -1"
_symmetry_group_IT_number 2
_symmetry_cell_setting 'triclinic'
loop_
_space_group_symop_operation_xyz
x,y,z
-x,-y,-z
loop_
_atom_site_type_symbol
_atom_site_label
_atom_site_fract_x
_atom_site_fract_y
_atom_site_fract_z
Si Si1 0.908201 0.824489 0.044493
Si Si2 0.564807 0.700654 0.254688
Si Si3 0.296611 0.886996 0.371000
Si Si4 0.722783 0.485292 0.540654
Si Si5 0.199935 0.520298 0.636130
Si Si6 0.337232 0.966593 0.808741
Si Si7 0.506592 0.189009 0.395657
Si Si8 0.828437 0.038932 0.982380
O O1 0.102761 0.841411 0.200679
O O2 0.799397 0.876475 0.110626
O O3 0.866860 0.991249 0.075601
O O4 0.850671 0.620170 0.790827
O O5 0.400966 0.807426 0.282896
O O6 0.693447 0.637344 0.365841
O O7 0.660340 0.875373 0.398538
O O8 0.500000 0.500000 0.000000
O O9 0.370270 0.770891 0.410977
O O10 0.760158 0.477336 0.446717
O O11 0.724016 0.259940 0.394639
O O12 0.549578 0.614758 0.537541
O O13 0.232928 0.734922 0.878676
O O14 0.000000 0.500000 0.500000
O O15 0.403346 0.967889 0.745429
O O16 0.500000 0.000000 0.000000
O O17 0.331441 0.098605 0.251791
O O18 0.000000 0.000000 0.000000
#
# Coordination Sequence:
#
# PCOD9058967 Si02
#       8
#     2   2   2   2   2   2   2   2
#     4  11  25  41  67  96 132 176 214 276 325 390
#     4  11  26  41  65  94 137 182 213 264 331 404
#     4  11  26  45  60  95 141 174 220 265 335 395
#     4  11  23  42  67 100 126 165 224 273 325 384
#     4  12  22  38  65  99 130 167 220 269 323 387
#     4  12  23  44  71  99 126 167 227 276 329 380
#     4  11  23  44  67  93 131 177 213 275 326 389
#     4  11  23  39  67 101 134 167 220 276 327 385
#
# _framework density 21.042605999999999
#
# number of rings (size 3 to 8) (size 9 to 14) (size 15 to 20)
#    0.000    0.750    5.000    3.375    7.000    0.500 
#    0.000    0.625    0.000    0.000    0.000    0.000 
#    0.000    0.000    0.000    0.000    0.000    0.000 
#
# Total GULP energy -89403.926352 kJ/mol
# GULP energy per Si atom -5587.745397 kJ/mol
# Density = 2.099471 g / cm^3
# Si number density = 21.042606 Si / 1000 Ang^3
#
#
#
# Elastic Constant Matrix: (Units=GPa)
#
#
# Indices 1 2 3 4 5 6 
#
# 1 98.3769 8.7073 26.4256 -5.4949 -8.8453 -20.1698
# 2 8.7073 58.2960 46.9456 -11.6543 18.9770 -14.3481
# 3 26.4256 46.9456 117.5936 -3.1089 4.1322 -8.4621
# 4 -5.4949 -11.6543 -3.1089 45.9221 -7.1592 4.5892
# 5 -8.8453 18.9770 4.1322 -7.1592 30.3074 -0.5026
# 6 -20.1698 -14.3481 -8.4621 4.5892 -0.5026 29.8674
#
#
#
# Elastic Compliance Matrix: (Units=1/GPa)
#
#
# Indices 1 2 3 4 5 6 
#
# 1 0.013012 0.001821 -0.003118 0.001506 0.003581 0.008608
# 2 0.001821 0.040168 -0.014469 0.004574 -0.021311 0.015365
# 3 -0.003118 -0.014469 0.014403 -0.001720 0.005704 -0.004616
# 4 0.001506 0.004574 -0.001720 0.023611 0.003373 -0.000844
# 5 0.003581 -0.021311 0.005704 0.003373 0.047305 -0.005926
# 6 0.008608 0.015365 -0.004616 -0.000844 -0.005926 0.045398
#
#
# Mechanical properties :
#
#
# Convention : Reuss Voigt Hill
#
# Bulk Modulus (GPa) = 27.73874 48.71373 38.22624
# Shear Modulus (GPa) = 21.98326 34.03189 28.00758
#
# Velocity S-wave (km/s) = 3.23569 4.02591 3.65224
# Velocity P-wave (km/s) = 5.21252 6.69410 5.99922
#
# Compressibility (1/GPa) = 0.03605066
#
# Stress axis : x y z
#
# Youngs Moduli (GPa) = 76.85115 24.89561 69.43031
#
# Poissons Ratio (x) = -0.04534 0.21646
# Poissons Ratio (y) = -0.13995 1.00462
# Poissons Ratio (z) = 0.23960 0.36023
#
# Static dielectric constant tensor:
#      x y z
#    x 2.030320 0.159620 -0.410510 
#    y 0.159620 1.886660 -0.229640 
#    z -0.410510 -0.229640 2.529740 
# 
# From -- ./inp_files/521973.got.cif
#   From: 2010.05.17/outbox.cif.g08.bks.cpg/sg2_261_cif.got.tgz:521973.got - 2010.06.03 11:33:40.
