data_PCOD9058863
_publ_section_title
;
Structure prediction by ZEFSAII (Michael W. Deem and Ramdas Pophale) SiO2 
 PCOD9058863
Probable space group: P -1
;
_chemical_formula_sum "Si O2"
_cell_formula_units_Z 16
_cell_length_a 13.820505
_cell_length_b 15.116809
_cell_length_c 15.391202
_cell_angle_alpha 28.243931
_cell_angle_beta 30.800525
_cell_angle_gamma 36.118988
_cell_volume 761.654653
_symmetry_space_group_name_H-M "P -1"
_symmetry_group_IT_number 2
_symmetry_cell_setting 'triclinic'
loop_
_space_group_symop_operation_xyz
x,y,z
-x,-y,-z
loop_
_atom_site_type_symbol
_atom_site_label
_atom_site_fract_x
_atom_site_fract_y
_atom_site_fract_z
Si Si1 0.307123 0.163570 0.074387
Si Si2 0.335246 0.779969 0.144700
Si Si3 0.791025 0.230507 0.203116
Si Si4 0.613896 0.674481 0.495971
Si Si5 0.930108 0.578732 0.849220
Si Si6 0.081189 0.073394 0.960785
Si Si7 0.627173 0.644212 0.310406
Si Si8 0.953724 0.056903 0.619201
O O1 0.160110 0.365504 0.034963
O O2 0.180121 0.003480 0.300574
O O3 0.469074 0.161764 0.023619
O O4 0.389297 0.189758 0.891949
O O5 0.358288 0.552752 0.312447
O O6 0.188673 0.841927 0.283653
O O7 0.239065 0.904346 0.030200
O O8 0.569210 0.220145 0.397385
O O9 0.804071 0.451825 0.006940
O O10 0.912651 0.128902 0.280031
O O11 0.907967 0.139985 0.106478
O O12 0.805725 0.756549 0.291905
O O13 0.570385 0.704623 0.400122
O O14 0.149159 0.464500 0.767994
O O15 0.924917 0.788948 0.634059
O O16 0.000000 0.000000 0.000000
O O17 0.500000 0.500000 0.500000
#
# Coordination Sequence:
#
# PCOD9058863 Si02
#       8
#     2   2   2   2   2   2   2   2
#     4  12  23  37  60  95 139 186 233 269 310 397
#     4  11  23  45  65  95 133 175 229 274 332 406
#     4  11  24  44  70  98 134 175 223 273 335 409
#     4  12  24  44  74  97 135 185 218 276 337 394
#     4  12  22  40  58  93 141 184 228 271 317 384
#     4  11  27  50  74 100 130 164 222 296 355 404
#     4  12  21  37  62  94 139 188 225 258 318 383
#     4  11  23  38  60  95 138 184 223 266 322 383
#
# _framework density 21.006895
#
# number of rings (size 3 to 8) (size 9 to 14) (size 15 to 20)
#    0.000    0.500    6.250    1.875    3.500    2.000 
#    0.000    0.625    0.000    0.000    0.000    0.000 
#    0.000    0.000    0.000    0.000    0.000    0.000 
#
# Total GULP energy -89472.331678 kJ/mol
# GULP energy per Si atom -5592.020730 kJ/mol
# Density = 2.095908 g / cm^3
# Si number density = 21.006895 Si / 1000 Ang^3
#
#
#
# Elastic Constant Matrix: (Units=GPa)
#
#
# Indices 1 2 3 4 5 6 
#
# 1 108.8421 46.4846 51.6883 -9.0328 -7.6238 14.8912
# 2 46.4846 97.8004 42.4334 6.6882 -1.9574 -1.4956
# 3 51.6883 42.4334 114.4703 -3.6224 -6.9886 7.5783
# 4 -9.0328 6.6882 -3.6224 44.5736 -5.6082 -5.0358
# 5 -7.6238 -1.9574 -6.9886 -5.6082 22.4191 -3.7985
# 6 14.8912 -1.4956 7.5783 -5.0358 -3.7985 26.7847
#
#
#
# Elastic Compliance Matrix: (Units=1/GPa)
#
#
# Indices 1 2 3 4 5 6 
#
# 1 0.014773 -0.005588 -0.003890 0.003175 0.003033 -0.006397
# 2 -0.005588 0.014599 -0.003372 -0.003380 -0.001848 0.003978
# 3 -0.003890 -0.003372 0.011964 0.000856 0.002167 -0.000942
# 4 0.003175 -0.003380 0.000856 0.025065 0.007939 0.003642
# 5 0.003033 -0.001848 0.002167 0.007939 0.049163 0.006062
# 6 -0.006397 0.003978 -0.000942 0.003642 0.006062 0.042925
#
#
# Mechanical properties :
#
#
# Convention : Reuss Voigt Hill
#
# Bulk Modulus (GPa) = 63.95328 66.92503 65.43916
# Shear Modulus (GPa) = 26.39923 30.78925 28.59424
#
# Velocity S-wave (km/s) = 3.54883 3.83256 3.69342
# Velocity P-wave (km/s) = 6.87767 7.17722 7.02904
#
# Compressibility (1/GPa) = 0.01563642
#
# Stress axis : x y z
#
# Youngs Moduli (GPa) = 67.69293 68.49929 83.58456
#
# Poissons Ratio (x) = 0.38277 0.32513
# Poissons Ratio (y) = 0.37826 0.28181
# Poissons Ratio (z) = 0.26332 0.23095
#
# Static dielectric constant tensor:
#      x y z
#    x 1.719370 -0.041740 0.020180 
#    y -0.041740 1.807790 0.019010 
#    z 0.020180 0.019010 1.810800 
# 
# From -- ./inp_files/534079.got.cif
#   From: 2010.05.17/outbox.cif.g08.bks.cpg/sg2_268_cif.got.tgz:534079.got - 2010.06.03 11:33:40.
