data_PCOD9058657
_publ_section_title
;
Structure prediction by ZEFSAII (Michael W. Deem and Ramdas Pophale) SiO2 
 PCOD9058657
Probable space group: P -1
;
_chemical_formula_sum "Si O2"
_cell_formula_units_Z 14
_cell_length_a 10.067713
_cell_length_b 11.402055
_cell_length_c 9.546013
_cell_angle_alpha 87.055979
_cell_angle_beta 138.713440
_cell_angle_gamma 115.382515
_cell_volume 581.987876
_symmetry_space_group_name_H-M "P -1"
_symmetry_group_IT_number 2
_symmetry_cell_setting 'triclinic'
loop_
_space_group_symop_operation_xyz
x,y,z
-x,-y,-z
loop_
_atom_site_type_symbol
_atom_site_label
_atom_site_fract_x
_atom_site_fract_y
_atom_site_fract_z
Si Si1 0.188114 0.813708 0.776933
Si Si2 0.477692 0.826990 0.752457
Si Si3 0.537565 0.184447 0.764664
Si Si4 0.195247 0.813158 0.279755
Si Si5 0.264779 0.501874 0.647385
Si Si6 0.000000 0.000000 0.500000
Si Si7 0.000000 0.000000 0.000000
Si Si8 0.257991 0.501698 0.973209
O O1 0.413422 0.838684 0.859790
O O2 0.960386 0.643333 0.596256
O O3 0.301299 0.855425 0.018361
O O4 0.088232 0.900578 0.632828
O O5 0.320364 0.861287 0.528841
O O6 0.352410 0.655127 0.643705
O O7 0.763309 0.914131 0.930057
O O8 0.593360 0.175428 0.648998
O O9 0.252370 0.092604 0.591572
O O10 0.666368 0.351405 0.902465
O O11 0.099224 0.903827 0.141536
O O12 0.965119 0.643841 0.120024
O O13 0.202038 0.496763 0.762999
O O14 0.501157 0.498147 0.829814
#
# Coordination Sequence:
#
# PCOD9058657 Si02
#       8
#     2   2   2   2   2   1   1   2
#     4  12  25  46  76 103 138 189 242 295 348 422
#     4  12  25  46  76 103 138 189 242 295 348 422
#     4  12  27  47  70 106 148 188 233 293 365 418
#     4  12  27  47  70 106 148 188 233 293 365 418
#     4  11  22  46  80 109 132 185 252 300 344 415
#     4  12  28  48  68 106 150 190 236 290 352 442
#     4  12  28  48  68 106 150 190 236 290 352 442
#     4  11  22  47  78 106 140 187 238 305 354 412
#
# _framework density 24.055485000000001
#
# number of rings (size 3 to 8) (size 9 to 14) (size 15 to 20)
#    0.000    0.286    5.714    3.429    0.000    4.571 
#    0.000    1.429    0.000    0.000    0.000    0.000 
#    0.000    0.000    0.000    0.000    0.000    0.000 
#
# Total GULP energy -77980.511251 kJ/mol
# GULP energy per Si atom -5570.036518 kJ/mol
# Density = 2.400073 g / cm^3
# Si number density = 24.055485 Si / 1000 Ang^3
#
#
#
# Elastic Constant Matrix: (Units=GPa)
#
#
# Indices 1 2 3 4 5 6 
#
# 1 133.6495 45.3897 50.8418 9.0629 34.3475 17.0932
# 2 45.3897 146.0115 21.3208 4.2611 18.7644 10.1413
# 3 50.8418 21.3208 50.5164 7.4569 9.2180 2.5435
# 4 9.0629 4.2611 7.4569 37.3062 4.4900 15.8381
# 5 34.3475 18.7644 9.2180 4.4900 46.5499 3.3755
# 6 17.0932 10.1413 2.5435 15.8381 3.3755 45.4929
#
#
#
# Elastic Compliance Matrix: (Units=1/GPa)
#
#
# Indices 1 2 3 4 5 6 
#
# 1 0.015915 -0.001576 -0.013930 0.002213 -0.008199 -0.005011
# 2 -0.001576 0.007825 -0.001421 0.000443 -0.001673 -0.001103
# 3 -0.013930 -0.001421 0.034268 -0.006131 0.004261 0.005453
# 4 0.002213 0.000443 -0.006131 0.032798 -0.002905 -0.011790
# 5 -0.008199 -0.001673 0.004261 -0.002905 0.027484 0.002188
# 6 -0.005011 -0.001103 0.005453 -0.011790 0.002188 0.027748
#
#
# Mechanical properties :
#
#
# Convention : Reuss Voigt Hill
#
# Bulk Modulus (GPa) = 41.40222 62.80914 52.10568
# Shear Modulus (GPa) = 26.60379 40.04480 33.32430
#
# Velocity S-wave (km/s) = 3.32917 4.08448 3.72601
# Velocity P-wave (km/s) = 5.65918 6.95779 6.34181
#
# Compressibility (1/GPa) = 0.02415329
#
# Stress axis : x y z
#
# Youngs Moduli (GPa) = 62.83451 127.79845 29.18155
#
# Poissons Ratio (x) = 0.20141 0.40651
# Poissons Ratio (y) = 0.09903 0.04147
# Poissons Ratio (z) = 0.87530 0.18160
#
# Static dielectric constant tensor:
#      x y z
#    x 1.840860 -0.014710 -0.014000 
#    y -0.014710 1.971320 -0.004110 
#    z -0.014000 -0.004110 1.939370 
# 
# From -- ./inp_files/187142.got.cif
#   From: 2010.05.17/outbox.cif.g08.bks.cpg/sg2_94_cif.got.tgz:187142.got - 2010.06.03 11:33:40.
