data_PCOD9058451
_publ_section_title
;
Structure prediction by ZEFSAII (Michael W. Deem and Ramdas Pophale) SiO2 
 PCOD9058451
Probable space group: P -1
;
_chemical_formula_sum "Si O2"
_cell_formula_units_Z 14
_cell_length_a 11.701343
_cell_length_b 10.155762
_cell_length_c 8.584521
_cell_angle_alpha 113.247915
_cell_angle_beta 128.875038
_cell_angle_gamma 46.360365
_cell_volume 573.423033
_symmetry_space_group_name_H-M "P -1"
_symmetry_group_IT_number 2
_symmetry_cell_setting 'triclinic'
loop_
_space_group_symop_operation_xyz
x,y,z
-x,-y,-z
loop_
_atom_site_type_symbol
_atom_site_label
_atom_site_fract_x
_atom_site_fract_y
_atom_site_fract_z
Si Si1 0.482678 0.938640 0.625627
Si Si2 0.182279 0.487066 0.671961
Si Si3 0.813530 0.958943 0.361440
Si Si4 0.406814 0.446923 0.553526
Si Si5 0.587751 0.140575 0.967984
Si Si6 0.769367 0.270932 0.970294
Si Si7 0.896348 0.195674 0.705256
O O1 0.281708 0.074823 0.600563
O O2 0.520610 0.746638 0.548962
O O3 0.500000 0.000000 0.500000
O O4 0.613333 0.959501 0.853614
O O5 0.249378 0.492070 0.561425
O O6 0.372217 0.308739 0.828835
O O7 0.000000 0.500000 0.500000
O O8 0.151232 0.649700 0.820706
O O9 0.908073 0.028977 0.570311
O O10 0.643702 0.121509 0.185985
O O11 0.948729 0.818918 0.275855
O O12 0.565291 0.422142 0.787027
O O13 0.301543 0.614799 0.423561
O O14 0.716549 0.166675 0.984710
O O15 0.899460 0.181390 0.887119
#
# Coordination Sequence:
#
# PCOD9058451 Si02
#       7
#     2   2   2   2   2   2   2
#     4  12  23  45  71 102 144 191 240 283 355 423
#     4  11  25  42  70 107 141 181 237 307 350 416
#     4  11  25  44  70 107 147 184 234 303 349 424
#     4  11  23  43  74 101 143 190 236 291 350 433
#     4  11  24  46  71 100 146 195 234 284 367 421
#     4  11  22  45  74 103 139 190 238 285 358 433
#     4  11  24  43  72 110 140 181 243 296 354 416
#
# _framework density 24.414783
#
# number of rings (size 3 to 8) (size 9 to 14) (size 15 to 20)
#    0.000    0.857    4.286    4.286    4.000    1.714 
#    0.000    1.429    0.000    0.000    0.000    0.000 
#    0.000    0.000    0.000    0.000    0.000    0.000 
#
# Total GULP energy -78232.523020 kJ/mol
# GULP energy per Si atom -5588.037359 kJ/mol
# Density = 2.435921 g / cm^3
# Si number density = 24.414783 Si / 1000 Ang^3
#
#
#
# Elastic Constant Matrix: (Units=GPa)
#
#
# Indices 1 2 3 4 5 6 
#
# 1 149.5801 41.7364 41.4579 9.2721 6.2027 -42.7430
# 2 41.7364 78.0549 53.9381 1.5959 7.6043 -3.0876
# 3 41.4579 53.9381 121.9779 15.3727 29.9315 -12.4184
# 4 9.2721 1.5959 15.3727 54.7838 0.4718 -3.2119
# 5 6.2027 7.6043 29.9315 0.4718 40.6653 4.3972
# 6 -42.7430 -3.0876 -12.4184 -3.2119 4.3972 39.3522
#
#
#
# Elastic Compliance Matrix: (Units=1/GPa)
#
#
# Indices 1 2 3 4 5 6 
#
# 1 0.012160 -0.006237 0.000785 -0.001302 -0.002674 0.013158
# 2 -0.006237 0.022329 -0.010259 0.002733 0.005227 -0.008620
# 3 0.000785 -0.010259 0.016216 -0.003937 -0.010745 0.006044
# 4 -0.001302 0.002733 -0.003937 0.019411 0.002483 -0.001135
# 5 -0.002674 0.005227 -0.010745 0.002483 0.032913 -0.009360
# 6 0.013158 -0.008620 0.006044 -0.001135 -0.009360 0.041888
#
#
# Mechanical properties :
#
#
# Convention : Reuss Voigt Hill
#
# Bulk Modulus (GPa) = 51.85770 69.31976 60.58873
# Shear Modulus (GPa) = 27.35721 41.12562 34.24142
#
# Velocity S-wave (km/s) = 3.35105 4.10866 3.74904
# Velocity P-wave (km/s) = 6.02155 7.13879 6.60384
#
# Compressibility (1/GPa) = 0.01928354
#
# Stress axis : x y z
#
# Youngs Moduli (GPa) = 82.23962 44.78400 61.66653
#
# Poissons Ratio (x) = 0.27930 -0.04839
# Poissons Ratio (y) = 0.51289 0.63264
# Poissons Ratio (z) = -0.06454 0.45944
#
# Static dielectric constant tensor:
#      x y z
#    x 2.015030 -0.015090 0.017620 
#    y -0.015090 2.075510 -0.044020 
#    z 0.017620 -0.044020 1.900080 
# 
# From -- ./inp_files/263122.got.cif
#   From: 2010.05.17/outbox.cif.g08.bks.cpg/sg2_132_cif.got.tgz:263122.got - 2010.06.03 11:33:40.
