data_PCOD9058385
_publ_section_title
;
Structure prediction by ZEFSAII (Michael W. Deem and Ramdas Pophale) SiO2 
 PCOD9058385
Probable space group: P -1
;
_chemical_formula_sum "Si O2"
_cell_formula_units_Z 14
_cell_length_a 23.484688
_cell_length_b 9.096941
_cell_length_c 13.607579
_cell_angle_alpha 56.333974
_cell_angle_beta 155.713552
_cell_angle_gamma 139.395120
_cell_volume 667.389771
_symmetry_space_group_name_H-M "P -1"
_symmetry_group_IT_number 2
_symmetry_cell_setting 'triclinic'
loop_
_space_group_symop_operation_xyz
x,y,z
-x,-y,-z
loop_
_atom_site_type_symbol
_atom_site_label
_atom_site_fract_x
_atom_site_fract_y
_atom_site_fract_z
Si Si1 0.790559 0.725261 0.223612
Si Si2 0.470511 0.661134 0.442392
Si Si3 0.063112 0.734543 0.568143
Si Si4 0.736003 0.215705 0.572973
Si Si5 0.510585 0.138109 0.060729
Si Si6 0.151885 0.643406 0.950251
Si Si7 0.504190 0.759256 0.683401
O O1 0.668392 0.450188 0.185165
O O2 0.890168 0.719924 0.288663
O O3 0.626693 0.722329 0.947100
O O4 0.000000 0.000000 0.500000
O O5 0.500000 0.500000 0.500000
O O6 0.264086 0.571062 0.118126
O O7 0.451168 0.636255 0.538944
O O8 0.664311 0.970075 0.605020
O O9 0.000000 0.500000 0.500000
O O10 0.082805 0.691440 0.728961
O O11 0.285137 0.001053 0.779550
O O12 0.583092 0.093300 0.284512
O O13 0.684611 0.333469 0.519050
O O14 0.963340 0.432188 0.805178
O O15 0.500000 0.000000 0.000000
O O16 0.330392 0.924429 0.180607
#
# Coordination Sequence:
#
# PCOD9058385 Si02
#       7
#     2   2   2   2   2   2   2
#     4  12  24  42  67 106 141 169 232 276 342 407
#     4  11  27  44  68  97 135 174 226 284 338 399
#     4  12  23  41  66  99 138 182 222 277 339 407
#     4  11  22  45  71  94 134 177 230 273 339 404
#     4  12  23  40  70 101 136 186 220 279 348 402
#     4  11  22  46  69  94 133 177 229 275 337 402
#     4  11  25  43  67 100 136 178 218 285 335 402
#
# _framework density 20.977246999999998
#
# number of rings (size 3 to 8) (size 9 to 14) (size 15 to 20)
#    0.000    0.571    7.143    1.714    4.000    6.286 
#    0.000    0.000    0.000    0.000    0.000    0.000 
#    0.000    0.000    0.000    0.000    0.000    0.000 
#
# Total GULP energy -78216.781521 kJ/mol
# GULP energy per Si atom -5586.912966 kJ/mol
# Density = 2.092950 g / cm^3
# Si number density = 20.977247 Si / 1000 Ang^3
#
#
#
# Elastic Constant Matrix: (Units=GPa)
#
#
# Indices 1 2 3 4 5 6 
#
# 1 142.6037 53.0140 28.9338 0.9334 18.0580 -12.0209
# 2 53.0140 96.2701 32.2317 1.7085 18.6923 -12.5756
# 3 28.9338 32.2317 50.0278 5.4257 25.5143 0.8330
# 4 0.9334 1.7085 5.4257 35.7937 5.4756 13.0923
# 5 18.0580 18.6923 25.5143 5.4756 59.2178 2.4034
# 6 -12.0209 -12.5756 0.8330 13.0923 2.4034 42.1781
#
#
#
# Elastic Compliance Matrix: (Units=1/GPa)
#
#
# Indices 1 2 3 4 5 6 
#
# 1 0.009175 -0.003890 -0.002541 -0.000169 -0.000524 0.001588
# 2 -0.003890 0.015713 -0.007534 -0.000890 -0.000609 0.004036
# 3 -0.002541 -0.007534 0.031802 -0.001942 -0.010272 -0.002411
# 4 -0.000169 -0.000890 -0.001942 0.032223 -0.001397 -0.010198
# 5 -0.000524 -0.000609 -0.010272 -0.001397 0.021832 -0.000939
# 6 0.001588 0.004036 -0.002411 -0.010198 -0.000939 0.028631
#
#
# Mechanical properties :
#
#
# Convention : Reuss Voigt Hill
#
# Bulk Modulus (GPa) = 34.77024 57.47342 46.12183
# Shear Modulus (GPa) = 28.26564 39.08606 33.67585
#
# Velocity S-wave (km/s) = 3.67474 4.32123 4.01103
# Velocity P-wave (km/s) = 5.88355 7.23567 6.59435
#
# Compressibility (1/GPa) = 0.02876023
#
# Stress axis : x y z
#
# Youngs Moduli (GPa) = 108.98688 63.64116 31.44463
#
# Poissons Ratio (x) = 0.24754 0.07992
# Poissons Ratio (y) = 0.42392 0.23690
# Poissons Ratio (z) = 0.27699 0.47947
#
# Static dielectric constant tensor:
#      x y z
#    x 1.782760 0.008290 0.017050 
#    y 0.008290 1.741930 -0.032290 
#    z 0.017050 -0.032290 1.790360 
# 
# From -- ./inp_files/417341.got.cif
#   From: 2010.05.17/outbox.cif.g08.bks.cpg/sg2_209_cif.got.tgz:417341.got - 2010.06.03 11:33:40.
