data_PCOD9058549
_publ_section_title
;
Structure prediction by ZEFSAII (Michael W. Deem and Ramdas Pophale) SiO2 
 PCOD9058549
Probable space group: P -1
;
_chemical_formula_sum "Si O2"
_cell_formula_units_Z 16
_cell_length_a 20.619761
_cell_length_b 9.061156
_cell_length_c 17.191954
_cell_angle_alpha 124.652326
_cell_angle_beta 19.827997
_cell_angle_gamma 134.347351
_cell_volume 724.846397
_symmetry_space_group_name_H-M "P -1"
_symmetry_group_IT_number 2
_symmetry_cell_setting 'triclinic'
loop_
_space_group_symop_operation_xyz
x,y,z
-x,-y,-z
loop_
_atom_site_type_symbol
_atom_site_label
_atom_site_fract_x
_atom_site_fract_y
_atom_site_fract_z
Si Si1 0.608809 0.176575 0.361198
Si Si2 0.191887 0.544890 0.013916
Si Si3 0.754811 0.873682 0.491467
Si Si4 0.031038 0.354724 0.836366
Si Si5 0.191911 0.758459 0.343387
Si Si6 0.039255 0.800844 0.358163
Si Si7 0.889784 0.028224 0.211537
Si Si8 0.390787 0.284393 0.112966
O O1 0.736746 0.428733 0.322031
O O2 0.384419 0.086014 0.533235
O O3 0.500000 0.000000 0.500000
O O4 0.823670 0.192191 0.081951
O O5 0.473425 0.688862 0.745860
O O6 0.100412 0.651283 0.204037
O O7 0.096248 0.557103 0.041924
O O8 0.056792 0.291476 0.112017
O O9 0.882572 0.765813 0.347819
O O10 0.864243 0.936161 0.299628
O O11 0.791913 0.077389 0.559624
O O12 0.124301 0.815270 0.355954
O O13 0.000000 0.500000 0.500000
O O14 0.424266 0.760761 0.078637
O O15 0.764226 0.700233 0.642558
O O16 0.195607 0.049154 0.221977
O O17 0.000000 0.000000 0.000000
O O18 0.500000 0.500000 0.000000
#
# Coordination Sequence:
#
# PCOD9058549 Si02
#       8
#     2   2   2   2   2   2   2   2
#     4  11  22  46  71 100 140 180 232 290 347 415
#     4  12  26  47  72 105 145 185 237 290 345 418
#     4  12  28  46  70 107 144 183 237 292 349 416
#     4  11  26  43  74 102 138 187 231 285 354 412
#     4  12  25  48  72 103 147 187 234 294 351 418
#     4  11  26  45  73 104 142 190 235 286 354 414
#     4  12  26  46  74 104 144 185 234 291 354 419
#     4  11  24  44  73  98 135 188 236 286 351 411
#
# _framework density 22.073640999999999
#
# number of rings (size 3 to 8) (size 9 to 14) (size 15 to 20)
#    0.000    0.500    5.000    2.625    5.250    1.000 
#    2.250    0.000    0.000    0.000    0.000    0.000 
#    0.000    0.000    0.000    0.000    0.000    0.000 
#
# Total GULP energy -89349.962621 kJ/mol
# GULP energy per Si atom -5584.372664 kJ/mol
# Density = 2.202340 g / cm^3
# Si number density = 22.073641 Si / 1000 Ang^3
#
#
#
# Elastic Constant Matrix: (Units=GPa)
#
#
# Indices 1 2 3 4 5 6 
#
# 1 45.1492 0.0280 15.2697 -2.0130 -1.7844 9.8161
# 2 0.0280 115.9802 81.8074 -8.7740 3.0352 10.2660
# 3 15.2697 81.8074 164.2672 0.4855 8.7268 2.1397
# 4 -2.0130 -8.7740 0.4855 52.5477 -1.8321 0.0635
# 5 -1.7844 3.0352 8.7268 -1.8321 30.0823 6.7704
# 6 9.8161 10.2660 2.1397 0.0635 6.7704 24.8766
#
#
#
# Elastic Compliance Matrix: (Units=1/GPa)
#
#
# Indices 1 2 3 4 5 6 
#
# 1 0.027193 0.004789 -0.005049 0.002108 0.005844 -0.013868
# 2 0.004789 0.015196 -0.008080 0.002915 0.003147 -0.008330
# 3 -0.005049 -0.008080 0.010724 -0.001786 -0.003937 0.005480
# 4 0.002108 0.002915 -0.001786 0.019691 0.002112 -0.002507
# 5 0.005844 0.003147 -0.003937 0.002112 0.037580 -0.013499
# 6 -0.013868 -0.008330 0.005480 -0.002507 -0.013499 0.052317
#
#
# Mechanical properties :
#
#
# Convention : Reuss Voigt Hill
#
# Bulk Modulus (GPa) = 27.44765 57.73407 42.59086
# Shear Modulus (GPa) = 26.10601 36.72075 31.41338
#
# Velocity S-wave (km/s) = 3.44274 4.08310 3.77652
# Velocity P-wave (km/s) = 5.31647 6.95995 6.19297
#
# Compressibility (1/GPa) = 0.03643299
#
# Stress axis : x y z
#
# Youngs Moduli (GPa) = 36.77351 65.80719 93.24802
#
# Poissons Ratio (x) = -0.31513 0.47078
# Poissons Ratio (y) = -0.17610 0.75347
# Poissons Ratio (z) = 0.18566 0.53174
#
# Static dielectric constant tensor:
#      x y z
#    x 1.939470 -0.019500 -0.007520 
#    y -0.019500 1.777640 0.026510 
#    z -0.007520 0.026510 1.851980 
# 
# From -- ./inp_files/577420.got.cif
#   From: 2010.05.17/outbox.cif.g08.bks.cpg/sg2_289_cif.got.tgz:577420.got - 2010.06.03 11:33:40.
