data_PCOD9058461
_publ_section_title
;
Structure prediction by ZEFSAII (Michael W. Deem and Ramdas Pophale) SiO2 
 PCOD9058461
Probable space group: P -1
;
_chemical_formula_sum "Si O2"
_cell_formula_units_Z 16
_cell_length_a 17.121992
_cell_length_b 11.313466
_cell_length_c 16.184615
_cell_angle_alpha 149.547616
_cell_angle_beta 30.630058
_cell_angle_gamma 149.927779
_cell_volume 710.753361
_symmetry_space_group_name_H-M "P -1"
_symmetry_group_IT_number 2
_symmetry_cell_setting 'triclinic'
loop_
_space_group_symop_operation_xyz
x,y,z
-x,-y,-z
loop_
_atom_site_type_symbol
_atom_site_label
_atom_site_fract_x
_atom_site_fract_y
_atom_site_fract_z
Si Si1 0.345854 0.592272 0.948312
Si Si2 0.297283 0.252307 0.238404
Si Si3 0.778823 0.253248 0.170852
Si Si4 0.357626 0.795685 0.569573
Si Si5 0.083749 0.807285 0.285513
Si Si6 0.349635 0.499519 0.696735
Si Si7 0.120466 0.965409 0.803258
Si Si8 0.000070 0.968906 0.745107
O O1 0.510523 0.710243 0.931811
O O2 0.398697 0.617221 0.816685
O O3 0.256813 0.274702 0.849250
O O4 0.215779 0.718818 0.157657
O O5 0.346106 0.510490 0.405298
O O6 0.198828 0.971234 0.202740
O O7 0.150134 0.242324 0.304139
O O8 0.631320 0.113539 0.290987
O O9 0.711254 0.319485 0.189357
O O10 0.916399 0.535038 0.252472
O O11 0.894001 0.111969 0.964421
O O12 0.500000 0.000000 0.500000
O O13 0.186853 0.787076 0.681621
O O14 0.000000 0.000000 0.500000
O O15 0.500000 0.500000 0.500000
O O16 0.180035 0.200612 0.680206
O O17 0.046806 0.851844 0.711875
O O18 0.000000 0.000000 0.000000
#
# Coordination Sequence:
#
# PCOD9058461 Si02
#       8
#     2   2   2   2   2   2   2   2
#     4  11  24  45  68 103 147 184 229 295 357 426
#     4  12  25  42  69 107 143 178 232 303 355 414
#     4  12  22  45  70 100 139 189 229 290 360 421
#     4  12  25  44  71 101 140 191 241 289 347 427
#     4  12  23  40  71 106 142 177 237 289 362 419
#     4  11  23  39  70 103 138 182 234 282 359 428
#     4  11  22  45  74  93 133 197 243 275 354 432
#     4  11  24  44  72 101 139 186 234 297 353 420
#
# _framework density 22.511323999999998
#
# number of rings (size 3 to 8) (size 9 to 14) (size 15 to 20)
#    0.000    0.500    7.500    2.250    1.750    0.500 
#    0.000    2.500    0.000    0.000    0.000    0.000 
#    0.000    0.000    0.000    0.000    0.000    0.000 
#
# Total GULP energy -89168.990093 kJ/mol
# GULP energy per Si atom -5573.061881 kJ/mol
# Density = 2.246009 g / cm^3
# Si number density = 22.511324 Si / 1000 Ang^3
#
#
#
# Elastic Constant Matrix: (Units=GPa)
#
#
# Indices 1 2 3 4 5 6 
#
# 1 105.4240 24.1474 4.8781 -11.6712 -21.1853 -9.3575
# 2 24.1474 58.8261 16.4303 -24.7515 15.7368 -5.5696
# 3 4.8781 16.4303 116.5851 -4.4783 -7.6885 2.1063
# 4 -11.6712 -24.7515 -4.4783 28.0333 -11.5834 -4.5626
# 5 -21.1853 15.7368 -7.6885 -11.5834 33.0349 -4.1616
# 6 -9.3575 -5.5696 2.1063 -4.5626 -4.1616 37.2544
#
#
#
# Elastic Compliance Matrix: (Units=1/GPa)
#
#
# Indices 1 2 3 4 5 6 
#
# 1 0.016498 -0.008048 0.001904 0.008763 0.018685 0.005993
# 2 -0.008048 0.035078 -0.004850 0.021398 -0.014936 0.004449
# 3 0.001904 -0.004850 0.009592 0.000479 0.005923 -0.000069
# 4 0.008763 0.021398 0.000479 0.070141 0.022203 0.016443
# 5 0.018685 -0.014936 0.005923 0.022203 0.059987 0.011546
# 6 0.005993 0.004449 -0.000069 0.016443 0.011546 0.032321
#
#
# Mechanical properties :
#
#
# Convention : Reuss Voigt Hill
#
# Bulk Modulus (GPa) = 25.52340 41.30521 33.41430
# Shear Modulus (GPa) = 19.33023 35.35648 27.34335
#
# Velocity S-wave (km/s) = 2.93352 3.96739 3.48896
# Velocity P-wave (km/s) = 4.77877 6.27498 5.57728
#
# Compressibility (1/GPa) = 0.03917973
#
# Stress axis : x y z
#
# Youngs Moduli (GPa) = 60.61510 28.50800 104.25831
#
# Poissons Ratio (x) = 0.22943 -0.19855
# Poissons Ratio (y) = 0.48782 0.50568
# Poissons Ratio (z) = -0.11544 0.13827
#
# Static dielectric constant tensor:
#      x y z
#    x 1.424280 -0.164400 -0.455360 
#    y -0.164400 1.748220 -0.122350 
#    z -0.455360 -0.122350 1.310670 
# 
# From -- ./inp_files/575870.got.cif
#   From: 2010.05.17/outbox.cif.g08.bks.cpg/sg2_288_cif.got.tgz:575870.got - 2010.06.03 11:33:40.
