data_PCOD9058049
_publ_section_title
;
Structure prediction by ZEFSAII (Michael W. Deem and Ramdas Pophale) SiO2 
 PCOD9058049
Probable space group: P -1
;
_chemical_formula_sum "Si O2"
_cell_formula_units_Z 16
_cell_length_a 9.762821
_cell_length_b 6.824457
_cell_length_c 18.801953
_cell_angle_alpha 61.375874
_cell_angle_beta 56.423059
_cell_angle_gamma 50.634864
_cell_volume 790.724117
_symmetry_space_group_name_H-M "P -1"
_symmetry_group_IT_number 2
_symmetry_cell_setting 'triclinic'
loop_
_space_group_symop_operation_xyz
x,y,z
-x,-y,-z
loop_
_atom_site_type_symbol
_atom_site_label
_atom_site_fract_x
_atom_site_fract_y
_atom_site_fract_z
Si Si1 0.250259 0.410131 0.772170
Si Si2 0.518480 0.191942 0.863452
Si Si3 0.877676 0.867711 0.535672
Si Si4 0.127677 0.272402 0.602053
Si Si5 0.042561 0.003696 0.207321
Si Si6 0.999187 0.836493 0.095474
Si Si7 0.612913 0.631795 0.974132
Si Si8 0.544808 0.708582 0.415485
O O1 0.411847 0.335267 0.798038
O O2 0.329537 0.401190 0.672430
O O3 0.078574 0.696883 0.788513
O O4 0.180961 0.201394 0.835774
O O5 0.736110 0.124329 0.814108
O O6 0.527378 0.918693 0.918356
O O7 0.407429 0.351972 0.937610
O O8 0.871249 0.835749 0.457893
O O9 0.983452 0.580780 0.587525
O O10 0.658149 0.045740 0.589747
O O11 0.000000 0.000000 0.500000
O O12 0.332073 0.225959 0.576715
O O13 0.051572 0.141486 0.701035
O O14 0.031097 0.962894 0.133988
O O15 0.173715 0.548649 0.081992
O O16 0.000000 0.000000 0.000000
O O17 0.500000 0.500000 0.000000
O O18 0.500000 0.500000 0.500000
#
# Coordination Sequence:
#
# PCOD9058049 Si02
#       8
#     2   2   2   2   2   2   2   2
#     4  12  28  45  68 108 139 182 236 286 346 416
#     4  11  26  42  70 101 137 183 234 286 347 411
#     4  11  25  46  75 104 139 183 231 289 349 417
#     4  11  26  46  72 107 140 186 234 279 357 419
#     4  12  26  46  69 102 145 184 229 291 345 413
#     4  12  25  45  71  99 143 185 233 289 348 413
#     4  11  22  44  69  97 136 183 231 287 349 408
#     4  12  25  47  75 100 145 187 228 290 353 415
#
# _framework density 20.234617
#
# number of rings (size 3 to 8) (size 9 to 14) (size 15 to 20)
#    0.000    0.500    5.000    2.625    3.500    3.000 
#    2.250    0.000    0.000    0.000    0.000    0.000 
#    0.000    0.000    0.000    0.000    0.000    0.000 
#
# Total GULP energy -89532.098868 kJ/mol
# GULP energy per Si atom -5595.756179 kJ/mol
# Density = 2.018856 g / cm^3
# Si number density = 20.234617 Si / 1000 Ang^3
#
#
#
# Elastic Constant Matrix: (Units=GPa)
#
#
# Indices 1 2 3 4 5 6 
#
# 1 139.1306 30.2386 44.2339 4.0596 -13.6666 9.0804
# 2 30.2386 79.2423 28.6507 20.5434 -3.0033 10.2783
# 3 44.2339 28.6507 115.3804 -4.6181 -5.3546 14.1629
# 4 4.0596 20.5434 -4.6181 35.6059 3.9062 -9.3391
# 5 -13.6666 -3.0033 -5.3546 3.9062 35.3927 -1.7279
# 6 9.0804 10.2783 14.1629 -9.3391 -1.7279 34.1563
#
#
#
# Elastic Compliance Matrix: (Units=1/GPa)
#
#
# Indices 1 2 3 4 5 6 
#
# 1 0.008829 -0.002025 -0.002695 -0.000676 0.002872 -0.000660
# 2 -0.002025 0.019140 -0.003545 -0.013350 0.001421 -0.007329
# 3 -0.002695 -0.003545 0.010934 0.003300 -0.000142 -0.001855
# 4 -0.000676 -0.013350 0.003300 0.040383 -0.004686 0.013633
# 5 0.002872 0.001421 -0.000142 -0.004686 0.029936 -0.000899
# 6 -0.000660 -0.007329 -0.001855 0.013633 -0.000899 0.036110
#
#
# Mechanical properties :
#
#
# Convention : Reuss Voigt Hill
#
# Bulk Modulus (GPa) = 44.69748 59.99997 52.34872
# Shear Modulus (GPa) = 29.53017 36.40634 32.96825
#
# Velocity S-wave (km/s) = 3.82434 4.24631 4.04084
# Velocity P-wave (km/s) = 6.45278 7.33199 6.90639
#
# Compressibility (1/GPa) = 0.02237263
#
# Stress axis : x y z
#
# Youngs Moduli (GPa) = 113.25882 52.24769 91.46126
#
# Poissons Ratio (x) = 0.10581 0.24647
# Poissons Ratio (y) = 0.22938 0.32422
# Poissons Ratio (z) = 0.30521 0.18521
#
# Static dielectric constant tensor:
#      x y z
#    x 1.686510 0.005470 0.009100 
#    y 0.005470 1.713630 -0.000840 
#    z 0.009100 -0.000840 1.682070 
# 
# From -- ./inp_files/47361.got.cif
#   From: 2010.05.17/outbox.cif.g08.bks.cpg/sg2_24_cif.got.tgz:47361.got - 2010.06.03 11:33:40.
