data_PCOD9058661
_publ_section_title
;
Structure prediction by ZEFSAII (Michael W. Deem and Ramdas Pophale) SiO2 
 PCOD9058661
Probable space group: P -1
;
_chemical_formula_sum "Si O2"
_cell_formula_units_Z 16
_cell_length_a 7.617791
_cell_length_b 11.918848
_cell_length_c 14.656033
_cell_angle_alpha 121.062169
_cell_angle_beta 145.386248
_cell_angle_gamma 67.163470
_cell_volume 645.674901
_symmetry_space_group_name_H-M "P -1"
_symmetry_group_IT_number 2
_symmetry_cell_setting 'triclinic'
loop_
_space_group_symop_operation_xyz
x,y,z
-x,-y,-z
loop_
_atom_site_type_symbol
_atom_site_label
_atom_site_fract_x
_atom_site_fract_y
_atom_site_fract_z
Si Si1 0.144541 0.728307 0.404368
Si Si2 0.474684 0.911128 0.764356
Si Si3 0.816516 0.662705 0.838597
Si Si4 0.360937 0.412811 0.543504
Si Si5 0.578221 0.087662 0.712699
Si Si6 0.635945 0.385024 0.847748
Si Si7 0.987183 0.064530 0.704352
Si Si8 0.823997 0.450047 0.212072
O O1 0.210890 0.824232 0.557723
O O2 0.481301 0.693878 0.495655
O O3 0.981038 0.800111 0.282313
O O4 0.977508 0.591484 0.305088
O O5 0.699000 0.805825 0.852545
O O6 0.622898 0.008458 0.791263
O O7 0.299459 0.991529 0.798133
O O8 0.531251 0.555527 0.653259
O O9 0.068426 0.648006 0.859710
O O10 0.995075 0.617292 0.985489
O O11 0.466527 0.384575 0.678258
O O12 0.001028 0.412286 0.364460
O O13 0.530345 0.238712 0.777926
O O14 0.856346 0.082326 0.756584
O O15 0.283302 0.019517 0.503595
O O16 0.522811 0.512983 0.904122
#
# Coordination Sequence:
#
# PCOD9058661 Si02
#       8
#     2   2   2   2   2   2   2   2
#     4  10  17  37  62  87 118 153 211 257 303 357
#     4  11  20  39  63  89 125 166 206 251 319 367
#     4  11  24  41  60  90 129 165 198 253 322 387
#     4  11  21  40  65  86 121 160 210 255 301 373
#     4  10  22  37  61  93 126 160 210 267 305 366
#     4  12  24  40  60  92 131 156 201 266 323 360
#     4  10  20  36  63  95 121 163 212 264 304 367
#     4  11  21  39  66  92 114 166 213 253 308 373
#
# _framework density 24.780273999999999
#
# number of rings (size 3 to 8) (size 9 to 14) (size 15 to 20)
#    0.000    1.250    3.750    4.875    0.000    0.500 
#    2.250    0.625    0.000    0.000    0.000    0.000 
#    0.000    0.000    0.000    0.000    0.000    0.000 
#
# Total GULP energy -89549.188152 kJ/mol
# GULP energy per Si atom -5596.824259 kJ/mol
# Density = 2.472387 g / cm^3
# Si number density = 24.780274 Si / 1000 Ang^3
#
#
#
# Elastic Constant Matrix: (Units=GPa)
#
#
# Indices 1 2 3 4 5 6 
#
# 1 92.8795 56.3961 26.8060 -34.9188 -1.3649 -10.9545
# 2 56.3961 150.1290 42.0800 -50.0742 3.3760 -19.6156
# 3 26.8060 42.0800 79.4916 -21.0473 -11.6233 -1.4911
# 4 -34.9188 -50.0742 -21.0473 48.7035 -4.4671 8.2126
# 5 -1.3649 3.3760 -11.6233 -4.4671 22.5588 -9.6037
# 6 -10.9545 -19.6156 -1.4911 8.2126 -9.6037 34.4302
#
#
#
# Elastic Compliance Matrix: (Units=1/GPa)
#
#
# Indices 1 2 3 4 5 6 
#
# 1 0.016222 -0.002768 -0.001315 0.008100 0.003406 0.002546
# 2 -0.002768 0.011771 -0.003138 0.008111 -0.000387 0.003647
# 3 -0.001315 -0.003138 0.017310 0.004186 0.010318 0.000423
# 4 0.008100 0.008111 0.004186 0.037152 0.009258 0.001100
# 5 0.003406 -0.000387 0.010318 0.009258 0.058280 0.015358
# 6 0.002546 0.003647 0.000423 0.001100 0.015358 0.035971
#
#
# Mechanical properties :
#
#
# Convention : Reuss Voigt Hill
#
# Bulk Modulus (GPa) = 32.40336 63.67380 48.03858
# Shear Modulus (GPa) = 24.82190 34.28638 29.55414
#
# Velocity S-wave (km/s) = 3.16837 3.72373 3.45722
# Velocity P-wave (km/s) = 5.14678 6.65127 5.94680
#
# Compressibility (1/GPa) = 0.03086100
#
# Stress axis : x y z
#
# Youngs Moduli (GPa) = 61.64383 84.95570 57.77131
#
# Poissons Ratio (x) = 0.23512 0.07596
# Poissons Ratio (y) = 0.17060 0.18131
# Poissons Ratio (z) = 0.08105 0.26663
#
# Static dielectric constant tensor:
#      x y z
#    x 2.019260 -0.000440 0.010670 
#    y -0.000440 1.925730 0.000780 
#    z 0.010670 0.000780 2.025230 
# 
# From -- ./inp_files/297763.got.cif
#   From: 2010.05.17/outbox.cif.g08.bks.cpg/sg2_149_cif.got.tgz:297763.got - 2010.06.03 11:33:40.
