data_PCOD9058915
_publ_section_title
;
Structure prediction by ZEFSAII (Michael W. Deem and Ramdas Pophale) SiO2 
 PCOD9058915
Probable space group: P -1
;
_chemical_formula_sum "Si O2"
_cell_formula_units_Z 16
_cell_length_a 9.858063
_cell_length_b 11.008971
_cell_length_c 8.159269
_cell_angle_alpha 83.821271
_cell_angle_beta 81.294298
_cell_angle_gamma 125.525078
_cell_volume 691.000550
_symmetry_space_group_name_H-M "P -1"
_symmetry_group_IT_number 2
_symmetry_cell_setting 'triclinic'
loop_
_space_group_symop_operation_xyz
x,y,z
-x,-y,-z
loop_
_atom_site_type_symbol
_atom_site_label
_atom_site_fract_x
_atom_site_fract_y
_atom_site_fract_z
Si Si1 0.441950 0.106039 0.512834
Si Si2 0.132860 0.008333 0.099946
Si Si3 0.680705 0.584572 0.241312
Si Si4 0.977419 0.546847 0.742840
Si Si5 0.942891 0.281018 0.979469
Si Si6 0.273995 0.585757 0.463246
Si Si7 0.819610 0.857681 0.392562
Si Si8 0.619039 0.730334 0.760882
O O1 0.566917 0.236442 0.603697
O O2 0.245329 0.037187 0.604388
O O3 0.467031 0.196756 0.324421
O O4 0.500000 0.000000 0.500000
O O5 0.169105 0.893418 0.039213
O O6 0.014295 0.933603 0.296836
O O7 0.292562 0.177768 0.101762
O O8 0.000000 0.000000 0.000000
O O9 0.859210 0.648441 0.109721
O O10 0.672257 0.496691 0.419581
O O11 0.704393 0.730587 0.291378
O O12 0.519638 0.452546 0.184155
O O13 0.817470 0.506404 0.671324
O O14 0.910484 0.390063 0.874236
O O15 0.128926 0.582522 0.591306
O O16 0.056407 0.684808 0.835760
O O17 0.763631 0.775754 0.590997
#
# Coordination Sequence:
#
# PCOD9058915 Si02
#       8
#     2   2   2   2   2   2   2   2
#     4   9  20  34  56  83 112 141 182 234 279 332
#     4  11  23  39  53  84 116 153 189 228 279 344
#     4   9  17  37  57  86 109 140 187 242 280 327
#     4   9  18  35  56  82 109 151 184 230 276 325
#     4   9  20  36  56  77 119 151 185 225 280 336
#     4   9  18  31  58  85 108 138 194 232 270 331
#     4   9  20  37  61  80 111 148 189 237 281 325
#     4   9  20  36  60  80 114 147 184 238 281 329
#
# _framework density 23.154827999999998
#
# number of rings (size 3 to 8) (size 9 to 14) (size 15 to 20)
#    0.750    2.000    0.000    0.750    1.750    2.000 
#    2.250    1.250    0.000    3.750    0.000    0.000 
#    0.000    0.000    0.000    0.000    0.000    0.000 
#
# Total GULP energy -89270.338964 kJ/mol
# GULP energy per Si atom -5579.396185 kJ/mol
# Density = 2.310213 g / cm^3
# Si number density = 23.154828 Si / 1000 Ang^3
#
#
#
# Elastic Constant Matrix: (Units=GPa)
#
#
# Indices 1 2 3 4 5 6 
#
# 1 57.4947 27.2133 18.4807 21.8705 8.7475 -14.4110
# 2 27.2133 112.1233 27.8927 39.2222 4.8926 4.7136
# 3 18.4807 27.8927 70.0173 27.6252 9.1812 2.9428
# 4 21.8705 39.2222 27.6252 35.6227 2.5700 4.6142
# 5 8.7475 4.8926 9.1812 2.5700 21.8893 15.1878
# 6 -14.4110 4.7136 2.9428 4.6142 15.1878 36.5561
#
#
#
# Elastic Compliance Matrix: (Units=1/GPa)
#
#
# Indices 1 2 3 4 5 6 
#
# 1 0.045521 -0.000316 0.005663 -0.034002 -0.044462 0.040294
# 2 -0.000316 0.014636 0.001128 -0.016754 -0.002331 0.000981
# 3 0.005663 0.001128 0.023012 -0.022665 -0.016374 0.009898
# 4 -0.034002 -0.016754 -0.022665 0.086818 0.043254 -0.038349
# 5 -0.044462 -0.002331 -0.016374 0.043254 0.113230 -0.068412
# 6 0.040294 0.000981 0.009898 -0.038349 -0.068412 0.075580
#
#
# Mechanical properties :
#
#
# Convention : Reuss Voigt Hill
#
# Bulk Modulus (GPa) = 10.40387 42.97874 26.69130
# Shear Modulus (GPa) = 13.23148 29.88354 21.55751
#
# Velocity S-wave (km/s) = 2.39306 3.59638 3.05457
# Velocity P-wave (km/s) = 3.48405 5.98724 4.89825
#
# Compressibility (1/GPa) = 0.09611811
#
# Stress axis : x y z
#
# Youngs Moduli (GPa) = 21.96799 68.32265 43.45634
#
# Poissons Ratio (x) = 0.02162 -0.24611
# Poissons Ratio (y) = 0.00695 -0.04901
# Poissons Ratio (z) = -0.12441 -0.07705
#
# Static dielectric constant tensor:
#      x y z
#    x 1.878920 0.013290 -0.009970 
#    y 0.013290 1.901630 -0.029510 
#    z -0.009970 -0.029510 1.915360 
# 
# From -- ./inp_files/254111.got.cif
#   From: 2010.05.17/outbox.cif.g08.bks.cpg/sg2_128_cif.got.tgz:254111.got - 2010.06.03 11:33:40.
