data_PCOD9058350
_publ_section_title
;
Structure prediction by ZEFSAII (Michael W. Deem and Ramdas Pophale) SiO2 
 PCOD9058350
Probable space group: P -1
;
_chemical_formula_sum "Si O2"
_cell_formula_units_Z 16
_cell_length_a 13.547293
_cell_length_b 5.336243
_cell_length_c 16.288319
_cell_angle_alpha 102.124425
_cell_angle_beta 31.723854
_cell_angle_gamma 101.958513
_cell_volume 604.419513
_symmetry_space_group_name_H-M "P -1"
_symmetry_group_IT_number 2
_symmetry_cell_setting 'triclinic'
loop_
_space_group_symop_operation_xyz
x,y,z
-x,-y,-z
loop_
_atom_site_type_symbol
_atom_site_label
_atom_site_fract_x
_atom_site_fract_y
_atom_site_fract_z
Si Si1 0.326860 0.677529 0.261716
Si Si2 0.772909 0.412946 0.485725
Si Si3 0.727135 0.925139 0.373496
Si Si4 0.699587 0.903130 0.820204
Si Si5 0.600452 0.544066 0.307888
Si Si6 0.708619 0.635505 0.057816
Si Si7 0.921083 0.251160 0.802433
Si Si8 0.092612 0.782511 0.869243
O O1 0.239539 0.616946 0.409623
O O2 0.253107 0.918691 0.281533
O O3 0.550494 0.747147 0.121355
O O4 0.307356 0.402074 0.210449
O O5 0.607371 0.583704 0.573583
O O6 0.966983 0.550006 0.325435
O O7 0.715681 0.131968 0.468380
O O8 0.602584 0.699309 0.401894
O O9 0.926356 0.803927 0.240577
O O10 0.741445 0.105435 0.296254
O O11 0.857805 0.995795 0.780232
O O12 0.500000 0.000000 0.000000
O O13 0.633866 0.679774 0.205254
O O14 0.796021 0.400474 0.163536
O O15 0.733566 0.351692 0.984147
O O16 0.928893 0.706147 0.915264
O O17 0.000000 0.000000 0.000000
#
# Coordination Sequence:
#
# PCOD9058350 Si02
#       8
#     2   2   2   2   2   2   2   2
#     4  11  29  51  80 114 150 195 253 320 390 453
#     4  11  28  47  71 108 151 203 248 301 382 461
#     4  12  24  42  69 104 146 201 249 301 373 449
#     4  12  28  51  84 114 148 191 255 326 390 450
#     4  11  24  45  67 104 151 195 252 307 369 445
#     4  11  22  45  70 109 141 194 251 315 374 443
#     4  12  27  45  75 105 149 194 253 312 378 455
#     4  12  23  39  72 104 146 197 252 311 366 437
#
# _framework density 26.471682000000001
#
# number of rings (size 3 to 8) (size 9 to 14) (size 15 to 20)
#    0.000    0.500    5.000    1.875    5.250    6.000 
#    0.000    0.000    0.000    0.000    0.000    0.000 
#    0.000    0.000    0.000    0.000    0.000    0.000 
#
# Total GULP energy -89333.459819 kJ/mol
# GULP energy per Si atom -5583.341239 kJ/mol
# Density = 2.641143 g / cm^3
# Si number density = 26.471682 Si / 1000 Ang^3
#
#
#
# Elastic Constant Matrix: (Units=GPa)
#
#
# Indices 1 2 3 4 5 6 
#
# 1 114.9590 20.6954 9.1108 -8.9654 -4.8568 12.9465
# 2 20.6954 94.0487 21.1296 -8.5143 2.1719 17.2296
# 3 9.1108 21.1296 100.8999 17.0380 5.6936 9.0982
# 4 -8.9654 -8.5143 17.0380 33.0300 1.9078 1.3043
# 5 -4.8568 2.1719 5.6936 1.9078 40.4471 5.7352
# 6 12.9465 17.2296 9.0982 1.3043 5.7352 34.9525
#
#
#
# Elastic Compliance Matrix: (Units=1/GPa)
#
#
# Indices 1 2 3 4 5 6 
#
# 1 0.009618 -0.001114 -0.000922 0.002828 0.001658 -0.003151
# 2 -0.001114 0.012956 -0.002935 0.004758 0.000126 -0.005408
# 3 -0.000922 -0.002935 0.011947 -0.007067 -0.001179 -0.000864
# 4 0.002828 0.004758 -0.007067 0.036040 -0.000215 -0.002863
# 5 0.001658 0.000126 -0.001179 -0.000215 0.025742 -0.004585
# 6 -0.003151 -0.005408 -0.000864 -0.002863 -0.004585 0.033527
#
#
# Mechanical properties :
#
#
# Convention : Reuss Voigt Hill
#
# Bulk Modulus (GPa) = 40.68855 45.75324 43.22089
# Shear Modulus (GPa) = 33.79155 38.95073 36.37114
#
# Velocity S-wave (km/s) = 3.57671 3.84006 3.71072
# Velocity P-wave (km/s) = 5.69747 6.08135 5.89253
#
# Compressibility (1/GPa) = 0.02457694
#
# Stress axis : x y z
#
# Youngs Moduli (GPa) = 103.97361 77.18409 83.70614
#
# Poissons Ratio (x) = 0.08601 0.07718
# Poissons Ratio (y) = 0.11586 0.24571
# Poissons Ratio (z) = 0.09586 0.22656
#
# Static dielectric constant tensor:
#      x y z
#    x 2.046300 0.047110 -0.040530 
#    y 0.047110 2.350950 -0.014020 
#    z -0.040530 -0.014020 2.166970 
# 
# From -- ./inp_files/571750.got.cif
#   From: 2010.05.17/outbox.cif.g08.bks.cpg/sg2_286_cif.got.tgz:571750.got - 2010.06.03 11:33:40.
