data_PCOD9058815
_publ_section_title
;
Structure prediction by ZEFSAII (Michael W. Deem and Ramdas Pophale) SiO2 
 PCOD9058815
Probable space group: P -1
;
_chemical_formula_sum "Si O2"
_cell_formula_units_Z 14
_cell_length_a 13.099027
_cell_length_b 9.340651
_cell_length_c 9.747955
_cell_angle_alpha 136.236156
_cell_angle_beta 134.581323
_cell_angle_gamma 50.533053
_cell_volume 567.184293
_symmetry_space_group_name_H-M "P -1"
_symmetry_group_IT_number 2
_symmetry_cell_setting 'triclinic'
loop_
_space_group_symop_operation_xyz
x,y,z
-x,-y,-z
loop_
_atom_site_type_symbol
_atom_site_label
_atom_site_fract_x
_atom_site_fract_y
_atom_site_fract_z
Si Si1 0.414484 0.519369 0.709690
Si Si2 0.248805 0.617977 0.157913
Si Si3 0.206815 0.521790 0.736540
Si Si4 0.492996 0.956377 0.124221
Si Si5 0.133908 0.000699 0.023377
Si Si6 0.771986 0.646680 0.784434
Si Si7 0.767516 0.927439 0.561475
O O1 0.571085 0.413827 0.707391
O O2 0.364859 0.428404 0.741258
O O3 0.275944 0.515348 0.477700
O O4 0.432934 0.748810 0.926142
O O5 0.204807 0.467104 0.125587
O O6 0.179595 0.867990 0.300812
O O7 0.211587 0.553023 0.925797
O O8 0.135973 0.320587 0.508055
O O9 0.158413 0.770870 0.813516
O O10 0.641017 0.921467 0.328112
O O11 0.375399 0.160266 0.211672
O O12 0.500000 0.000000 0.000000
O O13 0.115704 0.220481 0.073691
O O14 0.265295 0.003027 0.261194
O O15 0.000000 0.000000 0.000000
#
# Coordination Sequence:
#
# PCOD9058815 Si02
#       7
#     2   2   2   2   2   2   2
#     4  12  21  34  61 101 134 170 196 252 327 404
#     4  11  23  36  63  98 141 167 200 253 329 401
#     4  11  23  40  63  93 126 171 218 259 321 386
#     4  12  22  36  64 103 141 167 199 257 333 405
#     4  11  27  47  67  89 122 175 234 278 311 366
#     4  12  23  41  63  99 134 171 211 266 322 383
#     4  11  23  41  63  95 133 171 209 257 324 385
#
# _framework density 24.683335
#
# number of rings (size 3 to 8) (size 9 to 14) (size 15 to 20)
#    0.000    0.571    7.143    1.714    0.000    1.714 
#    0.000    2.857    0.000    4.286    0.000    0.000 
#    0.000    0.000    0.000    0.000    0.000    0.000 
#
# Total GULP energy -78065.170528 kJ/mol
# GULP energy per Si atom -5576.083609 kJ/mol
# Density = 2.462715 g / cm^3
# Si number density = 24.683335 Si / 1000 Ang^3
#
#
#
# Elastic Constant Matrix: (Units=GPa)
#
#
# Indices 1 2 3 4 5 6 
#
# 1 125.9780 35.9746 34.6503 -5.8036 7.7545 40.5832
# 2 35.9746 113.2725 32.4152 20.0270 7.1298 33.9564
# 3 34.6503 32.4152 135.9272 26.4732 12.5318 22.4631
# 4 -5.8036 20.0270 26.4732 49.0602 10.1211 -8.5552
# 5 7.7545 7.1298 12.5318 10.1211 32.3603 5.7097
# 6 40.5832 33.9564 22.4631 -8.5552 5.7097 52.7175
#
#
#
# Elastic Compliance Matrix: (Units=1/GPa)
#
#
# Indices 1 2 3 4 5 6 
#
# 1 0.011026 -0.001333 -0.001677 0.001855 -0.001134 -0.006491
# 2 -0.001333 0.013069 -0.000048 -0.007240 0.001255 -0.008683
# 3 -0.001677 -0.000048 0.009606 -0.005820 -0.000848 -0.003624
# 4 0.001855 -0.007240 -0.005820 0.030386 -0.008133 0.011527
# 5 -0.001134 0.001255 -0.000848 -0.008133 0.034588 -0.004640
# 6 -0.006491 -0.008683 -0.003624 0.011527 -0.004640 0.033476
#
#
# Mechanical properties :
#
#
# Convention : Reuss Voigt Hill
#
# Bulk Modulus (GPa) = 36.24919 64.58421 50.41670
# Shear Modulus (GPa) = 33.90698 44.97011 39.43854
#
# Velocity S-wave (km/s) = 3.71034 4.27298 4.00156
# Velocity P-wave (km/s) = 5.75092 7.11101 6.46682
#
# Compressibility (1/GPa) = 0.02758682
#
# Stress axis : x y z
#
# Youngs Moduli (GPa) = 90.69374 76.51678 104.09874
#
# Poissons Ratio (x) = 0.10197 0.17457
# Poissons Ratio (y) = 0.12086 0.00497
# Poissons Ratio (z) = 0.15209 0.00365
#
# Static dielectric constant tensor:
#      x y z
#    x 2.132950 -0.076050 0.080130 
#    y -0.076050 2.059210 -0.022860 
#    z 0.080130 -0.022860 2.028580 
# 
# From -- ./inp_files/221613.got.cif
#   From: 2010.05.17/outbox.cif.g08.bks.cpg/sg2_111_cif.got.tgz:221613.got - 2010.06.03 11:33:40.
