data_PCOD9058531
_publ_section_title
;
Structure prediction by ZEFSAII (Michael W. Deem and Ramdas Pophale) SiO2 
 PCOD9058531
Probable space group: P -1
;
_chemical_formula_sum "Si O2"
_cell_formula_units_Z 14
_cell_length_a 7.845921
_cell_length_b 10.542061
_cell_length_c 11.806339
_cell_angle_alpha 74.773369
_cell_angle_beta 138.713099
_cell_angle_gamma 117.935005
_cell_volume 562.532681
_symmetry_space_group_name_H-M "P -1"
_symmetry_group_IT_number 2
_symmetry_cell_setting 'triclinic'
loop_
_space_group_symop_operation_xyz
x,y,z
-x,-y,-z
loop_
_atom_site_type_symbol
_atom_site_label
_atom_site_fract_x
_atom_site_fract_y
_atom_site_fract_z
Si Si1 0.139995 0.502959 0.717258
Si Si2 0.214862 0.086043 0.687324
Si Si3 0.638760 0.573986 0.356251
Si Si4 0.180915 0.829890 0.043853
Si Si5 0.015693 0.430002 0.144050
Si Si6 0.191694 0.067935 0.279302
Si Si7 0.713454 0.206551 0.649884
O O1 0.927589 0.571544 0.550581
O O2 0.170576 0.551588 0.851371
O O3 0.956839 0.328254 0.670028
O O4 0.392710 0.520588 0.753192
O O5 0.310452 0.259663 0.679292
O O6 0.493143 0.054590 0.827201
O O7 0.000000 0.000000 0.500000
O O8 0.065115 0.030358 0.744494
O O9 0.359834 0.495990 0.314407
O O10 0.117578 0.737720 0.918185
O O11 0.927250 0.878614 0.899093
O O12 0.194227 0.748050 0.185272
O O13 0.000000 0.500000 0.000000
O O14 0.421387 0.188565 0.447840
O O15 0.315926 0.956768 0.325698
#
# Coordination Sequence:
#
# PCOD9058531 Si02
#       7
#     2   2   2   2   2   2   2
#     4  11  24  45  72 101 134 183 233 288 349 411
#     4  12  24  44  68  97 140 177 227 285 341 413
#     4  11  25  46  71 102 136 182 233 287 350 410
#     4  12  25  45  69 102 134 182 230 283 348 410
#     4  12  24  43  70  98 137 181 224 287 346 404
#     4  11  25  42  70 100 134 186 224 278 351 411
#     4  11  22  46  69  97 142 174 230 288 338 417
#
# _framework density 24.887443000000001
#
# number of rings (size 3 to 8) (size 9 to 14) (size 15 to 20)
#    0.000    0.571    5.714    2.143    2.000    0.571 
#    2.571    0.000    0.000    0.000    0.000    0.000 
#    0.000    0.000    0.000    0.000    0.000    0.000 
#
# Total GULP energy -78145.838832 kJ/mol
# GULP energy per Si atom -5581.845631 kJ/mol
# Density = 2.483080 g / cm^3
# Si number density = 24.887443 Si / 1000 Ang^3
#
#
#
# Elastic Constant Matrix: (Units=GPa)
#
#
# Indices 1 2 3 4 5 6 
#
# 1 74.1430 -1.9253 27.7116 -2.3012 -19.4040 -7.2076
# 2 -1.9253 55.9400 23.5952 6.9178 -1.7059 -13.5571
# 3 27.7116 23.5952 144.5937 -7.9080 4.4319 -13.1760
# 4 -2.3012 6.9178 -7.9080 26.7989 -3.1960 6.2386
# 5 -19.4040 -1.7059 4.4319 -3.1960 37.5401 2.2333
# 6 -7.2076 -13.5571 -13.1760 6.2386 2.2333 31.9428
#
#
#
# Elastic Compliance Matrix: (Units=1/GPa)
#
#
# Indices 1 2 3 4 5 6 
#
# 1 0.017909 0.003377 -0.003997 -0.000095 0.009686 0.003167
# 2 0.003377 0.023514 -0.004069 -0.009258 0.001867 0.010741
# 3 -0.003997 -0.004069 0.008647 0.002749 -0.003074 0.000616
# 4 -0.000095 -0.009258 0.002749 0.043637 0.003610 -0.011592
# 5 0.009686 0.001867 -0.003074 0.003610 0.032475 -0.001266
# 6 0.003167 0.010741 0.000616 -0.011592 -0.001266 0.039186
#
#
# Mechanical properties :
#
#
# Convention : Reuss Voigt Hill
#
# Bulk Modulus (GPa) = 24.57538 41.49328 33.03433
# Shear Modulus (GPa) = 26.55224 34.27604 30.41414
#
# Velocity S-wave (km/s) = 3.26988 3.71515 3.49960
# Velocity P-wave (km/s) = 4.91449 5.92551 5.44352
#
# Compressibility (1/GPa) = 0.04069113
#
# Stress axis : x y z
#
# Youngs Moduli (GPa) = 55.83884 42.52834 115.65246
#
# Poissons Ratio (x) = -0.14361 0.46224
# Poissons Ratio (y) = -0.18856 0.47060
# Poissons Ratio (z) = 0.22318 0.17305
#
# Static dielectric constant tensor:
#      x y z
#    x 2.033080 -0.082630 -0.015970 
#    y -0.082630 2.031950 -0.007630 
#    z -0.015970 -0.007630 2.104250 
# 
# From -- ./inp_files/257266.got.cif
#   From: 2010.05.17/outbox.cif.g08.bks.cpg/sg2_129_cif.got.tgz:257266.got - 2010.06.03 11:33:40.
