data_PCOD9058324
_publ_section_title
;
Structure prediction by ZEFSAII (Michael W. Deem and Ramdas Pophale) SiO2 
 PCOD9058324
Probable space group: P -1
;
_chemical_formula_sum "Si O2"
_cell_formula_units_Z 16
_cell_length_a 9.355398
_cell_length_b 9.373432
_cell_length_c 15.458038
_cell_angle_alpha 106.681699
_cell_angle_beta 141.723698
_cell_angle_gamma 65.021100
_cell_volume 758.769163
_symmetry_space_group_name_H-M "P -1"
_symmetry_group_IT_number 2
_symmetry_cell_setting 'triclinic'
loop_
_space_group_symop_operation_xyz
x,y,z
-x,-y,-z
loop_
_atom_site_type_symbol
_atom_site_label
_atom_site_fract_x
_atom_site_fract_y
_atom_site_fract_z
Si Si1 0.334549 0.504254 0.008336
Si Si2 0.798134 0.490252 0.469276
Si Si3 0.580388 0.234245 0.588535
Si Si4 0.140722 0.126331 0.311562
Si Si5 0.166739 0.851530 0.999162
Si Si6 0.961701 0.374973 0.716716
Si Si7 0.593217 0.948008 0.132877
Si Si8 0.289165 0.748620 0.734326
O O1 0.268398 0.673933 0.053428
O O2 0.090245 0.468504 0.856499
O O3 0.500000 0.500000 0.000000
O O4 0.502997 0.367329 0.125929
O O5 0.574071 0.653368 0.390186
O O6 0.905105 0.458042 0.611134
O O7 0.724118 0.343969 0.374844
O O8 0.000000 0.500000 0.500000
O O9 0.373362 0.185789 0.429718
O O10 0.720571 0.340165 0.628107
O O11 0.768279 0.064392 0.674180
O O12 0.983124 0.172905 0.159262
O O13 0.965116 0.198185 0.322457
O O14 0.390543 0.899819 0.078715
O O15 0.000000 0.000000 0.000000
O O16 0.165569 0.202955 0.777828
O O17 0.646100 0.095333 0.225417
O O18 0.500000 0.000000 0.000000
#
# Coordination Sequence:
#
# PCOD9058324 Si02
#       8
#     2   2   2   2   2   2   2   2
#     4  12  22  44  75  99 135 189 230 277 351 421
#     4  12  27  43  68 105 142 181 234 290 344 412
#     4  11  25  43  70  99 139 184 230 285 349 414
#     4  11  22  45  69  94 143 188 226 278 357 419
#     4  12  27  42  70 106 139 176 237 290 344 405
#     4  12  24  44  77  99 140 185 236 283 350 415
#     4  12  22  46  73 102 135 187 231 284 345 415
#     4  12  24  44  73 103 136 184 235 283 345 416
#
# _framework density 21.086783
#
# number of rings (size 3 to 8) (size 9 to 14) (size 15 to 20)
#    0.000    0.250    7.500    1.875    1.750    2.500 
#    0.000    1.250    0.000    0.000    0.000    0.000 
#    0.000    0.000    0.000    0.000    0.000    0.000 
#
# Total GULP energy -89485.771367 kJ/mol
# GULP energy per Si atom -5592.860710 kJ/mol
# Density = 2.103879 g / cm^3
# Si number density = 21.086783 Si / 1000 Ang^3
#
#
#
# Elastic Constant Matrix: (Units=GPa)
#
#
# Indices 1 2 3 4 5 6 
#
# 1 84.1458 38.3316 21.1806 0.9638 26.6329 1.7064
# 2 38.3316 164.1695 20.4200 4.0922 12.4790 -11.0732
# 3 21.1806 20.4200 62.2899 -2.9562 17.5611 7.4679
# 4 0.9638 4.0922 -2.9562 35.5501 10.9620 8.1612
# 5 26.6329 12.4790 17.5611 10.9620 25.6804 9.1291
# 6 1.7064 -11.0732 7.4679 8.1612 9.1291 44.9807
#
#
#
# Elastic Compliance Matrix: (Units=1/GPa)
#
#
# Indices 1 2 3 4 5 6 
#
# 1 0.020576 -0.003128 0.000901 0.006847 -0.024046 0.001938
# 2 -0.003128 0.007187 -0.001933 -0.001743 0.000992 0.002324
# 3 0.000901 -0.001933 0.021994 0.007951 -0.017715 -0.002009
# 4 0.006847 -0.001743 0.007951 0.037803 -0.026594 -0.003470
# 5 -0.024046 0.000992 -0.017715 -0.026594 0.090198 -0.009384
# 6 0.001938 0.002324 -0.002009 -0.003470 -0.009384 0.025598
#
#
# Mechanical properties :
#
#
# Convention : Reuss Voigt Hill
#
# Bulk Modulus (GPa) = 24.13395 52.27439 38.20417
# Shear Modulus (GPa) = 22.17415 36.62045 29.39730
#
# Velocity S-wave (km/s) = 3.24630 4.17184 3.73783
# Velocity P-wave (km/s) = 5.05185 6.93178 6.06510
#
# Compressibility (1/GPa) = 0.04143540
#
# Stress axis : x y z
#
# Youngs Moduli (GPa) = 48.60132 139.14109 45.46745
#
# Poissons Ratio (x) = 0.43529 -0.04097
# Poissons Ratio (y) = 0.15204 0.08790
# Poissons Ratio (z) = -0.04380 0.26899
#
# Static dielectric constant tensor:
#      x y z
#    x 1.737700 -0.001710 0.020070 
#    y -0.001710 1.793620 -0.000070 
#    z 0.020070 -0.000070 1.805890 
# 
# From -- ./inp_files/185359.got.cif
#   From: 2010.05.17/outbox.cif.g08.bks.cpg/sg2_93_cif.got.tgz:185359.got - 2010.06.03 11:33:40.
