data_PCOD9058990
_publ_section_title
;
Structure prediction by ZEFSAII (Michael W. Deem and Ramdas Pophale) SiO2 
 PCOD9058990
Probable space group: P -1
;
_chemical_formula_sum "Si O2"
_cell_formula_units_Z 12
_cell_length_a 9.926292
_cell_length_b 13.597698
_cell_length_c 8.349013
_cell_angle_alpha 116.835684
_cell_angle_beta 99.983441
_cell_angle_gamma 33.752205
_cell_volume 510.214062
_symmetry_space_group_name_H-M "P -1"
_symmetry_group_IT_number 2
_symmetry_cell_setting 'triclinic'
loop_
_space_group_symop_operation_xyz
x,y,z
-x,-y,-z
loop_
_atom_site_type_symbol
_atom_site_label
_atom_site_fract_x
_atom_site_fract_y
_atom_site_fract_z
Si Si1 0.727830 0.483722 0.602855
Si Si2 0.838715 0.814770 0.804689
Si Si3 0.981852 0.531829 0.832852
Si Si4 0.838897 0.036759 0.114885
Si Si5 0.972474 0.145976 0.654530
Si Si6 0.470481 0.118049 0.456122
O O1 0.840661 0.521904 0.722233
O O2 0.414342 0.722252 0.688586
O O3 0.904372 0.342662 0.374648
O O4 0.783543 0.349640 0.649127
O O5 0.871708 0.727344 0.913372
O O6 0.655619 0.855032 0.701504
O O7 0.728525 0.009752 0.970129
O O8 0.260147 0.344382 0.658434
O O9 0.000000 0.500000 0.000000
O O10 0.048704 0.848570 0.153058
O O11 0.000000 0.000000 0.000000
O O12 0.254743 0.011751 0.600540
O O13 0.000000 0.000000 0.500000
O O14 0.500000 0.000000 0.500000
#
# Coordination Sequence:
#
# PCOD9058990 Si02
#       6
#     2   2   2   2   2   2
#     4  11  25  47  70 102 142 189 238 295 357 422
#     4  11  24  46  71 103 143 184 242 298 351 424
#     4  11  23  39  71 105 140 183 240 297 356 420
#     4  12  29  46  72 106 146 191 239 295 360 429
#     4  12  26  47  75 105 146 191 237 294 361 428
#     4  11  23  44  72 102 140 186 239 291 353 420
#
# _framework density 23.519539999999999
#
# number of rings (size 3 to 8) (size 9 to 14) (size 15 to 20)
#    0.000    0.667    3.333    6.000    2.333    6.000 
#    0.000    0.000    0.000    0.000    0.000    0.000 
#    0.000    0.000    0.000    0.000    0.000    0.000 
#
# Total GULP energy -67104.586573 kJ/mol
# GULP energy per Si atom -5592.048881 kJ/mol
# Density = 2.346601 g / cm^3
# Si number density = 23.519540 Si / 1000 Ang^3
#
#
#
# Elastic Constant Matrix: (Units=GPa)
#
#
# Indices 1 2 3 4 5 6 
#
# 1 107.8099 39.2733 29.6420 -4.5055 2.8825 33.5410
# 2 39.2733 115.8994 32.6402 -4.2873 -13.5171 36.0626
# 3 29.6420 32.6402 104.9532 2.4139 -4.1519 3.9203
# 4 -4.5055 -4.2873 2.4139 40.5210 4.5652 -5.4437
# 5 2.8825 -13.5171 -4.1519 4.5652 35.8073 -6.0362
# 6 33.5410 36.0626 3.9203 -5.4437 -6.0362 42.6270
#
#
#
# Elastic Compliance Matrix: (Units=1/GPa)
#
#
# Indices 1 2 3 4 5 6 
#
# 1 0.013867 -0.000969 -0.003395 0.000685 -0.003685 -0.010213
# 2 -0.000969 0.013296 -0.003371 -0.000158 0.003081 -0.009760
# 3 -0.003395 -0.003371 0.011436 -0.000944 0.001209 0.004522
# 4 0.000685 -0.000158 -0.000944 0.025474 -0.003050 0.002504
# 5 -0.003685 0.003081 0.001209 -0.003050 0.030612 0.004127
# 6 -0.010213 -0.009760 0.004522 0.002504 0.004127 0.040241
#
#
# Mechanical properties :
#
#
# Convention : Reuss Voigt Hill
#
# Bulk Modulus (GPa) = 43.23764 59.08595 51.16180
# Shear Modulus (GPa) = 31.62434 38.93152 35.27793
#
# Velocity S-wave (km/s) = 3.67085 4.07293 3.87711
# Velocity P-wave (km/s) = 6.03246 6.87713 6.46860
#
# Compressibility (1/GPa) = 0.02312799
#
# Stress axis : x y z
#
# Youngs Moduli (GPa) = 72.11547 75.20806 87.44314
#
# Poissons Ratio (x) = 0.07290 0.29687
# Poissons Ratio (y) = 0.06990 0.29480
# Poissons Ratio (z) = 0.24483 0.25355
#
# Static dielectric constant tensor:
#      x y z
#    x 1.846190 -0.022040 -0.022170 
#    y -0.022040 2.022920 -0.045180 
#    z -0.022170 -0.045180 1.813310 
# 
# From -- ./inp_files/173573.got.cif
#   From: 2010.05.17/outbox.cif.g08.bks.cpg/sg2_87_cif.got.tgz:173573.got - 2010.06.03 11:33:40.
