data_PCOD9058991
_publ_section_title
;
Structure prediction by ZEFSAII (Michael W. Deem and Ramdas Pophale) SiO2 
 PCOD9058991
Probable space group: P -1
;
_chemical_formula_sum "Si O2"
_cell_formula_units_Z 14
_cell_length_a 17.265955
_cell_length_b 8.538676
_cell_length_c 8.978576
_cell_angle_alpha 47.592858
_cell_angle_beta 60.680910
_cell_angle_gamma 39.581544
_cell_volume 621.487315
_symmetry_space_group_name_H-M "P -1"
_symmetry_group_IT_number 2
_symmetry_cell_setting 'triclinic'
loop_
_space_group_symop_operation_xyz
x,y,z
-x,-y,-z
loop_
_atom_site_type_symbol
_atom_site_label
_atom_site_fract_x
_atom_site_fract_y
_atom_site_fract_z
Si Si1 0.207469 0.202799 0.748819
Si Si2 0.619625 0.902391 0.875077
Si Si3 0.113422 0.671338 0.937748
Si Si4 0.023244 0.200825 0.297414
Si Si5 0.371858 0.259423 0.377659
Si Si6 0.952974 0.785416 0.281848
Si Si7 0.703107 0.148609 0.814097
O O1 0.274724 0.266112 0.546176
O O2 0.174723 0.043211 0.793940
O O3 0.070862 0.507506 0.708466
O O4 0.277212 0.034198 0.942572
O O5 0.623208 0.821798 0.749204
O O6 0.626392 0.141243 0.767179
O O7 0.744636 0.607504 0.017746
O O8 0.500000 0.000000 0.000000
O O9 0.031236 0.681050 0.892537
O O10 0.082680 0.963276 0.740741
O O11 0.060348 0.697105 0.132109
O O12 0.164726 0.025465 0.272544
O O13 0.000000 0.000000 0.500000
O O14 0.342364 0.552750 0.263976
O O15 0.500000 0.000000 0.500000
O O16 0.000000 0.500000 0.500000
#
# Coordination Sequence:
#
# PCOD9058991 Si02
#       7
#     2   2   2   2   2   2   2
#     4  12  23  45  71 104 152 194 246 305 375 444
#     4  12  28  50  80 108 147 204 255 306 377 446
#     4  11  24  44  68 109 152 184 249 307 368 452
#     4  12  23  42  75 110 152 193 239 305 380 444
#     4  12  30  51  74 110 148 198 260 308 368 455
#     4  11  23  39  71 107 145 194 239 306 379 439
#     4  12  26  51  78 110 154 198 243 315 383 439
#
# _framework density 22.526606999999998
#
# number of rings (size 3 to 8) (size 9 to 14) (size 15 to 20)
#    0.000    0.286    4.286    4.714    2.000    5.143 
#    0.000    0.000    0.000    0.000    0.000    0.000 
#    0.000    0.000    0.000    0.000    0.000    0.000 
#
# Total GULP energy -78216.170877 kJ/mol
# GULP energy per Si atom -5586.869348 kJ/mol
# Density = 2.247534 g / cm^3
# Si number density = 22.526607 Si / 1000 Ang^3
#
#
#
# Elastic Constant Matrix: (Units=GPa)
#
#
# Indices 1 2 3 4 5 6 
#
# 1 172.6207 79.1642 44.3632 14.9757 -3.2758 11.6010
# 2 79.1642 121.2991 65.5637 9.1107 -9.4649 10.7578
# 3 44.3632 65.5637 113.7965 8.1450 -13.5765 6.1564
# 4 14.9757 9.1107 8.1450 33.9107 -2.0260 -1.6595
# 5 -3.2758 -9.4649 -13.5765 -2.0260 38.5826 5.1139
# 6 11.6010 10.7578 6.1564 -1.6595 5.1139 44.4732
#
#
#
# Elastic Compliance Matrix: (Units=1/GPa)
#
#
# Indices 1 2 3 4 5 6 
#
# 1 0.008498 -0.005258 -0.000135 -0.002391 -0.000616 -0.000945
# 2 -0.005258 0.015524 -0.006642 -0.000259 0.001225 -0.001615
# 3 -0.000135 -0.006642 0.013138 -0.001160 0.002996 -0.000565
# 4 -0.002391 -0.000259 -0.001160 0.031029 0.000699 0.001924
# 5 -0.000616 0.001225 0.002996 0.000699 0.027750 -0.003715
# 6 -0.000945 -0.001615 -0.000565 0.001924 -0.003715 0.023700
#
#
# Mechanical properties :
#
#
# Convention : Reuss Voigt Hill
#
# Bulk Modulus (GPa) = 76.39369 87.32207 81.85788
# Shear Modulus (GPa) = 33.76694 37.96832 35.86763
#
# Velocity S-wave (km/s) = 3.87587 4.10992 3.99461
# Velocity P-wave (km/s) = 7.34956 7.83391 7.59560
#
# Compressibility (1/GPa) = 0.01309009
#
# Stress axis : x y z
#
# Youngs Moduli (GPa) = 117.67039 64.41530 76.11391
#
# Poissons Ratio (x) = 0.33870 0.01026
# Poissons Ratio (y) = 0.61873 0.50558
# Poissons Ratio (z) = 0.01587 0.42787
#
# Static dielectric constant tensor:
#      x y z
#    x 2.240070 0.295040 0.116160 
#    y 0.295040 1.967920 0.070700 
#    z 0.116160 0.070700 1.902510 
# 
# From -- ./inp_files/327039.got.cif
#   From: 2010.05.17/outbox.cif.g08.bks.cpg/sg2_164_cif.got.tgz:327039.got - 2010.06.03 11:33:40.
