data_PCOD9058700
_publ_section_title
;
Structure prediction by ZEFSAII (Michael W. Deem and Ramdas Pophale) SiO2 
 PCOD9058700
Probable space group: P -1
;
_chemical_formula_sum "Si O2"
_cell_formula_units_Z 16
_cell_length_a 14.182494
_cell_length_b 9.069017
_cell_length_c 10.209566
_cell_angle_alpha 59.583312
_cell_angle_beta 75.797713
_cell_angle_gamma 35.151461
_cell_volume 613.239099
_symmetry_space_group_name_H-M "P -1"
_symmetry_group_IT_number 2
_symmetry_cell_setting 'triclinic'
loop_
_space_group_symop_operation_xyz
x,y,z
-x,-y,-z
loop_
_atom_site_type_symbol
_atom_site_label
_atom_site_fract_x
_atom_site_fract_y
_atom_site_fract_z
Si Si1 0.799899 0.657509 0.627403
Si Si2 0.135427 0.831969 0.910690
Si Si3 0.192334 0.499398 0.572248
Si Si4 0.318258 0.831563 0.707507
Si Si5 0.779982 0.788981 0.854526
Si Si6 0.015069 0.745569 0.788729
Si Si7 0.538248 0.777863 0.782325
Si Si8 0.578635 0.551814 0.382130
O O1 0.881859 0.452120 0.563121
O O2 0.871911 0.583720 0.782328
O O3 0.637395 0.766152 0.658727
O O4 0.750342 0.917140 0.475341
O O5 0.195176 0.939383 0.815830
O O6 0.041976 0.879366 0.798097
O O7 0.317697 0.469854 0.045192
O O8 0.000000 0.000000 0.000000
O O9 0.051341 0.706610 0.641058
O O10 0.285607 0.547238 0.528363
O O11 0.348925 0.135632 0.715205
O O12 0.491810 0.663642 0.783427
O O13 0.346304 0.626452 0.698991
O O14 0.839834 0.896597 0.805778
O O15 0.576751 0.090694 0.758312
O O16 0.839779 0.591978 0.044889
O O17 0.500000 0.500000 0.500000
#
# Coordination Sequence:
#
# PCOD9058700 Si02
#       8
#     2   2   2   2   2   2   2   2
#     4  11  22  47  71 105 136 184 235 290 349 422
#     4  12  27  47  66 102 149 186 232 294 354 417
#     4  11  23  42  75  97 137 175 240 285 337 419
#     4  11  24  41  71 107 141 177 239 289 363 408
#     4  11  25  43  71  98 143 186 233 282 354 420
#     4  11  26  47  65 103 139 191 234 282 350 420
#     4  11  23  46  72 103 137 189 232 288 352 424
#     4  12  21  40  70 105 136 177 229 300 344 411
#
# _framework density 26.090965000000001
#
# number of rings (size 3 to 8) (size 9 to 14) (size 15 to 20)
#    0.000    0.750    5.000    2.625    3.500    5.500 
#    2.250    1.250    0.000    0.000    0.000    0.000 
#    0.000    0.000    0.000    0.000    0.000    0.000 
#
# Total GULP energy -89601.097282 kJ/mol
# GULP energy per Si atom -5600.068580 kJ/mol
# Density = 2.603158 g / cm^3
# Si number density = 26.090965 Si / 1000 Ang^3
#
#
#
# Elastic Constant Matrix: (Units=GPa)
#
#
# Indices 1 2 3 4 5 6 
#
# 1 140.8165 10.2255 35.1845 8.1907 3.2403 8.9812
# 2 10.2255 88.0715 31.2360 4.2022 3.3837 18.1351
# 3 35.1845 31.2360 95.6545 8.1158 -7.3894 1.4535
# 4 8.1907 4.2022 8.1158 54.7161 -0.1226 8.1083
# 5 3.2403 3.3837 -7.3894 -0.1226 50.9104 7.1298
# 6 8.9812 18.1351 1.4535 8.1083 7.1298 37.1307
#
#
#
# Elastic Compliance Matrix: (Units=1/GPa)
#
#
# Indices 1 2 3 4 5 6 
#
# 1 0.008005 0.000618 -0.003132 -0.000507 -0.000746 -0.001861
# 2 0.000618 0.014486 -0.004956 0.000568 -0.000738 -0.007013
# 3 -0.003132 -0.004956 0.013479 -0.001527 0.002121 0.002577
# 4 -0.000507 0.000568 -0.001527 0.019183 0.000431 -0.004367
# 5 -0.000746 -0.000738 0.002121 0.000431 0.020549 -0.003582
# 6 -0.001861 -0.007013 0.002577 -0.004367 -0.003582 0.032348
#
#
# Mechanical properties :
#
#
# Convention : Reuss Voigt Hill
#
# Bulk Modulus (GPa) = 47.55605 53.09273 50.32439
# Shear Modulus (GPa) = 38.46146 45.07788 41.76967
#
# Velocity S-wave (km/s) = 3.84360 4.16109 4.00550
# Velocity P-wave (km/s) = 6.16152 6.59390 6.38137
#
# Compressibility (1/GPa) = 0.02102782
#
# Stress axis : x y z
#
# Youngs Moduli (GPa) = 124.92829 69.03346 74.18903
#
# Poissons Ratio (x) = -0.04264 0.23238
# Poissons Ratio (y) = -0.07716 0.36769
# Poissons Ratio (z) = 0.39132 0.34214
#
# Static dielectric constant tensor:
#      x y z
#    x 2.003610 0.033030 -0.013230 
#    y 0.033030 2.106900 0.007540 
#    z -0.013230 0.007540 2.032050 
# 
# From -- ./inp_files/297858.got.cif
#   From: 2010.05.17/outbox.cif.g08.bks.cpg/sg2_149_cif.got.tgz:297858.got - 2010.06.03 11:33:40.
