data_PCOD9058517
_publ_section_title
;
Structure prediction by ZEFSAII (Michael W. Deem and Ramdas Pophale) SiO2 
 PCOD9058517
Probable space group: P -1
;
_chemical_formula_sum "Si O2"
_cell_formula_units_Z 16
_cell_length_a 13.693937
_cell_length_b 13.177766
_cell_length_c 9.078279
_cell_angle_alpha 91.104655
_cell_angle_beta 66.641855
_cell_angle_gamma 145.187524
_cell_volume 696.781793
_symmetry_space_group_name_H-M "P -1"
_symmetry_group_IT_number 2
_symmetry_cell_setting 'triclinic'
loop_
_space_group_symop_operation_xyz
x,y,z
-x,-y,-z
loop_
_atom_site_type_symbol
_atom_site_label
_atom_site_fract_x
_atom_site_fract_y
_atom_site_fract_z
Si Si1 0.815484 0.929102 0.786846
Si Si2 0.141906 0.308679 0.813112
Si Si3 0.010461 0.402050 0.571939
Si Si4 0.929878 0.341821 0.946096
Si Si5 0.931636 0.813280 0.839784
Si Si6 0.348108 0.607050 0.144287
Si Si7 0.391636 0.189822 0.414138
Si Si8 0.489981 0.893159 0.837330
O O1 0.856398 0.845824 0.788611
O O2 0.730420 0.879953 0.670139
O O3 0.607947 0.790496 0.011846
O O4 0.035644 0.176960 0.721478
O O5 0.407328 0.564068 0.653635
O O6 0.000900 0.289839 0.950574
O O7 0.109423 0.203398 0.963689
O O8 0.053694 0.454596 0.718089
O O9 0.000000 0.500000 0.500000
O O10 0.202078 0.501000 0.374459
O O11 0.757882 0.138999 0.709741
O O12 0.655161 0.126926 0.091801
O O13 0.000000 0.500000 0.000000
O O14 0.780215 0.588346 0.877497
O O15 0.194687 0.014640 0.647149
O O16 0.370257 0.727513 0.035116
O O17 0.509663 0.181954 0.304522
#
# Coordination Sequence:
#
# PCOD9058517 Si02
#       8
#     2   2   2   2   2   2   2   2
#     4  11  26  48  75 103 144 192 237 307 362 411
#     4  12  27  46  68 107 149 186 237 301 358 422
#     4  12  26  42  76 106 135 193 240 283 355 435
#     4  12  24  44  69 100 148 183 223 292 359 416
#     4  12  24  49  74 103 142 191 245 294 362 427
#     4  11  23  44  74 106 139 185 243 292 352 427
#     4  11  24  47  74 102 143 188 241 300 353 424
#     4  11  22  46  67 100 145 180 227 298 345 417
#
# _framework density 22.962713999999998
#
# number of rings (size 3 to 8) (size 9 to 14) (size 15 to 20)
#    0.000    0.500    6.250    3.000    1.750    1.500 
#    0.000    1.250    0.000    0.000    0.000    0.000 
#    0.000    0.000    0.000    0.000    0.000    0.000 
#
# Total GULP energy -89544.042526 kJ/mol
# GULP energy per Si atom -5596.502658 kJ/mol
# Density = 2.291045 g / cm^3
# Si number density = 22.962714 Si / 1000 Ang^3
#
#
#
# Elastic Constant Matrix: (Units=GPa)
#
#
# Indices 1 2 3 4 5 6 
#
# 1 56.2643 6.4396 -39.2611 -6.9337 10.1888 -5.1253
# 2 6.4396 147.6867 26.9699 -22.5855 17.4806 2.8881
# 3 -39.2611 26.9699 21.9143 -16.0757 9.1222 9.3045
# 4 -6.9337 -22.5855 -16.0757 28.5470 -3.2043 3.8321
# 5 10.1888 17.4806 9.1222 -3.2043 18.9932 -5.7835
# 6 -5.1253 2.8881 9.3045 3.8321 -5.7835 25.8175
#
#
#
# Elastic Compliance Matrix: (Units=1/GPa)
#
#
# Indices 1 2 3 4 5 6 
#
# 1 -0.001096 0.000459 -0.022978 -0.013119 0.012901 0.012849
# 2 0.000459 0.008854 -0.000649 0.006304 -0.008057 -0.003406
# 3 -0.022978 -0.000649 -0.024754 -0.018905 0.025572 0.012967
# 4 -0.013119 0.006304 -0.018905 0.027568 0.015870 0.002967
# 5 0.012901 -0.008057 0.025572 0.015870 0.044079 0.001765
# 6 0.012849 -0.003406 0.012967 0.002967 0.001765 0.036947
#
#
# Mechanical properties :
#
#
# Convention : Reuss Voigt Hill
#
# Bulk Modulus (GPa) = -15.78996 23.79579 4.00291
# Shear Modulus (GPa) = 42.79968 30.11933 36.45951
#
# Velocity S-wave (km/s) = 4.32195 3.62562 3.98901
# Velocity P-wave (km/s) = 4.24433 5.28319 4.79200
#
# Compressibility (1/GPa) = -0.06333138
#
# Stress axis : x y z
#
# Youngs Moduli (GPa) = -912.55926 112.94486 -40.39758
#
# Poissons Ratio (x) = -0.05189 -0.92826
# Poissons Ratio (y) = 0.41927 -0.02622
# Poissons Ratio (z) = -20.96899 0.07330
#
# Static dielectric constant tensor:
#      x y z
#    x 1.945900 0.027670 -0.005940 
#    y 0.027670 1.916650 0.012660 
#    z -0.005940 0.012660 1.809130 
# 
# From -- ./inp_files/315260.got.cif
#   From: 2010.05.17/outbox.cif.g08.bks.cpg/sg2_158_cif.got.tgz:315260.got - 2010.06.03 11:33:40.
