data_PCOD9058078
_publ_section_title
;
Structure prediction by ZEFSAII (Michael W. Deem and Ramdas Pophale) SiO2 
 PCOD9058078
Probable space group: P -1
;
_chemical_formula_sum "Si O2"
_cell_formula_units_Z 16
_cell_length_a 20.102633
_cell_length_b 13.555067
_cell_length_c 9.665438
_cell_angle_alpha 136.155297
_cell_angle_beta 138.624098
_cell_angle_gamma 24.444472
_cell_volume 713.385558
_symmetry_space_group_name_H-M "P -1"
_symmetry_group_IT_number 2
_symmetry_cell_setting 'triclinic'
loop_
_space_group_symop_operation_xyz
x,y,z
-x,-y,-z
loop_
_atom_site_type_symbol
_atom_site_label
_atom_site_fract_x
_atom_site_fract_y
_atom_site_fract_z
Si Si1 0.579109 0.782381 0.207182
Si Si2 0.632471 0.974053 0.144626
Si Si3 0.666366 0.247395 0.567169
Si Si4 0.821636 0.246783 0.039286
Si Si5 0.330751 0.056050 0.353130
Si Si6 0.996695 0.433316 0.779613
Si Si7 0.889876 0.006350 0.410961
Si Si8 0.307161 0.773135 0.952050
O O1 0.617981 0.907744 0.397814
O O2 0.488732 0.864469 0.298041
O O3 0.441870 0.899248 0.994619
O O4 0.745209 0.493316 0.155976
O O5 0.641742 0.105615 0.384601
O O6 0.831719 0.708468 0.172707
O O7 0.500000 0.000000 0.000000
O O8 0.500000 0.500000 0.500000
O O9 0.696024 0.287068 0.799127
O O10 0.806393 0.136241 0.559956
O O11 0.809121 0.214385 0.145675
O O12 0.000000 0.000000 0.000000
O O13 0.174861 0.324492 0.318324
O O14 0.274329 0.957300 0.170693
O O15 0.010623 0.250835 0.652804
O O16 0.000000 0.500000 0.000000
O O17 0.746000 0.141798 0.204290
O O18 0.000000 0.000000 0.500000
O O19 0.500000 0.500000 0.000000
#
# Coordination Sequence:
#
# PCOD9058078 Si02
#       8
#     2   2   2   2   2   2   2   2
#     4  11  24  45  67 100 142 181 226 291 354 415
#     4  11  25  43  66  98 137 183 235 277 344 423
#     4  11  23  46  68  91 140 187 218 287 353 403
#     4  12  27  44  67 103 144 180 224 287 361 417
#     4  11  24  44  72 101 136 182 234 292 350 408
#     4  11  22  44  70  95 137 178 229 295 342 399
#     4  11  25  42  70 103 132 177 237 285 338 416
#     4  12  24  44  70 101 135 178 236 282 337 418
#
# _framework density 22.428265
#
# number of rings (size 3 to 8) (size 9 to 14) (size 15 to 20)
#    0.000    0.750    5.000    2.250    7.000    2.000 
#    0.000    1.250    0.000    0.000    0.000    0.000 
#    0.000    0.000    0.000    0.000    0.000    0.000 
#
# Total GULP energy -89317.370895 kJ/mol
# GULP energy per Si atom -5582.335681 kJ/mol
# Density = 2.237722 g / cm^3
# Si number density = 22.428265 Si / 1000 Ang^3
#
#
#
# Elastic Constant Matrix: (Units=GPa)
#
#
# Indices 1 2 3 4 5 6 
#
# 1 113.9417 28.8031 6.8980 8.2096 17.4497 -5.3099
# 2 28.8031 145.8516 17.5499 9.4760 2.8029 -11.0499
# 3 6.8980 17.5499 107.4821 3.6475 3.5024 6.3702
# 4 8.2096 9.4760 3.6475 35.7551 -1.9846 -8.7768
# 5 17.4497 2.8029 3.5024 -1.9846 31.4695 -7.9986
# 6 -5.3099 -11.0499 6.3702 -8.7768 -7.9986 30.2069
#
#
#
# Elastic Compliance Matrix: (Units=1/GPa)
#
#
# Indices 1 2 3 4 5 6 
#
# 1 0.010285 -0.001842 -0.000010 -0.002494 -0.005994 -0.001175
# 2 -0.001842 0.007616 -0.001308 -0.000699 0.001167 0.002844
# 3 -0.000010 -0.001308 0.009849 -0.001639 -0.001982 -0.003558
# 4 -0.002494 -0.000699 -0.001639 0.031841 0.006324 0.010578
# 5 -0.005994 0.001167 -0.001982 0.006324 0.038630 0.011858
# 6 -0.001175 0.002844 -0.003558 0.010578 0.011858 0.040902
#
#
# Mechanical properties :
#
#
# Convention : Reuss Voigt Hill
#
# Bulk Modulus (GPa) = 46.66145 52.64193 49.65169
# Shear Modulus (GPa) = 32.76824 40.42126 36.59475
#
# Velocity S-wave (km/s) = 3.82648 4.24989 4.04373
# Velocity P-wave (km/s) = 6.35394 6.89959 6.63238
#
# Compressibility (1/GPa) = 0.02143096
#
# Stress axis : x y z
#
# Youngs Moduli (GPa) = 97.22437 131.30445 101.53083
#
# Poissons Ratio (x) = 0.24185 0.00099
# Poissons Ratio (y) = 0.17907 0.13282
# Poissons Ratio (z) = 0.00095 0.17177
#
# Static dielectric constant tensor:
#      x y z
#    x 1.887630 0.065620 0.051070 
#    y 0.065620 1.846600 -0.166550 
#    z 0.051070 -0.166550 1.960830 
# 
# From -- ./inp_files/333819.got.cif
#   From: 2010.05.17/outbox.cif.g08.bks.cpg/sg2_167_cif.got.tgz:333819.got - 2010.06.03 11:33:40.
