data_PCOD9058229
_publ_section_title
;
Structure prediction by ZEFSAII (Michael W. Deem and Ramdas Pophale) SiO2 
 PCOD9058229
Probable space group: P -1
;
_chemical_formula_sum "Si O2"
_cell_formula_units_Z 16
_cell_length_a 13.703892
_cell_length_b 8.345868
_cell_length_c 11.548175
_cell_angle_alpha 64.762408
_cell_angle_beta 31.406976
_cell_angle_gamma 62.284156
_cell_volume 608.063751
_symmetry_space_group_name_H-M "P -1"
_symmetry_group_IT_number 2
_symmetry_cell_setting 'triclinic'
loop_
_space_group_symop_operation_xyz
x,y,z
-x,-y,-z
loop_
_atom_site_type_symbol
_atom_site_label
_atom_site_fract_x
_atom_site_fract_y
_atom_site_fract_z
Si Si1 0.450550 0.708967 0.454210
Si Si2 0.383800 0.851348 0.006809
Si Si3 0.053799 0.891616 0.780514
Si Si4 0.294787 0.313401 0.427082
Si Si5 0.519428 0.627713 0.159951
Si Si6 0.128846 0.251295 0.190196
Si Si7 0.004841 0.745668 0.413729
Si Si8 0.707763 0.887611 0.282753
O O1 0.500000 0.500000 0.500000
O O2 0.422453 0.730553 0.339260
O O3 0.635047 0.773214 0.290773
O O4 0.247861 0.813973 0.677718
O O5 0.494175 0.757073 0.035339
O O6 0.230916 0.727337 0.168480
O O7 0.268723 0.051878 0.092078
O O8 0.540062 0.839687 0.752483
O O9 0.006783 0.738459 0.787336
O O10 0.876113 0.959579 0.026572
O O11 0.076071 0.057151 0.624465
O O12 0.411486 0.466681 0.294203
O O13 0.124261 0.371214 0.488402
O O14 0.216560 0.238041 0.645100
O O15 0.744136 0.596556 0.975084
O O16 0.027361 0.244741 0.418810
O O17 0.500000 0.000000 0.500000
#
# Coordination Sequence:
#
# PCOD9058229 Si02
#       8
#     2   2   2   2   2   2   2   2
#     4  12  26  49  70 101 144 187 237 293 351 418
#     4  11  24  43  73 101 140 182 230 287 351 418
#     4  11  25  45  77 105 136 187 241 294 351 414
#     4  12  27  44  64 103 144 181 232 281 354 417
#     4  12  24  46  70 101 141 190 222 289 355 417
#     4  11  22  44  75 105 134 181 234 290 351 418
#     4  11  24  43  69 109 135 177 236 291 346 421
#     4  12  26  47  74 104 140 187 240 294 348 416
#
# _framework density 26.313030999999999
#
# number of rings (size 3 to 8) (size 9 to 14) (size 15 to 20)
#    0.000    0.500    3.750    6.000    1.750    4.000 
#    2.250    0.000    0.000    0.000    0.000    0.000 
#    0.000    0.000    0.000    0.000    0.000    0.000 
#
# Total GULP energy -89628.617287 kJ/mol
# GULP energy per Si atom -5601.788580 kJ/mol
# Density = 2.625314 g / cm^3
# Si number density = 26.313031 Si / 1000 Ang^3
#
#
#
# Elastic Constant Matrix: (Units=GPa)
#
#
# Indices 1 2 3 4 5 6 
#
# 1 139.2672 -0.2900 39.0592 -1.3849 -5.8450 28.2278
# 2 -0.2900 46.8825 15.8206 -1.1646 6.3043 14.8389
# 3 39.0592 15.8206 160.1525 1.9450 2.9902 10.9189
# 4 -1.3849 -1.1646 1.9450 36.3417 4.0596 -10.7527
# 5 -5.8450 6.3043 2.9902 4.0596 57.4872 -8.7022
# 6 28.2278 14.8389 10.9189 -10.7527 -8.7022 40.6410
#
#
#
# Elastic Compliance Matrix: (Units=1/GPa)
#
#
# Indices 1 2 3 4 5 6 
#
# 1 0.009250 0.003124 -0.002026 -0.001628 -0.000320 -0.007520
# 2 0.003124 0.026729 -0.002425 -0.002197 -0.004266 -0.012772
# 3 -0.002026 -0.002425 0.006970 -0.000426 -0.000234 0.000258
# 4 -0.001628 -0.002197 -0.000426 0.030420 -0.000540 0.009980
# 5 -0.000320 -0.004266 -0.000234 -0.000540 0.018746 0.005714
# 6 -0.007520 -0.012772 0.000258 0.009980 0.005714 0.038287
#
#
# Mechanical properties :
#
#
# Convention : Reuss Voigt Hill
#
# Bulk Modulus (GPa) = 24.81775 50.60908 37.71341
# Shear Modulus (GPa) = 34.13255 46.34148 40.23701
#
# Velocity S-wave (km/s) = 3.60554 4.20117 3.91470
# Velocity P-wave (km/s) = 5.17546 6.54281 5.89889
#
# Compressibility (1/GPa) = 0.04029375
#
# Stress axis : x y z
#
# Youngs Moduli (GPa) = 108.11068 37.41227 143.47795
#
# Poissons Ratio (x) = -0.11686 0.29069
# Poissons Ratio (y) = -0.33771 0.34796
# Poissons Ratio (z) = 0.21903 0.09073
#
# Static dielectric constant tensor:
#      x y z
#    x 2.067480 0.044770 -0.018080 
#    y 0.044770 2.159790 -0.010630 
#    z -0.018080 -0.010630 2.081310 
# 
# From -- ./inp_files/447035.got.cif
#   From: 2010.05.17/outbox.cif.g08.bks.cpg/sg2_224_cif.got.tgz:447035.got - 2010.06.03 11:33:40.
