data_PCOD9058688
_publ_section_title
;
Structure prediction by ZEFSAII (Michael W. Deem and Ramdas Pophale) SiO2 
 PCOD9058688
Probable space group: P -1
;
_chemical_formula_sum "Si O2"
_cell_formula_units_Z 14
_cell_length_a 20.027773
_cell_length_b 12.043603
_cell_length_c 8.283758
_cell_angle_alpha 146.562979
_cell_angle_beta 57.524839
_cell_angle_gamma 142.051371
_cell_volume 632.333857
_symmetry_space_group_name_H-M "P -1"
_symmetry_group_IT_number 2
_symmetry_cell_setting 'triclinic'
loop_
_space_group_symop_operation_xyz
x,y,z
-x,-y,-z
loop_
_atom_site_type_symbol
_atom_site_label
_atom_site_fract_x
_atom_site_fract_y
_atom_site_fract_z
Si Si1 0.590873 0.476609 0.166639
Si Si2 0.424622 0.547344 0.486005
Si Si3 0.966054 0.473067 0.828979
Si Si4 0.167355 0.142907 0.856675
Si Si5 0.814512 0.009817 0.022448
Si Si6 0.520312 0.785163 0.329171
Si Si7 0.207417 0.654156 0.309032
O O1 0.529869 0.581136 0.394222
O O2 0.586711 0.376574 0.230366
O O3 0.720566 0.731873 0.236245
O O4 0.521330 0.234370 0.820026
O O5 0.448653 0.717189 0.497760
O O6 0.301724 0.209662 0.199422
O O7 0.071199 0.783358 0.981795
O O8 0.850824 0.386861 0.832814
O O9 0.939492 0.203062 0.461827
O O10 0.000000 0.500000 0.000000
O O11 0.191483 0.170598 0.049565
O O12 0.155713 0.347324 0.060860
O O13 0.822341 0.228792 0.381301
O O14 0.653359 0.086963 0.555956
O O15 0.500000 0.500000 0.000000
#
# Coordination Sequence:
#
# PCOD9058688 Si02
#       7
#     2   2   2   2   2   2   2
#     4  10  19  34  62  92 126 168 206 260 314 369
#     4  10  18  35  63  91 127 165 217 258 306 382
#     4  11  25  43  67  91 124 168 215 268 327 379
#     4  11  23  41  65  95 126 167 218 261 323 383
#     4  11  21  41  65  90 123 172 214 262 323 378
#     4  10  17  37  62  88 128 167 206 256 314 373
#     4  11  23  41  66  93 126 168 213 270 317 379
#
# _framework density 22.140205000000002
#
# number of rings (size 3 to 8) (size 9 to 14) (size 15 to 20)
#    0.000    1.429    4.286    5.143    0.000    4.571 
#    0.000    2.143    0.000    0.000    0.000    0.000 
#    0.000    0.000    0.000    0.000    0.000    0.000 
#
# Total GULP energy -78185.199675 kJ/mol
# GULP energy per Si atom -5584.657120 kJ/mol
# Density = 2.208981 g / cm^3
# Si number density = 22.140205 Si / 1000 Ang^3
#
#
#
# Elastic Constant Matrix: (Units=GPa)
#
#
# Indices 1 2 3 4 5 6 
#
# 1 104.3810 36.1878 46.6581 -2.0519 17.3184 -26.8093
# 2 36.1878 146.2349 28.9095 -11.7864 34.1096 -30.9667
# 3 46.6581 28.9095 67.5426 -1.7229 8.1455 -20.9891
# 4 -2.0519 -11.7864 -1.7229 30.4280 -15.3738 11.1435
# 5 17.3184 34.1096 8.1455 -15.3738 35.7511 -0.0953
# 6 -26.8093 -30.9667 -20.9891 11.1435 -0.0953 36.7124
#
#
#
# Elastic Compliance Matrix: (Units=1/GPa)
#
#
# Indices 1 2 3 4 5 6 
#
# 1 0.017663 0.002266 -0.007662 -0.009958 -0.013218 0.013417
# 2 0.002266 0.012730 -0.000651 -0.008838 -0.016856 0.014659
# 3 -0.007662 -0.000651 0.023139 -0.003744 -0.002527 0.008214
# 4 -0.009958 -0.008838 -0.003744 0.062207 0.040764 -0.035643
# 5 -0.013218 -0.016856 -0.002527 0.040764 0.068462 -0.037511
# 6 0.013417 0.014659 0.008214 -0.035643 -0.037511 0.064819
#
#
# Mechanical properties :
#
#
# Convention : Reuss Voigt Hill
#
# Bulk Modulus (GPa) = 24.13285 60.18548 42.15917
# Shear Modulus (GPa) = 18.18668 34.33850 26.26259
#
# Velocity S-wave (km/s) = 2.86917 3.94249 3.44785
# Velocity P-wave (km/s) = 4.67973 6.92583 5.91046
#
# Compressibility (1/GPa) = 0.04143729
#
# Stress axis : x y z
#
# Youngs Moduli (GPa) = 56.61501 78.55561 43.21738
#
# Poissons Ratio (x) = -0.17798 0.33112
# Poissons Ratio (y) = -0.12827 0.02814
# Poissons Ratio (z) = 0.43377 0.05115
#
# Static dielectric constant tensor:
#      x y z
#    x 1.885420 -0.024430 -0.009150 
#    y -0.024430 1.829060 -0.003390 
#    z -0.009150 -0.003390 1.810590 
# 
# From -- ./inp_files/346472.got.cif
#   From: 2010.05.17/outbox.cif.g08.bks.cpg/sg2_174_cif.got.tgz:346472.got - 2010.06.03 11:33:40.
