data_PCOD9058891
_publ_section_title
;
Structure prediction by ZEFSAII (Michael W. Deem and Ramdas Pophale) SiO2 
 PCOD9058891
Probable space group: P -1
;
_chemical_formula_sum "Si O2"
_cell_formula_units_Z 12
_cell_length_a 11.249867
_cell_length_b 10.329908
_cell_length_c 11.903642
_cell_angle_alpha 68.517780
_cell_angle_beta 155.572290
_cell_angle_gamma 100.297980
_cell_volume 487.438471
_symmetry_space_group_name_H-M "P -1"
_symmetry_group_IT_number 2
_symmetry_cell_setting 'triclinic'
loop_
_space_group_symop_operation_xyz
x,y,z
-x,-y,-z
loop_
_atom_site_type_symbol
_atom_site_label
_atom_site_fract_x
_atom_site_fract_y
_atom_site_fract_z
Si Si1 0.533443 0.704336 0.450674
Si Si2 0.345092 0.053823 0.177020
Si Si3 0.287196 0.033235 0.696631
Si Si4 0.860714 0.319443 0.092974
Si Si5 0.310695 0.516880 0.718743
Si Si6 0.341725 0.758709 0.501444
O O1 0.440160 0.657317 0.505425
O O2 0.895853 0.606403 0.759516
O O3 0.508211 0.875617 0.402620
O O4 0.281316 0.723391 0.128930
O O5 0.404020 0.176604 0.264804
O O6 0.492423 0.067602 0.179750
O O7 0.978699 0.096760 0.841407
O O8 0.105368 0.195471 0.428201
O O9 0.000000 0.000000 0.500000
O O10 0.500000 0.000000 0.000000
O O11 0.549395 0.397278 0.875207
O O12 0.257484 0.671410 0.558146
O O13 0.000000 0.500000 0.500000
O O14 0.500000 0.500000 0.000000
#
# Coordination Sequence:
#
# PCOD9058891 Si02
#       6
#     2   2   2   2   2   2
#     4  11  23  45  73 104 139 177 232 292 351 404
#     4  11  23  41  65 108 139 171 233 285 348 414
#     4  11  23  38  65  95 135 185 220 276 342 402
#     4  11  25  45  69 100 141 180 236 292 334 410
#     4  12  29  48  69  99 143 188 236 285 336 412
#     4  12  25  43  72 102 139 190 224 282 352 410
#
# _framework density 24.618492
#
# number of rings (size 3 to 8) (size 9 to 14) (size 15 to 20)
#    0.000    0.667    0.000    9.000    7.000    1.333 
#    0.000    0.000    0.000    0.000    0.000    0.000 
#    0.000    0.000    0.000    0.000    0.000    0.000 
#
# Total GULP energy -67034.004254 kJ/mol
# GULP energy per Si atom -5586.167021 kJ/mol
# Density = 2.456246 g / cm^3
# Si number density = 24.618492 Si / 1000 Ang^3
#
#
#
# Elastic Constant Matrix: (Units=GPa)
#
#
# Indices 1 2 3 4 5 6 
#
# 1 180.0176 23.1930 56.7811 12.9511 -17.2910 -9.8304
# 2 23.1930 46.6570 32.7831 7.8785 -17.6477 -0.6585
# 3 56.7811 32.7831 149.2411 21.5081 -2.9028 -4.6959
# 4 12.9511 7.8785 21.5081 42.1523 -6.1229 -0.5267
# 5 -17.2910 -17.6477 -2.9028 -6.1229 54.7740 2.9976
# 6 -9.8304 -0.6585 -4.6959 -0.5267 2.9976 42.6616
#
#
#
# Elastic Compliance Matrix: (Units=1/GPa)
#
#
# Indices 1 2 3 4 5 6 
#
# 1 0.006615 -0.001124 -0.002132 -0.000503 0.001493 0.001161
# 2 -0.001124 0.029533 -0.005784 -0.000957 0.008805 -0.001070
# 3 -0.002132 -0.005784 0.009231 -0.003323 -0.002450 0.000567
# 4 -0.000503 -0.000957 -0.003323 0.026081 0.002290 -0.000335
# 5 0.001493 0.008805 -0.002450 0.002290 0.021762 -0.001290
# 6 0.001161 -0.001070 0.000567 -0.000335 -0.001290 0.023840
#
#
# Mechanical properties :
#
#
# Convention : Reuss Voigt Hill
#
# Bulk Modulus (GPa) = 36.63098 66.82558 51.72828
# Shear Modulus (GPa) = 34.66364 45.46149 40.06257
#
# Velocity S-wave (km/s) = 3.75645 4.30192 4.03840
# Velocity P-wave (km/s) = 5.80743 7.20269 6.54236
#
# Compressibility (1/GPa) = 0.02729930
#
# Stress axis : x y z
#
# Youngs Moduli (GPa) = 151.16381 33.86025 108.32743
#
# Poissons Ratio (x) = 0.03807 0.23093
# Poissons Ratio (y) = 0.16996 0.62657
# Poissons Ratio (z) = 0.32225 0.19585
#
# Static dielectric constant tensor:
#      x y z
#    x 1.838760 -0.232040 0.136290 
#    y -0.232040 1.915990 0.057550 
#    z 0.136290 0.057550 1.786420 
# 
# From -- ./inp_files/428264.got.cif
#   From: 2010.05.17/outbox.cif.g08.bks.cpg/sg2_215_cif.got.tgz:428264.got - 2010.06.03 11:33:40.
