data_PCOD9058989
_publ_section_title
;
Structure prediction by ZEFSAII (Michael W. Deem and Ramdas Pophale) SiO2 
 PCOD9058989
Probable space group: P -1
;
_chemical_formula_sum "Si O2"
_cell_formula_units_Z 12
_cell_length_a 9.368050
_cell_length_b 9.009427
_cell_length_c 12.345746
_cell_angle_alpha 91.719192
_cell_angle_beta 142.672580
_cell_angle_gamma 101.630383
_cell_volume 586.227791
_symmetry_space_group_name_H-M "P -1"
_symmetry_group_IT_number 2
_symmetry_cell_setting 'triclinic'
loop_
_space_group_symop_operation_xyz
x,y,z
-x,-y,-z
loop_
_atom_site_type_symbol
_atom_site_label
_atom_site_fract_x
_atom_site_fract_y
_atom_site_fract_z
Si Si1 0.376926 0.618456 0.545016
Si Si2 0.153184 0.390297 0.742713
Si Si3 0.260770 0.148778 0.640408
Si Si4 0.441471 0.339236 0.114698
Si Si5 0.647550 0.025225 0.975374
Si Si6 0.211728 0.260344 0.372588
O O1 0.526183 0.600248 0.741624
O O2 0.241642 0.445485 0.404200
O O3 0.572689 0.736257 0.582497
O O4 0.148139 0.669770 0.445979
O O5 0.257501 0.282930 0.727419
O O6 0.288995 0.569224 0.781324
O O7 0.245671 0.380035 0.920218
O O8 0.494393 0.095533 0.804060
O O9 0.260446 0.207375 0.519735
O O10 0.000000 0.000000 0.500000
O O11 0.367240 0.150075 0.070219
O O12 0.934409 0.146039 0.165561
O O13 0.500000 0.000000 0.000000
#
# Coordination Sequence:
#
# PCOD9058989 Si02
#       6
#     2   2   2   2   2   2
#     4  11  25  43  67  93 140 174 212 269 327 393
#     4  11  23  39  70  99 125 168 227 270 316 384
#     4  12  23  41  70 100 128 169 220 272 322 386
#     4  11  23  41  67 101 126 171 223 269 322 381
#     4  12  23  41  68  97 132 166 217 273 322 381
#     4  11  26  44  63 100 133 177 215 263 336 384
#
# _framework density 20.469857000000001
#
# number of rings (size 3 to 8) (size 9 to 14) (size 15 to 20)
#    0.000    0.667    5.000    2.500    2.333    2.000 
#    0.000    9.167    0.000    0.000    0.000    0.000 
#    0.000    0.000    0.000    0.000    0.000    0.000 
#
# Total GULP energy -67121.532009 kJ/mol
# GULP energy per Si atom -5593.461001 kJ/mol
# Density = 2.042327 g / cm^3
# Si number density = 20.469857 Si / 1000 Ang^3
#
#
#
# Elastic Constant Matrix: (Units=GPa)
#
#
# Indices 1 2 3 4 5 6 
#
# 1 61.0676 39.7841 41.1787 -2.9885 3.5021 27.7150
# 2 39.7841 84.7849 56.6326 13.9526 17.0050 9.7310
# 3 41.1787 56.6326 135.3982 8.3916 6.5595 17.7664
# 4 -2.9885 13.9526 8.3916 43.2577 3.4764 -6.6241
# 5 3.5021 17.0050 6.5595 3.4764 24.8963 7.0868
# 6 27.7150 9.7310 17.7664 -6.6241 7.0868 31.2771
#
#
#
# Elastic Compliance Matrix: (Units=1/GPa)
#
#
# Indices 1 2 3 4 5 6 
#
# 1 0.047799 -0.021081 -0.001780 0.003076 0.018633 -0.038355
# 2 -0.021081 0.028888 -0.006592 -0.005428 -0.018994 0.016591
# 3 -0.001780 -0.006592 0.011059 -0.000920 0.002970 -0.003522
# 4 0.003076 -0.005428 -0.000920 0.026225 -0.001688 0.005422
# 5 0.018633 -0.018994 0.002970 -0.001688 0.057266 -0.025621
# 6 -0.038355 0.016591 -0.003522 0.005422 -0.025621 0.069752
#
#
# Mechanical properties :
#
#
# Convention : Reuss Voigt Hill
#
# Bulk Modulus (GPa) = 34.67365 61.82685 48.25025
# Shear Modulus (GPa) = 16.15462 29.46324 22.80893
#
# Velocity S-wave (km/s) = 2.81230 3.79799 3.34169
# Velocity P-wave (km/s) = 5.24605 7.03579 6.20578
#
# Compressibility (1/GPa) = 0.02884035
#
# Stress axis : x y z
#
# Youngs Moduli (GPa) = 20.92107 34.61588 90.42022
#
# Poissons Ratio (x) = 0.72974 0.16095
# Poissons Ratio (y) = 0.44104 0.59606
# Poissons Ratio (z) = 0.03724 0.22819
#
# Static dielectric constant tensor:
#      x y z
#    x 1.732650 -0.033220 -0.014440 
#    y -0.033220 1.741100 0.019740 
#    z -0.014440 0.019740 1.716400 
# 
# From -- ./inp_files/151891.got.cif
#   From: 2010.05.17/outbox.cif.g08.bks.cpg/sg2_76_cif.got.tgz:151891.got - 2010.06.03 11:33:40.
