data_PCOD9058814
_publ_section_title
;
Structure prediction by ZEFSAII (Michael W. Deem and Ramdas Pophale) SiO2 
 PCOD9058814
Probable space group: P -1
;
_chemical_formula_sum "Si O2"
_cell_formula_units_Z 14
_cell_length_a 8.496943
_cell_length_b 10.187664
_cell_length_c 14.478807
_cell_angle_alpha 76.800011
_cell_angle_beta 51.980452
_cell_angle_gamma 112.300692
_cell_volume 706.498559
_symmetry_space_group_name_H-M "P -1"
_symmetry_group_IT_number 2
_symmetry_cell_setting 'triclinic'
loop_
_space_group_symop_operation_xyz
x,y,z
-x,-y,-z
loop_
_atom_site_type_symbol
_atom_site_label
_atom_site_fract_x
_atom_site_fract_y
_atom_site_fract_z
Si Si1 0.580438 0.510797 0.181778
Si Si2 0.755800 0.688662 0.828668
Si Si3 0.315430 0.795609 0.635392
Si Si4 0.236593 0.861905 0.054499
Si Si5 0.661059 0.491974 0.366720
Si Si6 0.813196 0.222648 0.116060
Si Si7 0.128888 0.116728 0.067075
O O1 0.341407 0.335785 0.236709
O O2 0.561582 0.490685 0.300856
O O3 0.873606 0.582254 0.034582
O O4 0.629994 0.689173 0.102796
O O5 0.824696 0.845383 0.845504
O O6 0.007975 0.702531 0.742216
O O7 0.500000 0.500000 0.000000
O O8 0.384361 0.687754 0.579551
O O9 0.337940 0.787150 0.739742
O O10 0.500000 0.000000 0.500000
O O11 0.985908 0.667559 0.221781
O O12 0.120407 0.959860 0.065123
O O13 0.301856 0.824776 0.937679
O O14 0.500000 0.000000 0.000000
O O15 0.500000 0.500000 0.500000
O O16 0.866463 0.088181 0.143416
#
# Coordination Sequence:
#
# PCOD9058814 Si02
#       7
#     2   2   2   2   2   2   2
#     4   8  18  37  63  87 114 155 203 248 290 352
#     4   9  17  37  66  90 110 153 206 249 288 356
#     4  11  24  41  63  89 122 160 199 248 302 357
#     4  11  23  36  62  92 120 153 202 252 292 353
#     4  11  27  41  58  87 129 162 195 246 306 352
#     4   8  19  37  61  85 111 160 197 241 297 352
#     4   8  17  33  61  87 118 148 190 242 306 342
#
# _framework density 19.816034999999999
#
# number of rings (size 3 to 8) (size 9 to 14) (size 15 to 20)
#    0.857    1.714    1.429    0.429    8.000    3.429 
#    2.571    1.429    0.000    0.000    0.000    0.000 
#    0.000    0.000    0.000    0.000    0.000    0.000 
#
# Total GULP energy -78029.547462 kJ/mol
# GULP energy per Si atom -5573.539104 kJ/mol
# Density = 1.977093 g / cm^3
# Si number density = 19.816035 Si / 1000 Ang^3
#
#
#
# Elastic Constant Matrix: (Units=GPa)
#
#
# Indices 1 2 3 4 5 6 
#
# 1 76.6613 32.1140 35.8118 6.6112 2.9027 27.7787
# 2 32.1140 113.5128 54.7492 12.7150 5.6426 -1.5902
# 3 35.8118 54.7492 99.2224 15.0381 10.9625 7.4241
# 4 6.6112 12.7150 15.0381 34.8997 1.0656 7.1656
# 5 2.9027 5.6426 10.9625 1.0656 19.2871 3.5248
# 6 27.7787 -1.5902 7.4241 7.1656 3.5248 47.4631
#
#
#
# Elastic Compliance Matrix: (Units=1/GPa)
#
#
# Indices 1 2 3 4 5 6 
#
# 1 0.021377 -0.004114 -0.005182 0.002132 0.003078 -0.012389
# 2 -0.004114 0.013020 -0.005575 -0.002389 -0.000643 0.004124
# 3 -0.005182 -0.005575 0.016299 -0.004093 -0.006888 0.001426
# 4 0.002132 -0.002389 -0.004093 0.031986 0.001972 -0.005663
# 5 0.003078 -0.000643 -0.006888 0.001972 0.056334 -0.005227
# 6 -0.012389 0.004124 0.001426 -0.005663 -0.005227 0.029478
#
#
# Mechanical properties :
#
#
# Convention : Reuss Voigt Hill
#
# Bulk Modulus (GPa) = 47.72019 59.41628 53.56823
# Shear Modulus (GPa) = 24.36404 31.44476 27.90440
#
# Velocity S-wave (km/s) = 3.51024 3.98783 3.75663
# Velocity P-wave (km/s) = 6.36891 7.15910 6.77553
#
# Compressibility (1/GPa) = 0.02095549
#
# Stress axis : x y z
#
# Youngs Moduli (GPa) = 46.77872 76.80754 61.35264
#
# Poissons Ratio (x) = 0.31598 0.31791
# Poissons Ratio (y) = 0.19245 0.34202
# Poissons Ratio (z) = 0.24239 0.42817
#
# Static dielectric constant tensor:
#      x y z
#    x 1.752850 -0.005780 0.025370 
#    y -0.005780 1.745600 -0.000980 
#    z 0.025370 -0.000980 1.683040 
# 
# From -- ./inp_files/492686.got.cif
#   From: 2010.05.17/outbox.cif.g08.bks.cpg/sg2_247_cif.got.tgz:492686.got - 2010.06.03 11:33:40.
