data_PCOD9058586
_publ_section_title
;
Structure prediction by ZEFSAII (Michael W. Deem and Ramdas Pophale) SiO2 
 PCOD9058586
Probable space group: P -1
;
_chemical_formula_sum "Si O2"
_cell_formula_units_Z 14
_cell_length_a 11.146574
_cell_length_b 18.542663
_cell_length_c 9.446901
_cell_angle_alpha 30.157412
_cell_angle_beta 51.475865
_cell_angle_gamma 41.035244
_cell_volume 641.438217
_symmetry_space_group_name_H-M "P -1"
_symmetry_group_IT_number 2
_symmetry_cell_setting 'triclinic'
loop_
_space_group_symop_operation_xyz
x,y,z
-x,-y,-z
loop_
_atom_site_type_symbol
_atom_site_label
_atom_site_fract_x
_atom_site_fract_y
_atom_site_fract_z
Si Si1 0.806046 0.471895 0.325921
Si Si2 0.099297 0.445170 0.367648
Si Si3 0.503262 0.139010 0.164001
Si Si4 0.473559 0.075930 0.737240
Si Si5 0.245551 0.613544 0.790452
Si Si6 0.352027 0.677319 0.095924
Si Si7 0.210213 0.861902 0.610083
O O1 0.842872 0.363548 0.338554
O O2 0.685884 0.435581 0.581348
O O3 0.981237 0.423737 0.371314
O O4 0.688159 0.674092 0.027260
O O5 0.296982 0.269007 0.534275
O O6 0.000000 0.500000 0.500000
O O7 0.130427 0.585326 0.038928
O O8 0.500000 0.000000 0.500000
O O9 0.554496 0.046391 0.134223
O O10 0.644624 0.181016 0.052774
O O11 0.656211 0.072255 0.569443
O O12 0.500000 0.000000 0.000000
O O13 0.445490 0.442061 0.915092
O O14 0.278526 0.749762 0.606583
O O15 0.222973 0.758405 0.917764
O O16 0.000000 0.000000 0.500000
#
# Coordination Sequence:
#
# PCOD9058586 Si02
#       7
#     2   2   2   2   2   2   2
#     4  11  26  44  77 107 138 188 245 290 354 428
#     4  12  26  46  71 105 142 190 241 289 347 433
#     4  11  22  46  73 101 143 182 232 294 358 415
#     4  12  28  44  69 103 145 187 233 297 363 411
#     4  11  24  46  71  98 143 184 238 294 351 423
#     4  11  24  48  74 104 139 192 240 291 352 427
#     4  12  28  45  70 105 144 186 237 297 359 420
#
# _framework density 21.825952000000001
#
# number of rings (size 3 to 8) (size 9 to 14) (size 15 to 20)
#    0.000    0.571    2.857    5.143   12.000    1.143 
#    0.000    1.429    0.000    0.000    0.000    0.000 
#    0.000    0.000    0.000    0.000    0.000    0.000 
#
# Total GULP energy -78283.179558 kJ/mol
# GULP energy per Si atom -5591.655683 kJ/mol
# Density = 2.177628 g / cm^3
# Si number density = 21.825952 Si / 1000 Ang^3
#
#
#
# Elastic Constant Matrix: (Units=GPa)
#
#
# Indices 1 2 3 4 5 6 
#
# 1 148.1917 47.2979 36.5412 -4.6881 23.0949 13.4828
# 2 47.2979 81.9830 20.9202 5.2372 6.5470 19.6520
# 3 36.5412 20.9202 105.4274 15.7263 12.9155 -1.6890
# 4 -4.6881 5.2372 15.7263 33.2010 3.9106 -0.4146
# 5 23.0949 6.5470 12.9155 3.9106 42.8506 1.8340
# 6 13.4828 19.6520 -1.6890 -0.4146 1.8340 47.7663
#
#
#
# Elastic Compliance Matrix: (Units=1/GPa)
#
#
# Indices 1 2 3 4 5 6 
#
# 1 0.009677 -0.004694 -0.002497 0.003759 -0.004059 -0.000700
# 2 -0.004694 0.016750 -0.001485 -0.002780 0.000915 -0.005678
# 3 -0.002497 -0.001485 0.011672 -0.005446 -0.001523 0.001740
# 4 0.003759 -0.002780 -0.005446 0.034035 -0.003079 0.000304
# 5 -0.004059 0.000915 -0.001523 -0.003079 0.026138 -0.000315
# 6 -0.000700 -0.005678 0.001740 0.000304 -0.000315 0.023545
#
#
# Mechanical properties :
#
#
# Convention : Reuss Voigt Hill
#
# Bulk Modulus (GPa) = 48.20038 60.56893 54.38466
# Shear Modulus (GPa) = 34.22626 40.15310 37.18968
#
# Velocity S-wave (km/s) = 3.96428 4.29382 4.13233
# Velocity P-wave (km/s) = 6.56399 7.23835 6.90940
#
# Compressibility (1/GPa) = 0.02074673
#
# Stress axis : x y z
#
# Youngs Moduli (GPa) = 103.33657 59.70042 85.67281
#
# Poissons Ratio (x) = 0.28022 0.21396
# Poissons Ratio (y) = 0.48504 0.12725
# Poissons Ratio (z) = 0.25807 0.08867
#
# Static dielectric constant tensor:
#      x y z
#    x 1.784690 -0.023400 -0.048550 
#    y -0.023400 1.762010 -0.037750 
#    z -0.048550 -0.037750 1.806730 
# 
# From -- ./inp_files/184778.got.cif
#   From: 2010.05.17/outbox.cif.g08.bks.cpg/sg2_93_cif.got.tgz:184778.got - 2010.06.03 11:33:40.
