data_PCOD9058699
_publ_section_title
;
Structure prediction by ZEFSAII (Michael W. Deem and Ramdas Pophale) SiO2 
 PCOD9058699
Probable space group: P -1
;
_chemical_formula_sum "Si O2"
_cell_formula_units_Z 14
_cell_length_a 16.563016
_cell_length_b 13.694474
_cell_length_c 8.195064
_cell_angle_alpha 56.382300
_cell_angle_beta 132.614945
_cell_angle_gamma 154.538647
_cell_volume 578.232644
_symmetry_space_group_name_H-M "P -1"
_symmetry_group_IT_number 2
_symmetry_cell_setting 'triclinic'
loop_
_space_group_symop_operation_xyz
x,y,z
-x,-y,-z
loop_
_atom_site_type_symbol
_atom_site_label
_atom_site_fract_x
_atom_site_fract_y
_atom_site_fract_z
Si Si1 0.678893 0.756926 0.452659
Si Si2 0.284225 0.059069 0.972456
Si Si3 0.497446 0.826301 0.293249
Si Si4 0.031324 0.126200 0.060260
Si Si5 0.199734 0.684302 0.761525
Si Si6 0.065668 0.396297 0.307737
Si Si7 0.775484 0.502761 0.234289
O O1 0.500000 0.500000 0.500000
O O2 0.684073 0.800393 0.233061
O O3 0.623507 0.824035 0.417468
O O4 0.888524 0.874609 0.675448
O O5 0.526524 0.238958 0.167181
O O6 0.177197 0.995549 0.054760
O O7 0.114357 0.821681 0.859467
O O8 0.296317 0.621284 0.328112
O O9 0.668434 0.082712 0.342326
O O10 0.381473 0.773479 0.023221
O O11 0.194325 0.369467 0.977878
O O12 0.000000 0.000000 0.000000
O O13 0.114628 0.511988 0.674798
O O14 0.035110 0.578776 0.773306
O O15 0.113763 0.362812 0.566728
#
# Coordination Sequence:
#
# PCOD9058699 Si02
#       7
#     2   2   2   2   2   2   2
#     4  12  22  46  72 102 145 190 238 298 356 427
#     4  12  25  49  74 104 147 193 238 295 366 426
#     4  11  24  43  73 107 142 194 244 294 363 427
#     4  12  29  47  75 107 146 188 245 301 358 436
#     4  11  22  47  71 104 152 183 244 304 351 430
#     4  12  26  44  79 107 145 194 240 292 370 430
#     4  12  27  48  72 113 146 188 243 300 358 434
#
# _framework density 24.211708000000002
#
# number of rings (size 3 to 8) (size 9 to 14) (size 15 to 20)
#    0.000    0.286    4.286    4.714    2.000    3.429 
#    0.000    0.000    0.000    0.000    0.000    0.000 
#    0.000    0.000    0.000    0.000    0.000    0.000 
#
# Total GULP energy -78330.144306 kJ/mol
# GULP energy per Si atom -5595.010308 kJ/mol
# Density = 2.415660 g / cm^3
# Si number density = 24.211708 Si / 1000 Ang^3
#
#
#
# Elastic Constant Matrix: (Units=GPa)
#
#
# Indices 1 2 3 4 5 6 
#
# 1 146.2844 70.6229 11.2384 6.1820 12.1517 14.4894
# 2 70.6229 142.9024 14.2381 -5.8727 2.1847 11.7240
# 3 11.2384 14.2381 56.6272 -3.7406 13.4912 0.5042
# 4 6.1820 -5.8727 -3.7406 36.5819 -3.2246 11.1749
# 5 12.1517 2.1847 13.4912 -3.2246 37.2148 8.0899
# 6 14.4894 11.7240 0.5042 11.1749 8.0899 40.5020
#
#
#
# Elastic Compliance Matrix: (Units=1/GPa)
#
#
# Indices 1 2 3 4 5 6 
#
# 1 0.009521 -0.004671 -0.000201 -0.002368 -0.002784 -0.000842
# 2 -0.004671 0.009791 -0.001889 0.003147 0.002451 -0.002497
# 3 -0.000201 -0.001889 0.019955 0.000610 -0.007369 0.001673
# 4 -0.002368 0.003147 0.000610 0.031792 0.005273 -0.009896
# 5 -0.002784 0.002451 -0.007369 0.005273 0.032406 -0.007549
# 6 -0.000842 -0.002497 0.001673 -0.009896 -0.007549 0.029932
#
#
# Mechanical properties :
#
#
# Convention : Reuss Voigt Hill
#
# Bulk Modulus (GPa) = 38.83998 59.77920 49.30959
# Shear Modulus (GPa) = 32.15445 39.50740 35.83092
#
# Velocity S-wave (km/s) = 3.64820 4.04387 3.85112
# Velocity P-wave (km/s) = 5.81571 6.82259 6.33917
#
# Compressibility (1/GPa) = 0.02574667
#
# Stress axis : x y z
#
# Youngs Moduli (GPa) = 105.02818 102.13281 50.11273
#
# Poissons Ratio (x) = 0.47707 0.01006
# Poissons Ratio (y) = 0.49059 0.09464
# Poissons Ratio (z) = 0.02108 0.19288
#
# Static dielectric constant tensor:
#      x y z
#    x 2.022250 -0.016570 -0.039220 
#    y -0.016570 1.913850 0.074120 
#    z -0.039220 0.074120 2.176830 
# 
# From -- ./inp_files/296956.got.cif
#   From: 2010.05.17/outbox.cif.g08.bks.cpg/sg2_149_cif.got.tgz:296956.got - 2010.06.03 11:33:40.
