data_PCOD9058941
_publ_section_title
;
Structure prediction by ZEFSAII (Michael W. Deem and Ramdas Pophale) SiO2 
 PCOD9058941
Probable space group: P -1
;
_chemical_formula_sum "Si O2"
_cell_formula_units_Z 16
_cell_length_a 16.912984
_cell_length_b 27.066305
_cell_length_c 27.157858
_cell_angle_alpha 169.253767
_cell_angle_beta 20.621256
_cell_angle_gamma 159.304121
_cell_volume 791.943070
_symmetry_space_group_name_H-M "P -1"
_symmetry_group_IT_number 2
_symmetry_cell_setting 'triclinic'
loop_
_space_group_symop_operation_xyz
x,y,z
-x,-y,-z
loop_
_atom_site_type_symbol
_atom_site_label
_atom_site_fract_x
_atom_site_fract_y
_atom_site_fract_z
Si Si1 0.748510 0.403959 0.107092
Si Si2 0.642056 0.892265 0.595414
Si Si3 0.734674 0.152967 0.040444
Si Si4 0.894010 0.417052 0.378097
Si Si5 0.636931 0.970309 0.559639
Si Si6 0.102996 0.959631 0.847045
Si Si7 0.277197 0.378043 0.416955
Si Si8 0.095007 0.440369 0.029753
O O1 0.780600 0.676399 0.322612
O O2 0.520660 0.386768 0.256660
O O3 0.954306 0.408958 0.029716
O O4 0.695740 0.148046 0.850937
O O5 0.369584 0.743029 0.612935
O O6 0.683486 0.970213 0.590937
O O7 0.686545 0.389306 0.334947
O O8 0.924107 0.288800 0.022992
O O9 0.500000 0.000000 0.000000
O O10 0.808773 0.920161 0.801450
O O11 0.887788 0.545933 0.454073
O O12 0.976736 0.665155 0.610667
O O13 0.047400 0.198571 0.079831
O O14 0.373423 0.977160 0.711293
O O15 0.808147 0.241479 0.704098
O O16 0.696064 0.704146 0.241473
O O17 0.000000 0.000000 0.000000
#
# Coordination Sequence:
#
# PCOD9058941 Si02
#       8
#     2   2   2   2   2   2   2   2
#     4  11  23  39  64  96 136 173 213 256 320 400
#     4  11  23  39  64  96 136 173 213 256 320 400
#     4  12  24  42  70  95 129 171 222 270 320 375
#     4  11  23  40  69 100 128 162 216 278 327 373
#     4  12  27  42  63  94 136 178 215 262 325 386
#     4  12  24  42  70  95 129 171 222 270 320 375
#     4  11  23  40  69 100 128 162 216 278 327 373
#     4  12  27  42  63  94 136 178 215 262 325 386
#
# _framework density 20.203472999999999
#
# number of rings (size 3 to 8) (size 9 to 14) (size 15 to 20)
#    0.000    0.500    2.500    7.500    3.500    3.000 
#    0.000    0.000    0.000   15.000    0.000    0.000 
#    0.000    0.000    0.000    0.000    0.000    0.000 
#
# Total GULP energy -89634.674317 kJ/mol
# GULP energy per Si atom -5602.167145 kJ/mol
# Density = 2.015749 g / cm^3
# Si number density = 20.203473 Si / 1000 Ang^3
#
#
#
# Elastic Constant Matrix: (Units=GPa)
#
#
# Indices 1 2 3 4 5 6 
#
# 1 66.5163 43.5814 33.3320 -4.2530 -16.2283 -1.3246
# 2 43.5814 71.6847 38.1192 -12.2810 -12.8587 -13.9016
# 3 33.3320 38.1192 120.1023 32.6810 -3.4503 7.6514
# 4 -4.2530 -12.2810 32.6810 -2.6326 1.2629 -15.0376
# 5 -16.2283 -12.8587 -3.4503 1.2629 53.3124 5.9224
# 6 -1.3246 -13.9016 7.6514 -15.0376 5.9224 27.0299
#
#
#
# Elastic Compliance Matrix: (Units=1/GPa)
#
#
# Indices 1 2 3 4 5 6 
#
# 1 0.027467 -0.014124 -0.003608 0.003244 0.005112 -0.004212
# 2 -0.014124 0.018027 0.002830 -0.016560 0.000803 -0.001610
# 3 -0.003608 0.002830 0.004728 0.011889 -0.001147 0.006806
# 4 0.003244 -0.016560 0.011889 -0.021932 0.000964 -0.024136
# 5 0.005112 0.000803 -0.001147 0.000964 0.020746 -0.003021
# 6 -0.004212 -0.001610 0.006806 -0.024136 -0.003021 0.021269
#
#
# Mechanical properties :
#
#
# Convention : Reuss Voigt Hill
#
# Bulk Modulus (GPa) = 48.97762 54.26316 51.62039
# Shear Modulus (GPa) = 46.76687 25.09332 35.93009
#
# Velocity S-wave (km/s) = 4.81645 3.52807 4.22170
# Velocity P-wave (km/s) = 7.43140 6.59644 7.02633
#
# Compressibility (1/GPa) = 0.02041749
#
# Stress axis : x y z
#
# Youngs Moduli (GPa) = 36.40781 55.47283 211.52286
#
# Poissons Ratio (x) = 0.78352 0.76307
# Poissons Ratio (y) = 0.51424 -0.59863
# Poissons Ratio (z) = 0.13134 -0.15699
#
# Static dielectric constant tensor:
#      x y z
#    x 1.717400 -0.007950 -0.024670 
#    y -0.007950 1.703140 0.003000 
#    z -0.024670 0.003000 1.704600 
# 
# From -- ./inp_files/477194.got.cif
#   From: 2010.05.17/outbox.cif.g08.bks.cpg/sg2_239_cif.got.tgz:477194.got - 2010.06.03 11:33:40.
