data_PCOD9058499
_publ_section_title
;
Structure prediction by ZEFSAII (Michael W. Deem and Ramdas Pophale) SiO2 
 PCOD9058499
Probable space group: P -1
;
_chemical_formula_sum "Si O2"
_cell_formula_units_Z 14
_cell_length_a 8.648995
_cell_length_b 9.744614
_cell_length_c 8.127829
_cell_angle_alpha 117.516401
_cell_angle_beta 91.108508
_cell_angle_gamma 101.220359
_cell_volume 591.202055
_symmetry_space_group_name_H-M "P -1"
_symmetry_group_IT_number 2
_symmetry_cell_setting 'triclinic'
loop_
_space_group_symop_operation_xyz
x,y,z
-x,-y,-z
loop_
_atom_site_type_symbol
_atom_site_label
_atom_site_fract_x
_atom_site_fract_y
_atom_site_fract_z
Si Si1 0.421081 0.346411 0.018746
Si Si2 0.157190 0.808694 0.557718
Si Si3 0.368674 0.098615 0.588905
Si Si4 0.879265 0.423618 0.101598
Si Si5 0.784834 0.669719 0.455351
Si Si6 0.188923 0.477911 0.296467
Si Si7 0.626145 0.171432 0.100176
O O1 0.264073 0.386914 0.110966
O O2 0.515384 0.297578 0.149728
O O3 0.500000 0.500000 0.000000
O O4 0.404149 0.200522 0.812444
O O5 0.210644 0.665982 0.381843
O O6 0.263581 0.828418 0.737285
O O7 0.966768 0.765230 0.544536
O O8 0.207468 0.969220 0.545948
O O9 0.335641 0.218467 0.515782
O O10 0.500000 0.000000 0.500000
O O11 0.793955 0.560881 0.236071
O O12 0.755153 0.251673 0.001870
O O13 0.999867 0.413362 0.247778
O O14 0.000000 0.500000 0.000000
O O15 0.742681 0.556867 0.547716
O O16 0.500000 0.000000 0.000000
#
# Coordination Sequence:
#
# PCOD9058499 Si02
#       7
#     2   2   2   2   2   2   2
#     4  12  27  45  69 109 147 197 249 296 373 447
#     4  11  23  47  71 106 145 190 242 306 373 428
#     4  12  27  46  69 104 150 190 237 308 378 436
#     4  11  22  45  79 109 147 197 250 304 362 448
#     4  11  23  46  75 105 139 194 256 300 360 446
#     4  11  23  44  78 105 137 194 254 303 354 444
#     4  12  24  45  71 107 157 188 245 311 371 434
#
# _framework density 23.680565999999999
#
# number of rings (size 3 to 8) (size 9 to 14) (size 15 to 20)
#    0.000    0.571    4.286    4.714    2.000    1.714 
#    0.000    5.714    0.000    0.000    0.000    0.000 
#    0.000    0.000    0.000    0.000    0.000    0.000 
#
# Total GULP energy -78174.169287 kJ/mol
# GULP energy per Si atom -5583.869235 kJ/mol
# Density = 2.362667 g / cm^3
# Si number density = 23.680566 Si / 1000 Ang^3
#
#
#
# Elastic Constant Matrix: (Units=GPa)
#
#
# Indices 1 2 3 4 5 6 
#
# 1 102.1715 31.6787 40.1794 15.7304 5.9910 -17.1869
# 2 31.6787 132.6770 29.6901 10.5416 2.8839 0.0045
# 3 40.1794 29.6901 99.6392 10.7445 -2.5007 1.7753
# 4 15.7304 10.5416 10.7445 35.6814 -3.5684 12.3674
# 5 5.9910 2.8839 -2.5007 -3.5684 43.7643 6.2631
# 6 -17.1869 0.0045 1.7753 12.3674 6.2631 58.7995
#
#
#
# Elastic Compliance Matrix: (Units=1/GPa)
#
#
# Indices 1 2 3 4 5 6 
#
# 1 0.014560 -0.001771 -0.004793 -0.006982 -0.003615 0.006254
# 2 -0.001771 0.008442 -0.001681 -0.001199 -0.000484 -0.000164
# 3 -0.004793 -0.001681 0.012585 -0.000352 0.001728 -0.001891
# 4 -0.006982 -0.001199 -0.000352 0.035597 0.005361 -0.010088
# 5 -0.003615 -0.000484 0.001728 0.005361 0.024607 -0.004857
# 6 0.006254 -0.000164 -0.001891 -0.010088 -0.004857 0.021531
#
#
# Mechanical properties :
#
#
# Convention : Reuss Voigt Hill
#
# Bulk Modulus (GPa) = 52.36492 59.73155 56.04823
# Shear Modulus (GPa) = 35.66869 43.17833 39.42351
#
# Velocity S-wave (km/s) = 3.88525 4.27472 4.08463
# Velocity P-wave (km/s) = 6.50291 7.04578 6.77978
#
# Compressibility (1/GPa) = 0.01909676
#
# Stress axis : x y z
#
# Youngs Moduli (GPa) = 68.67940 118.45607 79.45966
#
# Poissons Ratio (x) = 0.20977 0.38086
# Poissons Ratio (y) = 0.12162 0.13360
# Poissons Ratio (z) = 0.32919 0.19917
#
# Static dielectric constant tensor:
#      x y z
#    x 1.852490 -0.024840 0.165700 
#    y -0.024840 1.892180 0.016080 
#    z 0.165700 0.016080 1.752750 
# 
# From -- ./inp_files/160193.got.cif
#   From: 2010.05.17/outbox.cif.g08.bks.cpg/sg2_81_cif.got.tgz:160193.got - 2010.06.03 11:33:40.
