data_PCOD9058713
_publ_section_title
;
Structure prediction by ZEFSAII (Michael W. Deem and Ramdas Pophale) SiO2 
 PCOD9058713
Probable space group: P -1
;
_chemical_formula_sum "Si O2"
_cell_formula_units_Z 13
_cell_length_a 7.697878
_cell_length_b 11.089012
_cell_length_c 9.879911
_cell_angle_alpha 135.978970
_cell_angle_beta 127.916441
_cell_angle_gamma 70.092583
_cell_volume 454.384123
_symmetry_space_group_name_H-M "P -1"
_symmetry_group_IT_number 2
_symmetry_cell_setting 'triclinic'
loop_
_space_group_symop_operation_xyz
x,y,z
-x,-y,-z
loop_
_atom_site_type_symbol
_atom_site_label
_atom_site_fract_x
_atom_site_fract_y
_atom_site_fract_z
Si Si1 0.224255 0.055860 0.375762
Si Si2 0.280316 0.065866 0.902271
Si Si3 0.767479 0.623507 0.164016
Si Si4 0.450353 0.472471 0.279026
Si Si5 0.000000 0.000000 0.000000
Si Si6 0.048439 0.414871 0.314152
Si Si7 0.778443 0.190337 0.584159
O O1 0.276545 0.899458 0.367933
O O2 0.944634 0.013865 0.181887
O O3 0.271162 0.232754 0.627214
O O4 0.273297 0.063038 0.248191
O O5 0.239597 0.969188 0.660298
O O6 0.330057 0.275939 0.107398
O O7 0.500000 0.000000 0.000000
O O8 0.897310 0.482676 0.181885
O O9 0.959650 0.721831 0.232674
O O10 0.554526 0.556649 0.912769
O O11 0.684754 0.513676 0.502537
O O12 0.338026 0.645251 0.371285
O O13 0.014732 0.791515 0.864957
O O14 0.000000 0.500000 0.500000
#
# Coordination Sequence:
#
# PCOD9058713 Si02
#       7
#     2   2   2   2   1   2   2
#     4  11  22  47  73 103 151 191 226 298 366 417
#     4  11  24  40  72 110 146 181 234 304 358 422
#     4  11  22  48  75 108 148 184 237 304 360 422
#     4  12  25  43  77 109 137 191 245 295 361 425
#     4  12  28  48  70  98 148 192 240 290 352 438
#     4  12  29  49  70 101 146 198 239 296 357 426
#     4  11  23  43  73 112 145 181 236 298 366 423
#
# _framework density 28.610154000000001
#
# number of rings (size 3 to 8) (size 9 to 14) (size 15 to 20)
#    0.000    0.615    4.615    4.154    4.308    1.846 
#    0.000    1.538    0.000    0.000    0.000    0.000 
#    0.000    0.000    0.000    0.000    0.000    0.000 
#
# Total GULP energy -72767.757813 kJ/mol
# GULP energy per Si atom -5597.519832 kJ/mol
# Density = 2.854504 g / cm^3
# Si number density = 28.610154 Si / 1000 Ang^3
#
#
#
# Elastic Constant Matrix: (Units=GPa)
#
#
# Indices 1 2 3 4 5 6 
#
# 1 91.3088 25.4910 40.5864 24.8096 -2.7627 -6.3782
# 2 25.4910 247.8606 90.9860 16.3074 -9.5420 9.9259
# 3 40.5864 90.9860 176.0977 18.3700 -26.9091 -3.4441
# 4 24.8096 16.3074 18.3700 72.9987 6.2538 -3.2116
# 5 -2.7627 -9.5420 -26.9091 6.2538 62.6487 -3.5545
# 6 -6.3782 9.9259 -3.4441 -3.2116 -3.5545 38.2807
#
#
#
# Elastic Compliance Matrix: (Units=1/GPa)
#
#
# Indices 1 2 3 4 5 6 
#
# 1 0.013277 -0.000272 -0.002504 -0.003740 -0.000060 0.001738
# 2 -0.000272 0.005106 -0.002628 -0.000425 -0.000416 -0.001680
# 3 -0.002504 -0.002628 0.008210 -0.000845 0.003170 0.001226
# 4 -0.003740 -0.000425 -0.000845 0.015481 -0.002109 0.000514
# 5 -0.000060 -0.000416 0.003170 -0.002109 0.017572 0.001838
# 6 0.001738 -0.001680 0.001226 0.000514 0.001838 0.027172
#
#
# Mechanical properties :
#
#
# Convention : Reuss Voigt Hill
#
# Bulk Modulus (GPa) = 63.35154 92.15487 77.75320
# Shear Modulus (GPa) = 48.59637 58.66588 53.63112
#
# Velocity S-wave (km/s) = 4.12584 4.53319 4.33430
# Velocity P-wave (km/s) = 6.69984 7.72529 7.23077
#
# Compressibility (1/GPa) = 0.01578494
#
# Stress axis : x y z
#
# Youngs Moduli (GPa) = 75.31984 195.83526 121.80122
#
# Poissons Ratio (x) = 0.05325 0.30505
# Poissons Ratio (y) = 0.02048 0.32005
# Poissons Ratio (z) = 0.18864 0.51459
#
# Static dielectric constant tensor:
#      x y z
#    x 3.306010 0.375880 -0.282320 
#    y 0.375880 2.404210 -0.205680 
#    z -0.282320 -0.205680 2.664640 
# 
# From -- ./inp_files/387724.got.cif
#   From: 2010.05.17/outbox.cif.g08.bks.cpg/sg2_194_cif.got.tgz:387724.got - 2010.06.03 11:33:40.
