data_PCOD9058690
_publ_section_title
;
Structure prediction by ZEFSAII (Michael W. Deem and Ramdas Pophale) SiO2 
 PCOD9058690
Probable space group: P -1
;
_chemical_formula_sum "Si O2"
_cell_formula_units_Z 16
_cell_length_a 15.851372
_cell_length_b 9.603276
_cell_length_c 14.427400
_cell_angle_alpha 76.339719
_cell_angle_beta 147.977339
_cell_angle_gamma 80.414242
_cell_volume 794.835553
_symmetry_space_group_name_H-M "P -1"
_symmetry_group_IT_number 2
_symmetry_cell_setting 'triclinic'
loop_
_space_group_symop_operation_xyz
x,y,z
-x,-y,-z
loop_
_atom_site_type_symbol
_atom_site_label
_atom_site_fract_x
_atom_site_fract_y
_atom_site_fract_z
Si Si1 0.798475 0.573730 0.867251
Si Si2 0.322258 0.918175 0.263667
Si Si3 0.892471 0.022439 0.299983
Si Si4 0.022728 0.348301 0.611129
Si Si5 0.966150 0.163018 0.044314
Si Si6 0.463454 0.480035 0.859895
Si Si7 0.324762 0.182043 0.098930
Si Si8 0.724915 0.128825 0.463355
O O1 0.558991 0.756925 0.563901
O O2 0.772263 0.663653 0.929096
O O3 0.857954 0.367262 0.963108
O O4 0.000000 0.500000 0.000000
O O5 0.345460 0.006768 0.183263
O O6 0.231488 0.819222 0.169876
O O7 0.118063 0.112989 0.105912
O O8 0.866909 0.867271 0.294979
O O9 0.068189 0.971589 0.396951
O O10 0.000000 0.000000 0.500000
O O11 0.657680 0.253624 0.040013
O O12 0.000000 0.500000 0.500000
O O13 0.770472 0.454212 0.378559
O O14 0.160964 0.296249 0.840470
O O15 0.152026 0.958133 0.309986
O O16 0.445544 0.632956 0.756407
O O17 0.500000 0.500000 0.000000
O O18 0.572518 0.085022 0.319280
#
# Coordination Sequence:
#
# PCOD9058690 Si02
#       8
#     2   2   2   2   2   2   2   2
#     4  12  24  44  70  99 136 184 230 281 351 410
#     4  11  23  46  67  96 141 174 226 292 337 406
#     4  11  24  45  74  96 133 186 238 279 345 415
#     4  11  26  46  69 106 142 179 228 290 347 406
#     4  11  24  43  70  99 132 180 230 280 344 412
#     4  11  22  47  70  96 135 180 230 289 338 407
#     4  12  25  47  66 101 146 178 228 291 345 411
#     4  11  24  42  69  98 136 182 230 279 347 404
#
# _framework density 20.129951999999999
#
# number of rings (size 3 to 8) (size 9 to 14) (size 15 to 20)
#    0.000    0.750    5.000    3.750    1.750    0.500 
#    6.750    0.000    0.000    0.000    0.000    0.000 
#    0.000    0.000    0.000    0.000    0.000    0.000 
#
# Total GULP energy -89369.754718 kJ/mol
# GULP energy per Si atom -5585.609670 kJ/mol
# Density = 2.008414 g / cm^3
# Si number density = 20.129952 Si / 1000 Ang^3
#
#
#
# Elastic Constant Matrix: (Units=GPa)
#
#
# Indices 1 2 3 4 5 6 
#
# 1 85.8273 44.0550 34.5508 7.1478 -16.1023 22.1359
# 2 44.0550 108.3839 52.2705 -8.1580 -0.9753 -2.6935
# 3 34.5508 52.2705 124.1532 10.5826 -13.4279 -0.4391
# 4 7.1478 -8.1580 10.5826 47.5694 -3.8242 -1.7420
# 5 -16.1023 -0.9753 -13.4279 -3.8242 41.3723 2.7360
# 6 22.1359 -2.6935 -0.4391 -1.7420 2.7360 31.2547
#
#
#
# Elastic Compliance Matrix: (Units=1/GPa)
#
#
# Indices 1 2 3 4 5 6 
#
# 1 0.024686 -0.010285 -0.001107 -0.005152 0.009821 -0.019532
# 2 -0.010285 0.016445 -0.005071 0.005405 -0.005383 0.009403
# 3 -0.001107 -0.005071 0.011046 -0.002936 0.002757 0.000098
# 4 -0.005152 0.005405 -0.002936 0.023494 -0.001021 0.005473
# 5 0.009821 -0.005383 0.002757 -0.001021 0.029329 -0.010005
# 6 -0.019532 0.009403 0.000098 0.005473 -0.010005 0.047821
#
#
# Mechanical properties :
#
#
# Convention : Reuss Voigt Hill
#
# Bulk Modulus (GPa) = 51.94720 64.45745 58.20233
# Shear Modulus (GPa) = 26.01945 36.53849 31.27897
#
# Velocity S-wave (km/s) = 3.59914 4.26506 3.94617
# Velocity P-wave (km/s) = 6.56762 7.50629 7.05259
#
# Compressibility (1/GPa) = 0.01925032
#
# Stress axis : x y z
#
# Youngs Moduli (GPa) = 40.50951 60.81022 90.52685
#
# Poissons Ratio (x) = 0.62542 0.10025
# Poissons Ratio (y) = 0.41663 0.45906
# Poissons Ratio (z) = 0.04486 0.30837
#
# Static dielectric constant tensor:
#      x y z
#    x 1.820310 0.015750 -0.025420 
#    y 0.015750 1.740230 -0.012330 
#    z -0.025420 -0.012330 1.691220 
# 
# From -- ./inp_files/529576.got.cif
#   From: 2010.05.17/outbox.cif.g08.bks.cpg/sg2_265_cif.got.tgz:529576.got - 2010.06.03 11:33:40.
