data_PCOD9058453
_publ_section_title
;
Structure prediction by ZEFSAII (Michael W. Deem and Ramdas Pophale) SiO2 
 PCOD9058453
Probable space group: P -1
;
_chemical_formula_sum "Si O2"
_cell_formula_units_Z 16
_cell_length_a 9.140282
_cell_length_b 11.736361
_cell_length_c 18.361625
_cell_angle_alpha 132.817317
_cell_angle_beta 37.500638
_cell_angle_gamma 102.991174
_cell_volume 624.599637
_symmetry_space_group_name_H-M "P -1"
_symmetry_group_IT_number 2
_symmetry_cell_setting 'triclinic'
loop_
_space_group_symop_operation_xyz
x,y,z
-x,-y,-z
loop_
_atom_site_type_symbol
_atom_site_label
_atom_site_fract_x
_atom_site_fract_y
_atom_site_fract_z
Si Si1 0.147620 0.093855 0.512056
Si Si2 0.893515 0.780546 0.256887
Si Si3 0.574069 0.509059 0.637742
Si Si4 0.280837 0.211693 0.037398
Si Si5 0.343832 0.234969 0.385170
Si Si6 0.588869 0.271239 0.069947
Si Si7 0.884793 0.657223 0.993620
Si Si8 0.138466 0.832830 0.741478
O O1 0.016749 0.198351 0.688530
O O2 0.083947 0.263242 0.553541
O O3 0.554365 0.875110 0.258167
O O4 0.000000 0.000000 0.500000
O O5 0.130715 0.755254 0.093454
O O6 0.958089 0.567730 0.131989
O O7 0.500000 0.000000 0.500000
O O8 0.689986 0.600442 0.581944
O O9 0.714783 0.293045 0.447992
O O10 0.174436 0.653797 0.865754
O O11 0.663147 0.509465 0.686247
O O12 0.225733 0.338180 0.042658
O O13 0.938877 0.281565 0.227857
O O14 0.418792 0.239950 0.063841
O O15 0.518389 0.966016 0.807306
O O16 0.621513 0.168365 0.306151
O O17 0.785120 0.072136 0.963290
#
# Coordination Sequence:
#
# PCOD9058453 Si02
#       8
#     2   2   2   2   2   2   2   2
#     4  11  26  45  71 106 143 190 236 290 355 425
#     4  12  26  48  73 101 143 192 241 291 355 428
#     4  12  25  43  74 109 136 187 242 297 358 415
#     4  11  24  44  71 103 146 184 229 296 366 421
#     4  11  22  45  74 104 141 182 243 300 347 421
#     4  12  27  46  65 105 153 186 227 299 364 426
#     4  11  25  47  73 105 138 187 247 297 344 425
#     4  12  24  44  72 106 139 184 241 293 356 425
#
# _framework density 25.616409999999998
#
# number of rings (size 3 to 8) (size 9 to 14) (size 15 to 20)
#    0.000    0.500    2.500    7.125    1.750    5.500 
#    0.000    0.000    0.000    0.000    0.000    0.000 
#    0.000    0.000    0.000    0.000    0.000    0.000 
#
# Total GULP energy -89658.751134 kJ/mol
# GULP energy per Si atom -5603.671946 kJ/mol
# Density = 2.555811 g / cm^3
# Si number density = 25.616410 Si / 1000 Ang^3
#
#
#
# Elastic Constant Matrix: (Units=GPa)
#
#
# Indices 1 2 3 4 5 6 
#
# 1 149.7269 31.2380 9.2050 -9.8231 32.3145 2.3408
# 2 31.2380 131.0375 26.1364 -15.1913 -5.9176 -3.6159
# 3 9.2050 26.1364 92.1395 -4.0281 29.2695 0.8130
# 4 -9.8231 -15.1913 -4.0281 45.2454 -0.1371 3.7543
# 5 32.3145 -5.9176 29.2695 -0.1371 52.6198 -13.7627
# 6 2.3408 -3.6159 0.8130 3.7543 -13.7627 37.7884
#
#
#
# Elastic Compliance Matrix: (Units=1/GPa)
#
#
# Indices 1 2 3 4 5 6 
#
# 1 0.009181 -0.003078 0.002807 0.001534 -0.008647 -0.004225
# 2 -0.003078 0.009863 -0.004452 0.001988 0.006357 0.003348
# 3 0.002807 -0.004452 0.015910 0.000958 -0.012537 -0.005603
# 4 0.001534 0.001988 0.000958 0.023428 -0.001967 -0.002969
# 5 -0.008647 0.006357 -0.012537 -0.001967 0.035832 0.014659
# 6 -0.004225 0.003348 -0.005603 -0.002969 0.014659 0.032800
#
#
# Mechanical properties :
#
#
# Convention : Reuss Voigt Hill
#
# Bulk Modulus (GPa) = 39.20332 56.22918 47.71625
# Shear Modulus (GPa) = 34.49162 47.55236 41.02199
#
# Velocity S-wave (km/s) = 3.67340 4.31318 4.00608
# Velocity P-wave (km/s) = 5.77313 6.84126 6.32977
#
# Compressibility (1/GPa) = 0.02550804
#
# Stress axis : x y z
#
# Youngs Moduli (GPa) = 108.91641 101.38778 62.85534
#
# Poissons Ratio (x) = 0.31206 -0.17644
# Poissons Ratio (y) = 0.33523 0.27984
# Poissons Ratio (z) = -0.30573 0.45140
#
# Static dielectric constant tensor:
#      x y z
#    x 2.069770 -0.012720 -0.012560 
#    y -0.012720 1.981840 0.057500 
#    z -0.012560 0.057500 2.086720 
# 
# From -- ./inp_files/436863.got.cif
#   From: 2010.05.17/outbox.cif.g08.bks.cpg/sg2_219_cif.got.tgz:436863.got - 2010.06.03 11:33:40.
