data_PCOD9058409
_publ_section_title
;
Structure prediction by ZEFSAII (Michael W. Deem and Ramdas Pophale) SiO2 
 PCOD9058409
Probable space group: P -1
;
_chemical_formula_sum "Si O2"
_cell_formula_units_Z 15
_cell_length_a 11.458346
_cell_length_b 11.836113
_cell_length_c 11.724416
_cell_angle_alpha 96.205676
_cell_angle_beta 39.897183
_cell_angle_gamma 65.325435
_cell_volume 628.449905
_symmetry_space_group_name_H-M "P -1"
_symmetry_group_IT_number 2
_symmetry_cell_setting 'triclinic'
loop_
_space_group_symop_operation_xyz
x,y,z
-x,-y,-z
loop_
_atom_site_type_symbol
_atom_site_label
_atom_site_fract_x
_atom_site_fract_y
_atom_site_fract_z
Si Si1 0.844210 0.370394 0.655606
Si Si2 0.671145 0.810111 0.899199
Si Si3 0.812586 0.697127 0.024284
Si Si4 0.418241 0.456272 0.657312
Si Si5 0.270316 0.787704 0.166867
Si Si6 0.500000 0.000000 0.500000
Si Si7 0.914524 0.385924 0.869218
Si Si8 0.239421 0.941324 0.609607
O O1 0.842432 0.232412 0.642176
O O2 0.929812 0.351072 0.720691
O O3 0.056841 0.330668 0.405955
O O4 0.526991 0.581464 0.903857
O O5 0.793893 0.773264 0.929279
O O6 0.443722 0.816780 0.072568
O O7 0.500000 0.000000 0.000000
O O8 0.806771 0.568892 0.978818
O O9 0.105538 0.562162 0.861067
O O10 0.528009 0.870327 0.332397
O O11 0.500000 0.500000 0.500000
O O12 0.649674 0.239788 0.471567
O O13 0.331511 0.549683 0.855568
O O14 0.017518 0.928835 0.276856
O O15 0.231095 0.028705 0.732659
O O16 0.760804 0.796820 0.348720
#
# Coordination Sequence:
#
# PCOD9058409 Si02
#       8
#     2   2   2   2   2   1   2   2
#     4  11  25  48  72 100 144 186 228 291 353 410
#     4  12  28  45  71 107 140 188 233 290 345 415
#     4  11  23  46  69  94 142 186 228 281 352 416
#     4  11  25  45  68 103 139 180 231 284 347 423
#     4  11  25  45  70 104 138 183 237 285 347 420
#     4  12  20  42  74  96 130 176 242 284 344 410
#     4  11  22  45  72  95 134 187 224 280 357 408
#     4  11  23  44  72 101 135 183 233 288 345 419
#
# _framework density 23.86825
#
# number of rings (size 3 to 8) (size 9 to 14) (size 15 to 20)
#    0.000    0.800    5.333    2.000    1.867    4.267 
#    0.000    0.667    0.000    0.000    0.000    0.000 
#    0.000    0.000    0.000    0.000    0.000    0.000 
#
# Total GULP energy -83604.693490 kJ/mol
# GULP energy per Si atom -5573.646233 kJ/mol
# Density = 2.381392 g / cm^3
# Si number density = 23.868250 Si / 1000 Ang^3
#
#
#
# Elastic Constant Matrix: (Units=GPa)
#
#
# Indices 1 2 3 4 5 6 
#
# 1 96.0146 32.6700 16.3209 4.2949 -14.8792 -28.4756
# 2 32.6700 144.6898 32.5034 30.3001 -7.5725 -21.7289
# 3 16.3209 32.5034 81.3386 7.5408 -8.8244 -17.9211
# 4 4.2949 30.3001 7.5408 45.7129 -17.6502 -9.9291
# 5 -14.8792 -7.5725 -8.8244 -17.6502 35.9858 1.7502
# 6 -28.4756 -21.7289 -17.9211 -9.9291 1.7502 50.7287
#
#
#
# Elastic Compliance Matrix: (Units=1/GPa)
#
#
# Indices 1 2 3 4 5 6 
#
# 1 0.014615 -0.002864 0.000289 0.005128 0.007646 0.007819
# 2 -0.002864 0.009482 -0.002889 -0.006729 -0.003209 0.000227
# 3 0.000289 -0.002889 0.014579 0.001888 0.003803 0.004313
# 4 0.005128 -0.006729 0.001888 0.033696 0.017371 0.006659
# 5 0.007646 -0.003209 0.003803 0.017371 0.039421 0.006301
# 6 0.007819 0.000227 0.004313 0.006659 0.006301 0.026809
#
#
# Mechanical properties :
#
#
# Convention : Reuss Voigt Hill
#
# Bulk Modulus (GPa) = 36.03946 53.89240 44.96593
# Shear Modulus (GPa) = 31.49014 42.52206 37.00610
#
# Velocity S-wave (km/s) = 3.63620 4.22540 3.94182
# Velocity P-wave (km/s) = 5.72376 6.81421 6.29265
#
# Compressibility (1/GPa) = 0.02774736
#
# Stress axis : x y z
#
# Youngs Moduli (GPa) = 68.42260 105.45863 68.59388
#
# Poissons Ratio (x) = 0.30208 -0.01982
# Poissons Ratio (y) = 0.19599 0.19815
# Poissons Ratio (z) = -0.01977 0.30464
#
# Static dielectric constant tensor:
#      x y z
#    x 0.316140 -0.282490 -0.806140 
#    y -0.282490 1.893780 -0.246030 
#    z -0.806140 -0.246030 1.647800 
# 
# From -- ./inp_files/425883.got.cif
#   From: 2010.05.17/outbox.cif.g08.bks.cpg/sg2_213_cif.got.tgz:425883.got - 2010.06.03 11:33:40.
