data_PCOD9058898
_publ_section_title
;
Structure prediction by ZEFSAII (Michael W. Deem and Ramdas Pophale) SiO2 
 PCOD9058898
Probable space group: P -1
;
_chemical_formula_sum "Si O2"
_cell_formula_units_Z 16
_cell_length_a 15.433124
_cell_length_b 9.315816
_cell_length_c 14.926930
_cell_angle_alpha 39.348078
_cell_angle_beta 141.939491
_cell_angle_gamma 140.660558
_cell_volume 760.912892
_symmetry_space_group_name_H-M "P -1"
_symmetry_group_IT_number 2
_symmetry_cell_setting 'triclinic'
loop_
_space_group_symop_operation_xyz
x,y,z
-x,-y,-z
loop_
_atom_site_type_symbol
_atom_site_label
_atom_site_fract_x
_atom_site_fract_y
_atom_site_fract_z
Si Si1 0.040264 0.843776 0.186214
Si Si2 0.999316 0.891260 0.796405
Si Si3 0.360498 0.891753 0.340670
Si Si4 0.368561 0.738550 0.053648
Si Si5 0.236768 0.665373 0.160956
Si Si6 0.159921 0.189378 0.604980
Si Si7 0.101519 0.693375 0.736957
Si Si8 0.480827 0.613964 0.704182
O O1 0.212735 0.868711 0.291590
O O2 0.920558 0.549206 0.222347
O O3 0.034074 0.954386 0.225375
O O4 0.000000 0.000000 0.000000
O O5 0.856175 0.630526 0.783555
O O6 0.056573 0.041904 0.677302
O O7 0.128426 0.806315 0.980909
O O8 0.297463 0.745269 0.269977
O O9 0.466071 0.777429 0.530540
O O10 0.461233 0.186863 0.265359
O O11 0.371197 0.752549 0.155235
O O12 0.404739 0.513941 0.156919
O O13 0.191076 0.667693 0.911119
O O14 0.500000 0.000000 0.000000
O O15 0.311940 0.391014 0.676858
O O16 0.068327 0.310196 0.412579
O O17 0.194655 0.997461 0.661131
#
# Coordination Sequence:
#
# PCOD9058898 Si02
#       8
#     2   2   2   2   2   2   2   2
#     4  12  22  40  69 100 129 173 220 276 329 385
#     4  11  23  38  67 101 136 166 222 281 324 389
#     4  11  24  43  68  94 133 176 218 275 332 392
#     4  12  24  44  67  99 133 175 217 269 332 402
#     4  11  23  41  65 100 132 170 225 272 329 396
#     4  11  23  44  69  97 134 179 216 278 328 393
#     4  11  23  41  70  97 130 176 224 264 336 388
#     4  11  24  45  67  94 138 175 218 269 336 392
#
# _framework density 21.027373999999998
#
# number of rings (size 3 to 8) (size 9 to 14) (size 15 to 20)
#    0.000    0.750    5.000    3.000    1.750    1.000 
#    2.250    2.500    0.000    0.000    0.000    0.000 
#    0.000    0.000    0.000    0.000    0.000    0.000 
#
# Total GULP energy -89180.643570 kJ/mol
# GULP energy per Si atom -5573.790223 kJ/mol
# Density = 2.097951 g / cm^3
# Si number density = 21.027374 Si / 1000 Ang^3
#
#
#
# Elastic Constant Matrix: (Units=GPa)
#
#
# Indices 1 2 3 4 5 6 
#
# 1 56.3924 50.1414 21.0942 -12.0817 -19.2354 -8.8196
# 2 50.1414 153.1404 26.8663 -18.2227 -12.5741 -26.4152
# 3 21.0942 26.8663 99.3308 -3.9129 10.8845 -12.9333
# 4 -12.0817 -18.2227 -3.9129 37.2686 -7.1689 3.4330
# 5 -19.2354 -12.5741 10.8845 -7.1689 20.9558 1.0495
# 6 -8.8196 -26.4152 -12.9333 3.4330 1.0495 39.1694
#
#
#
# Elastic Compliance Matrix: (Units=1/GPa)
#
#
# Indices 1 2 3 4 5 6 
#
# 1 0.060856 -0.008215 -0.017479 0.027414 0.069482 -0.001873
# 2 -0.008215 0.010213 -0.000214 0.001675 -0.000971 0.004846
# 3 -0.017479 -0.000214 0.016985 -0.009758 -0.028491 0.003146
# 4 0.027414 0.001675 -0.009758 0.044564 0.046536 -0.001072
# 5 0.069482 -0.000971 -0.028491 0.046536 0.141747 -0.002294
# 6 -0.001873 0.004846 0.003146 -0.001072 -0.002294 0.029571
#
#
# Mechanical properties :
#
#
# Convention : Reuss Voigt Hill
#
# Bulk Modulus (GPa) = 27.59682 56.11862 41.85772
# Shear Modulus (GPa) = 13.59316 33.52954 23.56135
#
# Velocity S-wave (km/s) = 2.54530 3.99753 3.35103
# Velocity P-wave (km/s) = 4.66806 6.93205 5.90949
#
# Compressibility (1/GPa) = 0.03623605
#
# Stress axis : x y z
#
# Youngs Moduli (GPa) = 16.43215 97.91657 58.87700
#
# Poissons Ratio (x) = 0.80439 1.02913
# Poissons Ratio (y) = 0.13499 0.01262
# Poissons Ratio (z) = 0.28722 0.02099
#
# Static dielectric constant tensor:
#      x y z
#    x 1.747630 0.017380 0.014200 
#    y 0.017380 1.828250 -0.013410 
#    z 0.014200 -0.013410 1.775820 
# 
# From -- ./inp_files/328849.got.cif
#   From: 2010.05.17/outbox.cif.g08.bks.cpg/sg2_165_cif.got.tgz:328849.got - 2010.06.03 11:33:40.
