data_PCOD9058685
_publ_section_title
;
Structure prediction by ZEFSAII (Michael W. Deem and Ramdas Pophale) SiO2 
 PCOD9058685
Probable space group: P -1
;
_chemical_formula_sum "Si O2"
_cell_formula_units_Z 14
_cell_length_a 8.726587
_cell_length_b 12.776834
_cell_length_c 8.546431
_cell_angle_alpha 61.250052
_cell_angle_beta 126.717912
_cell_angle_gamma 99.704936
_cell_volume 660.011977
_symmetry_space_group_name_H-M "P -1"
_symmetry_group_IT_number 2
_symmetry_cell_setting 'triclinic'
loop_
_space_group_symop_operation_xyz
x,y,z
-x,-y,-z
loop_
_atom_site_type_symbol
_atom_site_label
_atom_site_fract_x
_atom_site_fract_y
_atom_site_fract_z
Si Si1 0.958702 0.194095 0.600545
Si Si2 0.389349 0.079113 0.009951
Si Si3 0.386280 0.342878 0.165138
Si Si4 0.310895 0.537283 0.254515
Si Si5 0.661515 0.274050 0.117570
Si Si6 0.990651 0.399756 0.701776
Si Si7 0.623197 0.087870 0.596002
O O1 0.873937 0.237548 0.348606
O O2 0.907258 0.295507 0.631501
O O3 0.828836 0.093802 0.637428
O O4 0.188217 0.156279 0.772331
O O5 0.534416 0.166247 0.102428
O O6 0.500000 0.000000 0.000000
O O7 0.336888 0.977823 0.168315
O O8 0.320797 0.441962 0.187100
O O9 0.546586 0.361125 0.118675
O O10 0.488589 0.220026 0.403530
O O11 0.196702 0.340392 0.944557
O O12 0.500000 0.500000 0.500000
O O13 0.136972 0.547150 0.265616
O O14 0.321403 0.662819 0.082165
O O15 0.000000 0.500000 0.500000
O O16 0.500000 0.000000 0.500000
#
# Coordination Sequence:
#
# PCOD9058685 Si02
#       7
#     2   2   2   2   2   2   2
#     4  11  24  47  74  98 142 193 228 291 364 412
#     4  12  27  43  72 103 142 185 239 294 345 426
#     4  11  23  44  72 100 144 187 230 298 345 421
#     4  12  26  42  70 106 140 188 237 290 356 423
#     4  11  24  48  68 104 146 184 237 291 355 418
#     4  12  25  44  72 105 142 185 237 292 358 424
#     4  11  22  47  70 100 138 187 236 281 355 418
#
# _framework density 21.211735000000001
#
# number of rings (size 3 to 8) (size 9 to 14) (size 15 to 20)
#    0.000    0.571    4.286    4.714    4.000    1.714 
#    0.000    0.000    0.000    0.000    0.000    0.000 
#    0.000    0.000    0.000    0.000    0.000    0.000 
#
# Total GULP energy -78163.205154 kJ/mol
# GULP energy per Si atom -5583.086082 kJ/mol
# Density = 2.116346 g / cm^3
# Si number density = 21.211735 Si / 1000 Ang^3
#
#
#
# Elastic Constant Matrix: (Units=GPa)
#
#
# Indices 1 2 3 4 5 6 
#
# 1 97.2969 27.5812 44.2921 -2.6257 -10.0135 -15.3986
# 2 27.5812 86.7916 22.3938 10.1446 5.7186 -4.1731
# 3 44.2921 22.3938 166.5508 15.2365 1.2178 10.1256
# 4 -2.6257 10.1446 15.2365 35.3688 8.0591 1.2992
# 5 -10.0135 5.7186 1.2178 8.0591 46.6497 -2.2461
# 6 -15.3986 -4.1731 10.1256 1.2992 -2.2461 30.1496
#
#
#
# Elastic Compliance Matrix: (Units=1/GPa)
#
#
# Indices 1 2 3 4 5 6 
#
# 1 0.015237 -0.003882 -0.004366 0.002938 0.003780 0.008866
# 2 -0.003882 0.013404 -0.000436 -0.003523 -0.001855 0.000033
# 3 -0.004366 -0.000436 0.007817 -0.003215 -0.000765 -0.004834
# 4 0.002938 -0.003523 -0.003215 0.031861 -0.004339 0.000396
# 5 0.003780 -0.001855 -0.000765 -0.004339 0.023431 0.003863
# 6 0.008866 0.000033 -0.004834 0.000396 0.003863 0.039595
#
#
# Mechanical properties :
#
#
# Convention : Reuss Voigt Hill
#
# Bulk Modulus (GPa) = 52.38066 59.90818 56.14442
# Shear Modulus (GPa) = 32.24242 39.52508 35.88375
#
# Velocity S-wave (km/s) = 3.90298 4.32135 4.11748
# Velocity P-wave (km/s) = 6.71259 7.29404 7.00934
#
# Compressibility (1/GPa) = 0.01909101
#
# Stress axis : x y z
#
# Youngs Moduli (GPa) = 65.62952 74.60701 127.92067
#
# Poissons Ratio (x) = 0.28962 0.55845
# Poissons Ratio (y) = 0.25477 0.05577
# Poissons Ratio (z) = 0.28651 0.03252
#
# Static dielectric constant tensor:
#      x y z
#    x 1.642550 -0.035520 0.121490 
#    y -0.035520 1.801430 0.029280 
#    z 0.121490 0.029280 1.668570 
# 
# From -- ./inp_files/185465.got.cif
#   From: 2010.05.17/outbox.cif.g08.bks.cpg/sg2_93_cif.got.tgz:185465.got - 2010.06.03 11:33:40.
