data_PCOD9058073
_publ_section_title
;
Structure prediction by ZEFSAII (Michael W. Deem and Ramdas Pophale) SiO2 
 PCOD9058073
Probable space group: P -1
;
_chemical_formula_sum "Si O2"
_cell_formula_units_Z 14
_cell_length_a 18.189305
_cell_length_b 11.551147
_cell_length_c 9.378537
_cell_angle_alpha 128.652738
_cell_angle_beta 144.834425
_cell_angle_gamma 32.832313
_cell_volume 602.944801
_symmetry_space_group_name_H-M "P -1"
_symmetry_group_IT_number 2
_symmetry_cell_setting 'triclinic'
loop_
_space_group_symop_operation_xyz
x,y,z
-x,-y,-z
loop_
_atom_site_type_symbol
_atom_site_label
_atom_site_fract_x
_atom_site_fract_y
_atom_site_fract_z
Si Si1 0.865984 0.939001 0.876660
Si Si2 0.129621 0.467154 0.007209
Si Si3 0.044547 0.094833 0.327008
Si Si4 0.655474 0.750051 0.106024
Si Si5 0.546111 0.697527 0.413198
Si Si6 0.178577 0.469985 0.518842
Si Si7 0.556906 0.380528 0.345086
O O1 0.890367 0.892217 0.710584
O O2 0.029291 0.711621 0.039754
O O3 0.665742 0.067605 0.722352
O O4 0.900390 0.084714 0.059857
O O5 0.192149 0.381633 0.878244
O O6 0.964514 0.489220 0.784811
O O7 0.318864 0.320414 0.283933
O O8 0.941534 0.298323 0.420475
O O9 0.232639 0.862408 0.508663
O O10 0.746700 0.698358 0.365071
O O11 0.571818 0.654183 0.908663
O O12 0.500000 0.000000 0.000000
O O13 0.640383 0.629465 0.356605
O O14 0.544631 0.527896 0.331190
O O15 0.500000 0.500000 0.500000
#
# Coordination Sequence:
#
# PCOD9058073 Si02
#       7
#     2   2   2   2   2   2   2
#     4  11  23  43  78 100 142 189 247 289 359 435
#     4  12  25  49  73 103 146 199 244 288 364 449
#     4  11  22  44  70 109 138 189 241 300 352 432
#     4  12  26  46  76 111 142 192 246 302 360 433
#     4  12  27  48  74 110 148 191 242 302 367 425
#     4  12  29  46  71 109 154 185 241 310 366 418
#     4  12  22  44  77 105 143 189 247 292 353 441
#
# _framework density 23.219370999999999
#
# number of rings (size 3 to 8) (size 9 to 14) (size 15 to 20)
#    0.000    0.286    5.714    2.571    4.000    3.429 
#    5.143    0.000    0.000    0.000    0.000    0.000 
#    0.000    0.000    0.000    0.000    0.000    0.000 
#
# Total GULP energy -78417.983471 kJ/mol
# GULP energy per Si atom -5601.284534 kJ/mol
# Density = 2.316652 g / cm^3
# Si number density = 23.219371 Si / 1000 Ang^3
#
#
#
# Elastic Constant Matrix: (Units=GPa)
#
#
# Indices 1 2 3 4 5 6 
#
# 1 89.9839 29.3448 19.2549 10.5191 20.2834 -28.1654
# 2 29.3448 122.2664 30.3345 -5.1956 1.5855 -18.7727
# 3 19.2549 30.3345 75.1446 2.4137 12.8216 -11.2703
# 4 10.5191 -5.1956 2.4137 44.9565 0.2020 11.6680
# 5 20.2834 1.5855 12.8216 0.2020 35.7803 -5.9125
# 6 -28.1654 -18.7727 -11.2703 11.6680 -5.9125 37.9247
#
#
#
# Elastic Compliance Matrix: (Units=1/GPa)
#
#
# Indices 1 2 3 4 5 6 
#
# 1 0.019400 -0.002700 -0.000008 -0.008545 -0.008451 0.014381
# 2 -0.002700 0.010029 -0.003582 0.001490 0.002667 0.001852
# 3 -0.000008 -0.003582 0.016119 -0.001987 -0.005135 0.002822
# 4 -0.008545 0.001490 -0.001987 0.028255 0.002946 -0.014433
# 5 -0.008451 0.002667 -0.005135 0.002946 0.034102 -0.002072
# 6 0.014381 0.001852 0.002822 -0.014433 -0.002072 0.042921
#
#
# Mechanical properties :
#
#
# Convention : Reuss Voigt Hill
#
# Bulk Modulus (GPa) = 30.33173 49.47369 39.90271
# Shear Modulus (GPa) = 28.67065 37.62967 33.15016
#
# Velocity S-wave (km/s) = 3.51775 4.03005 3.78258
# Velocity P-wave (km/s) = 5.43975 6.55808 6.02492
#
# Compressibility (1/GPa) = 0.03296878
#
# Stress axis : x y z
#
# Youngs Moduli (GPa) = 51.54546 99.71525 62.03902
#
# Poissons Ratio (x) = 0.26921 0.00050
# Poissons Ratio (y) = 0.13916 0.22221
# Poissons Ratio (z) = 0.00041 0.35716
#
# Static dielectric constant tensor:
#      x y z
#    x 1.894880 0.013890 0.018050 
#    y 0.013890 1.819490 0.005990 
#    z 0.018050 0.005990 1.918500 
# 
# From -- ./inp_files/298354.got.cif
#   From: 2010.05.17/outbox.cif.g08.bks.cpg/sg2_150_cif.got.tgz:298354.got - 2010.06.03 11:33:40.
