data_PCOD9058187
_publ_section_title
;
Structure prediction by ZEFSAII (Michael W. Deem and Ramdas Pophale) SiO2 
 PCOD9058187
Probable space group: P -1
;
_chemical_formula_sum "Si O2"
_cell_formula_units_Z 16
_cell_length_a 12.660051
_cell_length_b 19.702207
_cell_length_c 8.974032
_cell_angle_alpha 76.471994
_cell_angle_beta 130.726292
_cell_angle_gamma 143.909276
_cell_volume 753.295143
_symmetry_space_group_name_H-M "P -1"
_symmetry_group_IT_number 2
_symmetry_cell_setting 'triclinic'
loop_
_space_group_symop_operation_xyz
x,y,z
-x,-y,-z
loop_
_atom_site_type_symbol
_atom_site_label
_atom_site_fract_x
_atom_site_fract_y
_atom_site_fract_z
Si Si1 0.348820 0.363865 0.491323
Si Si2 0.767447 0.647943 0.278719
Si Si3 0.850894 0.128707 0.919923
Si Si4 0.673358 0.194787 0.294800
Si Si5 0.249926 0.760884 0.328435
Si Si6 0.233174 0.557790 0.094635
Si Si7 0.715948 0.862114 0.193191
Si Si8 0.946696 0.088217 0.744669
O O1 0.500000 0.500000 0.500000
O O2 0.348950 0.372059 0.663875
O O3 0.540498 0.381450 0.617641
O O4 0.030037 0.215481 0.193213
O O5 0.999226 0.688266 0.514083
O O6 0.946007 0.792336 0.295810
O O7 0.500000 0.500000 0.000000
O O8 0.847070 0.200877 0.794377
O O9 0.973801 0.122226 0.927066
O O10 0.516746 0.957433 0.750025
O O11 0.723356 0.253789 0.469867
O O12 0.462328 0.147162 0.017823
O O13 0.586970 0.908911 0.488831
O O14 0.984803 0.597610 0.097324
O O15 0.452830 0.698138 0.113282
O O16 0.000000 0.500000 0.000000
O O17 0.855200 0.884174 0.165260
O O18 0.000000 0.000000 0.500000
#
# Coordination Sequence:
#
# PCOD9058187 Si02
#       8
#     2   2   2   2   2   2   2   2
#     4  12  25  41  69 103 139 186 237 293 353 414
#     4  12  24  44  72 108 141 186 243 298 348 419
#     4  11  22  44  73 106 139 178 244 295 355 415
#     4  11  25  43  73 103 137 189 232 293 362 423
#     4  11  22  46  71 103 142 180 241 294 355 418
#     4  12  27  46  66 100 147 188 228 297 359 423
#     4  12  28  48  68 106 147 188 240 291 354 434
#     4  11  23  45  75  98 141 189 229 303 349 418
#
# _framework density 21.240013999999999
#
# number of rings (size 3 to 8) (size 9 to 14) (size 15 to 20)
#    0.000    0.500    5.000    3.750    1.750    5.000 
#    0.000    0.000    0.000    0.000    0.000    0.000 
#    0.000    0.000    0.000    0.000    0.000    0.000 
#
# Total GULP energy -89310.059262 kJ/mol
# GULP energy per Si atom -5581.878704 kJ/mol
# Density = 2.119167 g / cm^3
# Si number density = 21.240014 Si / 1000 Ang^3
#
#
#
# Elastic Constant Matrix: (Units=GPa)
#
#
# Indices 1 2 3 4 5 6 
#
# 1 109.8780 23.4731 47.0197 8.2499 23.0895 2.9624
# 2 23.4731 86.7299 24.3088 13.4894 -0.5115 -4.1902
# 3 47.0197 24.3088 127.8940 3.0302 -0.5450 -11.0795
# 4 8.2499 13.4894 3.0302 38.3303 -7.2114 6.7735
# 5 23.0895 -0.5115 -0.5450 -7.2114 35.7430 0.9104
# 6 2.9624 -4.1902 -11.0795 6.7735 0.9104 25.3467
#
#
#
# Elastic Compliance Matrix: (Units=1/GPa)
#
#
# Indices 1 2 3 4 5 6 
#
# 1 0.014058 -0.002109 -0.004990 -0.003200 -0.009757 -0.002967
# 2 -0.002109 0.013352 -0.001387 -0.004574 0.000532 0.003051
# 3 -0.004990 -0.001387 0.010316 0.000567 0.003359 0.004591
# 4 -0.003200 -0.004574 0.000567 0.031527 0.008597 -0.008868
# 5 -0.009757 0.000532 0.003359 0.008597 0.036097 -0.000898
# 6 -0.002967 0.003051 0.004591 -0.008868 -0.000898 0.044713
#
#
# Mechanical properties :
#
#
# Convention : Reuss Voigt Hill
#
# Bulk Modulus (GPa) = 48.18861 57.12279 52.65570
# Shear Modulus (GPa) = 28.74333 35.19734 31.97034
#
# Velocity S-wave (km/s) = 3.68266 4.07520 3.88389
# Velocity P-wave (km/s) = 6.38902 7.00680 6.70503
#
# Compressibility (1/GPa) = 0.02075179
#
# Stress axis : x y z
#
# Youngs Moduli (GPa) = 71.13528 74.89676 96.93801
#
# Poissons Ratio (x) = 0.15797 0.48374
# Poissons Ratio (y) = 0.15004 0.13449
# Poissons Ratio (z) = 0.35498 0.10391
#
# Static dielectric constant tensor:
#      x y z
#    x 1.860400 -0.005240 -0.017210 
#    y -0.005240 1.782380 0.021990 
#    z -0.017210 0.021990 1.791700 
# 
# From -- ./inp_files/279434.got.cif
#   From: 2010.05.17/outbox.cif.g08.bks.cpg/sg2_140_cif.got.tgz:279434.got - 2010.06.03 11:33:40.
