data_PCOD9058694
_publ_section_title
;
Structure prediction by ZEFSAII (Michael W. Deem and Ramdas Pophale) SiO2 
 PCOD9058694
Probable space group: P -1
;
_chemical_formula_sum "Si O2"
_cell_formula_units_Z 14
_cell_length_a 9.350734
_cell_length_b 17.259884
_cell_length_c 14.097439
_cell_angle_alpha 25.028578
_cell_angle_beta 44.207922
_cell_angle_gamma 51.571526
_cell_volume 668.148871
_symmetry_space_group_name_H-M "P -1"
_symmetry_group_IT_number 2
_symmetry_cell_setting 'triclinic'
loop_
_space_group_symop_operation_xyz
x,y,z
-x,-y,-z
loop_
_atom_site_type_symbol
_atom_site_label
_atom_site_fract_x
_atom_site_fract_y
_atom_site_fract_z
Si Si1 0.472335 0.343507 0.462409
Si Si2 0.336530 0.036098 0.741010
Si Si3 0.809687 0.561093 0.960223
Si Si4 0.944731 0.758483 0.487645
Si Si5 0.238033 0.078816 0.300130
Si Si6 0.691508 0.056599 0.781059
Si Si7 0.166145 0.626362 0.343428
O O1 0.602856 0.425493 0.219635
O O2 0.641787 0.253427 0.544360
O O3 0.358044 0.501016 0.392609
O O4 0.317447 0.171619 0.690516
O O5 0.582173 0.030144 0.619633
O O6 0.237801 0.828500 0.040716
O O7 0.230617 0.134263 0.597101
O O8 0.753896 0.738998 0.846021
O O9 0.000000 0.500000 0.000000
O O10 0.867070 0.614716 0.765955
O O11 0.099621 0.911029 0.296925
O O12 0.068066 0.664558 0.449724
O O13 0.297812 0.083631 0.155399
O O14 0.000000 0.000000 0.500000
O O15 0.500000 0.000000 0.000000
O O16 0.000000 0.500000 0.500000
#
# Coordination Sequence:
#
# PCOD9058694 Si02
#       7
#     2   2   2   2   2   2   2
#     4  11  24  48  72  97 150 188 229 306 353 414
#     4  11  25  47  74 104 147 184 239 301 356 420
#     4  12  24  47  69 105 145 188 241 294 353 430
#     4  12  25  44  73 105 145 189 240 294 358 426
#     4  11  22  47  70  99 147 190 226 296 358 411
#     4  11  25  43  71 106 138 188 245 292 356 422
#     4  12  26  47  74 107 143 188 237 299 361 419
#
# _framework density 20.953413000000001
#
# number of rings (size 3 to 8) (size 9 to 14) (size 15 to 20)
#    0.000    0.571    5.714    3.000    2.000    2.857 
#    0.000    0.000    0.000    0.000    0.000    0.000 
#    0.000    0.000    0.000    0.000    0.000    0.000 
#
# Total GULP energy -78159.614925 kJ/mol
# GULP energy per Si atom -5582.829637 kJ/mol
# Density = 2.090572 g / cm^3
# Si number density = 20.953413 Si / 1000 Ang^3
#
#
#
# Elastic Constant Matrix: (Units=GPa)
#
#
# Indices 1 2 3 4 5 6 
#
# 1 136.2553 41.2228 28.0073 -0.7148 10.1780 -6.3946
# 2 41.2228 119.4282 52.3733 -1.6157 23.2775 -9.9855
# 3 28.0073 52.3733 115.0255 5.9105 -0.5712 0.1050
# 4 -0.7148 -1.6157 5.9105 45.2132 3.7862 -1.8560
# 5 10.1780 23.2775 -0.5712 3.7862 32.3173 -1.2735
# 6 -6.3946 -9.9855 0.1050 -1.8560 -1.2735 29.5518
#
#
#
# Elastic Compliance Matrix: (Units=1/GPa)
#
#
# Indices 1 2 3 4 5 6 
#
# 1 0.008332 -0.002070 -0.001111 0.000344 -0.001151 0.001080
# 2 -0.002070 0.013970 -0.006022 0.002224 -0.009619 0.004019
# 3 -0.001111 -0.006022 0.011852 -0.002299 0.005078 -0.002243
# 4 0.000344 0.002224 -0.002299 0.022954 -0.004358 0.002088
# 5 -0.001151 -0.009619 0.005078 -0.004358 0.038751 -0.002121
# 6 0.001080 0.004019 -0.002243 0.002088 -0.002121 0.035478
#
#
# Mechanical properties :
#
#
# Convention : Reuss Voigt Hill
#
# Bulk Modulus (GPa) = 63.50131 68.21286 65.85708
# Shear Modulus (GPa) = 32.26006 38.02352 35.14179
#
# Velocity S-wave (km/s) = 3.92804 4.26451 4.09973
# Velocity P-wave (km/s) = 7.13754 7.54144 7.34227
#
# Compressibility (1/GPa) = 0.01574771
#
# Stress axis : x y z
#
# Youngs Moduli (GPa) = 120.01834 71.58441 84.37612
#
# Poissons Ratio (x) = 0.14816 0.09372
# Poissons Ratio (y) = 0.24840 0.50814
# Poissons Ratio (z) = 0.13331 0.43111
#
# Static dielectric constant tensor:
#      x y z
#    x 1.790660 -0.045580 -0.012200 
#    y -0.045580 1.795220 -0.047670 
#    z -0.012200 -0.047670 1.896330 
# 
# From -- ./inp_files/398036.got.cif
#   From: 2010.05.17/outbox.cif.g08.bks.cpg/sg2_200_cif.got.tgz:398036.got - 2010.06.03 11:33:40.
