data_PCOD9058733
_publ_section_title
;
Structure prediction by ZEFSAII (Michael W. Deem and Ramdas Pophale) SiO2 
 PCOD9058733
Probable space group: P -1
;
_chemical_formula_sum "Si O2"
_cell_formula_units_Z 14
_cell_length_a 9.472805
_cell_length_b 9.608694
_cell_length_c 18.445606
_cell_angle_alpha 123.081930
_cell_angle_beta 25.528153
_cell_angle_gamma 130.701887
_cell_volume 543.843434
_symmetry_space_group_name_H-M "P -1"
_symmetry_group_IT_number 2
_symmetry_cell_setting 'triclinic'
loop_
_space_group_symop_operation_xyz
x,y,z
-x,-y,-z
loop_
_atom_site_type_symbol
_atom_site_label
_atom_site_fract_x
_atom_site_fract_y
_atom_site_fract_z
Si Si1 0.475179 0.286275 0.740870
Si Si2 0.749044 0.691841 0.399382
Si Si3 0.942098 0.062907 0.803425
Si Si4 0.279595 0.585946 0.081349
Si Si5 0.386623 0.307388 0.205534
Si Si6 0.832381 0.247990 0.116900
Si Si7 0.333151 0.001479 0.389626
O O1 0.632548 0.503214 0.709098
O O2 0.757955 0.202838 0.599222
O O3 0.161634 0.120439 0.792204
O O4 0.233681 0.278794 0.919718
O O5 0.500000 0.500000 0.500000
O O6 0.608917 0.839065 0.534264
O O7 0.168562 0.716144 0.221286
O O8 0.818726 0.749307 0.298645
O O9 0.953941 0.891052 0.706095
O O10 0.500000 0.000000 0.000000
O O11 0.893924 0.420001 0.188624
O O12 0.500000 0.500000 0.000000
O O13 0.460989 0.660100 0.939634
O O14 0.633541 0.269085 0.141529
O O15 0.645039 0.072362 0.204597
O O16 0.000000 0.000000 0.500000
#
# Coordination Sequence:
#
# PCOD9058733 Si02
#       7
#     2   2   2   2   2   2   2
#     4  11  26  47  77 112 150 202 270 318 376 471
#     4  12  26  49  70 110 161 194 246 329 397 454
#     4  12  24  46  84 114 146 205 268 319 388 472
#     4  11  24  42  78 112 144 203 263 321 385 459
#     4  11  24  47  81 112 148 196 268 324 377 451
#     4  11  22  47  75 108 152 201 261 321 381 464
#     4  12  29  45  67 109 159 207 247 318 403 458
#
# _framework density 25.742702999999999
#
# number of rings (size 3 to 8) (size 9 to 14) (size 15 to 20)
#    0.000    0.571    4.286    3.857    6.000    0.571 
#    0.000    4.286    0.000    0.000    0.000    0.000 
#    0.000    0.000    0.000    0.000    0.000    0.000 
#
# Total GULP energy -77940.798641 kJ/mol
# GULP energy per Si atom -5567.199903 kJ/mol
# Density = 2.568411 g / cm^3
# Si number density = 25.742703 Si / 1000 Ang^3
#
#
#
# Elastic Constant Matrix: (Units=GPa)
#
#
# Indices 1 2 3 4 5 6 
#
# 1 98.4806 35.3697 23.9725 10.1475 6.9364 -0.6117
# 2 35.3697 179.8247 32.2372 28.5980 5.2031 -8.5348
# 3 23.9725 32.2372 85.4648 15.7623 20.1365 -21.7126
# 4 10.1475 28.5980 15.7623 56.1115 -17.9542 2.3153
# 5 6.9364 5.2031 20.1365 -17.9542 26.8864 -3.6187
# 6 -0.6117 -8.5348 -21.7126 2.3153 -3.6187 44.6429
#
#
#
# Elastic Compliance Matrix: (Units=1/GPa)
#
#
# Indices 1 2 3 4 5 6 
#
# 1 0.011563 -0.001695 -0.002314 -0.001112 -0.001851 -0.001383
# 2 -0.001695 0.006750 -0.000233 -0.004182 -0.003339 0.001100
# 3 -0.002314 -0.000233 0.023809 -0.014794 -0.025697 0.010188
# 4 -0.001112 -0.004182 -0.014794 0.035854 0.035174 -0.007018
# 5 -0.001851 -0.003339 -0.025697 0.035174 0.079907 -0.008509
# 6 -0.001383 0.001100 0.010188 -0.007018 -0.008509 0.027220
#
#
# Mechanical properties :
#
#
# Convention : Reuss Voigt Hill
#
# Bulk Modulus (GPa) = 29.72884 60.76987 45.24935
# Shear Modulus (GPa) = 24.41404 43.67421 34.04413
#
# Velocity S-wave (km/s) = 3.08293 4.12341 3.64053
# Velocity P-wave (km/s) = 4.92404 6.80646 5.94029
#
# Compressibility (1/GPa) = 0.03363737
#
# Stress axis : x y z
#
# Youngs Moduli (GPa) = 86.48546 148.14830 42.00078
#
# Poissons Ratio (x) = 0.25105 0.09720
# Poissons Ratio (y) = 0.14655 0.00980
# Poissons Ratio (z) = 0.20015 0.03457
#
# Static dielectric constant tensor:
#      x y z
#    x 2.609440 0.608920 -0.485250 
#    y 0.608920 3.104390 -0.705860 
#    z -0.485250 -0.705860 2.706020 
# 
# From -- ./inp_files/557411.got.cif
#   From: 2010.05.17/outbox.cif.g08.bks.cpg/sg2_279_cif.got.tgz:557411.got - 2010.06.03 11:33:40.
