data_PCOD9058016
_publ_section_title
;
Structure prediction by ZEFSAII (Michael W. Deem and Ramdas Pophale) SiO2 
 PCOD9058016
Probable space group: P -1
;
_chemical_formula_sum "Si O2"
_cell_formula_units_Z 14
_cell_length_a 18.370230
_cell_length_b 6.247317
_cell_length_c 7.415443
_cell_angle_alpha 104.878766
_cell_angle_beta 113.650227
_cell_angle_gamma 115.982788
_cell_volume 596.303135
_symmetry_space_group_name_H-M "P -1"
_symmetry_group_IT_number 2
_symmetry_cell_setting 'triclinic'
loop_
_space_group_symop_operation_xyz
x,y,z
-x,-y,-z
loop_
_atom_site_type_symbol
_atom_site_label
_atom_site_fract_x
_atom_site_fract_y
_atom_site_fract_z
Si Si1 0.950939 0.843331 0.609737
Si Si2 0.260861 0.874181 0.297568
Si Si3 0.257863 0.688035 0.644519
Si Si4 0.389419 0.719810 0.282218
Si Si5 0.580522 0.679435 0.961461
Si Si6 0.614337 0.490616 0.393455
Si Si7 0.066766 0.799627 0.034522
O O1 0.844818 0.540646 0.404743
O O2 0.977982 0.183983 0.194199
O O3 0.924290 0.998510 0.756111
O O4 0.000000 0.000000 0.500000
O O5 0.226169 0.688528 0.404739
O O6 0.313962 0.793952 0.198611
O O7 0.172590 0.862879 0.120773
O O8 0.342074 0.190524 0.516281
O O9 0.334684 0.609160 0.702384
O O10 0.322504 0.008184 0.840241
O O11 0.392836 0.523802 0.108284
O O12 0.352529 0.535043 0.385015
O O13 0.500000 0.000000 0.500000
O O14 0.506110 0.692336 0.760680
O O15 0.500000 0.500000 0.000000
O O16 0.000000 0.500000 0.000000
#
# Coordination Sequence:
#
# PCOD9058016 Si02
#       7
#     2   2   2   2   2   2   2
#     4  11  26  49  80 117 152 192 261 327 384 461
#     4  11  22  45  74 103 145 201 248 302 377 455
#     4  11  23  44  72 107 150 194 245 314 380 449
#     4  11  24  42  69 102 147 198 250 296 360 458
#     4  12  23  43  70 106 148 196 242 308 376 437
#     4  11  22  44  69 100 149 193 241 301 372 449
#     4  11  24  50  82 105 150 205 253 319 398 444
#
# _framework density 23.477990999999999
#
# number of rings (size 3 to 8) (size 9 to 14) (size 15 to 20)
#    0.000    0.857    5.714    1.714    0.000    0.571 
#    2.571    4.286    3.143    0.000    0.000    0.000 
#    0.000    0.000    0.000    0.000    0.000    0.000 
#
# Total GULP energy -78235.344031 kJ/mol
# GULP energy per Si atom -5588.238859 kJ/mol
# Density = 2.342455 g / cm^3
# Si number density = 23.477991 Si / 1000 Ang^3
#
#
#
# Elastic Constant Matrix: (Units=GPa)
#
#
# Indices 1 2 3 4 5 6 
#
# 1 196.8302 78.2409 89.8495 13.4613 -1.4661 -25.0406
# 2 78.2409 135.5321 68.2562 -0.3797 -2.2068 11.9213
# 3 89.8495 68.2562 117.7846 22.1938 0.8345 -7.5147
# 4 13.4613 -0.3797 22.1938 51.5478 -3.2430 4.9867
# 5 -1.4661 -2.2068 0.8345 -3.2430 35.8678 2.8935
# 6 -25.0406 11.9213 -7.5147 4.9867 2.8935 53.2213
#
#
#
# Elastic Compliance Matrix: (Units=1/GPa)
#
#
# Indices 1 2 3 4 5 6 
#
# 1 0.009137 -0.003385 -0.004550 -0.000899 -0.000174 0.004508
# 2 -0.003385 0.012974 -0.006130 0.004290 0.001663 -0.005857
# 3 -0.004550 -0.006130 0.016891 -0.006462 -0.001727 0.002317
# 4 -0.000899 0.004290 -0.006462 0.023073 0.002836 -0.004612
# 5 -0.000174 0.001663 -0.001727 0.002836 0.028475 -0.002512
# 6 0.004508 -0.005857 0.002317 -0.004612 -0.002512 0.023118
#
#
# Mechanical properties :
#
#
# Convention : Reuss Voigt Hill
#
# Bulk Modulus (GPa) = 91.98157 102.53780 97.25969
# Shear Modulus (GPa) = 34.38301 42.38073 38.38187
#
# Velocity S-wave (km/s) = 3.83100 4.25329 4.04765
# Velocity P-wave (km/s) = 7.67018 8.23950 7.95993
#
# Compressibility (1/GPa) = 0.01087174
#
# Stress axis : x y z
#
# Youngs Moduli (GPa) = 109.44780 77.07826 59.20377
#
# Poissons Ratio (x) = 0.26091 0.26937
# Poissons Ratio (y) = 0.37049 0.36291
# Poissons Ratio (z) = 0.49798 0.47248
#
# Static dielectric constant tensor:
#      x y z
#    x 2.162800 -0.259660 0.126840 
#    y -0.259660 2.233160 -0.147940 
#    z 0.126840 -0.147940 2.051160 
# 
# From -- ./inp_files/323038.got.cif
#   From: 2010.05.17/outbox.cif.g08.bks.cpg/sg2_162_cif.got.tgz:323038.got - 2010.06.03 11:33:40.
