data_PCOD9058037
_publ_section_title
;
Structure prediction by ZEFSAII (Michael W. Deem and Ramdas Pophale) SiO2 
 PCOD9058037
Probable space group: P -1
;
_chemical_formula_sum "Si O2"
_cell_formula_units_Z 12
_cell_length_a 7.586758
_cell_length_b 9.038344
_cell_length_c 17.692062
_cell_angle_alpha 29.575741
_cell_angle_beta 120.126163
_cell_angle_gamma 108.635119
_cell_volume 498.088278
_symmetry_space_group_name_H-M "P -1"
_symmetry_group_IT_number 2
_symmetry_cell_setting 'triclinic'
loop_
_space_group_symop_operation_xyz
x,y,z
-x,-y,-z
loop_
_atom_site_type_symbol
_atom_site_label
_atom_site_fract_x
_atom_site_fract_y
_atom_site_fract_z
Si Si1 0.765250 0.340742 0.452977
Si Si2 0.006831 0.936942 0.118424
Si Si3 0.197544 0.547062 0.746481
Si Si4 0.400539 0.854749 0.345097
Si Si5 0.639395 0.089533 0.083633
Si Si6 0.212313 0.916899 0.725838
O O1 0.729662 0.273105 0.387168
O O2 0.671702 0.164465 0.575600
O O3 0.674102 0.718327 0.271774
O O4 0.204701 0.977513 0.190474
O O5 0.988471 0.581685 0.271572
O O6 0.797683 0.120779 0.037205
O O7 0.600617 0.741983 0.063143
O O8 0.000000 0.000000 0.000000
O O9 0.129105 0.721875 0.731867
O O10 0.500000 0.500000 0.500000
O O11 0.585109 0.016721 0.299662
O O12 0.981279 0.787768 0.425015
O O13 0.704774 0.237021 0.108074
#
# Coordination Sequence:
#
# PCOD9058037 Si02
#       6
#     2   2   2   2   2   2
#     4  11  23  45  69  98 135 179 226 268 330 406
#     4  11  24  43  67 100 131 179 231 269 324 412
#     4  11  26  43  68  99 141 172 217 289 339 378
#     4  12  24  40  74  99 128 180 231 266 325 411
#     4  11  22  44  69  95 135 183 220 271 333 404
#     4  12  24  46  69 101 137 173 221 283 340 384
#
# _framework density 24.092116000000001
#
# number of rings (size 3 to 8) (size 9 to 14) (size 15 to 20)
#    0.000    0.667    3.333    6.500    2.333    0.667 
#    3.000    1.667    0.000    0.000    0.000    0.000 
#    0.000    0.000    0.000    0.000    0.000    0.000 
#
# Total GULP energy -67101.768747 kJ/mol
# GULP energy per Si atom -5591.814062 kJ/mol
# Density = 2.403728 g / cm^3
# Si number density = 24.092116 Si / 1000 Ang^3
#
#
#
# Elastic Constant Matrix: (Units=GPa)
#
#
# Indices 1 2 3 4 5 6 
#
# 1 124.2741 14.9038 50.0868 3.4834 -17.1713 -19.7642
# 2 14.9038 65.5643 0.2348 19.1301 1.9192 -16.9297
# 3 50.0868 0.2348 94.7151 16.7876 3.3293 -14.8789
# 4 3.4834 19.1301 16.7876 35.5973 -19.5762 -7.8296
# 5 -17.1713 1.9192 3.3293 -19.5762 56.0432 17.0796
# 6 -19.7642 -16.9297 -14.8789 -7.8296 17.0796 31.4139
#
#
#
# Elastic Compliance Matrix: (Units=1/GPa)
#
#
# Indices 1 2 3 4 5 6 
#
# 1 0.013853 -0.008060 -0.010498 0.013109 0.010680 -0.003139
# 2 -0.008060 0.032733 0.014111 -0.030507 -0.022336 0.023794
# 3 -0.010498 0.014111 0.023573 -0.024299 -0.018518 0.016177
# 4 0.013109 -0.030507 -0.024299 0.070608 0.038127 -0.022833
# 5 0.010680 -0.022336 -0.018518 0.038127 0.045183 -0.029152
# 6 -0.003139 0.023794 0.016177 -0.022833 -0.029152 0.060502
#
#
# Mechanical properties :
#
#
# Convention : Reuss Voigt Hill
#
# Bulk Modulus (GPa) = 16.32238 46.11159 31.21698
# Shear Modulus (GPa) = 18.13123 39.23277 28.68200
#
# Velocity S-wave (km/s) = 2.74629 4.03978 3.45413
# Velocity P-wave (km/s) = 4.10437 6.39852 5.37526
#
# Compressibility (1/GPa) = 0.06126557
#
# Stress axis : x y z
#
# Youngs Moduli (GPa) = 72.18473 30.55066 42.42062
#
# Poissons Ratio (x) = 0.24623 0.44533
# Poissons Ratio (y) = 0.58179 -0.59859
# Poissons Ratio (z) = 0.75780 -0.43110
#
# Static dielectric constant tensor:
#      x y z
#    x 1.952590 0.021430 -0.055530 
#    y 0.021430 1.991020 -0.015250 
#    z -0.055530 -0.015250 2.001580 
# 
# From -- ./inp_files/66387.got.cif
#   From: 2010.05.17/outbox.cif.g08.bks.cpg/sg2_34_cif.got.tgz:66387.got - 2010.06.03 11:33:40.
