data_PCOD9058693
_publ_section_title
;
Structure prediction by ZEFSAII (Michael W. Deem and Ramdas Pophale) SiO2 
 PCOD9058693
Probable space group: P -1
;
_chemical_formula_sum "Si O2"
_cell_formula_units_Z 16
_cell_length_a 17.114535
_cell_length_b 18.679547
_cell_length_c 10.364187
_cell_angle_alpha 30.023153
_cell_angle_beta 140.026976
_cell_angle_gamma 157.813569
_cell_volume 614.965476
_symmetry_space_group_name_H-M "P -1"
_symmetry_group_IT_number 2
_symmetry_cell_setting 'triclinic'
loop_
_space_group_symop_operation_xyz
x,y,z
-x,-y,-z
loop_
_atom_site_type_symbol
_atom_site_label
_atom_site_fract_x
_atom_site_fract_y
_atom_site_fract_z
Si Si1 0.206154 0.155834 0.153439
Si Si2 0.561658 0.875946 0.425809
Si Si3 0.596779 0.628400 0.212244
Si Si4 0.742601 0.189011 0.426898
Si Si5 0.074833 0.867620 0.057354
Si Si6 0.815433 0.593745 0.634246
Si Si7 0.776018 0.524461 0.990743
Si Si8 0.196928 0.679488 0.130228
O O1 0.734463 0.782900 0.016487
O O2 0.014466 0.861817 0.400479
O O3 0.401383 0.259769 0.306876
O O4 0.115391 0.221621 0.980115
O O5 0.628735 0.002573 0.453586
O O6 0.337682 0.729722 0.334710
O O7 0.705628 0.080523 0.173985
O O8 0.607696 0.474863 0.505428
O O9 0.731483 0.835806 0.172582
O O10 0.378796 0.498076 0.123957
O O11 0.964029 0.462794 0.224957
O O12 0.649336 0.251187 0.261325
O O13 0.824943 0.158823 0.686064
O O14 0.976522 0.713504 0.042818
O O15 0.803145 0.422563 0.835116
O O16 0.828651 0.615301 0.769463
#
# Coordination Sequence:
#
# PCOD9058693 Si02
#       8
#     2   2   2   2   2   2   2   2
#     4  11  23  46  74  99 133 176 231 285 330 391
#     4  11  23  39  70 106 127 172 227 288 331 392
#     4  11  25  45  68 103 136 177 229 282 335 398
#     4  12  23  46  67  97 141 177 225 281 332 403
#     4  11  26  45  67 101 136 182 227 277 335 403
#     4  11  22  47  70  99 142 176 224 286 330 405
#     4  12  28  43  68  99 142 188 217 272 349 404
#     4  11  23  41  70 105 128 174 234 278 335 393
#
# _framework density 26.017723
#
# number of rings (size 3 to 8) (size 9 to 14) (size 15 to 20)
#    0.000    0.750    3.750    4.125    3.500    4.000 
#    2.250    0.000    0.000    0.000    0.000    0.000 
#    0.000    0.000    0.000    0.000    0.000    0.000 
#
# Total GULP energy -89686.572850 kJ/mol
# GULP energy per Si atom -5605.410803 kJ/mol
# Density = 2.595851 g / cm^3
# Si number density = 26.017723 Si / 1000 Ang^3
#
#
#
# Elastic Constant Matrix: (Units=GPa)
#
#
# Indices 1 2 3 4 5 6 
#
# 1 89.1337 22.0477 39.9341 19.3081 -0.4083 -11.7170
# 2 22.0477 96.9342 20.5779 40.3407 -14.5962 -21.5995
# 3 39.9341 20.5779 164.5236 38.8777 11.7128 -9.2997
# 4 19.3081 40.3407 38.8777 56.8344 -0.1574 -1.4694
# 5 -0.4083 -14.5962 11.7128 -0.1574 38.0300 9.6918
# 6 -11.7170 -21.5995 -9.2997 -1.4694 9.6918 34.7779
#
#
#
# Elastic Compliance Matrix: (Units=1/GPa)
#
#
# Indices 1 2 3 4 5 6 
#
# 1 0.013438 -0.000975 -0.002429 -0.002128 -0.000325 0.003273
# 2 -0.000975 0.018789 0.001386 -0.013684 0.004177 0.009969
# 3 -0.002429 0.001386 0.008192 -0.005699 -0.002743 0.002757
# 4 -0.002128 -0.013684 -0.005699 0.031691 -0.001069 -0.009103
# 5 -0.000325 0.004177 -0.002743 -0.001069 0.030464 -0.006784
# 6 0.003273 0.009969 0.002757 -0.009103 -0.006784 0.038291
#
#
# Mechanical properties :
#
#
# Convention : Reuss Voigt Hill
#
# Bulk Modulus (GPa) = 27.48402 57.30122 42.39262
# Shear Modulus (GPa) = 31.84139 43.79723 37.81931
#
# Velocity S-wave (km/s) = 3.50213 4.10733 3.81674
# Velocity P-wave (km/s) = 5.19035 6.67572 5.97934
#
# Compressibility (1/GPa) = 0.03638478
#
# Stress axis : x y z
#
# Youngs Moduli (GPa) = 74.41478 53.22293 122.06814
#
# Poissons Ratio (x) = 0.05188 0.29648
# Poissons Ratio (y) = 0.07254 -0.16923
# Poissons Ratio (z) = 0.18074 -0.07379
#
# Static dielectric constant tensor:
#      x y z
#    x 2.099310 0.052920 0.067560 
#    y 0.052920 2.095880 0.008540 
#    z 0.067560 0.008540 2.048920 
# 
# From -- ./inp_files/472726.got.cif
#   From: 2010.05.17/outbox.cif.g08.bks.cpg/sg2_237_cif.got.tgz:472726.got - 2010.06.03 11:33:40.
