data_PCOD9058282
_publ_section_title
;
Structure prediction by ZEFSAII (Michael W. Deem and Ramdas Pophale) SiO2 
 PCOD9058282
Probable space group: P -1
;
_chemical_formula_sum "Si O2"
_cell_formula_units_Z 13
_cell_length_a 14.011904
_cell_length_b 5.978272
_cell_length_c 14.939282
_cell_angle_alpha 115.053058
_cell_angle_beta 149.485725
_cell_angle_gamma 60.549035
_cell_volume 553.301563
_symmetry_space_group_name_H-M "P -1"
_symmetry_group_IT_number 2
_symmetry_cell_setting 'triclinic'
loop_
_space_group_symop_operation_xyz
x,y,z
-x,-y,-z
loop_
_atom_site_type_symbol
_atom_site_label
_atom_site_fract_x
_atom_site_fract_y
_atom_site_fract_z
Si Si1 0.171508 0.240830 0.095667
Si Si2 0.500000 0.000000 0.000000
Si Si3 0.710769 0.800517 0.631092
Si Si4 0.602054 0.485761 0.236678
Si Si5 0.745244 0.092999 0.065456
Si Si6 0.130580 0.197309 0.440324
Si Si7 0.579837 0.342556 0.391295
O O1 0.173703 0.136710 0.180359
O O2 0.384820 0.292028 0.263823
O O3 0.000000 0.500000 0.000000
O O4 0.159818 0.060896 0.972361
O O5 0.388808 0.789676 0.841678
O O6 0.336321 0.086042 0.964255
O O7 0.806221 0.813646 0.614651
O O8 0.678159 0.516270 0.561582
O O9 0.500000 0.000000 0.500000
O O10 0.799468 0.575379 0.418485
O O11 0.531625 0.492333 0.283769
O O12 0.447126 0.689928 0.085529
O O13 0.904132 0.213825 0.258863
O O14 0.260449 0.929697 0.541644
#
# Coordination Sequence:
#
# PCOD9058282 Si02
#       7
#     2   1   2   2   2   2   2
#     4  12  24  40  68 107 147 191 234 290 351 427
#     4  12  26  50  82 100 142 186 238 316 360 422
#     4  11  23  39  64  98 144 199 233 283 347 421
#     4  11  24  49  74 104 141 187 236 303 357 424
#     4  12  27  48  74 107 142 190 247 292 364 423
#     4  11  25  45  71 106 146 190 237 292 356 437
#     4  11  22  45  67 100 154 189 234 293 354 418
#
# _framework density 23.495325999999999
#
# number of rings (size 3 to 8) (size 9 to 14) (size 15 to 20)
#    0.000    0.615    4.615    2.769    4.308    3.692 
#    0.000    3.846    0.000    0.000    0.000    0.000 
#    0.000    0.000    0.000    0.000    0.000    0.000 
#
# Total GULP energy -72510.059925 kJ/mol
# GULP energy per Si atom -5577.696917 kJ/mol
# Density = 2.344185 g / cm^3
# Si number density = 23.495326 Si / 1000 Ang^3
#
#
#
# Elastic Constant Matrix: (Units=GPa)
#
#
# Indices 1 2 3 4 5 6 
#
# 1 72.9769 11.6375 50.1690 14.4221 17.3870 -8.9971
# 2 11.6375 35.0267 49.0370 38.3511 -18.0056 -1.6706
# 3 50.1690 49.0370 164.1308 28.3197 24.8492 -5.0043
# 4 14.4221 38.3511 28.3197 51.1310 7.8510 -7.8900
# 5 17.3870 -18.0056 24.8492 7.8510 18.2507 24.4155
# 6 -8.9971 -1.6706 -5.0043 -7.8900 24.4155 21.7324
#
#
#
# Elastic Compliance Matrix: (Units=1/GPa)
#
#
# Indices 1 2 3 4 5 6 
#
# 1 0.020700 0.012871 -0.007775 -0.009373 -0.003488 0.008285
# 2 0.012871 0.024314 -0.003592 -0.008858 -0.032221 0.039354
# 3 -0.007775 -0.003592 0.008610 -0.002540 0.006981 -0.010277
# 4 -0.009373 -0.008858 -0.002540 0.023585 0.022006 -0.021307
# 5 -0.003488 -0.032221 0.006981 0.022006 0.000473 0.005145
# 6 0.008285 0.039354 -0.010277 -0.021307 0.005145 0.036588
#
#
# Mechanical properties :
#
#
# Convention : Reuss Voigt Hill
#
# Bulk Modulus (GPa) = 17.65755 54.86904 36.26330
# Shear Modulus (GPa) = 38.42068 28.97554 33.69811
#
# Velocity S-wave (km/s) = 4.04821 3.51557 3.79125
# Velocity P-wave (km/s) = 5.42054 6.31529 5.88495
#
# Compressibility (1/GPa) = 0.05663299
#
# Stress axis : x y z
#
# Youngs Moduli (GPa) = 48.30854 41.12902 116.14029
#
# Poissons Ratio (x) = -0.52938 0.90298
# Poissons Ratio (y) = -0.62179 0.41717
# Poissons Ratio (z) = 0.37560 0.14773
#
# Static dielectric constant tensor:
#      x y z
#    x 1.976820 -0.022920 -0.001600 
#    y -0.022920 1.963430 -0.073260 
#    z -0.001600 -0.073260 1.904900 
# 
# From -- ./inp_files/31740.got.cif
#   From: 2010.05.17/outbox.cif.g08.bks.cpg/sg2_16_cif.got.tgz:31740.got - 2010.06.03 11:33:40.
