data_PCOD9058283
_publ_section_title
;
Structure prediction by ZEFSAII (Michael W. Deem and Ramdas Pophale) SiO2 
 PCOD9058283
Probable space group: P -1
;
_chemical_formula_sum "Si O2"
_cell_formula_units_Z 14
_cell_length_a 9.607473
_cell_length_b 9.582597
_cell_length_c 15.091109
_cell_angle_alpha 57.811042
_cell_angle_beta 89.339642
_cell_angle_gamma 42.365671
_cell_volume 588.213862
_symmetry_space_group_name_H-M "P -1"
_symmetry_group_IT_number 2
_symmetry_cell_setting 'triclinic'
loop_
_space_group_symop_operation_xyz
x,y,z
-x,-y,-z
loop_
_atom_site_type_symbol
_atom_site_label
_atom_site_fract_x
_atom_site_fract_y
_atom_site_fract_z
Si Si1 0.299813 0.489364 0.188302
Si Si2 0.559407 0.313231 0.804645
Si Si3 0.933761 0.736882 0.471683
Si Si4 0.007513 0.253406 0.326868
Si Si5 0.299399 0.267859 0.103869
Si Si6 0.508449 0.262884 0.627239
Si Si7 0.220373 0.170312 0.896256
O O1 0.299336 0.679716 0.150374
O O2 0.248310 0.484233 0.089492
O O3 0.059065 0.641528 0.193131
O O4 0.616911 0.109988 0.330884
O O5 0.596089 0.268895 0.713773
O O6 0.225105 0.648974 0.704773
O O7 0.664411 0.043534 0.946541
O O8 0.958739 0.710508 0.586975
O O9 0.000000 0.500000 0.500000
O O10 0.184699 0.603877 0.489381
O O11 0.886313 0.536785 0.180656
O O12 0.291218 0.906081 0.398288
O O13 0.437545 0.983063 0.260019
O O14 0.534457 0.070919 0.096085
O O15 0.000000 0.500000 0.000000
#
# Coordination Sequence:
#
# PCOD9058283 Si02
#       7
#     2   2   2   2   2   2   2
#     4  12  27  43  67 103 142 176 221 292 340 400
#     4  11  26  43  65 104 143 173 224 286 348 398
#     4  11  22  45  67 101 140 175 235 278 331 406
#     4  11  23  41  74 101 129 189 229 273 338 407
#     4  12  24  42  71 101 133 175 229 282 337 408
#     4  11  23  42  68 101 133 182 226 280 336 401
#     4  12  23  43  71  99 132 181 230 276 340 408
#
# _framework density 23.800867
#
# number of rings (size 3 to 8) (size 9 to 14) (size 15 to 20)
#    0.000    0.571    5.714    2.571    0.000    7.429 
#    0.000    1.429    0.000    0.000    0.000    0.000 
#    0.000    0.000    0.000    0.000    0.000    0.000 
#
# Total GULP energy -78315.439802 kJ/mol
# GULP energy per Si atom -5593.959986 kJ/mol
# Density = 2.374670 g / cm^3
# Si number density = 23.800867 Si / 1000 Ang^3
#
#
#
# Elastic Constant Matrix: (Units=GPa)
#
#
# Indices 1 2 3 4 5 6 
#
# 1 142.0154 83.8596 37.2868 -2.6510 39.4355 8.4098
# 2 83.8596 174.1276 30.3741 -11.5021 33.7973 -19.9010
# 3 37.2868 30.3741 74.7677 -16.6740 45.4746 -8.6276
# 4 -2.6510 -11.5021 -16.6740 25.8861 -0.9247 15.2045
# 5 39.4355 33.7973 45.4746 -0.9247 42.4816 -6.5481
# 6 8.4098 -19.9010 -8.6276 15.2045 -6.5481 51.8123
#
#
#
# Elastic Compliance Matrix: (Units=1/GPa)
#
#
# Indices 1 2 3 4 5 6 
#
# 1 0.013028 -0.004748 0.004143 0.005228 -0.013641 -0.006506
# 2 -0.004748 0.009228 0.003818 0.004126 -0.006481 0.002921
# 3 0.004143 0.003818 0.070741 0.052582 -0.083532 -0.013414
# 4 0.005228 0.004126 0.052582 0.086809 -0.066288 -0.024360
# 5 -0.013641 -0.006481 -0.083532 -0.066288 0.132731 0.022042
# 6 -0.006506 0.002921 -0.013414 -0.024360 0.022042 0.029179
#
#
# Mechanical properties :
#
#
# Convention : Reuss Voigt Hill
#
# Bulk Modulus (GPa) = 10.05786 77.10574 43.58180
# Shear Modulus (GPa) = 13.57113 39.99536 26.78325
#
# Velocity S-wave (km/s) = 2.39047 4.10373 3.35820
# Velocity P-wave (km/s) = 3.44298 7.41085 5.77818
#
# Compressibility (1/GPa) = 0.09942475
#
# Stress axis : x y z
#
# Youngs Moduli (GPa) = 76.75889 108.36959 14.13606
#
# Poissons Ratio (x) = 0.51449 -0.05857
# Poissons Ratio (y) = 0.36442 -0.05398
# Poissons Ratio (z) = -0.31804 -0.41378
#
# Static dielectric constant tensor:
#      x y z
#    x 1.920290 -0.000940 0.011530 
#    y -0.000940 1.922310 -0.010590 
#    z 0.011530 -0.010590 1.992360 
# 
# From -- ./inp_files/557010.got.cif
#   From: 2010.05.17/outbox.cif.g08.bks.cpg/sg2_279_cif.got.tgz:557010.got - 2010.06.03 11:33:40.
