data_PCOD9058297
_publ_section_title
;
Structure prediction by ZEFSAII (Michael W. Deem and Ramdas Pophale) SiO2 
 PCOD9058297
Probable space group: P -1
;
_chemical_formula_sum "Si O2"
_cell_formula_units_Z 14
_cell_length_a 24.593043
_cell_length_b 14.551951
_cell_length_c 15.687878
_cell_angle_alpha 149.185579
_cell_angle_beta 18.570062
_cell_angle_gamma 157.940268
_cell_volume 662.331077
_symmetry_space_group_name_H-M "P -1"
_symmetry_group_IT_number 2
_symmetry_cell_setting 'triclinic'
loop_
_space_group_symop_operation_xyz
x,y,z
-x,-y,-z
loop_
_atom_site_type_symbol
_atom_site_label
_atom_site_fract_x
_atom_site_fract_y
_atom_site_fract_z
Si Si1 0.165229 0.462532 0.483602
Si Si2 0.723330 0.739536 0.711078
Si Si3 0.200457 0.030417 0.677525
Si Si4 0.273996 0.971716 0.324179
Si Si5 0.116272 0.561488 0.966250
Si Si6 0.638084 0.582306 0.527040
Si Si7 0.574471 0.129968 0.706994
O O1 0.286399 0.377762 0.279869
O O2 0.345538 0.739670 0.399627
O O3 0.969873 0.276477 0.553284
O O4 0.018395 0.437814 0.759294
O O5 0.654110 0.574552 0.599359
O O6 0.539950 0.771849 0.006065
O O7 0.000000 0.000000 0.500000
O O8 0.214094 0.993512 0.526843
O O9 0.419044 0.322651 0.604276
O O10 0.214394 0.838841 0.544493
O O11 0.000000 0.000000 0.000000
O O12 0.346838 0.201146 0.346425
O O13 0.500000 0.000000 0.000000
O O14 0.140849 0.370196 0.798654
O O15 0.365519 0.837836 0.799758
O O16 0.000000 0.500000 0.000000
#
# Coordination Sequence:
#
# PCOD9058297 Si02
#       7
#     2   2   2   2   2   2   2
#     4  12  26  43  75 104 139 188 232 289 361 423
#     4  12  21  46  71 106 144 178 229 294 361 424
#     4  11  28  47  67 103 142 186 239 298 349 410
#     4  12  26  46  73 101 139 192 245 285 350 430
#     4  11  22  45  68 103 144 180 222 292 355 424
#     4  11  23  43  75  96 140 181 232 291 357 417
#     4  11  26  45  69 104 141 184 240 286 355 419
#
# _framework density 21.137464999999999
#
# number of rings (size 3 to 8) (size 9 to 14) (size 15 to 20)
#    0.000    0.571    4.286    3.429    6.000    1.143 
#    0.000    0.000    0.000    0.000    0.000    0.000 
#    0.000    0.000    0.000    0.000    0.000    0.000 
#
# Total GULP energy -78008.922536 kJ/mol
# GULP energy per Si atom -5572.065895 kJ/mol
# Density = 2.108936 g / cm^3
# Si number density = 21.137465 Si / 1000 Ang^3
#
#
#
# Elastic Constant Matrix: (Units=GPa)
#
#
# Indices 1 2 3 4 5 6 
#
# 1 90.7580 0.1023 60.7347 19.8242 27.1344 -5.1762
# 2 0.1023 3.9733 36.8091 31.4131 25.8585 -11.6470
# 3 60.7347 36.8091 145.6864 22.2852 -4.3517 0.5500
# 4 19.8242 31.4131 22.2852 11.8161 -27.1583 9.2180
# 5 27.1344 25.8585 -4.3517 -27.1583 30.7599 15.7916
# 6 -5.1762 -11.6470 0.5500 9.2180 15.7916 51.6868
#
#
#
# Elastic Compliance Matrix: (Units=1/GPa)
#
#
# Indices 1 2 3 4 5 6 
#
# 1 0.012742 -0.006953 -0.004450 0.005825 -0.000265 -0.001201
# 2 -0.006953 0.013435 -0.003040 0.019620 0.014606 -0.005598
# 3 -0.004450 -0.003040 0.011039 -0.010539 -0.001882 0.001207
# 4 0.005825 0.019620 -0.010539 0.018779 -0.008836 0.004467
# 5 -0.000265 0.014606 -0.001882 -0.008836 0.011744 0.001273
# 6 -0.001201 -0.005598 0.001207 0.004467 0.001273 0.016767
#
#
# Mechanical properties :
#
#
# Convention : Reuss Voigt Hill
#
# Bulk Modulus (GPa) = 120.03538 48.41221 84.22379
# Shear Modulus (GPa) = 43.04145 28.37067 35.70606
#
# Velocity S-wave (km/s) = 4.51739 3.66758 4.11448
# Velocity P-wave (km/s) = 9.17172 6.39438 7.90596
#
# Compressibility (1/GPa) = 0.00833088
#
# Stress axis : x y z
#
# Youngs Moduli (GPa) = 78.47797 74.43485 90.59177
#
# Poissons Ratio (x) = 0.51753 0.40313
# Poissons Ratio (y) = 0.54564 0.27537
# Poissons Ratio (z) = 0.34922 0.22625
#
# Static dielectric constant tensor:
#      x y z
#    x 1.815840 0.010090 -0.109320 
#    y 0.010090 1.886560 -0.043520 
#    z -0.109320 -0.043520 1.947380 
# 
# From -- ./inp_files/543049.got.cif
#   From: 2010.05.17/outbox.cif.g08.bks.cpg/sg2_272_cif.got.tgz:543049.got - 2010.06.03 11:33:40.
