data_PCOD9058419
_publ_section_title
;
Structure prediction by ZEFSAII (Michael W. Deem and Ramdas Pophale) SiO2 
 PCOD9058419
Probable space group: P -1
;
_chemical_formula_sum "Si O2"
_cell_formula_units_Z 14
_cell_length_a 11.659397
_cell_length_b 10.016077
_cell_length_c 9.065556
_cell_angle_alpha 49.660934
_cell_angle_beta 104.232189
_cell_angle_gamma 130.790459
_cell_volume 581.495623
_symmetry_space_group_name_H-M "P -1"
_symmetry_group_IT_number 2
_symmetry_cell_setting 'triclinic'
loop_
_space_group_symop_operation_xyz
x,y,z
-x,-y,-z
loop_
_atom_site_type_symbol
_atom_site_label
_atom_site_fract_x
_atom_site_fract_y
_atom_site_fract_z
Si Si1 0.342308 0.445227 0.441426
Si Si2 0.284597 0.819378 0.771717
Si Si3 0.256324 0.149018 0.351735
Si Si4 0.962722 0.864171 0.237570
Si Si5 0.087461 0.532607 0.675688
Si Si6 0.732701 0.239091 0.846602
Si Si7 0.384559 0.031844 0.267143
O O1 0.500000 0.500000 0.500000
O O2 0.297532 0.350356 0.326649
O O3 0.200424 0.252629 0.646358
O O4 0.355682 0.668952 0.291421
O O5 0.161151 0.563877 0.837193
O O6 0.242918 0.972203 0.589404
O O7 0.457739 0.925828 0.699876
O O8 0.279828 0.809353 0.951465
O O9 0.390076 0.216443 0.228733
O O10 0.101092 0.019172 0.293279
O O11 0.947015 0.655433 0.313272
O O12 0.000000 0.000000 0.000000
O O13 0.231713 0.782668 0.468161
O O14 0.918701 0.450561 0.718784
O O15 0.661664 0.011265 0.888670
#
# Coordination Sequence:
#
# PCOD9058419 Si02
#       7
#     2   2   2   2   2   2   2
#     4  12  28  47  73 106 150 186 233 300 363 412
#     4  11  26  40  78 106 140 181 243 293 355 419
#     4  11  25  46  71 104 144 187 236 293 354 424
#     4  12  28  47  74 102 147 193 239 290 359 427
#     4  11  23  45  72 102 138 186 245 286 349 421
#     4  12  24  46  73 106 142 187 238 293 350 426
#     4  11  22  45  73 102 139 188 234 292 348 422
#
# _framework density 24.075845999999999
#
# number of rings (size 3 to 8) (size 9 to 14) (size 15 to 20)
#    0.000    0.571    2.857    6.000    6.000    1.143 
#    0.000    1.429    0.000    0.000    0.000    0.000 
#    0.000    0.000    0.000    0.000    0.000    0.000 
#
# Total GULP energy -78317.473761 kJ/mol
# GULP energy per Si atom -5594.105269 kJ/mol
# Density = 2.402105 g / cm^3
# Si number density = 24.075846 Si / 1000 Ang^3
#
#
#
# Elastic Constant Matrix: (Units=GPa)
#
#
# Indices 1 2 3 4 5 6 
#
# 1 130.6163 46.9820 46.7422 8.9317 -24.3606 13.5457
# 2 46.9820 111.0038 36.9030 33.1215 -9.8538 0.7295
# 3 46.7422 36.9030 119.5040 35.9397 -21.4619 8.4709
# 4 8.9317 33.1215 35.9397 40.8233 -9.7788 -4.5070
# 5 -24.3606 -9.8538 -21.4619 -9.7788 24.5702 12.8895
# 6 13.5457 0.7295 8.4709 -4.5070 12.8895 54.4382
#
#
#
# Elastic Compliance Matrix: (Units=1/GPa)
#
#
# Indices 1 2 3 4 5 6 
#
# 1 0.013366 -0.005452 -0.002497 0.006536 0.014507 -0.005758
# 2 -0.005452 0.014260 0.000281 -0.011618 -0.004737 0.001281
# 3 -0.002497 0.000281 0.014277 -0.010791 0.008134 -0.004424
# 4 0.006536 -0.011618 -0.010791 0.044375 0.009157 0.001714
# 5 0.014507 -0.004737 0.008134 0.009157 0.075429 -0.021914
# 6 -0.005758 0.001281 -0.004424 0.001714 -0.021914 0.025804
#
#
# Mechanical properties :
#
#
# Convention : Reuss Voigt Hill
#
# Bulk Modulus (GPa) = 37.63704 69.15315 53.39509
# Shear Modulus (GPa) = 23.61799 39.33281 31.47540
#
# Velocity S-wave (km/s) = 3.13546 4.04630 3.61964
# Velocity P-wave (km/s) = 5.36421 7.11445 6.30040
#
# Compressibility (1/GPa) = 0.02656957
#
# Stress axis : x y z
#
# Youngs Moduli (GPa) = 74.81473 70.12437 70.04078
#
# Poissons Ratio (x) = 0.38231 0.17487
# Poissons Ratio (y) = 0.40788 -0.01970
# Poissons Ratio (z) = 0.18679 -0.01973
#
# Static dielectric constant tensor:
#      x y z
#    x 1.958220 -0.040100 0.045920 
#    y -0.040100 1.971850 0.012390 
#    z 0.045920 0.012390 1.992700 
# 
# From -- ./inp_files/246898.got.cif
#   From: 2010.05.17/outbox.cif.g08.bks.cpg/sg2_124_cif.got.tgz:246898.got - 2010.06.03 11:33:40.
