data_PCOD9058823
_publ_section_title
;
Structure prediction by ZEFSAII (Michael W. Deem and Ramdas Pophale) SiO2 
 PCOD9058823
Probable space group: P -1
;
_chemical_formula_sum "Si O2"
_cell_formula_units_Z 14
_cell_length_a 4.934027
_cell_length_b 19.991879
_cell_length_c 7.660675
_cell_angle_alpha 109.571479
_cell_angle_beta 100.402668
_cell_angle_gamma 63.859313
_cell_volume 638.681855
_symmetry_space_group_name_H-M "P -1"
_symmetry_group_IT_number 2
_symmetry_cell_setting 'triclinic'
loop_
_space_group_symop_operation_xyz
x,y,z
-x,-y,-z
loop_
_atom_site_type_symbol
_atom_site_label
_atom_site_fract_x
_atom_site_fract_y
_atom_site_fract_z
Si Si1 0.719045 0.693575 0.564242
Si Si2 0.787960 0.085562 0.108649
Si Si3 0.815578 0.832948 0.722355
Si Si4 0.131041 0.551989 0.665918
Si Si5 0.582003 0.409670 0.747361
Si Si6 0.352930 0.766818 0.940278
Si Si7 0.790019 0.620066 0.046992
O O1 0.757814 0.767610 0.550352
O O2 0.532081 0.651736 0.408535
O O3 0.527652 0.728695 0.748370
O O4 0.046428 0.628145 0.603777
O O5 0.507264 0.901783 0.806766
O O6 0.670236 0.145345 0.982546
O O7 0.995309 0.215731 0.127175
O O8 0.000000 0.000000 0.000000
O O9 0.027651 0.874627 0.723093
O O10 0.943737 0.582599 0.849444
O O11 0.619443 0.574150 0.084523
O O12 0.000000 0.500000 0.500000
O O13 0.465124 0.490420 0.697494
O O14 0.933183 0.379036 0.805290
O O15 0.528723 0.705701 0.053746
#
# Coordination Sequence:
#
# PCOD9058823 Si02
#       7
#     2   2   2   2   2   2   2
#     4   9  19  38  55  78 107 147 191 223 271 328
#     4   9  17  30  53  88 113 130 173 226 271 311
#     4   9  18  31  54  79 109 141 176 215 272 316
#     4   9  20  41  56  79 105 150 187 234 274 320
#     4  11  24  37  54  81 108 147 185 237 273 314
#     4   8  20  33  57  77 110 144 178 216 277 317
#     4  11  23  37  55  78 115 138 185 229 278 324
#
# _framework density 21.920145999999999
#
# number of rings (size 3 to 8) (size 9 to 14) (size 15 to 20)
#    0.857    1.714    0.000    1.286    8.000    0.000 
#    2.571    2.857    0.000    0.000    0.000   14.000 
#    0.000    0.000    0.000    0.000    0.000    0.000 
#
# Total GULP energy -78027.027252 kJ/mol
# GULP energy per Si atom -5573.359089 kJ/mol
# Density = 2.187025 g / cm^3
# Si number density = 21.920146 Si / 1000 Ang^3
#
#
#
# Elastic Constant Matrix: (Units=GPa)
#
#
# Indices 1 2 3 4 5 6 
#
# 1 86.3312 12.9583 18.4116 -7.3419 19.6478 -22.2054
# 2 12.9583 117.5098 42.6224 12.5799 -2.0033 -31.4393
# 3 18.4116 42.6224 78.7874 3.0416 12.2151 -7.7768
# 4 -7.3419 12.5799 3.0416 26.8114 -2.7554 0.5779
# 5 19.6478 -2.0033 12.2151 -2.7554 28.5828 -2.4808
# 6 -22.2054 -31.4393 -7.7768 0.5779 -2.4808 35.4927
#
#
#
# Elastic Compliance Matrix: (Units=1/GPa)
#
#
# Indices 1 2 3 4 5 6 
#
# 1 0.017001 0.001290 -0.002291 0.003116 -0.009399 0.010569
# 2 0.001290 0.015375 -0.007730 -0.005848 0.004068 0.013112
# 3 -0.002291 -0.007730 0.018013 0.000336 -0.007052 -0.004832
# 4 0.003116 -0.005848 0.000336 0.041034 0.000934 -0.003760
# 5 -0.009399 0.004068 -0.007052 0.000934 0.044775 -0.000708
# 6 0.010569 0.013112 -0.004832 -0.003760 -0.000708 0.045355
#
#
# Mechanical properties :
#
#
# Convention : Reuss Voigt Hill
#
# Bulk Modulus (GPa) = 30.36928 47.84589 39.10759
# Shear Modulus (GPa) = 23.81084 32.08647 27.94865
#
# Velocity S-wave (km/s) = 3.29941 3.83010 3.57462
# Velocity P-wave (km/s) = 5.32911 6.43695 5.90905
#
# Compressibility (1/GPa) = 0.03292801
#
# Stress axis : x y z
#
# Youngs Moduli (GPa) = 58.82040 65.04141 55.51623
#
# Poissons Ratio (x) = -0.08390 0.12716
# Poissons Ratio (y) = -0.07588 0.42912
# Poissons Ratio (z) = 0.13473 0.50275
#
# Static dielectric constant tensor:
#      x y z
#    x 1.840260 0.017570 -0.024500 
#    y 0.017570 1.870340 -0.026430 
#    z -0.024500 -0.026430 1.867080 
# 
# From -- ./inp_files/136574.got.cif
#   From: 2010.05.17/outbox.cif.g08.bks.cpg/sg2_69_cif.got.tgz:136574.got - 2010.06.03 11:33:40.
