data_PCOD9058077
_publ_section_title
;
Structure prediction by ZEFSAII (Michael W. Deem and Ramdas Pophale) SiO2 
 PCOD9058077
Probable space group: P -1
;
_chemical_formula_sum "Si O2"
_cell_formula_units_Z 12
_cell_length_a 9.516461
_cell_length_b 11.937477
_cell_length_c 10.529935
_cell_angle_alpha 117.077074
_cell_angle_beta 90.710389
_cell_angle_gamma 37.030607
_cell_volume 484.959372
_symmetry_space_group_name_H-M "P -1"
_symmetry_group_IT_number 2
_symmetry_cell_setting 'triclinic'
loop_
_space_group_symop_operation_xyz
x,y,z
-x,-y,-z
loop_
_atom_site_type_symbol
_atom_site_label
_atom_site_fract_x
_atom_site_fract_y
_atom_site_fract_z
Si Si1 0.410724 0.947500 0.393880
Si Si2 0.772864 0.316327 0.578957
Si Si3 0.133309 0.608079 0.941224
Si Si4 0.559063 0.298375 0.020523
Si Si5 0.593881 0.852962 0.056252
Si Si6 0.188966 0.881893 0.736573
O O1 0.653388 0.643377 0.280837
O O2 0.421119 0.973948 0.254896
O O3 0.500000 0.000000 0.500000
O O4 0.076567 0.155101 0.521494
O O5 0.549441 0.498909 0.791203
O O6 0.543207 0.572086 0.611069
O O7 0.847101 0.123288 0.415552
O O8 0.388450 0.445774 0.962073
O O9 0.898783 0.683510 0.014900
O O10 0.912132 0.905440 0.094631
O O11 0.412351 0.286040 0.062774
O O12 0.926964 0.999235 0.855419
O O13 0.500000 0.000000 0.000000
#
# Coordination Sequence:
#
# PCOD9058077 Si02
#       6
#     2   2   2   2   2   2
#     4  11  23  46  74 105 142 184 242 298 346 420
#     4  11  23  42  71  99 138 183 236 288 357 417
#     4  11  23  43  68 101 141 184 234 291 357 418
#     4  11  22  44  70  94 145 185 231 293 358 417
#     4  11  23  43  70 101 142 189 233 289 358 419
#     4  11  24  44  67 102 143 182 234 290 363 423
#
# _framework density 24.744339
#
# number of rings (size 3 to 8) (size 9 to 14) (size 15 to 20)
#    0.000    1.000    3.333    6.000    0.000    0.667 
#    3.000    5.833    0.000    0.000    0.000    0.000 
#    0.000    0.000    0.000    0.000    0.000    0.000 
#
# Total GULP energy -66836.122886 kJ/mol
# GULP energy per Si atom -5569.676907 kJ/mol
# Density = 2.468802 g / cm^3
# Si number density = 24.744339 Si / 1000 Ang^3
#
#
#
# Elastic Constant Matrix: (Units=GPa)
#
#
# Indices 1 2 3 4 5 6 
#
# 1 146.0218 41.2334 56.1265 11.9291 12.7668 -12.6200
# 2 41.2334 58.4102 19.5327 -9.3409 9.1261 -1.0261
# 3 56.1265 19.5327 138.0003 5.4732 19.1956 -4.8054
# 4 11.9291 -9.3409 5.4732 48.4647 -7.5183 -1.8232
# 5 12.7668 9.1261 19.1956 -7.5183 60.5266 -0.4759
# 6 -12.6200 -1.0261 -4.8054 -1.8232 -0.4759 42.5784
#
#
#
# Elastic Compliance Matrix: (Units=1/GPa)
#
#
# Indices 1 2 3 4 5 6 
#
# 1 0.010482 -0.006828 -0.002978 -0.003570 -0.000661 0.002446
# 2 -0.006828 0.023271 -0.000643 0.006015 -0.001127 -0.001291
# 3 -0.002978 -0.000643 0.008883 -0.000731 -0.002182 0.000049
# 4 -0.003570 0.006015 -0.000731 0.023215 0.002962 0.000031
# 5 -0.000661 -0.001127 -0.002182 0.002962 0.017890 -0.000143
# 6 0.002446 -0.001291 0.000049 0.000031 -0.000143 0.024185
#
#
# Mechanical properties :
#
#
# Convention : Reuss Voigt Hill
#
# Bulk Modulus (GPa) = 46.00504 64.02419 55.01461
# Shear Modulus (GPa) = 36.74556 45.34990 41.04773
#
# Velocity S-wave (km/s) = 3.85776 4.28569 4.07735
# Velocity P-wave (km/s) = 6.20287 7.10070 6.66692
#
# Compressibility (1/GPa) = 0.02173675
#
# Stress axis : x y z
#
# Youngs Moduli (GPa) = 95.40188 42.97165 112.57684
#
# Poissons Ratio (x) = 0.29343 0.33524
# Poissons Ratio (y) = 0.65144 0.07242
# Poissons Ratio (z) = 0.28410 0.02764
#
# Static dielectric constant tensor:
#      x y z
#    x 1.956210 0.076630 0.070050 
#    y 0.076630 2.102360 -0.012900 
#    z 0.070050 -0.012900 2.030340 
# 
# From -- ./inp_files/190063.got.cif
#   From: 2010.05.17/outbox.cif.g08.bks.cpg/sg2_96_cif.got.tgz:190063.got - 2010.06.03 11:33:40.
