data_PCOD9058170
_publ_section_title
;
Structure prediction by ZEFSAII (Michael W. Deem and Ramdas Pophale) SiO2 
 PCOD9058170
Probable space group: P -1
;
_chemical_formula_sum "Si O2"
_cell_formula_units_Z 16
_cell_length_a 22.869175
_cell_length_b 9.038347
_cell_length_c 11.310801
_cell_angle_alpha 123.175190
_cell_angle_beta 22.631904
_cell_angle_gamma 120.318137
_cell_volume 753.016470
_symmetry_space_group_name_H-M "P -1"
_symmetry_group_IT_number 2
_symmetry_cell_setting 'triclinic'
loop_
_space_group_symop_operation_xyz
x,y,z
-x,-y,-z
loop_
_atom_site_type_symbol
_atom_site_label
_atom_site_fract_x
_atom_site_fract_y
_atom_site_fract_z
Si Si1 0.280753 0.813590 0.647811
Si Si2 0.949769 0.706413 0.177396
Si Si3 0.860956 0.594477 0.859183
Si Si4 0.732234 0.937306 0.847138
Si Si5 0.708280 0.292536 0.162870
Si Si6 0.635812 0.813002 0.222895
Si Si7 0.871133 0.856886 0.149310
Si Si8 0.454278 0.969020 0.207369
O O1 0.277021 0.686635 0.713747
O O2 0.389980 0.793550 0.320610
O O3 0.331427 0.997771 0.694971
O O4 0.108802 0.811508 0.923936
O O5 0.850722 0.800871 0.506837
O O6 0.860064 0.742559 0.239501
O O7 0.000000 0.500000 0.000000
O O8 0.000000 0.500000 0.500000
O O9 0.763736 0.461203 0.062538
O O10 0.757170 0.679315 0.989593
O O11 0.928325 0.741708 0.883880
O O12 0.651364 0.838721 0.064846
O O13 0.608863 0.000240 0.006968
O O14 0.794003 0.118114 0.872933
O O15 0.530579 0.251539 0.459992
O O16 0.703159 0.918484 0.448786
O O17 0.000000 0.000000 0.000000
O O18 0.500000 0.000000 0.000000
#
# Coordination Sequence:
#
# PCOD9058170 Si02
#       8
#     2   2   2   2   2   2   2   2
#     4  11  22  45  70  97 136 179 233 283 353 415
#     4  12  27  44  67  99 144 185 235 286 351 416
#     4  12  28  42  68 109 142 182 239 290 346 413
#     4  11  24  43  74 104 130 188 238 286 352 422
#     4  11  23  43  74  99 142 176 232 294 354 409
#     4  11  22  44  72  99 140 179 228 295 355 414
#     4  12  25  47  71  95 146 191 227 287 349 416
#     4  12  22  42  73 104 131 181 244 282 341 427
#
# _framework density 21.247876000000002
#
# number of rings (size 3 to 8) (size 9 to 14) (size 15 to 20)
#    0.000    0.500    6.250    1.875    7.000    1.000 
#    0.000    1.875    0.000    0.000    0.000    0.000 
#    0.000    0.000    0.000    0.000    0.000    0.000 
#
# Total GULP energy -89216.979601 kJ/mol
# GULP energy per Si atom -5576.061225 kJ/mol
# Density = 2.119951 g / cm^3
# Si number density = 21.247876 Si / 1000 Ang^3
#
#
#
# Elastic Constant Matrix: (Units=GPa)
#
#
# Indices 1 2 3 4 5 6 
#
# 1 146.4976 44.7110 40.6802 -3.4617 17.0851 -22.3084
# 2 44.7110 83.0918 32.5930 3.6426 -1.9315 -8.3006
# 3 40.6802 32.5930 90.5693 6.0525 15.7871 11.1630
# 4 -3.4617 3.6426 6.0525 33.2431 2.0935 2.2979
# 5 17.0851 -1.9315 15.7871 2.0935 34.6138 -1.4908
# 6 -22.3084 -8.3006 11.1630 2.2979 -1.4908 42.1725
#
#
#
# Elastic Compliance Matrix: (Units=1/GPa)
#
#
# Indices 1 2 3 4 5 6 
#
# 1 0.010195 -0.003805 -0.003367 0.001952 -0.003599 0.005302
# 2 -0.003805 0.016777 -0.005560 -0.001786 0.005590 0.003056
# 3 -0.003367 -0.005560 0.016725 -0.001864 -0.006484 -0.007430
# 4 0.001952 -0.001786 -0.001864 0.030994 -0.002113 -0.000589
# 5 -0.003599 0.005590 -0.006484 -0.002113 0.034160 0.002235
# 6 0.005302 0.003056 -0.007430 -0.000589 0.002235 0.029196
#
#
# Mechanical properties :
#
#
# Convention : Reuss Voigt Hill
#
# Bulk Modulus (GPa) = 54.84386 61.79191 58.31789
# Shear Modulus (GPa) = 29.48327 35.48417 32.48372
#
# Velocity S-wave (km/s) = 3.72907 4.09101 3.91423
# Velocity P-wave (km/s) = 6.66399 7.17354 6.92346
#
# Compressibility (1/GPa) = 0.01823358
#
# Stress axis : x y z
#
# Youngs Moduli (GPa) = 98.08341 59.60617 59.79120
#
# Poissons Ratio (x) = 0.22681 0.20129
# Poissons Ratio (y) = 0.37321 0.33244
# Poissons Ratio (z) = 0.33021 0.33141
#
# Static dielectric constant tensor:
#      x y z
#    x 1.832230 -0.047850 0.024750 
#    y -0.047850 1.822150 0.005790 
#    z 0.024750 0.005790 1.776720 
# 
# From -- ./inp_files/474427.got.cif
#   From: 2010.05.17/outbox.cif.g08.bks.cpg/sg2_238_cif.got.tgz:474427.got - 2010.06.03 11:33:40.
