data_PCOD9058670
_publ_section_title
;
Structure prediction by ZEFSAII (Michael W. Deem and Ramdas Pophale) SiO2 
 PCOD9058670
Probable space group: P -1
;
_chemical_formula_sum "Si O2"
_cell_formula_units_Z 16
_cell_length_a 9.046303
_cell_length_b 10.203695
_cell_length_c 11.104219
_cell_angle_alpha 77.768222
_cell_angle_beta 120.209745
_cell_angle_gamma 123.147599
_cell_volume 738.791437
_symmetry_space_group_name_H-M "P -1"
_symmetry_group_IT_number 2
_symmetry_cell_setting 'triclinic'
loop_
_space_group_symop_operation_xyz
x,y,z
-x,-y,-z
loop_
_atom_site_type_symbol
_atom_site_label
_atom_site_fract_x
_atom_site_fract_y
_atom_site_fract_z
Si Si1 0.962044 0.854295 0.777429
Si Si2 0.980154 0.261643 0.920389
Si Si3 0.647865 0.473225 0.906352
Si Si4 0.649624 0.308614 0.699537
Si Si5 0.262726 0.170662 0.916790
Si Si6 0.781831 0.443160 0.463015
Si Si7 0.595219 0.771077 0.789260
Si Si8 0.690011 0.661887 0.491729
O O1 0.770703 0.860867 0.746867
O O2 0.871744 0.747954 0.643229
O O3 0.155320 0.026470 0.809212
O O4 0.015287 0.783936 0.929148
O O5 0.760463 0.218325 0.801132
O O6 0.085148 0.193555 0.891769
O O7 0.145695 0.449978 0.948077
O O8 0.690392 0.428185 0.802314
O O9 0.454489 0.323410 0.911724
O O10 0.602635 0.613404 0.852094
O O11 0.750565 0.387424 0.599089
O O12 0.411085 0.235800 0.597319
O O13 0.346769 0.135463 0.080569
O O14 0.618749 0.298845 0.344380
O O15 0.750177 0.591955 0.419237
O O16 0.000000 0.500000 0.500000
O O17 0.500000 0.500000 0.500000
#
# Coordination Sequence:
#
# PCOD9058670 Si02
#       8
#     2   2   2   2   2   2   2   2
#     4  10  19  40  65  85 118 169 201 239 299 367
#     4  10  20  35  61  91 119 157 205 247 293 352
#     4  10  20  36  60  88 122 155 199 253 293 351
#     4  11  21  35  60  89 124 155 197 252 303 346
#     4  10  22  36  63  88 123 159 204 245 302 349
#     4  11  22  34  65  95 116 151 206 254 294 355
#     4  10  17  37  62  87 120 155 202 247 293 352
#     4  10  18  39  62  86 117 158 197 240 300 356
#
# _framework density 21.656991999999999
#
# number of rings (size 3 to 8) (size 9 to 14) (size 15 to 20)
#    0.000    2.000    3.750    5.625    3.500    0.000 
#    0.000    1.875    2.750    0.000    0.000    0.000 
#    0.000    0.000    0.000    0.000    0.000    0.000 
#
# Total GULP energy -89155.168588 kJ/mol
# GULP energy per Si atom -5572.198037 kJ/mol
# Density = 2.160770 g / cm^3
# Si number density = 21.656992 Si / 1000 Ang^3
#
#
#
# Elastic Constant Matrix: (Units=GPa)
#
#
# Indices 1 2 3 4 5 6 
#
# 1 80.7367 5.2483 37.3029 1.1109 19.0487 6.1487
# 2 5.2483 65.8424 17.2383 26.0717 6.6986 5.1911
# 3 37.3029 17.2383 109.1086 19.9850 11.4162 -10.1698
# 4 1.1109 26.0717 19.9850 33.0689 -8.2671 0.3547
# 5 19.0487 6.6986 11.4162 -8.2671 32.2273 4.5030
# 6 6.1487 5.1911 -10.1698 0.3547 4.5030 13.9242
#
#
#
# Elastic Compliance Matrix: (Units=1/GPa)
#
#
# Indices 1 2 3 4 5 6 
#
# 1 0.017893 0.001700 -0.006858 0.000639 -0.006747 -0.011378
# 2 0.001700 0.025968 0.000334 -0.023613 -0.011770 -0.005780
# 3 -0.006858 0.000334 0.015903 -0.011578 -0.007006 0.017079
# 4 0.000639 -0.023613 -0.011578 0.062449 0.026042 -0.009948
# 5 -0.006747 -0.011770 -0.007006 0.026042 0.048600 -0.014130
# 6 -0.011378 -0.005780 0.017079 -0.009948 -0.014130 0.096294
#
#
# Mechanical properties :
#
#
# Convention : Reuss Voigt Hill
#
# Bulk Modulus (GPa) = 19.95367 41.69628 30.82497
# Shear Modulus (GPa) = 17.03807 28.90396 22.97101
#
# Velocity S-wave (km/s) = 2.80790 3.65722 3.26033
# Velocity P-wave (km/s) = 4.44364 6.09331 5.33265
#
# Compressibility (1/GPa) = 0.05011610
#
# Stress axis : x y z
#
# Youngs Moduli (GPa) = 55.88629 38.50906 62.88259
#
# Poissons Ratio (x) = -0.06545 0.43123
# Poissons Ratio (y) = -0.09499 -0.02100
# Poissons Ratio (z) = 0.38325 -0.01286
#
# Static dielectric constant tensor:
#      x y z
#    x 1.811630 -0.038720 0.020170 
#    y -0.038720 1.865740 -0.025830 
#    z 0.020170 -0.025830 1.874240 
# 
# From -- ./inp_files/392524.got.cif
#   From: 2010.05.17/outbox.cif.g08.bks.cpg/sg2_197_cif.got.tgz:392524.got - 2010.06.03 11:33:40.
