data_PCOD9058444
_publ_section_title
;
Structure prediction by ZEFSAII (Michael W. Deem and Ramdas Pophale) SiO2 
 PCOD9058444
Probable space group: P -1
;
_chemical_formula_sum "Si O2"
_cell_formula_units_Z 14
_cell_length_a 17.456147
_cell_length_b 9.398668
_cell_length_c 14.166521
_cell_angle_alpha 50.429537
_cell_angle_beta 22.241683
_cell_angle_gamma 51.655372
_cell_volume 674.370062
_symmetry_space_group_name_H-M "P -1"
_symmetry_group_IT_number 2
_symmetry_cell_setting 'triclinic'
loop_
_space_group_symop_operation_xyz
x,y,z
-x,-y,-z
loop_
_atom_site_type_symbol
_atom_site_label
_atom_site_fract_x
_atom_site_fract_y
_atom_site_fract_z
Si Si1 0.550860 0.305740 0.345303
Si Si2 0.101188 0.955913 0.004570
Si Si3 0.314480 0.511834 0.355500
Si Si4 0.849442 0.691312 0.078663
Si Si5 0.116192 0.323634 0.498985
Si Si6 0.152224 0.389233 0.094594
Si Si7 0.613369 0.812069 0.912197
O O1 0.438570 0.390170 0.344330
O O2 0.375384 0.317126 0.618735
O O3 0.669231 0.113448 0.257806
O O4 0.726702 0.429089 0.128561
O O5 0.020471 0.787691 0.228138
O O6 0.072608 0.138887 0.024347
O O7 0.000000 0.000000 0.000000
O O8 0.284065 0.405173 0.338655
O O9 0.085301 0.563356 0.632458
O O10 0.440194 0.687049 0.127896
O O11 0.830371 0.722563 0.975472
O O12 0.000000 0.500000 0.000000
O O13 0.226598 0.182521 0.357151
O O14 0.000000 0.500000 0.500000
O O15 0.260570 0.282770 0.104093
O O16 0.500000 0.000000 0.000000
#
# Coordination Sequence:
#
# PCOD9058444 Si02
#       7
#     2   2   2   2   2   2   2
#     4  11  23  46  71 101 139 189 241 296 360 433
#     4  12  27  46  74 110 147 187 248 302 355 442
#     4  11  22  45  73  97 142 188 245 294 363 427
#     4  12  25  42  72 104 144 194 232 294 375 430
#     4  12  24  48  74 103 142 197 243 295 363 429
#     4  11  23  44  68 101 141 184 237 303 357 432
#     4  11  27  41  68 105 140 182 241 305 359 428
#
# _framework density 20.760114000000002
#
# number of rings (size 3 to 8) (size 9 to 14) (size 15 to 20)
#    0.000    0.571    4.286    3.857    2.000    4.000 
#    0.000    0.000    0.000    0.000    0.000    0.000 
#    0.000    0.000    0.000    0.000    0.000    0.000 
#
# Total GULP energy -78250.206257 kJ/mol
# GULP energy per Si atom -5589.300447 kJ/mol
# Density = 2.071286 g / cm^3
# Si number density = 20.760114 Si / 1000 Ang^3
#
#
#
# Elastic Constant Matrix: (Units=GPa)
#
#
# Indices 1 2 3 4 5 6 
#
# 1 123.6262 41.3352 51.5153 1.0506 8.2957 28.9513
# 2 41.3352 109.8541 55.4485 23.2761 3.7499 15.2489
# 3 51.5153 55.4485 134.1431 13.9700 6.9583 -5.6528
# 4 1.0506 23.2761 13.9700 31.5976 5.7489 5.4998
# 5 8.2957 3.7499 6.9583 5.7489 40.4937 6.6437
# 6 28.9513 15.2489 -5.6528 5.4998 6.6437 36.1471
#
#
#
# Elastic Compliance Matrix: (Units=1/GPa)
#
#
# Indices 1 2 3 4 5 6 
#
# 1 0.013820 -0.001897 -0.005576 0.005571 -0.000537 -0.011889
# 2 -0.001897 0.014432 -0.004673 -0.008051 0.001718 -0.004391
# 3 -0.005576 -0.004673 0.012320 -0.003118 -0.001598 0.009132
# 4 0.005571 -0.008051 -0.003118 0.040800 -0.004515 -0.006931
# 5 -0.000537 0.001718 -0.001598 -0.004515 0.026332 -0.004697
# 6 -0.011889 -0.004391 0.009132 -0.006931 -0.004697 0.042386
#
#
# Mechanical properties :
#
#
# Convention : Reuss Voigt Hill
#
# Bulk Modulus (GPa) = 61.42607 73.80238 67.61423
# Shear Modulus (GPa) = 27.80736 36.26929 32.03832
#
# Velocity S-wave (km/s) = 3.66383 4.18433 3.93270
# Velocity P-wave (km/s) = 6.89572 7.67933 7.29805
#
# Compressibility (1/GPa) = 0.01627973
#
# Stress axis : x y z
#
# Youngs Moduli (GPa) = 72.35925 69.29127 81.16738
#
# Poissons Ratio (x) = 0.13144 0.45263
# Poissons Ratio (y) = 0.13726 0.37927
# Poissons Ratio (z) = 0.40351 0.32378
#
# Static dielectric constant tensor:
#      x y z
#    x 1.704900 0.034380 0.039170 
#    y 0.034380 1.719420 -0.050040 
#    z 0.039170 -0.050040 1.755540 
# 
# From -- ./inp_files/60360.got.cif
#   From: 2010.05.17/outbox.cif.g08.bks.cpg/sg2_31_cif.got.tgz:60360.got - 2010.06.03 11:33:40.
