data_PCOD9058568
_publ_section_title
;
Structure prediction by ZEFSAII (Michael W. Deem and Ramdas Pophale) SiO2 
 PCOD9058568
Probable space group: P -1
;
_chemical_formula_sum "Si O2"
_cell_formula_units_Z 16
_cell_length_a 13.296398
_cell_length_b 7.404722
_cell_length_c 16.442621
_cell_angle_alpha 90.693058
_cell_angle_beta 147.841796
_cell_angle_gamma 107.375461
_cell_volume 701.659404
_symmetry_space_group_name_H-M "P -1"
_symmetry_group_IT_number 2
_symmetry_cell_setting 'triclinic'
loop_
_space_group_symop_operation_xyz
x,y,z
-x,-y,-z
loop_
_atom_site_type_symbol
_atom_site_label
_atom_site_fract_x
_atom_site_fract_y
_atom_site_fract_z
Si Si1 0.386640 0.262611 0.751072
Si Si2 0.616553 0.070237 0.344576
Si Si3 0.285431 0.332351 0.293322
Si Si4 0.197390 0.016537 0.966037
Si Si5 0.658247 0.063171 0.686836
Si Si6 0.112203 0.448928 0.503697
Si Si7 0.183332 0.394815 0.045703
Si Si8 0.286455 0.018755 0.844943
O O1 0.294145 0.407072 0.664309
O O2 0.352046 0.197968 0.820978
O O3 0.257808 0.030519 0.611258
O O4 0.648414 0.398985 0.896399
O O5 0.773153 0.331714 0.471228
O O6 0.482653 0.943151 0.333025
O O7 0.425011 0.034055 0.149089
O O8 0.500000 0.500000 0.500000
O O9 0.041838 0.215205 0.174300
O O10 0.305420 0.132364 0.280518
O O11 0.272244 0.432069 0.199677
O O12 0.194141 0.198995 0.015359
O O13 0.219525 0.065536 0.885903
O O14 0.911931 0.292805 0.856808
O O15 0.500000 0.000000 0.500000
O O16 0.000000 0.500000 0.500000
O O17 0.925259 0.223657 0.329775
O O18 0.500000 0.000000 0.000000
#
# Coordination Sequence:
#
# PCOD9058568 Si02
#       8
#     2   2   2   2   2   2   2   2
#     4  12  27  45  78 110 139 200 250 293 376 441
#     4  12  24  48  75 103 152 191 241 307 374 434
#     4  11  24  43  74 105 141 200 246 296 372 442
#     4  11  22  46  72 100 151 195 235 308 365 430
#     4  11  25  44  68 111 148 189 245 303 369 440
#     4  12  26  51  75 102 146 194 243 313 366 428
#     4  11  24  48  73 103 152 198 239 304 373 433
#     4  12  27  46  70 112 144 187 253 297 367 444
#
# _framework density 22.803087000000001
#
# number of rings (size 3 to 8) (size 9 to 14) (size 15 to 20)
#    0.000    0.500    6.250    1.125    5.250    4.000 
#    0.000    0.000    0.000    0.000    0.000    0.000 
#    0.000    0.000    0.000    0.000    0.000    0.000 
#
# Total GULP energy -89590.936210 kJ/mol
# GULP energy per Si atom -5599.433513 kJ/mol
# Density = 2.275119 g / cm^3
# Si number density = 22.803087 Si / 1000 Ang^3
#
#
#
# Elastic Constant Matrix: (Units=GPa)
#
#
# Indices 1 2 3 4 5 6 
#
# 1 141.3136 41.9634 29.4039 -6.3806 -12.6495 28.4901
# 2 41.9634 109.5116 27.6209 14.2669 -0.4651 13.2589
# 3 29.4039 27.6209 106.8466 16.0193 -12.8248 27.2248
# 4 -6.3806 14.2669 16.0193 30.4739 1.4203 9.3931
# 5 -12.6495 -0.4651 -12.8248 1.4203 33.8711 -4.9106
# 6 28.4901 13.2589 27.2248 9.3931 -4.9106 51.7042
#
#
#
# Elastic Compliance Matrix: (Units=1/GPa)
#
#
# Indices 1 2 3 4 5 6 
#
# 1 0.009796 -0.003629 -0.001147 0.005691 0.002257 -0.004683
# 2 -0.003629 0.011529 -0.001506 -0.005516 -0.001434 0.000702
# 3 -0.001147 -0.001506 0.012332 -0.004893 0.003813 -0.004224
# 4 0.005691 -0.005516 -0.004893 0.041409 -0.002541 -0.006909
# 5 0.002257 -0.001434 0.003813 -0.002541 0.031986 0.000616
# 6 -0.004683 0.000702 -0.004224 -0.006909 0.000616 0.025279
#
#
# Mechanical properties :
#
#
# Convention : Reuss Voigt Hill
#
# Bulk Modulus (GPa) = 47.40840 61.73867 54.57354
# Shear Modulus (GPa) = 32.91069 40.45543 36.68306
#
# Velocity S-wave (km/s) = 3.80314 4.21660 4.01520
# Velocity P-wave (km/s) = 6.33409 7.13020 6.74390
#
# Compressibility (1/GPa) = 0.02109331
#
# Stress axis : x y z
#
# Youngs Moduli (GPa) = 102.08373 86.73468 81.09197
#
# Poissons Ratio (x) = 0.31479 0.09300
# Poissons Ratio (y) = 0.37049 0.12210
# Poissons Ratio (z) = 0.11707 0.13060
#
# Static dielectric constant tensor:
#      x y z
#    x 1.822070 -0.021750 0.031430 
#    y -0.021750 1.893260 0.050310 
#    z 0.031430 0.050310 1.880310 
# 
# From -- ./inp_files/572876.got.cif
#   From: 2010.05.17/outbox.cif.g08.bks.cpg/sg2_287_cif.got.tgz:572876.got - 2010.06.03 11:33:40.
