data_PCOD9058795
_publ_section_title
;
Structure prediction by ZEFSAII (Michael W. Deem and Ramdas Pophale) SiO2 
 PCOD9058795
Probable space group: P -1
;
_chemical_formula_sum "Si O2"
_cell_formula_units_Z 16
_cell_length_a 14.168635
_cell_length_b 21.835818
_cell_length_c 19.098102
_cell_angle_alpha 21.883565
_cell_angle_beta 19.651556
_cell_angle_gamma 29.993889
_cell_volume 739.182893
_symmetry_space_group_name_H-M "P -1"
_symmetry_group_IT_number 2
_symmetry_cell_setting 'triclinic'
loop_
_space_group_symop_operation_xyz
x,y,z
-x,-y,-z
loop_
_atom_site_type_symbol
_atom_site_label
_atom_site_fract_x
_atom_site_fract_y
_atom_site_fract_z
Si Si1 0.762024 0.907596 0.945236
Si Si2 0.348893 0.625096 0.544343
Si Si3 0.109171 0.506944 0.262041
Si Si4 0.467566 0.216820 0.341584
Si Si5 0.888090 0.585000 0.804199
Si Si6 0.542391 0.594958 0.169395
Si Si7 0.191325 0.054387 0.574024
Si Si8 0.080998 0.099215 0.407582
O O1 0.651813 0.720749 0.224082
O O2 0.877489 0.973346 0.868907
O O3 0.017986 0.963939 0.655724
O O4 0.500000 0.000000 0.000000
O O5 0.353627 0.481877 0.749227
O O6 0.206135 0.586513 0.610032
O O7 0.142903 0.759912 0.576017
O O8 0.282531 0.369892 0.326255
O O9 0.149097 0.491166 0.165932
O O10 0.783733 0.460958 0.551047
O O11 0.252940 0.686009 0.990119
O O12 0.276013 0.112865 0.530369
O O13 0.590540 0.084681 0.447897
O O14 0.807122 0.774317 0.650331
O O15 0.700940 0.524491 0.065522
O O16 0.625525 0.791162 0.910108
O O17 0.000000 0.000000 0.500000
#
# Coordination Sequence:
#
# PCOD9058795 Si02
#       8
#     2   2   2   2   2   2   2   2
#     4  10  18  34  61  91 115 161 197 233 308 373
#     4  10  21  38  57  90 127 164 201 233 313 376
#     4  10  22  40  62  87 116 157 217 247 303 356
#     4   9  21  38  60  90 113 161 207 257 298 356
#     4  10  20  38  61  86 126 160 192 258 300 362
#     4  11  22  41  59  89 127 166 198 251 309 360
#     4  10  17  37  63  82 123 158 195 254 310 350
#     4  10  21  35  56  87 130 157 196 252 297 362
#
# _framework density 21.645520000000001
#
# number of rings (size 3 to 8) (size 9 to 14) (size 15 to 20)
#    0.000    2.000    3.750    2.250    1.750    1.500 
#    6.750    6.250    0.000    0.000    0.000    0.000 
#    0.000    0.000    0.000    0.000    0.000    0.000 
#
# Total GULP energy -89144.682745 kJ/mol
# GULP energy per Si atom -5571.542672 kJ/mol
# Density = 2.159625 g / cm^3
# Si number density = 21.645520 Si / 1000 Ang^3
#
#
#
# Elastic Constant Matrix: (Units=GPa)
#
#
# Indices 1 2 3 4 5 6 
#
# 1 87.2686 25.8361 47.7164 0.8076 -15.9122 -19.4184
# 2 25.8361 48.0145 22.3131 -13.8618 -3.7001 -15.7479
# 3 47.7164 22.3131 136.3941 8.2402 -18.4109 -3.3724
# 4 0.8076 -13.8618 8.2402 22.7769 -6.1600 -2.0924
# 5 -15.9122 -3.7001 -18.4109 -6.1600 46.1327 -5.2980
# 6 -19.4184 -15.7479 -3.3724 -2.0924 -5.2980 44.6069
#
#
#
# Elastic Compliance Matrix: (Units=1/GPa)
#
#
# Indices 1 2 3 4 5 6 
#
# 1 0.017638 -0.005147 -0.004551 -0.000339 0.004503 0.006036
# 2 -0.005147 0.038730 -0.005313 0.028058 0.004435 0.012874
# 3 -0.004551 -0.005313 0.010233 -0.006865 0.000791 -0.003311
# 4 -0.000339 0.028058 -0.006865 0.067416 0.009956 0.013584
# 5 0.004503 0.004435 0.000791 0.009956 0.026051 0.007147
# 6 0.006036 0.012874 -0.003311 0.013584 0.007147 0.030826
#
#
# Mechanical properties :
#
#
# Convention : Reuss Voigt Hill
#
# Bulk Modulus (GPa) = 27.33889 51.48982 39.41436
# Shear Modulus (GPa) = 21.44904 34.42409 27.93656
#
# Velocity S-wave (km/s) = 3.15131 3.99225 3.59644
# Velocity P-wave (km/s) = 5.08907 6.71492 5.95772
#
# Compressibility (1/GPa) = 0.03657793
#
# Stress axis : x y z
#
# Youngs Moduli (GPa) = 56.69447 25.81950 97.72607
#
# Poissons Ratio (x) = 0.13290 0.44476
# Poissons Ratio (y) = 0.29183 0.51925
# Poissons Ratio (z) = 0.25802 0.13719
#
# Static dielectric constant tensor:
#      x y z
#    x 1.876860 0.013780 -0.027840 
#    y 0.013780 1.850080 0.006280 
#    z -0.027840 0.006280 1.843100 
# 
# From -- ./inp_files/598512.got.cif
#   From: 2010.05.17/outbox.cif.g08.bks.cpg/sg2_300_cif.got.tgz:598512.got - 2010.06.03 11:33:40.
