data_PCOD9058644
_publ_section_title
;
Structure prediction by ZEFSAII (Michael W. Deem and Ramdas Pophale) SiO2 
 PCOD9058644
Probable space group: P -1
;
_chemical_formula_sum "Si O2"
_cell_formula_units_Z 14
_cell_length_a 11.754488
_cell_length_b 12.976541
_cell_length_c 13.846393
_cell_angle_alpha 43.576303
_cell_angle_beta 31.279249
_cell_angle_gamma 32.341543
_cell_volume 586.612648
_symmetry_space_group_name_H-M "P -1"
_symmetry_group_IT_number 2
_symmetry_cell_setting 'triclinic'
loop_
_space_group_symop_operation_xyz
x,y,z
-x,-y,-z
loop_
_atom_site_type_symbol
_atom_site_label
_atom_site_fract_x
_atom_site_fract_y
_atom_site_fract_z
Si Si1 0.891058 0.437976 0.984946
Si Si2 0.376649 0.395199 0.127035
Si Si3 0.835165 0.367805 0.363607
Si Si4 0.810812 0.919052 0.855012
Si Si5 0.513834 0.814315 0.621123
Si Si6 0.891409 0.112272 0.821881
Si Si7 0.716668 0.447754 0.613778
O O1 0.860684 0.458246 0.877402
O O2 0.014097 0.548092 0.845541
O O3 0.583425 0.514356 0.193112
O O4 0.094378 0.231909 0.025269
O O5 0.334682 0.313783 0.306538
O O6 0.500000 0.500000 0.000000
O O7 0.616691 0.202960 0.023619
O O8 0.500000 0.500000 0.500000
O O9 0.992015 0.174824 0.318465
O O10 0.864636 0.362164 0.461544
O O11 0.843186 0.063308 0.784804
O O12 0.500000 0.000000 0.000000
O O13 0.640658 0.652872 0.554474
O O14 0.500000 0.000000 0.500000
O O15 0.175192 0.926942 0.788753
O O16 0.887770 0.291692 0.681401
#
# Coordination Sequence:
#
# PCOD9058644 Si02
#       7
#     2   2   2   2   2   2   2
#     4  11  24  47  74 106 154 194 261 302 376 469
#     4  11  22  46  77 101 143 210 247 302 394 451
#     4  12  26  45  79 105 149 206 250 310 395 439
#     4  12  25  47  74 114 150 199 254 322 376 449
#     4  12  26  46  73 114 151 191 254 323 382 451
#     4  11  24  45  72 103 152 187 263 305 367 471
#     4  11  25  50  73 110 151 201 252 317 377 467
#
# _framework density 23.865834
#
# number of rings (size 3 to 8) (size 9 to 14) (size 15 to 20)
#    0.000    0.571    5.714    2.571    4.000    3.429 
#    2.571    0.000    0.000    0.000    0.000    0.000 
#    0.000    0.000    0.000    0.000    0.000    0.000 
#
# Total GULP energy -78230.215815 kJ/mol
# GULP energy per Si atom -5587.872558 kJ/mol
# Density = 2.381151 g / cm^3
# Si number density = 23.865834 Si / 1000 Ang^3
#
#
#
# Elastic Constant Matrix: (Units=GPa)
#
#
# Indices 1 2 3 4 5 6 
#
# 1 112.0376 45.1211 33.0756 5.9249 15.6779 -9.2247
# 2 45.1211 119.3274 33.8360 -1.4429 12.3935 6.7690
# 3 33.0756 33.8360 119.4697 -1.1730 7.7100 14.5027
# 4 5.9249 -1.4429 -1.1730 51.1300 3.4641 0.7694
# 5 15.6779 12.3935 7.7100 3.4641 38.3933 4.4706
# 6 -9.2247 6.7690 14.5027 0.7694 4.4706 62.6317
#
#
#
# Elastic Compliance Matrix: (Units=1/GPa)
#
#
# Indices 1 2 3 4 5 6 
#
# 1 0.011901 -0.003644 -0.002415 -0.001350 -0.003422 0.002967
# 2 -0.003644 0.010474 -0.001711 0.000797 -0.001484 -0.001176
# 3 -0.002415 -0.001711 0.009838 0.000507 -0.000199 -0.002441
# 4 -0.001350 0.000797 0.000507 0.019861 -0.001537 -0.000537
# 5 -0.003422 -0.001484 -0.000199 -0.001537 0.028369 -0.002304
# 6 0.002967 -0.001176 -0.002441 -0.000537 -0.002304 0.017267
#
#
# Mechanical properties :
#
#
# Convention : Reuss Voigt Hill
#
# Bulk Modulus (GPa) = 59.98359 63.87778 61.93068
# Shear Modulus (GPa) = 42.08475 46.35113 44.21794
#
# Velocity S-wave (km/s) = 4.20383 4.41177 4.30905
# Velocity P-wave (km/s) = 6.98220 7.26465 7.12482
#
# Compressibility (1/GPa) = 0.01667123
#
# Stress axis : x y z
#
# Youngs Moduli (GPa) = 84.02788 95.47395 101.65004
#
# Poissons Ratio (x) = 0.34795 0.24550
# Poissons Ratio (y) = 0.30623 0.17393
# Poissons Ratio (z) = 0.20294 0.16336
#
# Static dielectric constant tensor:
#      x y z
#    x 1.975890 0.028200 -0.048000 
#    y 0.028200 1.986290 -0.062050 
#    z -0.048000 -0.062050 1.985320 
# 
# From -- ./inp_files/518719.got.cif
#   From: 2010.05.17/outbox.cif.g08.bks.cpg/sg2_260_cif.got.tgz:518719.got - 2010.06.03 11:33:40.
