data_PCOD9058094
_publ_section_title
;
Structure prediction by ZEFSAII (Michael W. Deem and Ramdas Pophale) SiO2 
 PCOD9058094
Probable space group: P -1
;
_chemical_formula_sum "Si O2"
_cell_formula_units_Z 15
_cell_length_a 16.912073
_cell_length_b 8.215713
_cell_length_c 9.663198
_cell_angle_alpha 119.338399
_cell_angle_beta 80.716766
_cell_angle_gamma 141.503794
_cell_volume 664.699638
_symmetry_space_group_name_H-M "P -1"
_symmetry_group_IT_number 2
_symmetry_cell_setting 'triclinic'
loop_
_space_group_symop_operation_xyz
x,y,z
-x,-y,-z
loop_
_atom_site_type_symbol
_atom_site_label
_atom_site_fract_x
_atom_site_fract_y
_atom_site_fract_z
Si Si1 0.351308 0.422471 0.322823
Si Si2 0.398449 0.366390 0.712504
Si Si3 0.832777 0.619513 0.154707
Si Si4 0.129029 0.684323 0.131377
Si Si5 0.649815 0.513268 0.967043
Si Si6 0.000000 0.000000 0.500000
Si Si7 0.082323 0.726567 0.439714
Si Si8 0.602187 0.259402 0.291763
O O1 0.502120 0.611810 0.348215
O O2 0.310092 0.385821 0.161217
O O3 0.362035 0.610275 0.508174
O O4 0.245335 0.066046 0.260452
O O5 0.446576 0.650514 0.742636
O O6 0.243286 0.044526 0.568964
O O7 0.393570 0.390774 0.888845
O O8 0.984261 0.936764 0.307852
O O9 0.742886 0.459015 0.257370
O O10 0.812092 0.387738 0.985734
O O11 0.773075 0.659859 0.085434
O O12 0.073203 0.559167 0.249715
O O13 0.000000 0.500000 0.000000
O O14 0.517882 0.121827 0.841695
O O15 0.030430 0.829936 0.444576
O O16 0.000000 0.500000 0.500000
#
# Coordination Sequence:
#
# PCOD9058094 Si02
#       8
#     2   2   2   2   2   1   2   2
#     4  12  25  43  72 108 148 185 247 310 373 434
#     4  11  23  46  72 101 148 192 243 307 368 441
#     4  11  24  45  73  97 145 191 246 294 374 438
#     4  12  26  47  72 103 144 194 242 304 373 441
#     4  11  24  41  68 109 139 188 245 297 372 446
#     4  12  22  50  74 100 146 194 236 304 360 432
#     4  12  28  50  75 111 147 195 252 301 374 442
#     4  11  22  44  70  99 145 190 239 302 373 438
#
# _framework density 22.566582
#
# number of rings (size 3 to 8) (size 9 to 14) (size 15 to 20)
#    0.000    0.533    5.333    4.400    3.733    1.067 
#    4.800    1.333    0.000    0.000    0.000    0.000 
#    0.000    0.000    0.000    0.000    0.000    0.000 
#
# Total GULP energy -83700.357156 kJ/mol
# GULP energy per Si atom -5580.023810 kJ/mol
# Density = 2.251522 g / cm^3
# Si number density = 22.566582 Si / 1000 Ang^3
#
#
#
# Elastic Constant Matrix: (Units=GPa)
#
#
# Indices 1 2 3 4 5 6 
#
# 1 73.5510 22.1647 19.2914 -16.5339 -3.8395 21.2866
# 2 22.1647 54.8474 34.2021 -31.0649 -1.8773 2.8552
# 3 19.2914 34.2021 168.9798 -43.5553 -13.3955 10.3498
# 4 -16.5339 -31.0649 -43.5553 45.1845 -2.9655 3.1555
# 5 -3.8395 -1.8773 -13.3955 -2.9655 34.3941 -3.2126
# 6 21.2866 2.8552 10.3498 3.1555 -3.2126 12.8824
#
#
#
# Elastic Compliance Matrix: (Units=1/GPa)
#
#
# Indices 1 2 3 4 5 6 
#
# 1 0.041925 -0.002050 0.007830 0.027308 0.002387 -0.081207
# 2 -0.002050 0.032118 0.000247 0.022359 0.002733 -0.008726
# 3 0.007830 0.000247 0.010758 0.015378 0.004127 -0.024374
# 4 0.027308 0.022359 0.015378 0.068280 0.008960 -0.076924
# 5 0.002387 0.002733 0.004127 0.008960 0.031668 -0.002164
# 6 -0.081207 -0.008726 -0.024374 -0.076924 -0.002164 0.251627
#
#
# Mechanical properties :
#
#
# Convention : Reuss Voigt Hill
#
# Bulk Modulus (GPa) = 10.32450 49.85497 30.08973
# Shear Modulus (GPa) = 10.95038 33.27354 22.11196
#
# Velocity S-wave (km/s) = 2.20522 3.84404 3.13366
# Velocity P-wave (km/s) = 3.32702 6.46858 5.14352
#
# Compressibility (1/GPa) = 0.09685701
#
# Stress axis : x y z
#
# Youngs Moduli (GPa) = 23.85191 31.13539 92.95728
#
# Poissons Ratio (x) = 0.06381 -0.72788
# Poissons Ratio (y) = 0.04889 -0.02299
# Poissons Ratio (z) = -0.18677 -0.00770
#
# Static dielectric constant tensor:
#      x y z
#    x 1.868730 0.046050 -0.003620 
#    y 0.046050 1.938060 0.029600 
#    z -0.003620 0.029600 1.892530 
# 
# From -- ./inp_files/175543.got.cif
#   From: 2010.05.17/outbox.cif.g08.bks.cpg/sg2_88_cif.got.tgz:175543.got - 2010.06.03 11:33:40.
