data_PCOD9058842
_publ_section_title
;
Structure prediction by ZEFSAII (Michael W. Deem and Ramdas Pophale) SiO2 
 PCOD9058842
Probable space group: P -1
;
_chemical_formula_sum "Si O2"
_cell_formula_units_Z 14
_cell_length_a 9.426818
_cell_length_b 8.665064
_cell_length_c 14.787329
_cell_angle_alpha 116.056883
_cell_angle_beta 129.141138
_cell_angle_gamma 45.888179
_cell_volume 672.627630
_symmetry_space_group_name_H-M "P -1"
_symmetry_group_IT_number 2
_symmetry_cell_setting 'triclinic'
loop_
_space_group_symop_operation_xyz
x,y,z
-x,-y,-z
loop_
_atom_site_type_symbol
_atom_site_label
_atom_site_fract_x
_atom_site_fract_y
_atom_site_fract_z
Si Si1 0.571008 0.463926 0.233158
Si Si2 0.637068 0.833006 0.686755
Si Si3 0.357202 0.547306 0.360837
Si Si4 0.958197 0.023383 0.268455
Si Si5 0.825594 0.089268 0.870808
Si Si6 0.100143 0.113194 0.523217
Si Si7 0.010320 0.530410 0.618520
O O1 0.513899 0.519782 0.331583
O O2 0.683519 0.210408 0.203831
O O3 0.341779 0.651376 0.137466
O O4 0.759104 0.492616 0.278098
O O5 0.684346 0.633042 0.710592
O O6 0.792917 0.729896 0.633429
O O7 0.689060 0.985705 0.792855
O O8 0.371797 0.968688 0.591750
O O9 0.500000 0.500000 0.500000
O O10 0.116206 0.781999 0.310272
O O11 0.021650 0.139274 0.394569
O O12 0.041142 0.993283 0.192034
O O13 0.000000 0.000000 0.000000
O O14 0.024642 0.323072 0.601793
O O15 0.000000 0.000000 0.500000
O O16 0.000000 0.500000 0.500000
#
# Coordination Sequence:
#
# PCOD9058842 Si02
#       7
#     2   2   2   2   2   2   2
#     4  11  23  42  63  96 132 174 223 276 327 399
#     4  12  24  41  65 100 136 179 219 270 338 406
#     4  11  23  37  64  98 143 174 204 262 344 415
#     4  11  23  40  64  98 134 175 216 265 340 399
#     4  11  26  47  69  91 126 181 243 290 319 374
#     4  12  24  37  64 102 144 170 204 267 345 419
#     4  12  23  35  61  99 133 171 213 258 337 413
#
# _framework density 20.813893
#
# number of rings (size 3 to 8) (size 9 to 14) (size 15 to 20)
#    0.000    0.571    5.714    2.571    2.000    1.714 
#    0.000    2.857    0.000    4.286    0.000    0.000 
#    0.000    0.000    0.000    0.000    0.000    0.000 
#
# Total GULP energy -78063.463420 kJ/mol
# GULP energy per Si atom -5575.961673 kJ/mol
# Density = 2.076652 g / cm^3
# Si number density = 20.813893 Si / 1000 Ang^3
#
#
#
# Elastic Constant Matrix: (Units=GPa)
#
#
# Indices 1 2 3 4 5 6 
#
# 1 105.8116 19.8423 45.0065 -10.4885 -1.6528 -5.1616
# 2 19.8423 142.9344 35.6651 -30.2242 -4.6472 -9.9009
# 3 45.0065 35.6651 86.8279 -30.4832 -13.8937 -2.6074
# 4 -10.4885 -30.2242 -30.4832 29.8014 3.7922 4.7021
# 5 -1.6528 -4.6472 -13.8937 3.7922 16.1340 -6.7527
# 6 -5.1616 -9.9009 -2.6074 4.7021 -6.7527 35.9281
#
#
#
# Elastic Compliance Matrix: (Units=1/GPa)
#
#
# Indices 1 2 3 4 5 6 
#
# 1 0.012804 -0.000685 -0.008768 -0.004616 -0.005073 0.000665
# 2 -0.000685 0.009046 -0.000230 0.008340 0.000994 0.001473
# 3 -0.008768 -0.000230 0.026449 0.021381 0.017220 0.001035
# 4 -0.004616 0.008340 0.021381 0.062436 0.003885 -0.004254
# 5 -0.005073 0.000994 0.017220 0.003885 0.082254 0.015746
# 6 0.000665 0.001473 0.001035 -0.004254 0.015746 0.031926
#
#
# Mechanical properties :
#
#
# Convention : Reuss Voigt Hill
#
# Bulk Modulus (GPa) = 34.56053 59.62243 47.09148
# Shear Modulus (GPa) = 19.69084 32.04335 25.86710
#
# Velocity S-wave (km/s) = 3.07912 3.92793 3.52913
# Velocity P-wave (km/s) = 5.41127 7.01991 6.26742
#
# Compressibility (1/GPa) = 0.02893474
#
# Stress axis : x y z
#
# Youngs Moduli (GPa) = 78.09908 110.54022 37.80869
#
# Poissons Ratio (x) = 0.07568 0.33151
# Poissons Ratio (y) = 0.05347 0.00869
# Poissons Ratio (z) = 0.68478 0.02540
#
# Static dielectric constant tensor:
#      x y z
#    x 1.829000 0.071680 -0.005870 
#    y 0.071680 1.932600 -0.032140 
#    z -0.005870 -0.032140 1.705400 
# 
# From -- ./inp_files/356557.got.cif
#   From: 2010.05.17/outbox.cif.g08.bks.cpg/sg2_179_cif.got.tgz:356557.got - 2010.06.03 11:33:40.
