data_PCOD9058341
_publ_section_title
;
Structure prediction by ZEFSAII (Michael W. Deem and Ramdas Pophale) SiO2 
 PCOD9058341
Probable space group: P -1
;
_chemical_formula_sum "Si O2"
_cell_formula_units_Z 14
_cell_length_a 11.867536
_cell_length_b 11.637702
_cell_length_c 10.474201
_cell_angle_alpha 56.076740
_cell_angle_beta 132.481098
_cell_angle_gamma 142.656076
_cell_volume 646.434873
_symmetry_space_group_name_H-M "P -1"
_symmetry_group_IT_number 2
_symmetry_cell_setting 'triclinic'
loop_
_space_group_symop_operation_xyz
x,y,z
-x,-y,-z
loop_
_atom_site_type_symbol
_atom_site_label
_atom_site_fract_x
_atom_site_fract_y
_atom_site_fract_z
Si Si1 0.417398 0.006340 0.295133
Si Si2 0.002956 0.408211 0.382785
Si Si3 0.246539 0.190415 0.570252
Si Si4 0.645304 0.044516 0.196832
Si Si5 0.454005 0.587512 0.581812
Si Si6 0.023556 0.303357 0.744330
Si Si7 0.354105 0.288992 0.073169
O O1 0.533442 0.999491 0.275089
O O2 0.418313 0.172084 0.160288
O O3 0.500000 0.000000 0.500000
O O4 0.174338 0.828623 0.234299
O O5 0.871556 0.256630 0.262086
O O6 0.898159 0.492847 0.282256
O O7 0.254147 0.569258 0.446998
O O8 0.982403 0.302703 0.562168
O O9 0.322441 0.363445 0.608180
O O10 0.374259 0.295821 0.470916
O O11 0.335460 0.101442 0.735604
O O12 0.000000 0.000000 0.500000
O O13 0.500000 0.000000 0.000000
O O14 0.595145 0.680968 0.756850
O O15 0.137373 0.226589 0.903219
O O16 0.500000 0.500000 0.000000
#
# Coordination Sequence:
#
# PCOD9058341 Si02
#       7
#     2   2   2   2   2   2   2
#     4  12  25  47  72 105 147 193 243 297 371 436
#     4  11  22  45  70 103 144 193 233 300 376 425
#     4  11  25  48  70  99 142 197 240 290 366 444
#     4  12  27  43  71 102 145 191 241 299 359 437
#     4  11  25  45  73 101 144 190 242 294 369 433
#     4  11  24  41  72 105 142 185 241 301 363 431
#     4  12  25  42  73 109 141 180 244 309 354 426
#
# _framework density 21.657247999999999
#
# number of rings (size 3 to 8) (size 9 to 14) (size 15 to 20)
#    0.000    0.571    4.286    3.857    4.000    1.143 
#    0.000    1.429    0.000    0.000    0.000    0.000 
#    0.000    0.000    0.000    0.000    0.000    0.000 
#
# Total GULP energy -77945.103520 kJ/mol
# GULP energy per Si atom -5567.507394 kJ/mol
# Density = 2.160796 g / cm^3
# Si number density = 21.657248 Si / 1000 Ang^3
#
#
#
# Elastic Constant Matrix: (Units=GPa)
#
#
# Indices 1 2 3 4 5 6 
#
# 1 46.5467 -0.1577 19.2474 2.3854 19.0503 20.3844
# 2 -0.1577 71.7099 32.0449 -5.4604 12.4083 12.3952
# 3 19.2474 32.0449 110.4969 -5.7076 24.4848 -9.7386
# 4 2.3854 -5.4604 -5.7076 30.7720 -16.6307 6.6273
# 5 19.0503 12.4083 24.4848 -16.6307 37.7299 -2.5673
# 6 20.3844 12.3952 -9.7386 6.6273 -2.5673 38.6380
#
#
#
# Elastic Compliance Matrix: (Units=1/GPa)
#
#
# Indices 1 2 3 4 5 6 
#
# 1 0.060784 0.017803 -0.011539 -0.015960 -0.038850 -0.040532
# 2 0.017803 0.023479 -0.008845 -0.001652 -0.013042 -0.019737
# 3 -0.011539 -0.008845 0.014791 -0.000894 -0.000388 0.012781
# 4 -0.015960 -0.001652 -0.000894 0.049660 0.031227 0.002282
# 5 -0.038850 -0.013042 -0.000388 0.031227 0.066032 0.023614
# 6 -0.040532 -0.019737 0.012781 0.002282 0.023614 0.057995
#
#
# Mechanical properties :
#
#
# Convention : Reuss Voigt Hill
#
# Bulk Modulus (GPa) = 10.65044 36.78031 23.71537
# Shear Modulus (GPa) = 16.17062 33.26924 24.71993
#
# Velocity S-wave (km/s) = 2.73547 3.92365 3.38215
# Velocity P-wave (km/s) = 3.86076 6.12752 5.12113
#
# Compressibility (1/GPa) = 0.09389287
#
# Stress axis : x y z
#
# Youngs Moduli (GPa) = 16.45171 42.59041 67.60654
#
# Poissons Ratio (x) = -0.75824 0.78010
# Poissons Ratio (y) = -0.29289 0.59800
# Poissons Ratio (z) = 0.18983 0.37673
#
# Static dielectric constant tensor:
#      x y z
#    x 2.187720 0.306430 0.392490 
#    y 0.306430 2.176710 0.273260 
#    z 0.392490 0.273260 2.050060 
# 
# From -- ./inp_files/425347.got.cif
#   From: 2010.05.17/outbox.cif.g08.bks.cpg/sg2_213_cif.got.tgz:425347.got - 2010.06.03 11:33:40.
