data_PCOD9058598
_publ_section_title
;
Structure prediction by ZEFSAII (Michael W. Deem and Ramdas Pophale) SiO2 
 PCOD9058598
Probable space group: P -1
;
_chemical_formula_sum "Si O2"
_cell_formula_units_Z 14
_cell_length_a 9.044882
_cell_length_b 7.940530
_cell_length_c 11.414684
_cell_angle_alpha 52.671620
_cell_angle_beta 114.599122
_cell_angle_gamma 115.483796
_cell_volume 574.520663
_symmetry_space_group_name_H-M "P -1"
_symmetry_group_IT_number 2
_symmetry_cell_setting 'triclinic'
loop_
_space_group_symop_operation_xyz
x,y,z
-x,-y,-z
loop_
_atom_site_type_symbol
_atom_site_label
_atom_site_fract_x
_atom_site_fract_y
_atom_site_fract_z
Si Si1 0.138186 0.146888 0.778149
Si Si2 0.342638 0.877832 0.077869
Si Si3 0.511132 0.982588 0.337787
Si Si4 0.192637 0.731863 0.414054
Si Si5 0.781255 0.429208 0.266040
Si Si6 0.218552 0.282691 0.489221
Si Si7 0.070725 0.469099 0.164970
O O1 0.268391 0.360673 0.785024
O O2 0.161485 0.141526 0.648720
O O3 0.952602 0.173926 0.729129
O O4 0.183157 0.952996 0.943474
O O5 0.402045 0.949237 0.196898
O O6 0.262460 0.619243 0.160977
O O7 0.500000 0.000000 0.000000
O O8 0.361814 0.918600 0.409155
O O9 0.617732 0.800013 0.454535
O O10 0.631810 0.224077 0.271742
O O11 0.130999 0.647675 0.558595
O O12 0.233105 0.529703 0.440275
O O13 0.916491 0.507906 0.176745
O O14 0.105652 0.266665 0.340959
O O15 0.000000 0.500000 0.000000
#
# Coordination Sequence:
#
# PCOD9058598 Si02
#       7
#     2   2   2   2   2   2   2
#     4  11  23  47  78  97 148 189 237 291 356 424
#     4  12  26  46  70 107 144 190 236 289 359 425
#     4  12  25  41  75 109 147 184 243 289 356 421
#     4  11  22  46  73 106 139 192 242 288 356 420
#     4  11  24  45  69 109 142 186 238 297 352 417
#     4  11  22  46  76 100 141 195 238 288 350 432
#     4  12  26  45  70 107 146 182 243 293 358 421
#
# _framework density 24.36814
#
# number of rings (size 3 to 8) (size 9 to 14) (size 15 to 20)
#    0.000    0.571    5.714    2.571    0.000    4.571 
#    0.000    2.857    0.000    0.000    0.000    0.000 
#    0.000    0.000    0.000    0.000    0.000    0.000 
#
# Total GULP energy -78090.147013 kJ/mol
# GULP energy per Si atom -5577.867644 kJ/mol
# Density = 2.431268 g / cm^3
# Si number density = 24.368140 Si / 1000 Ang^3
#
#
#
# Elastic Constant Matrix: (Units=GPa)
#
#
# Indices 1 2 3 4 5 6 
#
# 1 106.6074 44.2112 30.6811 0.6098 -14.8194 11.6731
# 2 44.2112 119.7655 17.5281 8.8274 -2.6947 34.2924
# 3 30.6811 17.5281 140.4593 29.7933 -3.8536 -16.5103
# 4 0.6098 8.8274 29.7933 29.8238 -5.2175 0.6884
# 5 -14.8194 -2.6947 -3.8536 -5.2175 49.5636 -4.0200
# 6 11.6731 34.2924 -16.5103 0.6884 -4.0200 26.1002
#
#
#
# Elastic Compliance Matrix: (Units=1/GPa)
#
#
# Indices 1 2 3 4 5 6 
#
# 1 0.012731 -0.003685 -0.003637 0.005165 0.003646 -0.002728
# 2 -0.003685 0.017086 -0.003993 -0.000883 -0.002498 -0.023687
# 3 -0.003637 -0.003993 0.012696 -0.011835 -0.000333 0.015165
# 4 0.005165 -0.000883 -0.011835 0.046548 0.004735 -0.009134
# 5 0.003646 -0.002498 -0.000333 0.004735 0.021984 0.004701
# 6 -0.002728 -0.023687 0.015165 -0.009134 0.004701 0.081213
#
#
# Mechanical properties :
#
#
# Convention : Reuss Voigt Hill
#
# Bulk Modulus (GPa) = 50.29400 61.29700 55.79550
# Shear Modulus (GPa) = 22.57172 39.39164 30.98168
#
# Velocity S-wave (km/s) = 3.04679 4.02496 3.56954
# Velocity P-wave (km/s) = 5.74989 6.84175 6.31945
#
# Compressibility (1/GPa) = 0.01988309
#
# Stress axis : x y z
#
# Youngs Moduli (GPa) = 78.54781 58.52909 78.76488
#
# Poissons Ratio (x) = 0.21568 0.28648
# Poissons Ratio (y) = 0.28944 0.31448
# Poissons Ratio (z) = 0.28569 0.23369
#
# Static dielectric constant tensor:
#      x y z
#    x 1.967610 -0.007340 -0.069860 
#    y -0.007340 2.028790 -0.020180 
#    z -0.069860 -0.020180 2.012010 
# 
# From -- ./inp_files/381144.got.cif
#   From: 2010.05.17/outbox.cif.g08.bks.cpg/sg2_191_cif.got.tgz:381144.got - 2010.06.03 11:33:40.
