data_PCOD9058207
_publ_section_title
;
Structure prediction by ZEFSAII (Michael W. Deem and Ramdas Pophale) SiO2 
 PCOD9058207
Probable space group: P -1
;
_chemical_formula_sum "Si O2"
_cell_formula_units_Z 16
_cell_length_a 11.302805
_cell_length_b 8.896519
_cell_length_c 9.678755
_cell_angle_alpha 63.926560
_cell_angle_beta 71.841291
_cell_angle_gamma 55.169030
_cell_volume 715.155298
_symmetry_space_group_name_H-M "P -1"
_symmetry_group_IT_number 2
_symmetry_cell_setting 'triclinic'
loop_
_space_group_symop_operation_xyz
x,y,z
-x,-y,-z
loop_
_atom_site_type_symbol
_atom_site_label
_atom_site_fract_x
_atom_site_fract_y
_atom_site_fract_z
Si Si1 0.880566 0.592231 0.713358
Si Si2 0.635338 0.205566 0.186799
Si Si3 0.849694 0.777088 0.946775
Si Si4 0.438062 0.859310 0.049388
Si Si5 0.426777 0.522482 0.663584
Si Si6 0.662945 0.851173 0.451423
Si Si7 0.095227 0.773574 0.015158
Si Si8 0.196940 0.457582 0.696488
O O1 0.839151 0.699864 0.833356
O O2 0.764124 0.729475 0.589653
O O3 0.890565 0.384394 0.813094
O O4 0.041235 0.554717 0.640660
O O5 0.553359 0.340323 0.291932
O O6 0.715230 0.986377 0.303346
O O7 0.540593 0.212993 0.087363
O O8 0.748612 0.265761 0.068622
O O9 0.732826 0.002968 0.918613
O O10 0.817885 0.659604 0.122306
O O11 0.006753 0.744255 0.935692
O O12 0.507171 0.681706 0.199600
O O13 0.500000 0.000000 0.000000
O O14 0.500000 0.500000 0.500000
O O15 0.258553 0.592694 0.668550
O O16 0.683134 0.698363 0.388205
O O17 0.500000 0.000000 0.500000
O O18 0.000000 0.000000 0.000000
#
# Coordination Sequence:
#
# PCOD9058207 Si02
#       8
#     2   2   2   2   2   2   2   2
#     4  11  26  43  77 103 136 195 237 287 360 425
#     4  12  25  46  69 103 143 182 232 302 352 417
#     4  11  22  44  74 102 133 184 243 285 345 435
#     4  12  25  45  73  99 140 195 240 283 355 433
#     4  12  27  44  67 106 148 182 234 302 361 412
#     4  12  27  46  69 102 146 191 240 285 350 434
#     4  11  22  45  72 107 138 174 240 303 351 413
#     4  11  22  49  68 100 141 187 238 287 348 437
#
# _framework density 22.372764
#
# number of rings (size 3 to 8) (size 9 to 14) (size 15 to 20)
#    0.000    0.500    3.750    5.250    5.250    2.000 
#    2.250    1.250    0.000    0.000    0.000    0.000 
#    0.000    0.000    0.000    0.000    0.000    0.000 
#
# Total GULP energy -89578.098806 kJ/mol
# GULP energy per Si atom -5598.631175 kJ/mol
# Density = 2.232184 g / cm^3
# Si number density = 22.372764 Si / 1000 Ang^3
#
#
#
# Elastic Constant Matrix: (Units=GPa)
#
#
# Indices 1 2 3 4 5 6 
#
# 1 121.5844 32.6694 66.1491 -3.0825 7.5322 9.0824
# 2 32.6694 102.3767 55.2390 13.0726 19.6851 11.0110
# 3 66.1491 55.2390 131.0943 -0.4575 24.3394 16.1874
# 4 -3.0825 13.0726 -0.4575 53.4369 -3.2512 5.8007
# 5 7.5322 19.6851 24.3394 -3.2512 37.0233 2.9075
# 6 9.0824 11.0110 16.1874 5.8007 2.9075 42.5721
#
#
#
# Elastic Compliance Matrix: (Units=1/GPa)
#
#
# Indices 1 2 3 4 5 6 
#
# 1 0.011548 -0.001112 -0.005711 0.001050 0.002111 -0.000292
# 2 -0.001112 0.013919 -0.004359 -0.003687 -0.004562 -0.000891
# 3 -0.005711 -0.004359 0.013637 0.000819 -0.005210 -0.002595
# 4 0.001050 -0.003687 0.000819 0.020153 0.003178 -0.002544
# 5 0.002111 -0.004562 -0.005210 0.003178 0.032707 0.000044
# 6 -0.000292 -0.000891 -0.002595 -0.002544 0.000044 0.025113
#
#
# Mechanical properties :
#
#
# Convention : Reuss Voigt Hill
#
# Bulk Modulus (GPa) = 59.74036 73.68559 66.71297
# Shear Modulus (GPa) = 34.47757 40.00633 37.24195
#
# Velocity S-wave (km/s) = 3.92988 4.23326 4.08439
# Velocity P-wave (km/s) = 6.88129 7.54327 7.21987
#
# Compressibility (1/GPa) = 0.01673910
#
# Stress axis : x y z
#
# Youngs Moduli (GPa) = 86.59351 71.84428 73.32890
#
# Poissons Ratio (x) = 0.07992 0.41876
# Poissons Ratio (y) = 0.09633 0.31968
# Poissons Ratio (z) = 0.49451 0.31320
#
# Static dielectric constant tensor:
#      x y z
#    x 1.893940 -0.005760 -0.011580 
#    y -0.005760 1.850500 0.032130 
#    z -0.011580 0.032130 1.801810 
# 
# From -- ./inp_files/190359.got.cif
#   From: 2010.05.17/outbox.cif.g08.bks.cpg/sg2_96_cif.got.tgz:190359.got - 2010.06.03 11:33:40.
