data_PCOD9058389
_publ_section_title
;
Structure prediction by ZEFSAII (Michael W. Deem and Ramdas Pophale) SiO2 
 PCOD9058389
Probable space group: P -1
;
_chemical_formula_sum "Si O2"
_cell_formula_units_Z 16
_cell_length_a 11.914647
_cell_length_b 10.096709
_cell_length_c 9.949072
_cell_angle_alpha 71.031730
_cell_angle_beta 54.511088
_cell_angle_gamma 50.933192
_cell_volume 755.046807
_symmetry_space_group_name_H-M "P -1"
_symmetry_group_IT_number 2
_symmetry_cell_setting 'triclinic'
loop_
_space_group_symop_operation_xyz
x,y,z
-x,-y,-z
loop_
_atom_site_type_symbol
_atom_site_label
_atom_site_fract_x
_atom_site_fract_y
_atom_site_fract_z
Si Si1 0.046986 0.640603 0.183797
Si Si2 0.825346 0.503331 0.412646
Si Si3 0.304194 0.574079 0.224409
Si Si4 0.494855 0.864083 0.452410
Si Si5 0.998975 0.743208 0.878667
Si Si6 0.853316 0.042652 0.238177
Si Si7 0.596797 0.955494 0.086861
Si Si8 0.638461 0.229260 0.067873
O O1 0.945384 0.566696 0.332381
O O2 0.229174 0.537677 0.158373
O O3 0.955441 0.838342 0.225863
O O4 0.046841 0.646030 0.020855
O O5 0.809257 0.404919 0.579146
O O6 0.641557 0.675590 0.460740
O O7 0.896770 0.387174 0.269776
O O8 0.495042 0.413939 0.165649
O O9 0.302891 0.734589 0.123866
O O10 0.314715 0.895857 0.582110
O O11 0.538107 0.879553 0.264601
O O12 0.500000 0.000000 0.500000
O O13 0.047839 0.879047 0.805440
O O14 0.799275 0.835649 0.968138
O O15 0.783886 0.121901 0.111244
O O16 0.559420 0.126488 0.124883
O O17 0.500000 0.000000 0.000000
#
# Coordination Sequence:
#
# PCOD9058389 Si02
#       8
#     2   2   2   2   2   2   2   2
#     4  12  23  43  75  97 137 189 236 282 340 424
#     4  12  25  42  67 105 148 170 234 293 355 401
#     4  11  25  40  69 104 139 177 234 291 343 408
#     4  12  22  46  74 103 132 189 239 284 338 423
#     4  12  26  44  69 107 139 184 226 292 356 410
#     4  12  23  46  81  97 134 191 247 279 334 431
#     4  12  27  45  71 101 144 181 233 288 354 414
#     4  11  22  45  71  98 135 187 234 281 347 416
#
# _framework density 21.190740999999999
#
# number of rings (size 3 to 8) (size 9 to 14) (size 15 to 20)
#    0.000    0.250    7.500    1.875    1.750    2.500 
#    0.000    1.875    0.000    0.000    0.000    0.000 
#    0.000    0.000    0.000    0.000    0.000    0.000 
#
# Total GULP energy -89518.856965 kJ/mol
# GULP energy per Si atom -5594.928560 kJ/mol
# Density = 2.114251 g / cm^3
# Si number density = 21.190741 Si / 1000 Ang^3
#
#
#
# Elastic Constant Matrix: (Units=GPa)
#
#
# Indices 1 2 3 4 5 6 
#
# 1 85.3028 10.0253 43.5205 2.8416 -7.4501 -6.1920
# 2 10.0253 73.9268 33.0077 0.3492 -5.1523 -0.9863
# 3 43.5205 33.0077 147.9252 -18.1442 -18.4773 2.7262
# 4 2.8416 0.3492 -18.1442 41.9578 2.9446 -6.2044
# 5 -7.4501 -5.1523 -18.4773 2.9446 37.3388 -7.1228
# 6 -6.1920 -0.9863 2.7262 -6.2044 -7.1228 23.2410
#
#
#
# Elastic Compliance Matrix: (Units=1/GPa)
#
#
# Indices 1 2 3 4 5 6 
#
# 1 0.014526 0.000220 -0.004483 -0.002411 0.001718 0.004288
# 2 0.000220 0.015160 -0.003578 -0.001602 0.000663 0.000897
# 3 -0.004483 -0.003578 0.009791 0.004292 0.003039 -0.000417
# 4 -0.002411 -0.001602 0.004292 0.026730 0.000471 0.006067
# 5 0.001718 0.000663 0.003039 0.000471 0.030516 0.009608
# 6 0.004288 0.000897 -0.000417 0.006067 0.009608 0.048821
#
#
# Mechanical properties :
#
#
# Convention : Reuss Voigt Hill
#
# Bulk Modulus (GPa) = 42.02358 53.36240 47.69299
# Shear Modulus (GPa) = 29.55830 35.21426 32.38628
#
# Velocity S-wave (km/s) = 3.73885 4.08091 3.91362
# Velocity P-wave (km/s) = 6.20587 6.88780 6.55570
#
# Compressibility (1/GPa) = 0.02379617
#
# Stress axis : x y z
#
# Youngs Moduli (GPa) = 68.84304 65.96197 102.13310
#
# Poissons Ratio (x) = -0.01451 0.45783
# Poissons Ratio (y) = -0.01515 0.36541
# Poissons Ratio (z) = 0.30860 0.23600
#
# Static dielectric constant tensor:
#      x y z
#    x 1.757760 0.003530 -0.021030 
#    y 0.003530 1.771650 -0.011440 
#    z -0.021030 -0.011440 1.773620 
# 
# From -- ./inp_files/243407.got.cif
#   From: 2010.05.17/outbox.cif.g08.bks.cpg/sg2_122_cif.got.tgz:243407.got - 2010.06.03 11:33:40.
