data_PCOD9058382
_publ_section_title
;
Structure prediction by ZEFSAII (Michael W. Deem and Ramdas Pophale) SiO2 
 PCOD9058382
Probable space group: P -1
;
_chemical_formula_sum "Si O2"
_cell_formula_units_Z 14
_cell_length_a 11.198368
_cell_length_b 10.065498
_cell_length_c 18.123979
_cell_angle_alpha 41.534884
_cell_angle_beta 29.121269
_cell_angle_gamma 55.566136
_cell_volume 633.961142
_symmetry_space_group_name_H-M "P -1"
_symmetry_group_IT_number 2
_symmetry_cell_setting 'triclinic'
loop_
_space_group_symop_operation_xyz
x,y,z
-x,-y,-z
loop_
_atom_site_type_symbol
_atom_site_label
_atom_site_fract_x
_atom_site_fract_y
_atom_site_fract_z
Si Si1 0.839202 0.474298 0.844488
Si Si2 0.281224 0.477677 0.377382
Si Si3 0.983503 0.898511 0.130384
Si Si4 0.942397 0.174676 0.303994
Si Si5 0.447582 0.167556 0.513542
Si Si6 0.344219 0.270172 0.282335
Si Si7 0.680166 0.901499 0.994751
O O1 0.036060 0.342840 0.775078
O O2 0.815603 0.601502 0.730725
O O3 0.891712 0.653074 0.803319
O O4 0.586543 0.301422 0.083696
O O5 0.282625 0.302444 0.508844
O O6 0.405191 0.401039 0.270437
O O7 0.480885 0.683692 0.213136
O O8 0.000000 0.500000 0.500000
O O9 0.729646 0.944662 0.279216
O O10 0.197524 0.982735 0.044080
O O11 0.000000 0.000000 0.000000
O O12 0.724567 0.276912 0.349490
O O13 0.809857 0.961978 0.510497
O O14 0.099928 0.124366 0.170082
O O15 0.500000 0.000000 0.500000
O O16 0.500000 0.000000 0.000000
#
# Coordination Sequence:
#
# PCOD9058382 Si02
#       7
#     2   2   2   2   2   2   2
#     4  11  26  44  71 105 155 193 248 314 382 444
#     4  12  25  47  78 107 146 196 259 315 370 453
#     4  12  28  49  72 109 156 196 254 321 381 445
#     4  12  25  46  77 106 146 202 254 303 384 456
#     4  12  25  48  75 106 149 198 251 309 378 456
#     4  11  22  45  71 108 147 193 247 316 377 444
#     4  12  26  47  78 110 146 204 260 308 379 460
#
# _framework density 22.083371
#
# number of rings (size 3 to 8) (size 9 to 14) (size 15 to 20)
#    0.000    0.286    4.286    4.714    4.000    1.143 
#   10.286    0.000    0.000    0.000    0.000    0.000 
#    0.000    0.000    0.000    0.000    0.000    0.000 
#
# Total GULP energy -78122.883908 kJ/mol
# GULP energy per Si atom -5580.205993 kJ/mol
# Density = 2.203311 g / cm^3
# Si number density = 22.083371 Si / 1000 Ang^3
#
#
#
# Elastic Constant Matrix: (Units=GPa)
#
#
# Indices 1 2 3 4 5 6 
#
# 1 105.3569 23.6102 33.3200 1.4976 20.0172 -7.1008
# 2 23.6102 87.5130 37.1564 4.3603 11.8160 -3.4102
# 3 33.3200 37.1564 102.6396 6.8051 6.2553 -0.9391
# 4 1.4976 4.3603 6.8051 41.9149 5.3597 -0.7663
# 5 20.0172 11.8160 6.2553 5.3597 32.0629 5.5533
# 6 -7.1008 -3.4102 -0.9391 -0.7663 5.5533 43.6648
#
#
#
# Elastic Compliance Matrix: (Units=1/GPa)
#
#
# Indices 1 2 3 4 5 6 
#
# 1 0.012306 -0.000877 -0.003279 0.001183 -0.007407 0.002825
# 2 -0.000877 0.014217 -0.004594 -0.000164 -0.004006 0.001376
# 3 -0.003279 -0.004594 0.012467 -0.001667 0.001738 -0.000874
# 4 0.001183 -0.000164 -0.001667 0.024724 -0.004689 0.001174
# 5 -0.007407 -0.004006 0.001738 -0.004689 0.038861 -0.006505
# 6 0.002825 0.001376 -0.000874 0.001174 -0.006505 0.024298
#
#
# Mechanical properties :
#
#
# Convention : Reuss Voigt Hill
#
# Bulk Modulus (GPa) = 46.53282 53.74251 50.13767
# Shear Modulus (GPa) = 32.99571 36.95675 34.97623
#
# Velocity S-wave (km/s) = 3.86961 4.09529 3.98405
# Velocity P-wave (km/s) = 6.40955 6.83747 6.62696
#
# Compressibility (1/GPa) = 0.02149021
#
# Stress axis : x y z
#
# Youngs Moduli (GPa) = 81.26288 70.33929 80.21187
#
# Poissons Ratio (x) = 0.06167 0.26298
# Poissons Ratio (y) = 0.07124 0.36852
# Poissons Ratio (z) = 0.26643 0.32316
#
# Static dielectric constant tensor:
#      x y z
#    x 1.897500 -0.046230 0.018510 
#    y -0.046230 1.790290 -0.046150 
#    z 0.018510 -0.046150 1.945700 
# 
# From -- ./inp_files/566400.got.cif
#   From: 2010.05.17/outbox.cif.g08.bks.cpg/sg2_284_cif.got.tgz:566400.got - 2010.06.03 11:33:40.
