data_PCOD9058502
_publ_section_title
;
Structure prediction by ZEFSAII (Michael W. Deem and Ramdas Pophale) SiO2 
 PCOD9058502
Probable space group: P -1
;
_chemical_formula_sum "Si O2"
_cell_formula_units_Z 15
_cell_length_a 15.973764
_cell_length_b 15.135674
_cell_length_c 6.081148
_cell_angle_alpha 66.661489
_cell_angle_beta 112.833216
_cell_angle_gamma 153.061857
_cell_volume 609.419462
_symmetry_space_group_name_H-M "P -1"
_symmetry_group_IT_number 2
_symmetry_cell_setting 'triclinic'
loop_
_space_group_symop_operation_xyz
x,y,z
-x,-y,-z
loop_
_atom_site_type_symbol
_atom_site_label
_atom_site_fract_x
_atom_site_fract_y
_atom_site_fract_z
Si Si1 0.210615 0.023975 0.940389
Si Si2 0.095501 0.738120 0.402183
Si Si3 0.374723 0.643026 0.056249
Si Si4 0.364136 0.343201 0.313673
Si Si5 0.000000 0.000000 0.000000
Si Si6 0.358479 0.501998 0.801916
Si Si7 0.854554 0.391317 0.154313
Si Si8 0.922840 0.724596 0.568862
O O1 0.081638 0.902416 0.715376
O O2 0.415087 0.196706 0.883886
O O3 0.183067 0.905969 0.187234
O O4 0.145322 0.057310 0.974731
O O5 0.210408 0.763403 0.627123
O O6 0.973473 0.566093 0.273013
O O7 0.986554 0.690916 0.532382
O O8 0.245720 0.460913 0.262800
O O9 0.323718 0.569103 0.823391
O O10 0.318143 0.700083 0.995749
O O11 0.500000 0.500000 0.500000
O O12 0.466944 0.342223 0.331390
O O13 0.401989 0.467342 0.068022
O O14 0.143596 0.133479 0.248393
O O15 0.167947 0.290461 0.697081
O O16 0.000000 0.500000 0.000000
#
# Coordination Sequence:
#
# PCOD9058502 Si02
#       8
#     2   2   2   2   1   2   2   2
#     4  12  27  47  74 116 153 203 265 319 390 469
#     4  11  23  45  76 108 151 198 256 324 390 468
#     4  12  24  45  74 107 150 201 254 308 394 471
#     4  11  24  46  73 104 150 205 266 324 393 460
#     4  12  24  48  74 112 162 202 264 324 388 466
#     4  11  23  45  69 103 146 199 254 314 381 461
#     4  11  22  45  80 107 144 207 254 317 410 464
#     4  12  23  48  74 105 160 200 244 329 395 459
#
# _framework density 24.613591
#
# number of rings (size 3 to 8) (size 9 to 14) (size 15 to 20)
#    0.000    0.533    5.333    3.200    0.000    1.600 
#    7.200    6.667    0.000    0.000    0.000    0.000 
#    0.000    0.000    0.000    0.000    0.000    0.000 
#
# Total GULP energy -83521.167698 kJ/mol
# GULP energy per Si atom -5568.077847 kJ/mol
# Density = 2.455757 g / cm^3
# Si number density = 24.613591 Si / 1000 Ang^3
#
#
#
# Elastic Constant Matrix: (Units=GPa)
#
#
# Indices 1 2 3 4 5 6 
#
# 1 193.4124 57.1123 61.3961 11.4695 -16.9794 16.0614
# 2 57.1123 123.4819 63.1657 35.0584 -4.6052 28.9701
# 3 61.3961 63.1657 138.8980 25.3374 8.0633 6.1423
# 4 11.4695 35.0584 25.3374 51.2633 0.5737 3.8059
# 5 -16.9794 -4.6052 8.0633 0.5737 49.0191 -2.0882
# 6 16.0614 28.9701 6.1423 3.8059 -2.0882 38.6872
#
#
#
# Elastic Compliance Matrix: (Units=1/GPa)
#
#
# Indices 1 2 3 4 5 6 
#
# 1 0.006722 -0.001819 -0.002424 0.000985 0.002502 -0.001005
# 2 -0.001819 0.015652 -0.004636 -0.007319 0.001286 -0.009440
# 3 -0.002424 -0.004636 0.010748 -0.001774 -0.002904 0.002789
# 4 0.000985 -0.007319 -0.001774 0.024958 -0.000224 0.002886
# 5 0.002502 0.001286 -0.002904 -0.000224 0.021853 -0.000339
# 6 -0.001005 -0.009440 0.002789 0.002886 -0.000339 0.032589
#
#
# Mechanical properties :
#
#
# Convention : Reuss Voigt Hill
#
# Bulk Modulus (GPa) = 65.09147 91.01561 78.05354
# Shear Modulus (GPa) = 36.92706 46.06846 41.49776
#
# Velocity S-wave (km/s) = 3.87754 4.33097 4.11051
# Velocity P-wave (km/s) = 6.82274 7.87831 7.36945
#
# Compressibility (1/GPa) = 0.01536300
#
# Stress axis : x y z
#
# Youngs Moduli (GPa) = 148.76997 63.88983 93.03919
#
# Poissons Ratio (x) = 0.11624 0.22555
# Poissons Ratio (y) = 0.27067 0.43131
# Poissons Ratio (z) = 0.36066 0.29618
#
# Static dielectric constant tensor:
#      x y z
#    x 1.963120 0.035060 -0.038660 
#    y 0.035060 1.992580 0.098100 
#    z -0.038660 0.098100 1.985060 
# 
# From -- ./inp_files/97806.got.cif
#   From: 2010.05.17/outbox.cif.g08.bks.cpg/sg2_49_cif.got.tgz:97806.got - 2010.06.03 11:33:40.
