data_PCOD9058027
_publ_section_title
;
Structure prediction by ZEFSAII (Michael W. Deem and Ramdas Pophale) SiO2 
 PCOD9058027
Probable space group: P -1
;
_chemical_formula_sum "Si O2"
_cell_formula_units_Z 16
_cell_length_a 8.848055
_cell_length_b 19.403128
_cell_length_c 23.527092
_cell_angle_alpha 21.597593
_cell_angle_beta 138.270972
_cell_angle_gamma 149.057137
_cell_volume 735.996766
_symmetry_space_group_name_H-M "P -1"
_symmetry_group_IT_number 2
_symmetry_cell_setting 'triclinic'
loop_
_space_group_symop_operation_xyz
x,y,z
-x,-y,-z
loop_
_atom_site_type_symbol
_atom_site_label
_atom_site_fract_x
_atom_site_fract_y
_atom_site_fract_z
Si Si1 0.376695 0.608144 0.529874
Si Si2 0.799238 0.410669 0.187212
Si Si3 0.256708 0.220056 0.947151
Si Si4 0.504253 0.290031 0.642764
Si Si5 0.833811 0.859269 0.812780
Si Si6 0.195391 0.756789 0.133066
Si Si7 0.176488 0.291061 0.338849
Si Si8 0.221153 0.924565 0.254323
O O1 0.362353 0.652331 0.426072
O O2 0.669110 0.661690 0.592800
O O3 0.357240 0.799565 0.407814
O O4 0.093851 0.311806 0.683240
O O5 0.435817 0.194951 0.257838
O O6 0.005255 0.526523 0.212316
O O7 0.941494 0.333565 0.244985
O O8 0.809484 0.625635 0.999207
O O9 0.533188 0.487127 0.789650
O O10 0.050372 0.227396 0.926860
O O11 0.394427 0.132781 0.093480
O O12 0.000000 0.000000 0.000000
O O13 0.500000 0.500000 0.500000
O O14 0.683436 0.274609 0.752237
O O15 0.153387 0.043555 0.730282
O O16 0.835661 0.975956 0.783288
O O17 0.500000 0.000000 0.000000
O O18 0.000000 0.000000 0.500000
#
# Coordination Sequence:
#
# PCOD9058027 Si02
#       8
#     2   2   2   2   2   2   2   2
#     4  11  25  42  69 104 147 185 232 303 355 428
#     4  11  25  46  72  96 146 188 235 300 358 426
#     4  12  24  43  76 107 137 193 246 293 362 427
#     4  12  24  40  70 105 140 186 234 292 363 416
#     4  11  24  45  70 103 141 187 240 298 356 429
#     4  12  24  44  73 110 140 184 249 303 344 431
#     4  12  28  49  69 106 151 191 237 304 368 435
#     4  11  22  44  69 102 140 183 239 293 358 422
#
# _framework density 21.739225999999999
#
# number of rings (size 3 to 8) (size 9 to 14) (size 15 to 20)
#    0.000    0.500    5.000    3.000    3.500    2.000 
#    0.000    3.125    0.000    0.000    0.000    0.000 
#    0.000    0.000    0.000    0.000    0.000    0.000 
#
# Total GULP energy -89316.787576 kJ/mol
# GULP energy per Si atom -5582.299223 kJ/mol
# Density = 2.168975 g / cm^3
# Si number density = 21.739226 Si / 1000 Ang^3
#
#
#
# Elastic Constant Matrix: (Units=GPa)
#
#
# Indices 1 2 3 4 5 6 
#
# 1 86.1870 25.7444 44.4731 -3.6817 12.1651 2.2733
# 2 25.7444 114.3260 32.9998 -0.4372 -8.6439 14.1292
# 3 44.4731 32.9998 102.9373 -1.5630 4.3741 3.0179
# 4 -3.6817 -0.4372 -1.5630 32.6582 0.4863 2.6434
# 5 12.1651 -8.6439 4.3741 0.4863 49.1545 8.6485
# 6 2.2733 14.1292 3.0179 2.6434 8.6485 29.0548
#
#
#
# Elastic Compliance Matrix: (Units=1/GPa)
#
#
# Indices 1 2 3 4 5 6 
#
# 1 0.016017 -0.002384 -0.006006 0.001416 -0.004151 0.001637
# 2 -0.002384 0.011044 -0.002492 0.000195 0.003822 -0.006081
# 3 -0.006006 -0.002492 0.013103 -0.000112 -0.000185 0.000386
# 4 0.001416 0.000195 -0.000112 0.031020 -0.000087 -0.002990
# 5 -0.004151 0.003822 -0.000185 -0.000087 0.023560 -0.008519
# 6 0.001637 -0.006081 0.000386 -0.002990 -0.008519 0.040015
#
#
# Mechanical properties :
#
#
# Convention : Reuss Voigt Hill
#
# Bulk Modulus (GPa) = 54.34432 56.65387 55.49909
# Shear Modulus (GPa) = 30.73978 35.52236 33.13107
#
# Velocity S-wave (km/s) = 3.76443 4.04669 3.90811
# Velocity P-wave (km/s) = 6.62926 6.92470 6.77859
#
# Compressibility (1/GPa) = 0.01840119
#
# Stress axis : x y z
#
# Youngs Moduli (GPa) = 62.43368 90.54537 76.31786
#
# Poissons Ratio (x) = 0.21585 0.45836
# Poissons Ratio (y) = 0.14883 0.19017
# Poissons Ratio (z) = 0.37497 0.22562
#
# Static dielectric constant tensor:
#      x y z
#    x 1.714170 -0.009620 0.029120 
#    y -0.009620 1.766660 -0.007360 
#    z 0.029120 -0.007360 1.874680 
# 
# From -- ./inp_files/617543.got.cif
#   From: 2010.05.17/outbox.cif.g08.bks.cpg/sg2_309_cif.got.tgz:617543.got - 2010.06.03 11:33:40.
