data_PCOD9058375
_publ_section_title
;
Structure prediction by ZEFSAII (Michael W. Deem and Ramdas Pophale) SiO2 
 PCOD9058375
Probable space group: P -1
;
_chemical_formula_sum "Si O2"
_cell_formula_units_Z 14
_cell_length_a 11.487147
_cell_length_b 14.898377
_cell_length_c 8.413693
_cell_angle_alpha 123.293938
_cell_angle_beta 54.536044
_cell_angle_gamma 149.225009
_cell_volume 595.664410
_symmetry_space_group_name_H-M "P -1"
_symmetry_group_IT_number 2
_symmetry_cell_setting 'triclinic'
loop_
_space_group_symop_operation_xyz
x,y,z
-x,-y,-z
loop_
_atom_site_type_symbol
_atom_site_label
_atom_site_fract_x
_atom_site_fract_y
_atom_site_fract_z
Si Si1 0.771902 0.179678 0.983766
Si Si2 0.129951 0.818781 0.732006
Si Si3 0.581837 0.208294 0.675143
Si Si4 0.665651 0.464242 0.643193
Si Si5 0.262075 0.198887 0.466575
Si Si6 0.852339 0.640262 0.351288
Si Si7 0.655666 0.323679 0.085390
O O1 0.842652 0.177941 0.097189
O O2 0.803364 0.326670 0.076082
O O3 0.889719 0.189912 0.751857
O O4 0.500000 0.000000 0.000000
O O5 0.256297 0.788345 0.526131
O O6 0.848512 0.657706 0.766686
O O7 0.301741 0.011867 0.708115
O O8 0.645001 0.351738 0.665905
O O9 0.633989 0.257434 0.866808
O O10 0.403276 0.316616 0.630890
O O11 0.812655 0.541875 0.438049
O O12 0.255878 0.308587 0.484867
O O13 0.412533 0.201628 0.252905
O O14 0.000000 0.000000 0.500000
O O15 0.746660 0.500205 0.162913
#
# Coordination Sequence:
#
# PCOD9058375 Si02
#       7
#     2   2   2   2   2   2   2
#     4  12  23  42  73 107 139 187 241 289 346 420
#     4  11  24  41  69 104 153 180 235 288 363 410
#     4  11  24  42  68 109 145 190 226 296 356 421
#     4  11  24  44  70  99 141 186 231 291 353 415
#     4  11  26  48  75 100 139 188 244 293 354 424
#     4  11  25  45  73 102 138 189 238 294 352 423
#     4  11  22  45  71 104 138 188 243 285 349 425
#
# _framework density 23.503169
#
# number of rings (size 3 to 8) (size 9 to 14) (size 15 to 20)
#    0.000    0.857    1.429    6.857    4.000    1.143 
#    0.000    7.143    0.000    0.000    0.000    0.000 
#    0.000    0.000    0.000    0.000    0.000    0.000 
#
# Total GULP energy -78060.100392 kJ/mol
# GULP energy per Si atom -5575.721457 kJ/mol
# Density = 2.344967 g / cm^3
# Si number density = 23.503169 Si / 1000 Ang^3
#
#
#
# Elastic Constant Matrix: (Units=GPa)
#
#
# Indices 1 2 3 4 5 6 
#
# 1 64.6527 35.3096 29.5102 -9.5392 10.1894 1.8728
# 2 35.3096 150.7323 2.1262 -12.4084 13.6672 5.4960
# 3 29.5102 2.1262 62.5134 -13.3711 5.1599 -5.0589
# 4 -9.5392 -12.4084 -13.3711 35.1295 4.9196 2.4295
# 5 10.1894 13.6672 5.1599 4.9196 36.7755 5.5240
# 6 1.8728 5.4960 -5.0589 2.4295 5.5240 47.3155
#
#
#
# Elastic Compliance Matrix: (Units=1/GPa)
#
#
# Indices 1 2 3 4 5 6 
#
# 1 0.023751 -0.004982 -0.010620 0.001180 -0.003220 -0.001182
# 2 -0.004982 0.008243 0.002894 0.003025 -0.002446 -0.000321
# 3 -0.010620 0.002894 0.022834 0.007030 -0.002649 0.002474
# 4 0.001180 0.003025 0.007030 0.033528 -0.006837 -0.000570
# 5 -0.003220 -0.002446 -0.002649 -0.006837 0.030746 -0.003110
# 6 -0.001182 -0.000321 0.002474 -0.000570 -0.003110 0.021876
#
#
# Mechanical properties :
#
#
# Convention : Reuss Voigt Hill
#
# Bulk Modulus (GPa) = 33.99866 45.75449 39.87657
# Shear Modulus (GPa) = 28.37728 37.90758 33.14243
#
# Velocity S-wave (km/s) = 3.47851 4.02041 3.75924
# Velocity P-wave (km/s) = 5.53447 6.40791 5.98714
#
# Compressibility (1/GPa) = 0.02941293
#
# Stress axis : x y z
#
# Youngs Moduli (GPa) = 42.10292 121.31581 43.79465
#
# Poissons Ratio (x) = 0.60438 0.46510
# Poissons Ratio (y) = 0.20975 -0.12676
# Poissons Ratio (z) = 0.44714 -0.35113
#
# Static dielectric constant tensor:
#      x y z
#    x 1.902560 0.055070 0.003920 
#    y 0.055070 2.145100 -0.035330 
#    z 0.003920 -0.035330 1.997320 
# 
# From -- ./inp_files/270839.got.cif
#   From: 2010.05.17/outbox.cif.g08.bks.cpg/sg2_136_cif.got.tgz:270839.got - 2010.06.03 11:33:40.
