data_PCOD9058358
_publ_section_title
;
Structure prediction by ZEFSAII (Michael W. Deem and Ramdas Pophale) SiO2 
 PCOD9058358
Probable space group: P -1
;
_chemical_formula_sum "Si O2"
_cell_formula_units_Z 16
_cell_length_a 12.593402
_cell_length_b 11.677300
_cell_length_c 8.836212
_cell_angle_alpha 110.160783
_cell_angle_beta 130.152349
_cell_angle_gamma 48.355333
_cell_volume 734.155937
_symmetry_space_group_name_H-M "P -1"
_symmetry_group_IT_number 2
_symmetry_cell_setting 'triclinic'
loop_
_space_group_symop_operation_xyz
x,y,z
-x,-y,-z
loop_
_atom_site_type_symbol
_atom_site_label
_atom_site_fract_x
_atom_site_fract_y
_atom_site_fract_z
Si Si1 0.088020 0.893916 0.885444
Si Si2 0.567817 0.440239 0.862352
Si Si3 0.863671 0.657328 0.799083
Si Si4 0.812949 0.910087 0.091256
Si Si5 0.058309 0.229129 0.529790
Si Si6 0.255153 0.430312 0.073351
Si Si7 0.283073 0.415749 0.607111
Si Si8 0.406155 0.182845 0.869015
O O1 0.981540 0.855651 0.665703
O O2 0.140045 0.980449 0.870527
O O3 0.257021 0.731737 0.029454
O O4 0.000000 0.000000 0.000000
O O5 0.623127 0.521844 0.840257
O O6 0.410439 0.443064 0.653696
O O7 0.500000 0.500000 0.000000
O O8 0.812620 0.570409 0.822339
O O9 0.742364 0.692930 0.562629
O O10 0.844951 0.791433 0.936934
O O11 0.064011 0.546877 0.872219
O O12 0.930358 0.818964 0.305919
O O13 0.603190 0.028210 0.981725
O O14 0.255092 0.174722 0.667342
O O15 0.903280 0.414939 0.458827
O O16 0.350740 0.259725 0.018401
O O17 0.380076 0.317143 0.802343
#
# Coordination Sequence:
#
# PCOD9058358 Si02
#       8
#     2   2   2   2   2   2   2   2
#     4  12  27  46  69 104 145 183 226 290 359 414
#     4  12  23  45  72 103 139 185 238 291 339 414
#     4  11  25  43  70 107 141 181 233 290 354 412
#     4  12  26  48  68 103 149 180 225 293 355 422
#     4  12  25  45  74 102 134 193 235 278 355 421
#     4  11  22  45  70  99 145 182 232 293 344 410
#     4  12  25  43  75 106 134 186 243 286 345 414
#     4  12  24  44  73 103 137 185 237 290 343 419
#
# _framework density 21.793735000000002
#
# number of rings (size 3 to 8) (size 9 to 14) (size 15 to 20)
#    0.000    0.250    6.250    2.625    3.500    2.000 
#    0.000    0.000    0.000    0.000    0.000    0.000 
#    0.000    0.000    0.000    0.000    0.000    0.000 
#
# Total GULP energy -89350.027636 kJ/mol
# GULP energy per Si atom -5584.376727 kJ/mol
# Density = 2.174413 g / cm^3
# Si number density = 21.793735 Si / 1000 Ang^3
#
#
#
# Elastic Constant Matrix: (Units=GPa)
#
#
# Indices 1 2 3 4 5 6 
#
# 1 84.8956 21.0985 7.8533 3.9828 11.6244 8.5050
# 2 21.0985 128.0215 32.5473 1.4670 0.1139 -11.6140
# 3 7.8533 32.5473 84.0568 15.0603 6.4237 2.2260
# 4 3.9828 1.4670 15.0603 41.2196 6.5740 3.3298
# 5 11.6244 0.1139 6.4237 6.5740 34.0781 -0.2420
# 6 8.5050 -11.6140 2.2260 3.3298 -0.2420 39.9546
#
#
#
# Elastic Compliance Matrix: (Units=1/GPa)
#
#
# Indices 1 2 3 4 5 6 
#
# 1 0.013405 -0.002594 0.000246 -0.000269 -0.004584 -0.003626
# 2 -0.002594 0.009504 -0.003780 0.000784 0.001439 0.003469
# 3 0.000246 -0.003780 0.014367 -0.004712 -0.001882 -0.001570
# 4 -0.000269 0.000784 -0.004712 0.026788 -0.004203 -0.001710
# 5 -0.004584 0.001439 -0.001882 -0.004203 0.032083 0.002043
# 6 -0.003626 0.003469 -0.001570 -0.001710 0.002043 0.027051
#
#
# Mechanical properties :
#
#
# Convention : Reuss Voigt Hill
#
# Bulk Modulus (GPa) = 39.96613 46.66357 43.31485
# Shear Modulus (GPa) = 34.77232 38.74877 36.76054
#
# Velocity S-wave (km/s) = 3.99873 4.22118 4.11146
# Velocity P-wave (km/s) = 6.30063 6.72427 6.51589
#
# Compressibility (1/GPa) = 0.02502118
#
# Stress axis : x y z
#
# Youngs Moduli (GPa) = 74.60162 105.21857 69.60458
#
# Poissons Ratio (x) = 0.27289 -0.01715
# Poissons Ratio (y) = 0.19349 0.26310
# Poissons Ratio (z) = -0.01838 0.39772
#
# Static dielectric constant tensor:
#      x y z
#    x 1.886810 0.061110 0.016080 
#    y 0.061110 1.781890 0.039970 
#    z 0.016080 0.039970 1.843940 
# 
# From -- ./inp_files/262831.got.cif
#   From: 2010.05.17/outbox.cif.g08.bks.cpg/sg2_132_cif.got.tgz:262831.got - 2010.06.03 11:33:40.
