data_PCOD9058159
_publ_section_title
;
Structure prediction by ZEFSAII (Michael W. Deem and Ramdas Pophale) SiO2 
 PCOD9058159
Probable space group: P -1
;
_chemical_formula_sum "Si O2"
_cell_formula_units_Z 16
_cell_length_a 8.027442
_cell_length_b 9.561114
_cell_length_c 12.757876
_cell_angle_alpha 135.433178
_cell_angle_beta 94.229215
_cell_angle_gamma 81.557139
_cell_volume 679.014357
_symmetry_space_group_name_H-M "P -1"
_symmetry_group_IT_number 2
_symmetry_cell_setting 'triclinic'
loop_
_space_group_symop_operation_xyz
x,y,z
-x,-y,-z
loop_
_atom_site_type_symbol
_atom_site_label
_atom_site_fract_x
_atom_site_fract_y
_atom_site_fract_z
Si Si1 0.426827 0.144190 0.797242
Si Si2 0.187964 0.722603 0.828641
Si Si3 0.247910 0.668863 0.346896
Si Si4 0.241188 0.981068 0.342365
Si Si5 0.915124 0.005565 0.866800
Si Si6 0.361432 0.307880 0.661524
Si Si7 0.878409 0.626473 0.975011
Si Si8 0.361221 0.697616 0.597577
O O1 0.620394 0.172068 0.797869
O O2 0.350278 0.178678 0.696023
O O3 0.426005 0.914627 0.708271
O O4 0.306476 0.295362 0.944094
O O5 0.227595 0.505212 0.764978
O O6 0.281493 0.704160 0.712437
O O7 0.230423 0.883076 0.004209
O O8 0.002802 0.816754 0.834091
O O9 0.181341 0.865065 0.377614
O O10 0.450222 0.636833 0.315249
O O11 0.156539 0.499906 0.196695
O O12 0.243430 0.684861 0.481507
O O13 0.118205 0.060380 0.286965
O O14 0.326024 0.164287 0.489077
O O15 0.035539 0.177421 0.944472
O O16 0.000000 0.500000 0.000000
O O17 0.500000 0.500000 0.500000
#
# Coordination Sequence:
#
# PCOD9058159 Si02
#       8
#     2   2   2   2   2   2   2   2
#     4  11  23  42  75 102 138 183 238 295 341 427
#     4  11  25  48  68 100 152 189 233 290 363 426
#     4  11  23  42  74 104 141 178 235 301 347 419
#     4  11  22  44  75 104 140 181 241 296 355 415
#     4  11  26  48  66 101 150 191 231 291 360 429
#     4  11  22  44  72 108 136 182 239 294 354 414
#     4  12  25  46  68 106 143 186 242 289 354 423
#     4  12  22  46  72 107 144 181 242 293 353 419
#
# _framework density 23.563566999999999
#
# number of rings (size 3 to 8) (size 9 to 14) (size 15 to 20)
#    0.000    0.750    6.250    1.500    1.750    1.500 
#   13.500    3.750    0.000    0.000    0.000    0.000 
#    0.000    0.000    0.000    0.000    0.000    0.000 
#
# Total GULP energy -89351.137282 kJ/mol
# GULP energy per Si atom -5584.446080 kJ/mol
# Density = 2.350994 g / cm^3
# Si number density = 23.563567 Si / 1000 Ang^3
#
#
#
# Elastic Constant Matrix: (Units=GPa)
#
#
# Indices 1 2 3 4 5 6 
#
# 1 24.9967 14.1473 20.5942 1.9735 -2.9520 6.4461
# 2 14.1473 134.7137 27.4480 -3.9775 0.8447 -25.6940
# 3 20.5942 27.4480 78.1596 -21.5054 -13.4159 -5.0475
# 4 1.9735 -3.9775 -21.5054 44.9427 -14.6767 0.4191
# 5 -2.9520 0.8447 -13.4159 -14.6767 44.7414 -0.4687
# 6 6.4461 -25.6940 -5.0475 0.4191 -0.4687 27.0714
#
#
#
# Elastic Compliance Matrix: (Units=1/GPa)
#
#
# Indices 1 2 3 4 5 6 
#
# 1 0.074024 -0.009045 -0.024945 -0.018590 -0.008845 -0.030728
# 2 -0.009045 0.010857 -0.000501 0.000823 -0.000553 0.012343
# 3 -0.024945 -0.000501 0.027403 0.018200 0.012661 0.010511
# 4 -0.018590 0.000823 0.018200 0.037156 0.016491 0.008311
# 5 -0.008845 -0.000553 0.012661 0.016491 0.031028 0.004224
# 6 -0.030728 0.012343 0.010511 0.008311 0.004224 0.057875
#
#
# Mechanical properties :
#
#
# Convention : Reuss Voigt Hill
#
# Bulk Modulus (GPa) = 23.09447 40.24989 31.67218
# Shear Modulus (GPa) = 15.53959 35.06316 25.30137
#
# Velocity S-wave (km/s) = 2.57081 3.86168 3.28037
# Velocity P-wave (km/s) = 4.31675 6.08292 5.27429
#
# Compressibility (1/GPa) = 0.04330040
#
# Stress axis : x y z
#
# Youngs Moduli (GPa) = 13.50921 92.10660 36.49268
#
# Poissons Ratio (x) = 0.83312 0.91033
# Poissons Ratio (y) = 0.12219 0.01828
# Poissons Ratio (z) = 0.33699 0.04613
#
# Static dielectric constant tensor:
#      x y z
#    x 1.972270 -0.015250 -0.039600 
#    y -0.015250 1.881890 -0.028010 
#    z -0.039600 -0.028010 1.924170 
# 
# From -- ./inp_files/182708.got.cif
#   From: 2010.05.17/outbox.cif.g08.bks.cpg/sg2_92_cif.got.tgz:182708.got - 2010.06.03 11:33:40.
