data_PCOD9058338
_publ_section_title
;
Structure prediction by ZEFSAII (Michael W. Deem and Ramdas Pophale) SiO2 
 PCOD9058338
Probable space group: P -1
;
_chemical_formula_sum "Si O2"
_cell_formula_units_Z 14
_cell_length_a 8.835484
_cell_length_b 15.797577
_cell_length_c 11.898816
_cell_angle_alpha 25.948850
_cell_angle_beta 49.498822
_cell_angle_gamma 52.866765
_cell_volume 551.629373
_symmetry_space_group_name_H-M "P -1"
_symmetry_group_IT_number 2
_symmetry_cell_setting 'triclinic'
loop_
_space_group_symop_operation_xyz
x,y,z
-x,-y,-z
loop_
_atom_site_type_symbol
_atom_site_label
_atom_site_fract_x
_atom_site_fract_y
_atom_site_fract_z
Si Si1 0.760048 0.656688 0.387392
Si Si2 0.731472 0.966407 0.402401
Si Si3 0.802883 0.541127 0.124010
Si Si4 0.002726 0.225397 0.053775
Si Si5 0.594301 0.205993 0.737817
Si Si6 0.302747 0.409831 0.252012
Si Si7 0.644696 0.273075 0.890698
O O1 0.586916 0.647807 0.387199
O O2 0.680310 0.687407 0.515593
O O3 0.816875 0.428233 0.630477
O O4 0.886901 0.806516 0.081429
O O5 0.500000 0.000000 0.500000
O O6 0.773985 0.747909 0.606698
O O7 0.868332 0.042168 0.345782
O O8 0.729923 0.101720 0.132177
O O9 0.763463 0.324587 0.451326
O O10 0.582171 0.635899 0.072892
O O11 0.864524 0.701338 0.996022
O O12 0.000000 0.500000 0.000000
O O13 0.852505 0.409074 0.885563
O O14 0.632452 0.203427 0.853225
O O15 0.500000 0.000000 0.000000
O O16 0.500000 0.500000 0.000000
#
# Coordination Sequence:
#
# PCOD9058338 Si02
#       7
#     2   2   2   2   2   2   2
#     4  11  22  45  70 102 141 189 232 295 357 415
#     4  12  27  45  73 105 143 189 237 289 365 427
#     4  11  26  45  74 106 143 189 238 301 360 418
#     4  12  25  46  73 103 143 181 242 291 354 419
#     4  11  23  43  71 103 145 190 241 288 364 433
#     4  12  26  45  72 101 144 187 234 293 359 418
#     4  11  22  48  70  99 143 191 230 292 359 428
#
# _framework density 25.379358
#
# number of rings (size 3 to 8) (size 9 to 14) (size 15 to 20)
#    0.000    0.571    5.714    2.143    6.000    2.857 
#    0.000    1.429    0.000    0.000    0.000    0.000 
#    0.000    0.000    0.000    0.000    0.000    0.000 
#
# Total GULP energy -78019.890829 kJ/mol
# GULP energy per Si atom -5572.849345 kJ/mol
# Density = 2.532159 g / cm^3
# Si number density = 25.379358 Si / 1000 Ang^3
#
#
#
# Elastic Constant Matrix: (Units=GPa)
#
#
# Indices 1 2 3 4 5 6 
#
# 1 84.9593 16.1142 17.2170 2.1021 -24.2526 13.8216
# 2 16.1142 99.8287 42.8302 0.8524 -19.7263 14.8912
# 3 17.2170 42.8302 127.4359 -2.8685 -34.2878 18.4031
# 4 2.1021 0.8524 -2.8685 56.8934 6.2229 -12.3775
# 5 -24.2526 -19.7263 -34.2878 6.2229 46.0253 -10.1104
# 6 13.8216 14.8912 18.4031 -12.3775 -10.1104 44.7616
#
#
#
# Elastic Compliance Matrix: (Units=1/GPa)
#
#
# Indices 1 2 3 4 5 6 
#
# 1 0.014471 -0.000646 0.000701 -0.002046 0.007393 -0.003438
# 2 -0.000646 0.012263 -0.003117 -0.001081 0.002213 -0.002398
# 3 0.000701 -0.003117 0.010942 -0.000676 0.006763 -0.002338
# 4 -0.002046 -0.001081 -0.000676 0.019273 -0.003368 0.005838
# 5 0.007393 0.002213 0.006763 -0.003368 0.032183 0.000538
# 6 -0.003438 -0.002398 -0.002338 0.005838 0.000538 0.026897
#
#
# Mechanical properties :
#
#
# Convention : Reuss Voigt Hill
#
# Bulk Modulus (GPa) = 31.69240 51.61629 41.65434
# Shear Modulus (GPa) = 37.68792 45.27354 41.48073
#
# Velocity S-wave (km/s) = 3.85773 4.22817 4.04719
# Velocity P-wave (km/s) = 5.68835 6.64971 6.18773
#
# Compressibility (1/GPa) = 0.03155331
#
# Stress axis : x y z
#
# Youngs Moduli (GPa) = 69.10425 81.54738 91.39184
#
# Poissons Ratio (x) = 0.05266 -0.06410
# Poissons Ratio (y) = 0.04462 0.28485
# Poissons Ratio (z) = -0.04847 0.25417
#
# Static dielectric constant tensor:
#      x y z
#    x 2.183090 -0.096990 -0.036850 
#    y -0.096990 2.139130 0.074920 
#    z -0.036850 0.074920 2.389040 
# 
# From -- ./inp_files/272076.got.cif
#   From: 2010.05.17/outbox.cif.g08.bks.cpg/sg2_137_cif.got.tgz:272076.got - 2010.06.03 11:33:40.
