data_PCOD9058581
_publ_section_title
;
Structure prediction by ZEFSAII (Michael W. Deem and Ramdas Pophale) SiO2 
 PCOD9058581
Probable space group: P -1
;
_chemical_formula_sum "Si O2"
_cell_formula_units_Z 14
_cell_length_a 11.437420
_cell_length_b 8.972845
_cell_length_c 8.339099
_cell_angle_alpha 96.089877
_cell_angle_beta 124.473943
_cell_angle_gamma 58.214518
_cell_volume 576.741729
_symmetry_space_group_name_H-M "P -1"
_symmetry_group_IT_number 2
_symmetry_cell_setting 'triclinic'
loop_
_space_group_symop_operation_xyz
x,y,z
-x,-y,-z
loop_
_atom_site_type_symbol
_atom_site_label
_atom_site_fract_x
_atom_site_fract_y
_atom_site_fract_z
Si Si1 0.140863 0.433682 0.242405
Si Si2 0.714432 0.453353 0.406078
Si Si3 0.407397 0.873914 0.215304
Si Si4 0.591168 0.557964 0.763819
Si Si5 0.195403 0.778767 0.876468
Si Si6 0.465489 0.922358 0.812619
Si Si7 0.810276 0.931992 0.629462
O O1 0.119398 0.572591 0.381396
O O2 0.309856 0.406986 0.289273
O O3 0.161415 0.257595 0.315403
O O4 0.000000 0.500000 0.000000
O O5 0.582401 0.673041 0.303925
O O6 0.592291 0.411520 0.407063
O O7 0.759690 0.337304 0.265151
O O8 0.446496 0.025841 0.248628
O O9 0.313753 0.915260 0.318696
O O10 0.278730 0.891543 0.979311
O O11 0.550299 0.711535 0.877847
O O12 0.716596 0.365609 0.924852
O O13 0.992780 0.902793 0.759502
O O14 0.276577 0.013165 0.605674
O O15 0.500000 0.000000 0.000000
#
# Coordination Sequence:
#
# PCOD9058581 Si02
#       7
#     2   2   2   2   2   2   2
#     4  12  24  43  68 104 140 180 230 284 339 409
#     4  11  24  45  71  99 138 183 231 282 338 409
#     4  11  22  46  72  97 138 182 233 276 339 415
#     4  11  23  43  70 100 132 185 237 270 337 420
#     4  11  25  46  70 102 140 180 227 289 347 396
#     4  12  24  42  70 103 137 181 230 283 340 410
#     4  12  25  45  69 104 141 180 224 289 350 393
#
# _framework density 24.274297000000001
#
# number of rings (size 3 to 8) (size 9 to 14) (size 15 to 20)
#    0.000    0.571    4.286    5.571    0.000    2.857 
#    2.571    1.429    0.000    0.000    0.000    0.000 
#    0.000    0.000    0.000    0.000    0.000    0.000 
#
# Total GULP energy -78278.269904 kJ/mol
# GULP energy per Si atom -5591.304993 kJ/mol
# Density = 2.421905 g / cm^3
# Si number density = 24.274297 Si / 1000 Ang^3
#
#
#
# Elastic Constant Matrix: (Units=GPa)
#
#
# Indices 1 2 3 4 5 6 
#
# 1 55.4054 -3.9022 9.1368 -4.6954 17.0615 1.6636
# 2 -3.9022 74.3705 24.4529 19.1708 12.5875 8.8232
# 3 9.1368 24.4529 154.8065 21.8932 22.2409 -6.9670
# 4 -4.6954 19.1708 21.8932 41.9819 7.6769 2.5769
# 5 17.0615 12.5875 22.2409 7.6769 42.9296 7.8370
# 6 1.6636 8.8232 -6.9670 2.5769 7.8370 33.9473
#
#
#
# Elastic Compliance Matrix: (Units=1/GPa)
#
#
# Indices 1 2 3 4 5 6 
#
# 1 0.021516 0.002023 -0.000732 0.003579 -0.009438 0.000177
# 2 0.002023 0.016504 -0.001636 -0.005665 -0.003131 -0.003572
# 3 -0.000732 -0.001636 0.007793 -0.002984 -0.003289 0.003046
# 4 0.003579 -0.005665 -0.002984 0.029007 -0.003263 -0.000764
# 5 -0.009438 -0.003131 -0.003289 -0.003263 0.031419 -0.006405
# 6 0.000177 -0.003572 0.003046 -0.000764 -0.006405 0.032539
#
#
# Mechanical properties :
#
#
# Convention : Reuss Voigt Hill
#
# Bulk Modulus (GPa) = 22.16103 38.21749 30.18926
# Shear Modulus (GPa) = 32.36047 40.76474 36.56261
#
# Velocity S-wave (km/s) = 3.65515 4.10242 3.88522
# Velocity P-wave (km/s) = 5.19256 6.18207 5.70880
#
# Compressibility (1/GPa) = 0.04512425
#
# Stress axis : x y z
#
# Youngs Moduli (GPa) = 46.47665 60.59021 128.31986
#
# Poissons Ratio (x) = -0.12260 0.09391
# Poissons Ratio (y) = -0.09404 0.20995
# Poissons Ratio (z) = 0.03401 0.09914
#
# Static dielectric constant tensor:
#      x y z
#    x 1.999720 -0.023020 -0.057950 
#    y -0.023020 1.922980 0.024190 
#    z -0.057950 0.024190 1.975770 
# 
# From -- ./inp_files/153243.got.cif
#   From: 2010.05.17/outbox.cif.g08.bks.cpg/sg2_77_cif.got.tgz:153243.got - 2010.06.03 11:33:40.
