data_PCOD9058542
_publ_section_title
;
Structure prediction by ZEFSAII (Michael W. Deem and Ramdas Pophale) SiO2 
 PCOD9058542
Probable space group: P -1
;
_chemical_formula_sum "Si O2"
_cell_formula_units_Z 16
_cell_length_a 13.327469
_cell_length_b 12.838615
_cell_length_c 10.654931
_cell_angle_alpha 37.098864
_cell_angle_beta 104.292098
_cell_angle_gamma 129.450951
_cell_volume 704.606279
_symmetry_space_group_name_H-M "P -1"
_symmetry_group_IT_number 2
_symmetry_cell_setting 'triclinic'
loop_
_space_group_symop_operation_xyz
x,y,z
-x,-y,-z
loop_
_atom_site_type_symbol
_atom_site_label
_atom_site_fract_x
_atom_site_fract_y
_atom_site_fract_z
Si Si1 0.514263 0.948705 0.193643
Si Si2 0.606945 0.554809 0.866692
Si Si3 0.862338 0.158978 0.346484
Si Si4 0.210878 0.645992 0.521491
Si Si5 0.323941 0.733790 0.738302
Si Si6 0.424817 0.440983 0.670847
Si Si7 0.126700 0.667489 0.069561
Si Si8 0.108927 0.840935 0.165816
O O1 0.386522 0.889991 0.290180
O O2 0.452378 0.678992 0.461369
O O3 0.500000 0.000000 0.000000
O O4 0.698620 0.180994 0.046672
O O5 0.517555 0.469461 0.788320
O O6 0.762052 0.864809 0.616477
O O7 0.500000 0.500000 0.000000
O O8 0.659956 0.424434 0.030617
O O9 0.750964 0.186349 0.306052
O O10 0.004904 0.364440 0.288827
O O11 0.913391 0.240490 0.138620
O O12 0.227077 0.591330 0.717132
O O13 0.147684 0.760662 0.369489
O O14 0.078048 0.360665 0.688325
O O15 0.500000 0.000000 0.500000
O O16 0.500000 0.500000 0.500000
O O17 0.244082 0.153416 0.898836
O O18 0.124484 0.750932 0.125885
#
# Coordination Sequence:
#
# PCOD9058542 Si02
#       8
#     2   2   2   2   2   2   2   2
#     4  12  23  43  68  99 136 182 231 286 350 422
#     4  12  25  45  70 107 145 184 236 291 355 420
#     4  11  24  44  72  99 141 187 230 293 350 417
#     4  11  24  43  67 104 137 176 238 279 350 428
#     4  12  23  41  71 103 139 187 232 284 354 423
#     4  12  24  44  71 101 142 183 232 292 349 419
#     4  11  22  46  70  96 142 182 229 292 350 414
#     4  11  23  44  73  99 142 183 226 294 353 408
#
# _framework density 22.707716999999999
#
# number of rings (size 3 to 8) (size 9 to 14) (size 15 to 20)
#    0.000    0.500    6.250    2.250    0.000    1.500 
#    2.250    2.500    0.000    0.000    0.000    0.000 
#    0.000    0.000    0.000    0.000    0.000    0.000 
#
# Total GULP energy -89348.084217 kJ/mol
# GULP energy per Si atom -5584.255264 kJ/mol
# Density = 2.265603 g / cm^3
# Si number density = 22.707717 Si / 1000 Ang^3
#
#
#
# Elastic Constant Matrix: (Units=GPa)
#
#
# Indices 1 2 3 4 5 6 
#
# 1 66.3737 31.9734 33.1529 -5.7489 -3.8623 12.6727
# 2 31.9734 152.1711 62.5558 -0.0861 3.6043 19.9796
# 3 33.1529 62.5558 169.1326 -18.9609 7.9110 13.1079
# 4 -5.7489 -0.0861 -18.9609 53.6389 8.1805 -8.5004
# 5 -3.8623 3.6043 7.9110 8.1805 43.2376 3.8466
# 6 12.6727 19.9796 13.1079 -8.5004 3.8466 22.3963
#
#
#
# Elastic Compliance Matrix: (Units=1/GPa)
#
#
# Indices 1 2 3 4 5 6 
#
# 1 0.019003 -0.001903 -0.002602 -0.000698 0.003207 -0.008347
# 2 -0.001903 0.008884 -0.002706 -0.002213 0.000555 -0.006200
# 3 -0.002602 -0.002706 0.007784 0.002906 -0.002051 0.000786
# 4 -0.000698 -0.002213 0.002906 0.022002 -0.005458 0.009957
# 5 0.003207 0.000555 -0.002051 -0.005458 0.025448 -0.007552
# 6 -0.008347 -0.006200 0.000786 0.009957 -0.007552 0.059520
#
#
# Mechanical properties :
#
#
# Convention : Reuss Voigt Hill
#
# Bulk Modulus (GPa) = 47.06564 71.44906 59.25735
# Shear Modulus (GPa) = 30.46042 41.18757 35.82400
#
# Velocity S-wave (km/s) = 3.66650 4.26351 3.97623
# Velocity P-wave (km/s) = 6.22061 7.46791 6.87262
#
# Compressibility (1/GPa) = 0.02124692
#
# Stress axis : x y z
#
# Youngs Moduli (GPa) = 52.62399 112.56742 128.46351
#
# Poissons Ratio (x) = 0.21426 0.33429
# Poissons Ratio (y) = 0.10016 0.34765
# Poissons Ratio (z) = 0.13694 0.30463
#
# Static dielectric constant tensor:
#      x y z
#    x 1.981850 -0.069820 -0.069770 
#    y -0.069820 1.919210 0.005410 
#    z -0.069770 0.005410 1.824680 
# 
# From -- ./inp_files/455416.got.cif
#   From: 2010.05.17/outbox.cif.g08.bks.cpg/sg2_228_cif.got.tgz:455416.got - 2010.06.03 11:33:40.
