data_PCOD9058381
_publ_section_title
;
Structure prediction by ZEFSAII (Michael W. Deem and Ramdas Pophale) SiO2 
 PCOD9058381
Probable space group: P -1
;
_chemical_formula_sum "Si O2"
_cell_formula_units_Z 15
_cell_length_a 9.134517
_cell_length_b 20.218560
_cell_length_c 8.576880
_cell_angle_alpha 31.987725
_cell_angle_beta 129.284145
_cell_angle_gamma 129.683556
_cell_volume 629.272047
_symmetry_space_group_name_H-M "P -1"
_symmetry_group_IT_number 2
_symmetry_cell_setting 'triclinic'
loop_
_space_group_symop_operation_xyz
x,y,z
-x,-y,-z
loop_
_atom_site_type_symbol
_atom_site_label
_atom_site_fract_x
_atom_site_fract_y
_atom_site_fract_z
Si Si1 0.822053 0.950393 0.760947
Si Si2 0.557517 0.481267 0.814613
Si Si3 0.500000 0.000000 0.000000
Si Si4 0.508271 0.292948 0.865522
Si Si5 0.903996 0.400860 0.265715
Si Si6 0.201076 0.892715 0.258632
Si Si7 0.892806 0.607723 0.267257
Si Si8 0.778390 0.167402 0.079833
O O1 0.818795 0.046113 0.710668
O O2 0.805087 0.031555 0.434445
O O3 0.647571 0.825322 0.924471
O O4 0.027429 0.914610 0.987581
O O5 0.576469 0.397866 0.838430
O O6 0.584323 0.628538 0.483513
O O7 0.338715 0.428552 0.835401
O O8 0.722700 0.455720 0.091946
O O9 0.598594 0.030391 0.835028
O O10 0.350071 0.865331 0.098032
O O11 0.670527 0.238590 0.991608
O O12 0.819939 0.257094 0.436369
O O13 0.061422 0.389269 0.523830
O O14 0.000000 0.500000 0.000000
O O15 0.000000 0.500000 0.500000
O O16 0.011062 0.739241 0.004487
#
# Coordination Sequence:
#
# PCOD9058381 Si02
#       8
#     2   2   1   2   2   2   2   2
#     4  11  25  43  73 101 140 191 238 296 369 428
#     4  11  25  44  79 102 143 198 240 295 374 424
#     4  12  26  46  68 104 146 186 238 300 360 428
#     4  11  22  45  71 107 136 186 248 293 350 448
#     4  12  26  47  75 105 144 195 246 302 359 435
#     4  11  25  46  68 107 140 180 249 301 349 449
#     4  12  27  49  69 111 152 183 246 304 357 443
#     4  12  26  47  72 103 151 190 235 309 367 427
#
# _framework density 23.837067000000001
#
# number of rings (size 3 to 8) (size 9 to 14) (size 15 to 20)
#    0.000    0.533    4.000    4.400    3.733    2.133 
#    0.000    0.000    0.000    0.000    0.000    0.000 
#    0.000    0.000    0.000    0.000    0.000    0.000 
#
# Total GULP energy -83781.001362 kJ/mol
# GULP energy per Si atom -5585.400091 kJ/mol
# Density = 2.378281 g / cm^3
# Si number density = 23.837067 Si / 1000 Ang^3
#
#
#
# Elastic Constant Matrix: (Units=GPa)
#
#
# Indices 1 2 3 4 5 6 
#
# 1 110.8921 37.4951 42.3836 -15.5177 -4.4993 24.5723
# 2 37.4951 20.6406 16.5425 -2.5020 0.4181 21.6913
# 3 42.3836 16.5425 143.0236 -21.3389 2.1518 29.6183
# 4 -15.5177 -2.5020 -21.3389 34.9896 12.3846 -7.2460
# 5 -4.4993 0.4181 2.1518 12.3846 31.0284 -11.8590
# 6 24.5723 21.6913 29.6183 -7.2460 -11.8590 47.6331
#
#
#
# Elastic Compliance Matrix: (Units=1/GPa)
#
#
# Indices 1 2 3 4 5 6 
#
# 1 0.045189 -0.120786 -0.007467 0.007989 0.021950 0.043016
# 2 -0.120786 0.428206 0.019834 -0.016523 -0.082282 -0.168020
# 3 -0.007467 0.019834 0.010543 0.005033 -0.009154 -0.013249
# 4 0.007989 -0.016523 0.005033 0.039422 -0.013600 0.002885
# 5 0.021950 -0.082282 -0.009154 -0.013600 0.059636 0.044617
# 6 0.043016 -0.168020 -0.013249 0.002885 0.044617 0.095102
#
#
# Mechanical properties :
#
#
# Convention : Reuss Voigt Hill
#
# Bulk Modulus (GPa) = 3.74393 51.93318 27.83856
# Shear Modulus (GPa) = 5.08146 34.60589 19.84368
#
# Velocity S-wave (km/s) = 1.46163 3.81434 2.88839
# Velocity P-wave (km/s) = 2.10299 6.42129 4.77784
#
# Compressibility (1/GPa) = 0.26709869
#
# Stress axis : x y z
#
# Youngs Moduli (GPa) = 22.12933 2.33533 94.85086
#
# Poissons Ratio (x) = 0.28207 0.70826
# Poissons Ratio (y) = 2.67291 -1.88123
# Poissons Ratio (z) = 0.16524 -0.04632
#
# Static dielectric constant tensor:
#      x y z
#    x 1.905280 -0.005200 0.023690 
#    y -0.005200 1.960580 0.050240 
#    z 0.023690 0.050240 1.908600 
# 
# From -- ./inp_files/222939.got.cif
#   From: 2010.05.17/outbox.cif.g08.bks.cpg/sg2_112_cif.got.tgz:222939.got - 2010.06.03 11:33:40.
