data_PCOD9058651
_publ_section_title
;
Structure prediction by ZEFSAII (Michael W. Deem and Ramdas Pophale) SiO2 
 PCOD9058651
Probable space group: P -1
;
_chemical_formula_sum "Si O2"
_cell_formula_units_Z 15
_cell_length_a 15.656294
_cell_length_b 14.037622
_cell_length_c 6.141528
_cell_angle_alpha 70.893533
_cell_angle_beta 112.038214
_cell_angle_gamma 153.119164
_cell_volume 565.601063
_symmetry_space_group_name_H-M "P -1"
_symmetry_group_IT_number 2
_symmetry_cell_setting 'triclinic'
loop_
_space_group_symop_operation_xyz
x,y,z
-x,-y,-z
loop_
_atom_site_type_symbol
_atom_site_label
_atom_site_fract_x
_atom_site_fract_y
_atom_site_fract_z
Si Si1 0.133832 0.934010 0.969870
Si Si2 0.059622 0.715157 0.432498
Si Si3 0.475366 0.778134 0.052685
Si Si4 0.347530 0.321898 0.299968
Si Si5 0.000000 0.000000 0.500000
Si Si6 0.356857 0.498926 0.831049
Si Si7 0.846029 0.367005 0.149504
Si Si8 0.792839 0.555829 0.633549
O O1 0.110266 0.025889 0.787865
O O2 0.933483 0.699192 0.858750
O O3 0.304077 0.035494 0.932391
O O4 0.129549 0.883477 0.250388
O O5 0.205009 0.786755 0.660642
O O6 0.972182 0.557369 0.287781
O O7 0.891097 0.574024 0.550623
O O8 0.415763 0.664659 0.304470
O O9 0.378349 0.628385 0.862977
O O10 0.355279 0.766352 0.978740
O O11 0.500000 0.500000 0.500000
O O12 0.439808 0.335294 0.203404
O O13 0.308796 0.381575 0.069372
O O14 0.155148 0.109520 0.394527
O O15 0.216500 0.353515 0.595076
O O16 0.000000 0.500000 0.000000
#
# Coordination Sequence:
#
# PCOD9058651 Si02
#       8
#     2   2   2   2   1   2   2   2
#     4  12  27  44  70 107 147 192 240 301 357 431
#     4  11  23  44  74 105 139 190 243 290 373 431
#     4  12  25  45  73 106 145 189 243 296 367 429
#     4  11  24  45  69  99 140 187 249 300 358 422
#     4  12  24  44  66 100 146 188 234 286 356 420
#     4  11  23  43  72 101 139 195 240 299 359 427
#     4  11  22  46  79 105 139 192 239 302 371 434
#     4  12  22  46  69  99 149 188 232 300 357 425
#
# _framework density 26.52046
#
# number of rings (size 3 to 8) (size 9 to 14) (size 15 to 20)
#    0.000    0.533    4.000    4.800    0.000    3.733 
#    0.000   15.333    0.000    0.000    0.000    0.000 
#    0.000    0.000    0.000    0.000    0.000    0.000 
#
# Total GULP energy -83522.123700 kJ/mol
# GULP energy per Si atom -5568.141580 kJ/mol
# Density = 2.646010 g / cm^3
# Si number density = 26.520460 Si / 1000 Ang^3
#
#
#
# Elastic Constant Matrix: (Units=GPa)
#
#
# Indices 1 2 3 4 5 6 
#
# 1 173.5007 37.2751 63.4805 -17.3309 -23.8956 36.8354
# 2 37.2751 91.5675 42.6742 -23.1505 -5.5475 36.7388
# 3 63.4805 42.6742 177.4265 -31.1130 38.4600 14.9378
# 4 -17.3309 -23.1505 -31.1130 39.1996 16.6193 -5.6520
# 5 -23.8956 -5.5475 38.4600 16.6193 64.1255 -14.5052
# 6 36.8354 36.7388 14.9378 -5.6520 -14.5052 50.3197
#
#
#
# Elastic Compliance Matrix: (Units=1/GPa)
#
#
# Indices 1 2 3 4 5 6 
#
# 1 0.008776 -0.000542 -0.004591 -0.003119 0.006045 -0.003274
# 2 -0.000542 0.019167 -0.000669 0.010243 -0.003816 -0.013349
# 3 -0.004591 -0.000669 0.012841 0.013109 -0.013400 -0.002353
# 4 -0.003119 0.010243 0.013109 0.048915 -0.023137 -0.010262
# 5 0.006045 -0.003816 -0.013400 -0.023137 0.033688 0.009452
# 6 -0.003274 -0.013349 -0.002353 -0.010262 0.009452 0.034286
#
#
# Mechanical properties :
#
#
# Convention : Reuss Voigt Hill
#
# Bulk Modulus (GPa) = 34.26890 81.03937 57.65414
# Shear Modulus (GPa) = 27.93228 50.66663 39.29946
#
# Velocity S-wave (km/s) = 3.24888 4.37564 3.85366
# Velocity P-wave (km/s) = 5.19840 7.49346 6.44885
#
# Compressibility (1/GPa) = 0.02918097
#
# Stress axis : x y z
#
# Youngs Moduli (GPa) = 113.94898 52.17186 77.87364
#
# Poissons Ratio (x) = 0.02826 0.35753
# Poissons Ratio (y) = 0.06171 0.05210
# Poissons Ratio (z) = 0.52316 0.03491
#
# Static dielectric constant tensor:
#      x y z
#    x 2.117230 -0.043360 0.148280 
#    y -0.043360 2.100200 0.052670 
#    z 0.148280 0.052670 2.179840 
# 
# From -- ./inp_files/97807.got.cif
#   From: 2010.05.17/outbox.cif.g08.bks.cpg/sg2_49_cif.got.tgz:97807.got - 2010.06.03 11:33:40.
