data_PCOD9058746
_publ_section_title
;
Structure prediction by ZEFSAII (Michael W. Deem and Ramdas Pophale) SiO2 
 PCOD9058746
Probable space group: P -1
;
_chemical_formula_sum "Si O2"
_cell_formula_units_Z 12
_cell_length_a 8.812943
_cell_length_b 13.263574
_cell_length_c 7.675733
_cell_angle_alpha 104.020697
_cell_angle_beta 106.978809
_cell_angle_gamma 133.608456
_cell_volume 477.061968
_symmetry_space_group_name_H-M "P -1"
_symmetry_group_IT_number 2
_symmetry_cell_setting 'triclinic'
loop_
_space_group_symop_operation_xyz
x,y,z
-x,-y,-z
loop_
_atom_site_type_symbol
_atom_site_label
_atom_site_fract_x
_atom_site_fract_y
_atom_site_fract_z
Si Si1 0.260465 0.448753 0.443122
Si Si2 0.445669 0.238353 0.821636
Si Si3 0.398594 0.758328 0.607701
Si Si4 0.931504 0.649450 0.261672
Si Si5 0.067037 0.948873 0.276781
Si Si6 0.302688 0.811476 0.943856
O O1 0.500000 0.500000 0.500000
O O2 0.353897 0.614401 0.501828
O O3 0.176885 0.391963 0.593804
O O4 0.987674 0.290318 0.167773
O O5 0.231189 0.154349 0.870471
O O6 0.253123 0.122326 0.539479
O O7 0.693488 0.455324 0.000635
O O8 0.568052 0.188134 0.863319
O O9 0.276183 0.712824 0.739350
O O10 0.209941 0.729910 0.409395
O O11 0.724184 0.954456 0.773531
O O12 0.999612 0.798999 0.270167
O O13 0.500000 0.000000 0.000000
#
# Coordination Sequence:
#
# PCOD9058746 Si02
#       6
#     2   2   2   2   2   2
#     4  11  24  42  72 100 131 173 229 279 334 397
#     4  11  23  45  66  97 141 179 220 276 338 396
#     4  11  23  46  68  99 136 171 226 286 329 397
#     4  11  22  48  69  94 138 182 220 276 343 397
#     4  11  27  40  69 102 138 176 225 276 333 404
#     4  11  23  44  71  97 134 178 224 278 335 398
#
# _framework density 25.153963999999998
#
# number of rings (size 3 to 8) (size 9 to 14) (size 15 to 20)
#    0.000    1.000    3.333    4.000    7.000    2.667 
#    3.000    0.000    0.000    0.000    0.000    0.000 
#    0.000    0.000    0.000    0.000    0.000    0.000 
#
# Total GULP energy -67184.998908 kJ/mol
# GULP energy per Si atom -5598.749909 kJ/mol
# Density = 2.509671 g / cm^3
# Si number density = 25.153964 Si / 1000 Ang^3
#
#
#
# Elastic Constant Matrix: (Units=GPa)
#
#
# Indices 1 2 3 4 5 6 
#
# 1 153.5798 34.1408 23.5322 14.7656 27.1130 7.8482
# 2 34.1408 111.4098 1.7904 21.8165 3.1193 10.9413
# 3 23.5322 1.7904 65.4192 19.8105 2.7605 4.3943
# 4 14.7656 21.8165 19.8105 36.5622 0.4601 -6.3513
# 5 27.1130 3.1193 2.7605 0.4601 43.7312 10.9916
# 6 7.8482 10.9413 4.3943 -6.3513 10.9916 36.8942
#
#
#
# Elastic Compliance Matrix: (Units=1/GPa)
#
#
# Indices 1 2 3 4 5 6 
#
# 1 0.008325 -0.002373 -0.002668 -0.000319 -0.004992 0.000683
# 2 -0.002373 0.011920 0.003573 -0.009084 0.001895 -0.005584
# 3 -0.002668 0.003573 0.020438 -0.013138 0.001677 -0.005688
# 4 -0.000319 -0.009084 -0.013138 0.042147 -0.001816 0.012123
# 5 -0.004992 0.001895 0.001677 -0.001816 0.027827 -0.008302
# 6 0.000683 -0.005584 -0.005688 0.012123 -0.008302 0.033853
#
#
# Mechanical properties :
#
#
# Convention : Reuss Voigt Hill
#
# Bulk Modulus (GPa) = 26.49253 49.92618 38.20935
# Shear Modulus (GPa) = 31.24475 41.50055 36.37265
#
# Velocity S-wave (km/s) = 3.52822 4.06626 3.80676
# Velocity P-wave (km/s) = 5.21084 6.47590 5.87750
#
# Compressibility (1/GPa) = 0.03774650
#
# Stress axis : x y z
#
# Youngs Moduli (GPa) = 120.12529 83.89329 48.92921
#
# Poissons Ratio (x) = 0.19908 0.13056
# Poissons Ratio (y) = 0.28507 -0.17485
# Poissons Ratio (z) = 0.32053 -0.29979
#
# Static dielectric constant tensor:
#      x y z
#    x 2.874170 -0.392580 -0.472580 
#    y -0.392580 2.238530 0.190660 
#    z -0.472580 0.190660 2.305440 
# 
# From -- ./inp_files/148770.got.cif
#   From: 2010.05.17/outbox.cif.g08.bks.cpg/sg2_75_cif.got.tgz:148770.got - 2010.06.03 11:33:40.
