data_PCOD9058664
_publ_section_title
;
Structure prediction by ZEFSAII (Michael W. Deem and Ramdas Pophale) SiO2 
 PCOD9058664
Probable space group: P -1
;
_chemical_formula_sum "Si O2"
_cell_formula_units_Z 14
_cell_length_a 14.931184
_cell_length_b 10.027996
_cell_length_c 15.487511
_cell_angle_alpha 50.733372
_cell_angle_beta 26.878129
_cell_angle_gamma 68.934041
_cell_volume 657.696348
_symmetry_space_group_name_H-M "P -1"
_symmetry_group_IT_number 2
_symmetry_cell_setting 'triclinic'
loop_
_space_group_symop_operation_xyz
x,y,z
-x,-y,-z
loop_
_atom_site_type_symbol
_atom_site_label
_atom_site_fract_x
_atom_site_fract_y
_atom_site_fract_z
Si Si1 0.232768 0.864298 0.110386
Si Si2 0.992858 0.809055 0.800524
Si Si3 0.551241 0.583681 0.555693
Si Si4 0.632849 0.420408 0.973302
Si Si5 0.989554 0.108759 0.549390
Si Si6 0.785881 0.819802 0.432016
Si Si7 0.632052 0.300691 0.493567
O O1 0.307731 0.709851 0.085580
O O2 0.224988 0.919663 0.194348
O O3 0.961931 0.762518 0.345489
O O4 0.421844 0.083408 0.809484
O O5 0.137572 0.706760 0.708378
O O6 0.058331 0.926581 0.789036
O O7 0.084934 0.008963 0.575819
O O8 0.707776 0.630609 0.102935
O O9 0.712180 0.736069 0.432963
O O10 0.680790 0.496765 0.426846
O O11 0.469491 0.688358 0.515643
O O12 0.875038 0.647698 0.695963
O O13 0.500000 0.500000 0.000000
O O14 0.466074 0.290982 0.251737
O O15 0.000000 0.000000 0.500000
#
# Coordination Sequence:
#
# PCOD9058664 Si02
#       7
#     2   2   2   2   2   2   2
#     4  11  23  44  65  96 136 170 218 274 326 389
#     4  11  22  47  63  95 137 166 215 279 319 394
#     4  11  25  43  67  98 127 175 223 265 334 390
#     4  12  22  42  65  95 130 176 217 264 330 389
#     4  11  23  40  67  93 131 171 217 267 323 392
#     4  11  24  41  68  94 132 172 221 270 323 397
#     4  11  23  45  66  93 136 170 213 281 330 380
#
# _framework density 21.28642
#
# number of rings (size 3 to 8) (size 9 to 14) (size 15 to 20)
#    0.000    0.857    7.143    1.714    0.000    3.429 
#    0.000    1.429    0.000    0.000    0.000    0.000 
#    0.000    0.000    0.000    0.000    0.000    0.000 
#
# Total GULP energy -78071.798422 kJ/mol
# GULP energy per Si atom -5576.557030 kJ/mol
# Density = 2.123797 g / cm^3
# Si number density = 21.286420 Si / 1000 Ang^3
#
#
#
# Elastic Constant Matrix: (Units=GPa)
#
#
# Indices 1 2 3 4 5 6 
#
# 1 70.5886 52.3346 -0.8638 8.9343 -2.0241 29.3094
# 2 52.3346 175.6349 11.3941 22.7502 -0.8395 -0.9659
# 3 -0.8638 11.3941 49.7025 -0.9349 1.8220 6.8212
# 4 8.9343 22.7502 -0.9349 27.6521 -2.0744 -6.3448
# 5 -2.0241 -0.8395 1.8220 -2.0744 19.9429 0.2548
# 6 29.3094 -0.9659 6.8212 -6.3448 0.2548 42.5203
#
#
#
# Elastic Compliance Matrix: (Units=1/GPa)
#
#
# Indices 1 2 3 4 5 6 
#
# 1 0.032272 -0.009043 0.005791 -0.008307 0.001816 -0.024630
# 2 -0.009043 0.009038 -0.003153 -0.003185 -0.000663 0.006473
# 3 0.005791 -0.003153 0.022041 -0.000400 -0.001502 -0.007650
# 4 -0.008307 -0.003185 -0.000400 0.044552 0.003536 0.012344
# 5 0.001816 -0.000663 -0.001502 0.003536 0.050815 -0.000803
# 6 -0.024630 0.006473 -0.007650 0.012344 -0.000803 0.043717
#
#
# Mechanical properties :
#
#
# Convention : Reuss Voigt Hill
#
# Bulk Modulus (GPa) = 19.78571 46.85064 33.31818
# Shear Modulus (GPa) = 21.54336 33.56045 27.55191
#
# Velocity S-wave (km/s) = 3.18476 3.97497 3.60160
# Velocity P-wave (km/s) = 4.77899 6.56693 5.74297
#
# Compressibility (1/GPa) = 0.05054151
#
# Stress axis : x y z
#
# Youngs Moduli (GPa) = 30.98660 110.64819 45.37075
#
# Poissons Ratio (x) = 1.00056 -0.26276
# Poissons Ratio (y) = 0.28020 0.14305
# Poissons Ratio (z) = -0.17945 0.34887
#
# Static dielectric constant tensor:
#      x y z
#    x 1.463020 -0.088060 0.871860 
#    y -0.088060 1.743400 0.312880 
#    z 0.871860 0.312880 -0.508050 
# 
# From -- ./inp_files/179709.got.cif
#   From: 2010.05.17/outbox.cif.g08.bks.cpg/sg2_90_cif.got.tgz:179709.got - 2010.06.03 11:33:40.
