data_PCOD9058085
_publ_section_title
;
Structure prediction by ZEFSAII (Michael W. Deem and Ramdas Pophale) SiO2 
 PCOD9058085
Probable space group: P -1
;
_chemical_formula_sum "Si O2"
_cell_formula_units_Z 16
_cell_length_a 10.979281
_cell_length_b 8.629655
_cell_length_c 9.319301
_cell_angle_alpha 76.366119
_cell_angle_beta 98.091724
_cell_angle_gamma 130.618719
_cell_volume 651.250814
_symmetry_space_group_name_H-M "P -1"
_symmetry_group_IT_number 2
_symmetry_cell_setting 'triclinic'
loop_
_space_group_symop_operation_xyz
x,y,z
-x,-y,-z
loop_
_atom_site_type_symbol
_atom_site_label
_atom_site_fract_x
_atom_site_fract_y
_atom_site_fract_z
Si Si1 0.557626 0.753058 0.575711
Si Si2 0.077797 0.710174 0.113830
Si Si3 0.546153 0.658135 0.265619
Si Si4 0.655427 0.299067 0.929269
Si Si5 0.091783 0.965076 0.818104
Si Si6 0.113786 0.912057 0.339515
Si Si7 0.104164 0.707528 0.653858
Si Si8 0.545474 0.089738 0.244262
O O1 0.524313 0.710955 0.410814
O O2 0.447062 0.525247 0.675698
O O3 0.528539 0.887117 0.634237
O O4 0.746455 0.876458 0.601898
O O5 0.179214 0.661356 0.055432
O O6 0.182768 0.887864 0.212484
O O7 0.960493 0.508488 0.238200
O O8 0.027444 0.812241 0.978437
O O9 0.384619 0.562565 0.170805
O O10 0.713282 0.858700 0.180310
O O11 0.549856 0.109536 0.835718
O O12 0.599477 0.257697 0.092609
O O13 0.046684 0.808409 0.716732
O O14 0.019752 0.076570 0.741811
O O15 0.063519 0.730008 0.481453
O O16 0.294190 0.855425 0.676690
#
# Coordination Sequence:
#
# PCOD9058085 Si02
#       8
#     2   2   2   2   2   2   2   2
#     4  11  26  45  69 104 139 184 231 286 356 408
#     4  12  27  46  70 105 140 185 235 286 347 413
#     4  11  26  44  71 102 139 184 230 290 348 416
#     4  11  22  44  70  98 138 179 234 288 342 408
#     4  12  25  49  68 101 147 182 231 288 349 413
#     4  12  27  46  70 104 142 186 231 286 348 419
#     4  12  26  45  72 104 135 189 236 285 346 412
#     4  11  23  44  71  98 138 178 235 290 340 410
#
# _framework density 24.568109
#
# number of rings (size 3 to 8) (size 9 to 14) (size 15 to 20)
#    0.000    0.500    5.000    2.250    5.250    2.500 
#    0.000    0.000    0.000    0.000    0.000    0.000 
#    0.000    0.000    0.000    0.000    0.000    0.000 
#
# Total GULP energy -89285.478448 kJ/mol
# GULP energy per Si atom -5580.342403 kJ/mol
# Density = 2.451219 g / cm^3
# Si number density = 24.568109 Si / 1000 Ang^3
#
#
#
# Elastic Constant Matrix: (Units=GPa)
#
#
# Indices 1 2 3 4 5 6 
#
# 1 85.7175 6.4737 51.1264 -6.8625 25.0014 -0.0761
# 2 6.4737 61.0403 34.9060 -23.8281 10.9598 -3.9275
# 3 51.1264 34.9060 169.0883 -11.4556 13.3856 -18.8111
# 4 -6.8625 -23.8281 -11.4556 39.6559 -12.2987 1.8461
# 5 25.0014 10.9598 13.3856 -12.2987 37.4966 0.9513
# 6 -0.0761 -3.9275 -18.8111 1.8461 0.9513 14.9348
#
#
#
# Elastic Compliance Matrix: (Units=1/GPa)
#
#
# Indices 1 2 3 4 5 6 
#
# 1 0.018056 0.003081 -0.005892 0.000259 -0.010602 -0.005876
# 2 0.003081 0.024407 -0.004987 0.012833 -0.003168 -0.001232
# 3 -0.005892 -0.004987 0.009771 -0.001343 0.001177 0.011057
# 4 0.000259 0.012833 -0.001343 0.035279 0.008208 -0.003199
# 5 -0.010602 -0.003168 0.001177 0.008208 0.037006 -0.002776
# 6 -0.005876 -0.001232 0.011057 -0.003199 -0.002776 0.081103
#
#
# Mechanical properties :
#
#
# Convention : Reuss Voigt Hill
#
# Bulk Modulus (GPa) = 27.29430 55.65092 41.47261
# Shear Modulus (GPa) = 21.41962 33.30678 27.36320
#
# Velocity S-wave (km/s) = 2.95591 3.68597 3.34094
# Velocity P-wave (km/s) = 4.77322 6.38874 5.63913
#
# Compressibility (1/GPa) = 0.03663768
#
# Stress axis : x y z
#
# Youngs Moduli (GPa) = 55.38331 40.97252 102.34262
#
# Poissons Ratio (x) = -0.12625 0.60305
# Poissons Ratio (y) = -0.17066 0.51038
# Poissons Ratio (z) = 0.32634 0.20433
#
# Static dielectric constant tensor:
#      x y z
#    x 1.966920 0.018700 0.031950 
#    y 0.018700 2.010310 -0.044970 
#    z 0.031950 -0.044970 1.920500 
# 
# From -- ./inp_files/243578.got.cif
#   From: 2010.05.17/outbox.cif.g08.bks.cpg/sg2_122_cif.got.tgz:243578.got - 2010.06.03 11:33:40.
