data_PCOD9058556
_publ_section_title
;
Structure prediction by ZEFSAII (Michael W. Deem and Ramdas Pophale) SiO2 
 PCOD9058556
Probable space group: P -1
;
_chemical_formula_sum "Si O2"
_cell_formula_units_Z 16
_cell_length_a 16.544022
_cell_length_b 11.098019
_cell_length_c 9.233306
_cell_angle_alpha 115.039164
_cell_angle_beta 98.233817
_cell_angle_gamma 138.066000
_cell_volume 671.231936
_symmetry_space_group_name_H-M "P -1"
_symmetry_group_IT_number 2
_symmetry_cell_setting 'triclinic'
loop_
_space_group_symop_operation_xyz
x,y,z
-x,-y,-z
loop_
_atom_site_type_symbol
_atom_site_label
_atom_site_fract_x
_atom_site_fract_y
_atom_site_fract_z
Si Si1 0.197393 0.965227 0.804541
Si Si2 0.062514 0.227258 0.061425
Si Si3 0.642142 0.006454 0.598172
Si Si4 0.176806 0.690809 0.482833
Si Si5 0.291729 0.412531 0.003739
Si Si6 0.703311 0.814654 0.642797
Si Si7 0.410704 0.580106 0.787856
Si Si8 0.397007 0.785149 0.647231
O O1 0.188169 0.865470 0.602715
O O2 0.012113 0.643400 0.671920
O O3 0.221430 0.158169 0.886012
O O4 0.381749 0.176914 0.033969
O O5 0.146693 0.310271 0.969893
O O6 0.224212 0.501015 0.353533
O O7 0.874907 0.035173 0.901700
O O8 0.000000 0.000000 0.000000
O O9 0.716881 0.984516 0.680762
O O10 0.570062 0.004011 0.699605
O O11 0.789214 0.280659 0.664233
O O12 0.470448 0.705405 0.300024
O O13 0.345763 0.863970 0.700612
O O14 0.338980 0.492501 0.887984
O O15 0.500000 0.500000 0.500000
O O16 0.708457 0.710722 0.466589
O O17 0.398159 0.691773 0.738727
#
# Coordination Sequence:
#
# PCOD9058556 Si02
#       8
#     2   2   2   2   2   2   2   2
#     4  11  24  43  69  98 141 179 225 284 331 405
#     4  11  23  43  65 105 136 173 219 289 339 395
#     4  11  22  46  71 102 131 181 229 282 334 407
#     4  11  25  45  65  99 141 188 221 269 346 406
#     4  11  23  44  75 100 136 173 235 285 338 391
#     4  12  23  40  73 106 135 169 228 286 348 390
#     4  12  23  42  69 107 130 183 224 287 337 401
#     4  11  25  42  70  96 143 180 224 278 340 406
#
# _framework density 23.836767999999999
#
# number of rings (size 3 to 8) (size 9 to 14) (size 15 to 20)
#    0.000    0.750    5.000    3.000    1.750    1.000 
#    4.500    3.750    0.000    0.000    0.000    0.000 
#    0.000    0.000    0.000    0.000    0.000    0.000 
#
# Total GULP energy -89513.716295 kJ/mol
# GULP energy per Si atom -5594.607268 kJ/mol
# Density = 2.378251 g / cm^3
# Si number density = 23.836768 Si / 1000 Ang^3
#
#
#
# Elastic Constant Matrix: (Units=GPa)
#
#
# Indices 1 2 3 4 5 6 
#
# 1 87.6183 43.2957 35.9433 -10.7868 12.8278 6.9882
# 2 43.2957 143.1964 39.7905 -6.8126 17.7631 0.4235
# 3 35.9433 39.7905 89.1822 -7.6551 6.9275 7.7263
# 4 -10.7868 -6.8126 -7.6551 33.7952 -3.1409 -5.3332
# 5 12.8278 17.7631 6.9275 -3.1409 48.4354 -3.1528
# 6 6.9882 0.4235 7.7263 -5.3332 -3.1528 38.9288
#
#
#
# Elastic Compliance Matrix: (Units=1/GPa)
#
#
# Indices 1 2 3 4 5 6 
#
# 1 0.015525 -0.003068 -0.004317 0.002880 -0.002292 -0.001688
# 2 -0.003068 0.008898 -0.002636 0.000163 -0.002009 0.000837
# 3 -0.004317 -0.002636 0.014384 0.001048 -0.000004 -0.001908
# 4 0.002880 0.000163 0.001048 0.031484 0.001310 0.003693
# 5 -0.002292 -0.002009 -0.000004 0.001310 0.022232 0.002414
# 6 -0.001688 0.000837 -0.001908 0.003693 0.002414 0.027062
#
#
# Mechanical properties :
#
#
# Convention : Reuss Voigt Hill
#
# Bulk Modulus (GPa) = 53.28887 62.00622 57.64755
# Shear Modulus (GPa) = 34.27438 37.62970 35.95204
#
# Velocity S-wave (km/s) = 3.79605 3.97752 3.88785
# Velocity P-wave (km/s) = 6.45117 6.86757 6.66263
#
# Compressibility (1/GPa) = 0.01876564
#
# Stress axis : x y z
#
# Youngs Moduli (GPa) = 64.41340 112.38525 69.52014
#
# Poissons Ratio (x) = 0.34481 0.30009
# Poissons Ratio (y) = 0.19763 0.18325
# Poissons Ratio (z) = 0.27805 0.29624
#
# Static dielectric constant tensor:
#      x y z
#    x 2.099690 0.021840 -0.147610 
#    y 0.021840 1.926730 0.023490 
#    z -0.147610 0.023490 1.958200 
# 
# From -- ./inp_files/332276.got.cif
#   From: 2010.05.17/outbox.cif.g08.bks.cpg/sg2_167_cif.got.tgz:332276.got - 2010.06.03 11:33:40.
