data_PCOD9058183
_publ_section_title
;
Structure prediction by ZEFSAII (Michael W. Deem and Ramdas Pophale) SiO2 
 PCOD9058183
Probable space group: P -1
;
_chemical_formula_sum "Si O2"
_cell_formula_units_Z 14
_cell_length_a 15.086402
_cell_length_b 8.067756
_cell_length_c 9.220573
_cell_angle_alpha 68.391727
_cell_angle_beta 43.816903
_cell_angle_gamma 93.347186
_cell_volume 624.150958
_symmetry_space_group_name_H-M "P -1"
_symmetry_group_IT_number 2
_symmetry_cell_setting 'triclinic'
loop_
_space_group_symop_operation_xyz
x,y,z
-x,-y,-z
loop_
_atom_site_type_symbol
_atom_site_label
_atom_site_fract_x
_atom_site_fract_y
_atom_site_fract_z
Si Si1 0.864481 0.932490 0.076941
Si Si2 0.308160 0.868281 0.637713
Si Si3 0.534898 0.590250 0.263700
Si Si4 0.137846 0.598712 0.415800
Si Si5 0.141087 0.003624 0.261189
Si Si6 0.589389 0.267350 0.153067
Si Si7 0.227614 0.527365 0.628329
O O1 0.806979 0.691303 0.195366
O O2 0.759513 0.998833 0.260585
O O3 0.898123 0.040657 0.847726
O O4 0.000000 0.000000 0.000000
O O5 0.347910 0.771192 0.758441
O O6 0.208359 0.680267 0.709772
O O7 0.460754 0.041889 0.328998
O O8 0.500000 0.500000 0.500000
O O9 0.527909 0.416628 0.221107
O O10 0.405312 0.636527 0.358188
O O11 0.700358 0.785435 0.990875
O O12 0.133850 0.487857 0.605804
O O13 0.000000 0.500000 0.500000
O O14 0.160131 0.820497 0.361445
O O15 0.279500 0.631527 0.148445
O O16 0.000000 0.000000 0.500000
#
# Coordination Sequence:
#
# PCOD9058183 Si02
#       7
#     2   2   2   2   2   2   2
#     4  12  26  48  72 105 148 194 253 305 364 445
#     4  11  23  44  77 105 138 194 250 302 365 441
#     4  12  22  46  78 109 147 190 253 308 361 444
#     4  12  28  49  68 107 156 192 240 314 381 439
#     4  12  26  47  74 106 151 199 242 307 379 435
#     4  11  22  44  73 104 146 190 238 305 374 432
#     4  12  27  46  77 111 143 195 256 303 369 449
#
# _framework density 22.430472000000002
#
# number of rings (size 3 to 8) (size 9 to 14) (size 15 to 20)
#    0.000    0.286    5.714    2.571    2.000    3.429 
#    0.000    0.000    0.000    0.000    0.000    0.000 
#    0.000    0.000    0.000    0.000    0.000    0.000 
#
# Total GULP energy -78314.563288 kJ/mol
# GULP energy per Si atom -5593.897378 kJ/mol
# Density = 2.237942 g / cm^3
# Si number density = 22.430472 Si / 1000 Ang^3
#
#
#
# Elastic Constant Matrix: (Units=GPa)
#
#
# Indices 1 2 3 4 5 6 
#
# 1 78.1884 0.0158 -1.7706 -6.8690 0.8150 2.3732
# 2 0.0158 110.7224 18.4746 1.9907 9.4121 5.3277
# 3 -1.7706 18.4746 65.3907 7.8040 -6.0182 -0.4521
# 4 -6.8690 1.9907 7.8040 35.0180 -1.8366 -1.7742
# 5 0.8150 9.4121 -6.0182 -1.8366 21.1549 -9.1469
# 6 2.3732 5.3277 -0.4521 -1.7742 -9.1469 35.9529
#
#
#
# Elastic Compliance Matrix: (Units=1/GPa)
#
#
# Indices 1 2 3 4 5 6 
#
# 1 0.013042 0.000067 -0.000035 0.002477 -0.000731 -0.000935
# 2 0.000067 0.010410 -0.003583 -0.000330 -0.007165 -0.003431
# 3 -0.000035 -0.003583 0.017373 -0.003166 0.007326 0.002459
# 4 0.002477 -0.000330 -0.003166 0.030005 0.002617 0.001992
# 5 -0.000731 -0.007165 0.007326 0.002617 0.059970 0.016589
# 6 -0.000935 -0.003431 0.002459 0.001992 0.016589 0.032734
#
#
# Mechanical properties :
#
#
# Convention : Reuss Voigt Hill
#
# Bulk Modulus (GPa) = 29.65394 31.97124 30.81259
# Shear Modulus (GPa) = 27.49092 34.26393 30.87742
#
# Velocity S-wave (km/s) = 3.50466 3.91264 3.71426
# Velocity P-wave (km/s) = 5.44297 5.89034 5.67107
#
# Compressibility (1/GPa) = 0.03372234
#
# Stress axis : x y z
#
# Youngs Moduli (GPa) = 76.67301 96.06531 57.56002
#
# Poissons Ratio (x) = -0.00640 0.00202
# Poissons Ratio (y) = -0.00511 0.20624
# Poissons Ratio (z) = 0.00268 0.34420
#
# Static dielectric constant tensor:
#      x y z
#    x 1.806170 0.043110 -0.042260 
#    y 0.043110 1.822000 -0.017140 
#    z -0.042260 -0.017140 1.834520 
# 
# From -- ./inp_files/297571.got.cif
#   From: 2010.05.17/outbox.cif.g08.bks.cpg/sg2_149_cif.got.tgz:297571.got - 2010.06.03 11:33:40.
