data_PCOD9058892
_publ_section_title
;
Structure prediction by ZEFSAII (Michael W. Deem and Ramdas Pophale) SiO2 
 PCOD9058892
Probable space group: P -1
;
_chemical_formula_sum "Si O2"
_cell_formula_units_Z 16
_cell_length_a 11.272449
_cell_length_b 9.123961
_cell_length_c 13.336261
_cell_angle_alpha 137.075382
_cell_angle_beta 103.918280
_cell_angle_gamma 53.534888
_cell_volume 702.191525
_symmetry_space_group_name_H-M "P -1"
_symmetry_group_IT_number 2
_symmetry_cell_setting 'triclinic'
loop_
_space_group_symop_operation_xyz
x,y,z
-x,-y,-z
loop_
_atom_site_type_symbol
_atom_site_label
_atom_site_fract_x
_atom_site_fract_y
_atom_site_fract_z
Si Si1 0.814360 0.007586 0.254747
Si Si2 0.602594 0.673375 0.555636
Si Si3 0.984622 0.938908 0.800796
Si Si4 0.192177 0.169303 0.416485
Si Si5 0.255599 0.645779 0.871878
Si Si6 0.271315 0.131338 0.636790
Si Si7 0.435209 0.517054 0.104873
Si Si8 0.579244 0.950081 0.098206
O O1 0.824212 0.866375 0.289851
O O2 0.729144 0.939672 0.126814
O O3 0.976820 0.917553 0.199037
O O4 0.699994 0.343268 0.415493
O O5 0.712280 0.739868 0.567126
O O6 0.446601 0.832125 0.532613
O O7 0.694315 0.166928 0.734730
O O8 0.537423 0.820417 0.725251
O O9 0.951701 0.756093 0.643312
O O10 0.843521 0.143222 0.951092
O O11 0.139804 0.758997 0.810917
O O12 0.178078 0.212490 0.554500
O O13 0.302034 0.351877 0.763822
O O14 0.408594 0.615872 0.863735
O O15 0.500000 0.500000 0.000000
O O16 0.377214 0.339513 0.005571
O O17 0.500000 0.000000 0.000000
#
# Coordination Sequence:
#
# PCOD9058892 Si02
#       8
#     2   2   2   2   2   2   2   2
#     4  11  26  44  62  97 144 176 207 266 345 397
#     4  11  23  44  67  98 136 168 224 278 327 381
#     4  11  26  44  66  97 136 179 213 269 335 396
#     4  12  25  41  71 101 125 175 226 277 317 385
#     4  11  23  45  70  96 132 173 224 272 327 387
#     4  11  24  42  68 100 129 174 223 272 329 386
#     4  12  21  42  71 100 127 162 237 279 311 379
#     4  11  23  38  65  99 130 172 214 273 327 384
#
# _framework density 22.785806000000001
#
# number of rings (size 3 to 8) (size 9 to 14) (size 15 to 20)
#    0.000    0.750    3.750    4.125    5.250    4.000 
#    0.000    0.000    0.000    0.000    0.000    0.000 
#    0.000    0.000    0.000    0.000    0.000    0.000 
#
# Total GULP energy -89547.584065 kJ/mol
# GULP energy per Si atom -5596.724004 kJ/mol
# Density = 2.273394 g / cm^3
# Si number density = 22.785806 Si / 1000 Ang^3
#
#
#
# Elastic Constant Matrix: (Units=GPa)
#
#
# Indices 1 2 3 4 5 6 
#
# 1 111.9027 6.3962 25.3178 -12.3876 23.8831 13.1319
# 2 6.3962 47.4735 16.4711 -16.4756 13.3390 5.1249
# 3 25.3178 16.4711 108.4027 -18.0148 25.1423 4.5500
# 4 -12.3876 -16.4756 -18.0148 58.8042 2.0968 7.6677
# 5 23.8831 13.3390 25.1423 2.0968 37.2391 3.6517
# 6 13.1319 5.1249 4.5500 7.6677 3.6517 43.6661
#
#
#
# Elastic Compliance Matrix: (Units=1/GPa)
#
#
# Indices 1 2 3 4 5 6 
#
# 1 0.011391 0.002482 -0.000477 0.003703 -0.007721 -0.003672
# 2 0.002482 0.027735 -0.000463 0.009156 -0.011276 -0.004618
# 3 -0.000477 -0.000463 0.011858 0.003814 -0.007644 -0.001068
# 4 0.003703 0.009156 0.003814 0.022595 -0.008933 -0.005806
# 5 -0.007721 -0.011276 -0.007644 -0.008933 0.041257 0.002560
# 6 -0.003672 -0.004618 -0.001068 -0.005806 0.002560 0.025464
#
#
# Mechanical properties :
#
#
# Convention : Reuss Voigt Hill
#
# Bulk Modulus (GPa) = 18.49552 40.46103 29.47828
# Shear Modulus (GPa) = 32.20800 42.58146 37.39473
#
# Velocity S-wave (km/s) = 3.76375 4.32762 4.05550
# Velocity P-wave (km/s) = 5.19832 6.53963 5.90717
#
# Compressibility (1/GPa) = 0.05406714
#
# Stress axis : x y z
#
# Youngs Moduli (GPa) = 87.78810 36.05533 84.32829
#
# Poissons Ratio (x) = -0.08948 0.04025
# Poissons Ratio (y) = -0.21786 0.03904
# Poissons Ratio (z) = 0.04191 0.01669
#
# Static dielectric constant tensor:
#      x y z
#    x 1.841550 -0.050920 0.017150 
#    y -0.050920 1.937550 -0.034480 
#    z 0.017150 -0.034480 1.861720 
# 
# From -- ./inp_files/418197.got.cif
#   From: 2010.05.17/outbox.cif.g08.bks.cpg/sg2_210_cif.got.tgz:418197.got - 2010.06.03 11:33:40.
