data_PCOD9058899
_publ_section_title
;
Structure prediction by ZEFSAII (Michael W. Deem and Ramdas Pophale) SiO2 
 PCOD9058899
Probable space group: P -1
;
_chemical_formula_sum "Si O2"
_cell_formula_units_Z 12
_cell_length_a 9.341680
_cell_length_b 8.647206
_cell_length_c 8.347196
_cell_angle_alpha 90.280401
_cell_angle_beta 76.843776
_cell_angle_gamma 63.265536
_cell_volume 581.916580
_symmetry_space_group_name_H-M "P -1"
_symmetry_group_IT_number 2
_symmetry_cell_setting 'triclinic'
loop_
_space_group_symop_operation_xyz
x,y,z
-x,-y,-z
loop_
_atom_site_type_symbol
_atom_site_label
_atom_site_fract_x
_atom_site_fract_y
_atom_site_fract_z
Si Si1 0.599517 0.404660 0.634385
Si Si2 0.488840 0.111595 0.346322
Si Si3 0.829333 0.505883 0.100210
Si Si4 0.825468 0.528576 0.484275
Si Si5 0.481731 0.824314 0.144743
Si Si6 0.657233 0.274652 0.120287
O O1 0.500000 0.500000 0.500000
O O2 0.781632 0.380488 0.562569
O O3 0.579716 0.237623 0.681285
O O4 0.505196 0.539549 0.802938
O O5 0.322658 0.292368 0.411430
O O6 0.640538 0.156159 0.267681
O O7 0.500000 0.000000 0.500000
O O8 0.473797 0.006461 0.195541
O O9 0.818532 0.529765 0.294713
O O10 0.671833 0.676095 0.069385
O O11 0.800645 0.335101 0.076220
O O12 0.000000 0.500000 0.000000
O O13 0.000000 0.500000 0.500000
O O14 0.367615 0.812290 0.033395
#
# Coordination Sequence:
#
# PCOD9058899 Si02
#       6
#     2   2   2   2   2   2
#     4  10  17  37  63  88 118 165 212 249 292 370
#     4  11  22  42  68  89 123 165 212 260 302 364
#     4  11  23  39  62  92 128 162 200 256 313 365
#     4  11  24  39  64  92 122 160 213 257 307 363
#     4  11  21  39  66  92 122 162 213 254 304 366
#     4  10  22  37  63  93 120 164 212 249 301 377
#
# _framework density 20.621511999999999
#
# number of rings (size 3 to 8) (size 9 to 14) (size 15 to 20)
#    0.000    1.333    5.000    3.500    7.000    0.000 
#    0.000    1.667    0.000    0.000    0.000    0.000 
#    0.000    0.000    0.000    0.000    0.000    0.000 
#
# Total GULP energy -66941.152210 kJ/mol
# GULP energy per Si atom -5578.429351 kJ/mol
# Density = 2.057458 g / cm^3
# Si number density = 20.621512 Si / 1000 Ang^3
#
#
#
# Elastic Constant Matrix: (Units=GPa)
#
#
# Indices 1 2 3 4 5 6 
#
# 1 163.5189 38.5114 43.7738 -3.0506 -23.6889 35.0473
# 2 38.5114 72.3566 27.2419 1.4376 -5.5621 33.5230
# 3 43.7738 27.2419 89.2541 5.3829 -1.5289 21.0349
# 4 -3.0506 1.4376 5.3829 32.8972 15.5606 4.3142
# 5 -23.6889 -5.5621 -1.5289 15.5606 47.4431 -3.9905
# 6 35.0473 33.5230 21.0349 4.3142 -3.9905 36.1936
#
#
#
# Elastic Compliance Matrix: (Units=1/GPa)
#
#
# Indices 1 2 3 4 5 6 
#
# 1 0.008799 -0.000603 -0.002663 0.000367 0.003607 -0.006060
# 2 -0.000603 0.024876 -0.002398 0.001998 0.000092 -0.021291
# 3 -0.002663 -0.002398 0.014101 -0.001583 -0.000916 -0.003308
# 4 0.000367 0.001998 -0.001583 0.037461 -0.012520 -0.007132
# 5 0.003607 0.000092 -0.000916 -0.012520 0.027087 0.001433
# 6 -0.006060 -0.021291 -0.003308 -0.007132 0.001433 0.056147
#
#
# Mechanical properties :
#
#
# Convention : Reuss Voigt Hill
#
# Bulk Modulus (GPa) = 27.43705 60.46486 43.95096
# Shear Modulus (GPa) = 26.04874 37.68030 31.86452
#
# Velocity S-wave (km/s) = 3.55798 4.27925 3.93518
# Velocity P-wave (km/s) = 5.49663 7.33491 6.48127
#
# Compressibility (1/GPa) = 0.03644707
#
# Stress axis : x y z
#
# Youngs Moduli (GPa) = 113.65426 40.20017 70.91489
#
# Poissons Ratio (x) = 0.02423 0.18888
# Poissons Ratio (y) = 0.06851 0.17006
# Poissons Ratio (z) = 0.30271 0.09640
#
# Static dielectric constant tensor:
#      x y z
#    x 1.768470 0.075330 0.023900 
#    y 0.075330 1.788230 -0.021030 
#    z 0.023900 -0.021030 1.805450 
# 
# From -- ./inp_files/150760.got.cif
#   From: 2010.05.17/outbox.cif.g08.bks.cpg/sg2_76_cif.got.tgz:150760.got - 2010.06.03 11:33:40.
