data_PCOD9058784
_publ_section_title
;
Structure prediction by ZEFSAII (Michael W. Deem and Ramdas Pophale) SiO2 
 PCOD9058784
Probable space group: P -1
;
_chemical_formula_sum "Si O2"
_cell_formula_units_Z 16
_cell_length_a 10.405417
_cell_length_b 11.190099
_cell_length_c 18.637220
_cell_angle_alpha 41.054579
_cell_angle_beta 34.561321
_cell_angle_gamma 31.612653
_cell_volume 635.047223
_symmetry_space_group_name_H-M "P -1"
_symmetry_group_IT_number 2
_symmetry_cell_setting 'triclinic'
loop_
_space_group_symop_operation_xyz
x,y,z
-x,-y,-z
loop_
_atom_site_type_symbol
_atom_site_label
_atom_site_fract_x
_atom_site_fract_y
_atom_site_fract_z
Si Si1 0.215354 0.154810 0.309122
Si Si2 0.628546 0.719295 0.139263
Si Si3 0.041554 0.191373 0.161318
Si Si4 0.345306 0.716106 0.527823
Si Si5 0.174018 0.125499 0.892621
Si Si6 0.124262 0.543947 0.258128
Si Si7 0.370479 0.142752 0.567692
Si Si8 0.732992 0.178465 0.173194
O O1 0.089711 0.351447 0.337640
O O2 0.957144 0.231544 0.340053
O O3 0.301465 0.917662 0.408325
O O4 0.500866 0.104944 0.168193
O O5 0.768012 0.747973 0.131417
O O6 0.764908 0.450156 0.197492
O O7 0.283459 0.934761 0.202000
O O8 0.752878 0.756746 0.993772
O O9 0.896087 0.147275 0.184667
O O10 0.500000 0.500000 0.500000
O O11 0.483228 0.745945 0.520224
O O12 0.023239 0.287158 0.819116
O O13 0.036266 0.909858 0.955266
O O14 0.454533 0.436111 0.165167
O O15 0.968020 0.650880 0.357767
O O16 0.500000 0.000000 0.500000
O O17 0.395574 0.957944 0.693559
#
# Coordination Sequence:
#
# PCOD9058784 Si02
#       8
#     2   2   2   2   2   2   2   2
#     4  11  23  43  78 109 147 194 257 329 384 463
#     4   9  20  39  66 100 146 203 262 312 375 468
#     4   9  20  41  65  98 149 205 256 312 382 471
#     4  11  22  49  77 105 146 197 267 327 384 456
#     4  11  24  43  75 114 157 200 253 327 403 478
#     4  12  24  47  73 114 154 202 257 322 403 478
#     4  12  28  51  74 109 152 204 267 327 396 480
#     4  11  26  46  71 111 161 207 249 319 407 490
#
# _framework density 25.194977000000002
#
# number of rings (size 3 to 8) (size 9 to 14) (size 15 to 20)
#    0.000    1.250    3.750    0.375    3.500    4.500 
#    2.250    0.000    0.000    0.000    0.000    0.000 
#    0.000    0.000    0.000    0.000    0.000    0.000 
#
# Total GULP energy -89300.631577 kJ/mol
# GULP energy per Si atom -5581.289474 kJ/mol
# Density = 2.513763 g / cm^3
# Si number density = 25.194977 Si / 1000 Ang^3
#
#
#
# Elastic Constant Matrix: (Units=GPa)
#
#
# Indices 1 2 3 4 5 6 
#
# 1 120.6375 77.1907 56.0606 15.0325 -19.7234 -5.1717
# 2 77.1907 196.1178 64.8371 17.6741 2.4752 18.1030
# 3 56.0606 64.8371 113.1151 20.5601 -9.7920 -0.6891
# 4 15.0325 17.6741 20.5601 50.8602 -3.6098 2.2327
# 5 -19.7234 2.4752 -9.7920 -3.6098 40.3696 10.4237
# 6 -5.1717 18.1030 -0.6891 2.2327 10.4237 48.9725
#
#
#
# Elastic Compliance Matrix: (Units=1/GPa)
#
#
# Indices 1 2 3 4 5 6 
#
# 1 0.013962 -0.004437 -0.003740 -0.000757 0.005629 0.001899
# 2 -0.004437 0.008037 -0.002557 -0.000503 -0.002576 -0.002904
# 3 -0.003740 -0.002557 0.012821 -0.003148 0.000986 0.000664
# 4 -0.000757 -0.000503 -0.003148 0.021463 0.001115 -0.001154
# 5 0.005629 -0.002576 0.000986 0.001115 0.029235 -0.004713
# 6 0.001899 -0.002904 0.000664 -0.001154 -0.004713 0.022759
#
#
# Mechanical properties :
#
#
# Convention : Reuss Voigt Hill
#
# Bulk Modulus (GPa) = 74.89295 91.78301 83.33798
# Shear Modulus (GPa) = 37.25918 43.49261 40.37590
#
# Velocity S-wave (km/s) = 3.84973 4.15931 4.00751
# Velocity P-wave (km/s) = 7.03921 7.71846 7.38665
#
# Compressibility (1/GPa) = 0.01335239
#
# Stress axis : x y z
#
# Youngs Moduli (GPa) = 71.62105 124.43158 77.99492
#
# Poissons Ratio (x) = 0.55211 0.29171
# Poissons Ratio (y) = 0.31779 0.19941
# Poissons Ratio (z) = 0.26787 0.31813
#
# Static dielectric constant tensor:
#      x y z
#    x 2.051220 -0.002810 0.009680 
#    y -0.002810 2.112630 0.048250 
#    z 0.009680 0.048250 2.000970 
# 
# From -- ./inp_files/575424.got.cif
#   From: 2010.05.17/outbox.cif.g08.bks.cpg/sg2_288_cif.got.tgz:575424.got - 2010.06.03 11:33:40.
