data_PCOD9058406
_publ_section_title
;
Structure prediction by ZEFSAII (Michael W. Deem and Ramdas Pophale) SiO2 
 PCOD9058406
Probable space group: P -1
;
_chemical_formula_sum "Si O2"
_cell_formula_units_Z 16
_cell_length_a 17.971089
_cell_length_b 7.364062
_cell_length_c 11.833461
_cell_angle_alpha 115.016932
_cell_angle_beta 45.568327
_cell_angle_gamma 80.924617
_cell_volume 722.442138
_symmetry_space_group_name_H-M "P -1"
_symmetry_group_IT_number 2
_symmetry_cell_setting 'triclinic'
loop_
_space_group_symop_operation_xyz
x,y,z
-x,-y,-z
loop_
_atom_site_type_symbol
_atom_site_label
_atom_site_fract_x
_atom_site_fract_y
_atom_site_fract_z
Si Si1 0.861184 0.584184 0.723987
Si Si2 0.833146 0.216090 0.071662
Si Si3 0.327377 0.671712 0.962702
Si Si4 0.849939 0.254210 0.465376
Si Si5 0.704090 0.798621 0.336712
Si Si6 0.612159 0.866313 0.193779
Si Si7 0.923511 0.907510 0.500556
Si Si8 0.331989 0.701049 0.506712
O O1 0.826848 0.460192 0.635142
O O2 0.000000 0.500000 0.500000
O O3 0.704796 0.869675 0.007156
O O4 0.941168 0.423312 0.716595
O O5 0.753546 0.257200 0.051115
O O6 0.826750 0.468077 0.142600
O O7 0.746222 0.246763 0.278640
O O8 0.999540 0.917281 0.808233
O O9 0.342034 0.430154 0.940962
O O10 0.492764 0.520843 0.730662
O O11 0.218568 0.942970 0.231468
O O12 0.877472 0.024055 0.455369
O O13 0.719427 0.390611 0.554944
O O14 0.653180 0.873595 0.279083
O O15 0.560610 0.899034 0.576731
O O16 0.724257 0.003511 0.397224
O O17 0.000000 0.000000 0.500000
#
# Coordination Sequence:
#
# PCOD9058406 Si02
#       8
#     2   2   2   2   2   2   2   2
#     4  11  22  36  63  91 117 159 206 254 297 357
#     4  11  21  41  63  86 128 159 209 254 285 371
#     4  10  18  37  65  87 114 161 206 249 295 355
#     4  11  23  42  59  90 126 159 199 253 308 363
#     4   9  21  37  60  89 117 162 196 248 305 350
#     4   9  17  36  59  87 121 145 207 257 285 355
#     4  10  17  37  61  83 113 155 204 239 292 360
#     4  11  25  38  60  95 125 163 199 247 319 359
#
# _framework density 22.147103000000001
#
# number of rings (size 3 to 8) (size 9 to 14) (size 15 to 20)
#    0.000    1.750    5.000    2.250    1.750    2.000 
#    2.250    0.000    0.000    1.500    0.000    0.000 
#    0.000    0.000    0.000    0.000    0.000    0.000 
#
# Total GULP energy -89265.448532 kJ/mol
# GULP energy per Si atom -5579.090533 kJ/mol
# Density = 2.209670 g / cm^3
# Si number density = 22.147103 Si / 1000 Ang^3
#
#
#
# Elastic Constant Matrix: (Units=GPa)
#
#
# Indices 1 2 3 4 5 6 
#
# 1 66.7325 4.0515 28.0526 -7.0195 -9.1842 4.6172
# 2 4.0515 29.7823 10.9166 -7.2665 -1.5275 7.6163
# 3 28.0526 10.9166 136.4041 -25.9067 4.9992 -3.7969
# 4 -7.0195 -7.2665 -25.9067 39.1698 -1.1549 6.7988
# 5 -9.1842 -1.5275 4.9992 -1.1549 19.3658 2.1214
# 6 4.6172 7.6163 -3.7969 6.7988 2.1214 17.0685
#
#
#
# Elastic Compliance Matrix: (Units=1/GPa)
#
#
# Indices 1 2 3 4 5 6 
#
# 1 0.019300 0.002999 -0.004301 0.003307 0.011826 -0.010303
# 2 0.002999 0.044629 -0.003050 0.011813 0.009423 -0.027281
# 3 -0.004301 -0.003050 0.009537 0.004206 -0.004883 0.003577
# 4 0.003307 0.011813 0.004206 0.034691 0.005647 -0.019750
# 5 0.011826 0.009423 -0.004883 0.005647 0.061602 -0.018395
# 6 -0.010303 -0.027281 0.003577 -0.019750 -0.018395 0.084497
#
#
# Mechanical properties :
#
#
# Convention : Reuss Voigt Hill
#
# Bulk Modulus (GPa) = 15.44099 35.44002 25.44051
# Shear Modulus (GPa) = 17.57188 27.78068 22.67628
#
# Velocity S-wave (km/s) = 2.81982 3.54555 3.20331
# Velocity P-wave (km/s) = 4.19392 5.72696 5.01932
#
# Compressibility (1/GPa) = 0.06476267
#
# Stress axis : x y z
#
# Youngs Moduli (GPa) = 51.81476 22.40701 104.85180
#
# Poissons Ratio (x) = -0.06721 0.45099
# Poissons Ratio (y) = -0.15542 0.31977
# Poissons Ratio (z) = 0.22287 0.06834
#
# Static dielectric constant tensor:
#      x y z
#    x 1.765730 0.070860 0.017880 
#    y 0.070860 2.004410 -0.025100 
#    z 0.017880 -0.025100 1.852810 
# 
# From -- ./inp_files/262807.got.cif
#   From: 2010.05.17/outbox.cif.g08.bks.cpg/sg2_132_cif.got.tgz:262807.got - 2010.06.03 11:33:40.
