data_PCOD9058213
_publ_section_title
;
Structure prediction by ZEFSAII (Michael W. Deem and Ramdas Pophale) SiO2 
 PCOD9058213
Probable space group: P -1
;
_chemical_formula_sum "Si O2"
_cell_formula_units_Z 11
_cell_length_a 6.777539
_cell_length_b 12.547841
_cell_length_c 8.428765
_cell_angle_alpha 122.739436
_cell_angle_beta 102.624380
_cell_angle_gamma 44.993898
_cell_volume 409.787336
_symmetry_space_group_name_H-M "P -1"
_symmetry_group_IT_number 2
_symmetry_cell_setting 'triclinic'
loop_
_space_group_symop_operation_xyz
x,y,z
-x,-y,-z
loop_
_atom_site_type_symbol
_atom_site_label
_atom_site_fract_x
_atom_site_fract_y
_atom_site_fract_z
Si Si1 0.248656 0.078368 0.640776
Si Si2 0.500000 0.500000 0.500000
Si Si3 0.947326 0.819577 0.845814
Si Si4 0.444322 0.658879 0.035145
Si Si5 0.659514 0.764329 0.966020
Si Si6 0.358081 0.765618 0.443953
O O1 0.351431 0.910182 0.625815
O O2 0.500000 0.000000 0.500000
O O3 0.192005 0.225765 0.856739
O O4 0.956502 0.156772 0.574806
O O5 0.177792 0.705757 0.653882
O O6 0.540602 0.585884 0.432987
O O7 0.134589 0.792324 0.002612
O O8 0.669539 0.032622 0.932228
O O9 0.822216 0.740854 0.821322
O O10 0.645124 0.623026 0.898200
O O11 0.464180 0.736774 0.256559
O O12 0.500000 0.500000 0.000000
#
# Coordination Sequence:
#
# PCOD9058213 Si02
#       6
#     2   1   2   2   2   2
#     4  11  22  44  74 104 139 186 246 291 352 434
#     4  12  26  48  68 106 152 188 236 296 368 420
#     4  11  26  47  74 107 145 193 236 301 357 429
#     4  12  24  48  74 103 148 189 239 301 364 423
#     4  11  25  47  77 109 139 192 247 292 357 434
#     4  11  25  44  72 104 142 192 236 297 363 422
#
# _framework density 26.843191999999998
#
# number of rings (size 3 to 8) (size 9 to 14) (size 15 to 20)
#    0.000    0.727    5.455    1.636    2.545    3.636 
#    3.273    2.727    0.000    0.000    0.000    0.000 
#    0.000    0.000    0.000    0.000    0.000    0.000 
#
# Total GULP energy -61352.227953 kJ/mol
# GULP energy per Si atom -5577.475268 kJ/mol
# Density = 2.678210 g / cm^3
# Si number density = 26.843192 Si / 1000 Ang^3
#
#
#
# Elastic Constant Matrix: (Units=GPa)
#
#
# Indices 1 2 3 4 5 6 
#
# 1 148.9629 46.5107 23.2753 -3.8698 -10.5127 23.4200
# 2 46.5107 132.9112 8.8496 -14.3470 -1.2253 21.7755
# 3 23.2753 8.8496 69.4517 -1.1116 -39.6884 -9.9746
# 4 -3.8698 -14.3470 -1.1116 37.4140 -0.7068 -8.5534
# 5 -10.5127 -1.2253 -39.6884 -0.7068 46.4596 10.4161
# 6 23.4200 21.7755 -9.9746 -8.5534 10.4161 33.0449
#
#
#
# Elastic Compliance Matrix: (Units=1/GPa)
#
#
# Indices 1 2 3 4 5 6 
#
# 1 0.008887 -0.001956 -0.003412 -0.001424 0.000495 -0.006563
# 2 -0.001956 0.009264 -0.001270 0.002295 -0.000256 -0.004426
# 3 -0.003412 -0.001270 0.030025 0.001710 0.023682 0.005296
# 4 -0.001424 0.002295 0.001710 0.029249 -0.000060 0.007602
# 5 0.000495 -0.000256 0.023682 -0.000060 0.043365 -0.006718
# 6 -0.006563 -0.004426 0.005296 0.007602 -0.006718 0.043514
#
#
# Mechanical properties :
#
#
# Convention : Reuss Voigt Hill
#
# Bulk Modulus (GPa) = 28.65399 56.51075 42.58237
# Shear Modulus (GPa) = 26.42530 41.56305 33.99417
#
# Velocity S-wave (km/s) = 3.14097 3.93920 3.56251
# Velocity P-wave (km/s) = 4.88385 6.46433 5.72886
#
# Compressibility (1/GPa) = 0.03489915
#
# Stress axis : x y z
#
# Youngs Moduli (GPa) = 112.52588 107.94906 33.30575
#
# Poissons Ratio (x) = 0.21120 0.11363
# Poissons Ratio (y) = 0.22015 0.04230
# Poissons Ratio (z) = 0.38390 0.13709
#
# Static dielectric constant tensor:
#      x y z
#    x 2.056550 -0.079370 0.103290 
#    y -0.079370 1.946720 0.087300 
#    z 0.103290 0.087300 2.229420 
# 
# From -- ./inp_files/26030.got.cif
#   From: 2010.05.17/outbox.cif.g08.bks.cpg/sg2_14_cif.got.tgz:26030.got - 2010.06.03 11:33:40.
