data_PCOD9058465
_publ_section_title
;
Structure prediction by ZEFSAII (Michael W. Deem and Ramdas Pophale) SiO2 
 PCOD9058465
Probable space group: P -1
;
_chemical_formula_sum "Si O2"
_cell_formula_units_Z 16
_cell_length_a 12.167348
_cell_length_b 15.498105
_cell_length_c 8.495268
_cell_angle_alpha 72.798393
_cell_angle_beta 65.232425
_cell_angle_gamma 28.048877
_cell_volume 673.639694
_symmetry_space_group_name_H-M "P -1"
_symmetry_group_IT_number 2
_symmetry_cell_setting 'triclinic'
loop_
_space_group_symop_operation_xyz
x,y,z
-x,-y,-z
loop_
_atom_site_type_symbol
_atom_site_label
_atom_site_fract_x
_atom_site_fract_y
_atom_site_fract_z
Si Si1 0.416187 0.020986 0.864601
Si Si2 0.646456 0.564693 0.532208
Si Si3 0.876538 0.632494 0.649344
Si Si4 0.085136 0.980709 0.630017
Si Si5 0.331564 0.535481 0.749602
Si Si6 0.204797 0.690563 0.227260
Si Si7 0.046726 0.553773 0.059857
Si Si8 0.959455 0.895875 0.930486
O O1 0.204776 0.234203 0.834883
O O2 0.645147 0.853390 0.695910
O O3 0.278048 0.014364 0.968265
O O4 0.500000 0.000000 0.000000
O O5 0.379755 0.784716 0.593680
O O6 0.595714 0.529531 0.437644
O O7 0.735271 0.452367 0.693669
O O8 0.876218 0.475350 0.386125
O O9 0.799555 0.596488 0.817709
O O10 0.000000 0.500000 0.500000
O O11 0.943676 0.010612 0.830098
O O12 0.000000 0.000000 0.500000
O O13 0.005706 0.135405 0.621973
O O14 0.552089 0.415806 0.800673
O O15 0.130353 0.745751 0.768661
O O16 0.197957 0.533737 0.897123
O O17 0.111701 0.775331 0.064047
O O18 0.000000 0.500000 0.000000
#
# Coordination Sequence:
#
# PCOD9058465 Si02
#       8
#     2   2   2   2   2   2   2   2
#     4  11  25  48  75 103 141 195 250 297 356 445
#     4  12  26  48  69 105 150 187 238 292 369 436
#     4  12  29  45  73 108 147 192 239 309 368 428
#     4  12  26  44  73 107 140 191 237 294 362 438
#     4  11  22  45  74  99 141 188 240 293 353 444
#     4  12  26  44  70 105 146 186 231 303 367 420
#     4  11  23  46  74 104 137 194 252 292 360 434
#     4  11  26  45  72 107 141 184 246 299 362 426
#
# _framework density 23.751567999999999
#
# number of rings (size 3 to 8) (size 9 to 14) (size 15 to 20)
#    0.000    0.500    5.000    2.625    7.000    2.500 
#    0.000    0.000    0.000    0.000    0.000    0.000 
#    0.000    0.000    0.000    0.000    0.000    0.000 
#
# Total GULP energy -89330.753385 kJ/mol
# GULP energy per Si atom -5583.172087 kJ/mol
# Density = 2.369751 g / cm^3
# Si number density = 23.751568 Si / 1000 Ang^3
#
#
#
# Elastic Constant Matrix: (Units=GPa)
#
#
# Indices 1 2 3 4 5 6 
#
# 1 99.8087 27.7708 22.0634 12.5585 -9.0928 -10.6351
# 2 27.7708 147.1004 29.9809 26.6731 -9.1461 6.4841
# 3 22.0634 29.9809 76.0480 3.3276 11.1015 -3.3214
# 4 12.5585 26.6731 3.3276 55.8429 1.9483 3.7044
# 5 -9.0928 -9.1461 11.1015 1.9483 32.9866 1.7826
# 6 -10.6351 6.4841 -3.3214 3.7044 1.7826 31.4982
#
#
#
# Elastic Compliance Matrix: (Units=1/GPa)
#
#
# Indices 1 2 3 4 5 6 
#
# 1 0.012192 -0.001081 -0.003433 -0.002433 0.004142 0.004029
# 2 -0.001081 0.008738 -0.003609 -0.003690 0.003683 -0.002319
# 3 -0.003433 -0.003609 0.016696 0.001666 -0.007750 0.001587
# 4 -0.002433 -0.003690 0.001666 0.020373 -0.003345 -0.002093
# 5 0.004142 0.003683 -0.007750 -0.003345 0.035381 -0.001786
# 6 0.004029 -0.002319 0.001587 -0.002093 -0.001786 0.034100
#
#
# Mechanical properties :
#
#
# Convention : Reuss Voigt Hill
#
# Bulk Modulus (GPa) = 46.77231 53.62081 50.19656
# Shear Modulus (GPa) = 33.14518 40.27501 36.71009
#
# Velocity S-wave (km/s) = 3.73968 4.12233 3.93566
# Velocity P-wave (km/s) = 6.19532 6.72925 6.46780
#
# Compressibility (1/GPa) = 0.02138017
#
# Stress axis : x y z
#
# Youngs Moduli (GPa) = 82.02385 114.44410 59.89423
#
# Poissons Ratio (x) = 0.12369 0.20564
# Poissons Ratio (y) = 0.08865 0.21614
# Poissons Ratio (z) = 0.28161 0.41298
#
# Static dielectric constant tensor:
#      x y z
#    x 2.047810 0.080010 0.098630 
#    y 0.080010 1.997320 0.072620 
#    z 0.098630 0.072620 2.082320 
# 
# From -- ./inp_files/272836.got.cif
#   From: 2010.05.17/outbox.cif.g08.bks.cpg/sg2_137_cif.got.tgz:272836.got - 2010.06.03 11:33:40.
