data_PCOD9058009
_publ_section_title
;
Structure prediction by ZEFSAII (Michael W. Deem and Ramdas Pophale) SiO2 
 PCOD9058009
Probable space group: P -1
;
_chemical_formula_sum "Si O2"
_cell_formula_units_Z 15
_cell_length_a 7.762917
_cell_length_b 9.354485
_cell_length_c 12.688421
_cell_angle_alpha 72.873977
_cell_angle_beta 47.837852
_cell_angle_gamma 62.416167
_cell_volume 605.172660
_symmetry_space_group_name_H-M "P -1"
_symmetry_group_IT_number 2
_symmetry_cell_setting 'triclinic'
loop_
_space_group_symop_operation_xyz
x,y,z
-x,-y,-z
loop_
_atom_site_type_symbol
_atom_site_label
_atom_site_fract_x
_atom_site_fract_y
_atom_site_fract_z
Si Si1 0.769333 0.860540 0.447800
Si Si2 0.974086 0.405455 0.898000
Si Si3 0.450690 0.706741 0.280922
Si Si4 0.084199 0.895299 0.120613
Si Si5 0.573435 0.582736 0.555336
Si Si6 0.904124 0.226519 0.161347
Si Si7 0.000000 0.000000 0.500000
Si Si8 0.620752 0.760733 0.966667
O O1 0.747079 0.688988 0.464239
O O2 0.979070 0.891161 0.283038
O O3 0.852310 0.892492 0.523333
O O4 0.500000 0.000000 0.500000
O O5 0.265350 0.373221 0.772689
O O6 0.941678 0.260700 0.881994
O O7 0.912804 0.369066 0.051559
O O8 0.778842 0.578266 0.904047
O O9 0.340269 0.565867 0.365326
O O10 0.272835 0.859581 0.385432
O O11 0.510543 0.747018 0.129885
O O12 0.373128 0.866631 0.985791
O O13 0.908970 0.076796 0.122298
O O14 0.500000 0.500000 0.500000
O O15 0.314548 0.710708 0.679964
O O16 0.168850 0.163820 0.127259
#
# Coordination Sequence:
#
# PCOD9058009 Si02
#       8
#     2   2   2   2   2   2   1   2
#     4  12  26  46  73 103 147 195 238 294 364 429
#     4  11  22  44  72  97 136 189 231 295 362 425
#     4  11  23  45  70  98 139 181 240 291 355 427
#     4  12  24  42  65 105 140 176 242 295 353 425
#     4  12  24  43  73 104 140 191 244 289 360 440
#     4  11  23  42  69 100 134 187 237 289 358 428
#     4  12  26  48  72 106 144 192 242 302 354 430
#     4  11  22  44  68  99 137 180 228 296 355 421
#
# _framework density 24.786317
#
# number of rings (size 3 to 8) (size 9 to 14) (size 15 to 20)
#    0.000    0.533    5.333    4.400    0.000    0.533 
#    0.000    0.000    0.000    0.000    0.000    0.000 
#    0.000    0.000    0.000    0.000    0.000    0.000 
#
# Total GULP energy -83526.360978 kJ/mol
# GULP energy per Si atom -5568.424065 kJ/mol
# Density = 2.472990 g / cm^3
# Si number density = 24.786317 Si / 1000 Ang^3
#
#
#
# Elastic Constant Matrix: (Units=GPa)
#
#
# Indices 1 2 3 4 5 6 
#
# 1 60.0070 23.3663 16.8833 18.9947 -13.2250 10.5077
# 2 23.3663 175.8499 49.4861 41.9033 -5.5920 26.1251
# 3 16.8833 49.4861 98.9618 24.1151 -26.5960 -7.9272
# 4 18.9947 41.9033 24.1151 53.9486 -5.9048 -5.3518
# 5 -13.2250 -5.5920 -26.5960 -5.9048 27.9175 10.3012
# 6 10.5077 26.1251 -7.9272 -5.3518 10.3012 31.6951
#
#
#
# Elastic Compliance Matrix: (Units=1/GPa)
#
#
# Indices 1 2 3 4 5 6 
#
# 1 0.026182 0.002288 0.000333 -0.011018 0.017501 -0.018031
# 2 0.002288 0.010319 -0.003993 -0.008018 0.002202 -0.012332
# 3 0.000333 -0.003993 0.016570 -0.002685 0.013681 0.002425
# 4 -0.011018 -0.008018 -0.002685 0.030573 -0.009499 0.017840
# 5 0.017501 0.002202 0.013681 -0.009499 0.065580 -0.027113
# 6 -0.018031 -0.012332 0.002425 0.017840 -0.027113 0.060124
#
#
# Mechanical properties :
#
#
# Convention : Reuss Voigt Hill
#
# Bulk Modulus (GPa) = 19.86978 57.14337 38.50657
# Shear Modulus (GPa) = 21.84670 39.05113 30.44891
#
# Velocity S-wave (km/s) = 2.97206 3.97358 3.50874
# Velocity P-wave (km/s) = 4.45100 6.64506 5.65545
#
# Compressibility (1/GPa) = 0.05032768
#
# Stress axis : x y z
#
# Youngs Moduli (GPa) = 38.19402 96.90821 60.35060
#
# Poissons Ratio (x) = -0.22172 -0.02010
# Poissons Ratio (y) = -0.08739 0.24096
# Poissons Ratio (z) = -0.01272 0.38692
#
# Static dielectric constant tensor:
#      x y z
#    x 2.143470 -0.077300 0.111820 
#    y -0.077300 2.012790 -0.046280 
#    z 0.111820 -0.046280 1.953180 
# 
# From -- ./inp_files/176167.got.cif
#   From: 2010.05.17/outbox.cif.g08.bks.cpg/sg2_89_cif.got.tgz:176167.got - 2010.06.03 11:33:40.
