data_PCOD9058430
_publ_section_title
;
Structure prediction by ZEFSAII (Michael W. Deem and Ramdas Pophale) SiO2 
 PCOD9058430
Probable space group: P -1
;
_chemical_formula_sum "Si O2"
_cell_formula_units_Z 14
_cell_length_a 12.077691
_cell_length_b 11.457985
_cell_length_c 9.068771
_cell_angle_alpha 118.547351
_cell_angle_beta 50.126754
_cell_angle_gamma 141.385885
_cell_volume 600.385959
_symmetry_space_group_name_H-M "P -1"
_symmetry_group_IT_number 2
_symmetry_cell_setting 'triclinic'
loop_
_space_group_symop_operation_xyz
x,y,z
-x,-y,-z
loop_
_atom_site_type_symbol
_atom_site_label
_atom_site_fract_x
_atom_site_fract_y
_atom_site_fract_z
Si Si1 0.974234 0.302503 0.250398
Si Si2 0.297176 0.628093 0.369631
Si Si3 0.893119 0.572767 0.116489
Si Si4 0.709386 0.897655 0.346906
Si Si5 0.014190 0.931579 0.292435
Si Si6 0.448979 0.823112 0.770759
Si Si7 0.413590 0.088445 0.957889
O O1 0.829501 0.338812 0.417822
O O2 0.136269 0.417562 0.316868
O O3 0.839441 0.082065 0.245986
O O4 0.093154 0.385779 0.044107
O O5 0.497843 0.716125 0.342458
O O6 0.402917 0.759625 0.214447
O O7 0.980078 0.752870 0.240527
O O8 0.674167 0.393597 0.261685
O O9 0.000000 0.500000 0.000000
O O10 0.847003 0.873127 0.284074
O O11 0.640137 0.939805 0.571882
O O12 0.000000 0.000000 0.500000
O O13 0.233380 0.078100 0.114253
O O14 0.339550 0.890678 0.863701
O O15 0.506966 0.867605 0.917773
#
# Coordination Sequence:
#
# PCOD9058430 Si02
#       7
#     2   2   2   2   2   2   2
#     4  11  25  46  75 114 152 196 255 317 375 448
#     4  11  24  43  76 112 151 194 256 313 374 448
#     4  12  25  46  77 112 146 197 262 307 369 459
#     4  12  26  47  71 110 152 201 247 312 384 449
#     4  12  28  48  74 109 159 200 246 317 391 446
#     4  11  23  43  76 105 144 192 260 305 365 446
#     4  11  22  45  73 104 149 198 244 311 375 443
#
# _framework density 23.318334
#
# number of rings (size 3 to 8) (size 9 to 14) (size 15 to 20)
#    0.000    0.571    5.714    2.143    0.000    6.286 
#    2.571    1.429    0.000    0.000    0.000    0.000 
#    0.000    0.000    0.000    0.000    0.000    0.000 
#
# Total GULP energy -78254.505878 kJ/mol
# GULP energy per Si atom -5589.607563 kJ/mol
# Density = 2.326526 g / cm^3
# Si number density = 23.318334 Si / 1000 Ang^3
#
#
#
# Elastic Constant Matrix: (Units=GPa)
#
#
# Indices 1 2 3 4 5 6 
#
# 1 101.6872 8.6403 24.4915 -1.9560 -4.4878 13.5234
# 2 8.6403 94.9538 32.3080 0.9434 0.3054 5.7169
# 3 24.4915 32.3080 123.6962 -0.7201 9.7430 -10.9017
# 4 -1.9560 0.9434 -0.7201 38.3015 -2.4814 1.8896
# 5 -4.4878 0.3054 9.7430 -2.4814 42.9198 -1.3633
# 6 13.5234 5.7169 -10.9017 1.8896 -1.3633 28.6686
#
#
#
# Elastic Compliance Matrix: (Units=1/GPa)
#
#
# Indices 1 2 3 4 5 6 
#
# 1 0.011534 0.000395 -0.003108 0.000964 0.001752 -0.006681
# 2 0.000395 0.011952 -0.003595 -0.000108 0.000642 -0.003899
# 3 -0.003108 -0.003595 0.010363 -0.000333 -0.002480 0.006028
# 4 0.000964 -0.000108 -0.000333 0.026369 0.001631 -0.002220
# 5 0.001752 0.000642 -0.002480 0.001631 0.024108 -0.000859
# 6 -0.006681 -0.003899 0.006028 -0.002220 -0.000859 0.041208
#
#
# Mechanical properties :
#
#
# Convention : Reuss Voigt Hill
#
# Bulk Modulus (GPa) = 47.09548 50.13519 48.61534
# Shear Modulus (GPa) = 34.42851 38.97115 36.69983
#
# Velocity S-wave (km/s) = 3.84664 4.09255 3.97150
# Velocity P-wave (km/s) = 6.32214 6.62412 6.47489
#
# Compressibility (1/GPa) = 0.02123346
#
# Stress axis : x y z
#
# Youngs Moduli (GPa) = 86.70376 83.66501 96.49455
#
# Poissons Ratio (x) = -0.03305 0.29991
# Poissons Ratio (y) = -0.03425 0.34689
# Poissons Ratio (z) = 0.26948 0.30077
#
# Static dielectric constant tensor:
#      x y z
#    x 1.927710 0.088150 -0.014040 
#    y 0.088150 1.969970 -0.008860 
#    z -0.014040 -0.008860 1.862470 
# 
# From -- ./inp_files/262995.got.cif
#   From: 2010.05.17/outbox.cif.g08.bks.cpg/sg2_132_cif.got.tgz:262995.got - 2010.06.03 11:33:40.
