data_PCOD9058930
_publ_section_title
;
Structure prediction by ZEFSAII (Michael W. Deem and Ramdas Pophale) SiO2 
 PCOD9058930
Probable space group: P -1
;
_chemical_formula_sum "Si O2"
_cell_formula_units_Z 10
_cell_length_a 6.737178
_cell_length_b 9.642843
_cell_length_c 8.561558
_cell_angle_alpha 100.971060
_cell_angle_beta 99.140348
_cell_angle_gamma 99.407922
_cell_volume 528.232928
_symmetry_space_group_name_H-M "P -1"
_symmetry_group_IT_number 2
_symmetry_cell_setting 'triclinic'
loop_
_space_group_symop_operation_xyz
x,y,z
-x,-y,-z
loop_
_atom_site_type_symbol
_atom_site_label
_atom_site_fract_x
_atom_site_fract_y
_atom_site_fract_z
Si Si1 0.902996 0.383882 0.187397
Si Si2 0.283092 0.628126 0.174851
Si Si3 0.955319 0.834435 0.631521
Si Si4 0.729943 0.076162 0.587394
Si Si5 0.649036 0.561882 0.389562
O O1 0.783871 0.449555 0.323840
O O2 0.107193 0.501026 0.195569
O O3 0.967136 0.239055 0.224126
O O4 0.762960 0.362465 0.011588
O O5 0.142457 0.888517 0.548832
O O6 0.503636 0.594905 0.238547
O O7 0.797726 0.707254 0.496310
O O8 0.839635 0.965360 0.672105
O O9 0.266377 0.776842 0.288388
O O10 0.500000 0.000000 0.500000
O O11 0.500000 0.500000 0.500000
#
# Coordination Sequence:
#
# PCOD9058930 Si02
#       5
#     2   2   2   2   2
#     4  11  24  40  62  95 124 156 204 257 310 353
#     4  11  23  41  63  91 127 159 198 259 308 357
#     4  11  23  39  63  92 120 160 212 247 294 368
#     4  11  23  41  64  88 121 166 209 245 298 363
#     4  12  21  38  67  93 119 161 209 249 301 362
#
# _framework density 18.931042999999999
#
# number of rings (size 3 to 8) (size 9 to 14) (size 15 to 20)
#    0.000    0.800    6.000    2.400    0.000    0.800 
#    0.000    1.000    0.000    0.000    0.000    0.000 
#    0.000    0.000    0.000    0.000    0.000    0.000 
#
# Total GULP energy -55921.084815 kJ/mol
# GULP energy per Si atom -5592.108482 kJ/mol
# Density = 1.888795 g / cm^3
# Si number density = 18.931043 Si / 1000 Ang^3
#
#
#
# Elastic Constant Matrix: (Units=GPa)
#
#
# Indices 1 2 3 4 5 6 
#
# 1 80.3985 19.8732 7.2730 -14.4943 10.5112 10.3862
# 2 19.8732 120.0804 15.0713 -22.3787 2.9342 -9.8441
# 3 7.2730 15.0713 45.5687 -22.6537 13.9253 3.5836
# 4 -14.4943 -22.3787 -22.6537 32.8599 -8.1426 2.2734
# 5 10.5112 2.9342 13.9253 -8.1426 30.8915 1.0304
# 6 10.3862 -9.8441 3.5836 2.2734 1.0304 33.0277
#
#
#
# Elastic Compliance Matrix: (Units=1/GPa)
#
#
# Indices 1 2 3 4 5 6 
#
# 1 0.015304 -0.002050 0.003698 0.007197 -0.004576 -0.006178
# 2 -0.002050 0.010032 -0.001062 0.005342 0.001520 0.003335
# 3 0.003698 -0.001062 0.038119 0.024801 -0.011571 -0.006961
# 4 0.007197 0.005342 0.024801 0.054986 0.000597 -0.007165
# 5 -0.004576 0.001520 -0.011571 0.000597 0.039094 0.001887
# 6 -0.006178 0.003335 -0.006961 -0.007165 0.001887 0.034404
#
#
# Mechanical properties :
#
#
# Convention : Reuss Voigt Hill
#
# Bulk Modulus (GPa) = 15.47373 36.72025 26.09699
# Shear Modulus (GPa) = 23.55031 32.94451 28.24741
#
# Velocity S-wave (km/s) = 3.53087 4.17614 3.86699
# Velocity P-wave (km/s) = 4.98139 6.53395 5.80976
#
# Compressibility (1/GPa) = 0.06462566
#
# Stress axis : x y z
#
# Youngs Moduli (GPa) = 65.34175 99.67989 26.23357
#
# Poissons Ratio (x) = 0.20437 -0.09700
# Poissons Ratio (y) = 0.13397 0.02786
# Poissons Ratio (z) = -0.24160 0.10587
#
# Static dielectric constant tensor:
#      x y z
#    x 1.634700 -0.010690 0.007710 
#    y -0.010690 1.654610 -0.022840 
#    z 0.007710 -0.022840 1.632860 
# 
# From -- ./inp_files/41420.got.cif
#   From: 2010.05.17/outbox.cif.g08.bks.cpg/sg2_21_cif.got.tgz:41420.got - 2010.06.03 11:33:40.
