data_PCOD9058413
_publ_section_title
;
Structure prediction by ZEFSAII (Michael W. Deem and Ramdas Pophale) SiO2 
 PCOD9058413
Probable space group: P -1
;
_chemical_formula_sum "Si O2"
_cell_formula_units_Z 12
_cell_length_a 8.162149
_cell_length_b 9.475341
_cell_length_c 9.295928
_cell_angle_alpha 110.174904
_cell_angle_beta 78.467862
_cell_angle_gamma 61.958469
_cell_volume 535.719973
_symmetry_space_group_name_H-M "P -1"
_symmetry_group_IT_number 2
_symmetry_cell_setting 'triclinic'
loop_
_space_group_symop_operation_xyz
x,y,z
-x,-y,-z
loop_
_atom_site_type_symbol
_atom_site_label
_atom_site_fract_x
_atom_site_fract_y
_atom_site_fract_z
Si Si1 0.833012 0.169106 0.983970
Si Si2 0.542048 0.814668 0.351850
Si Si3 0.436750 0.950063 0.136570
Si Si4 0.152510 0.802116 0.331498
Si Si5 0.025008 0.311456 0.452465
Si Si6 0.685194 0.459325 0.349942
O O1 0.709812 0.357425 0.162069
O O2 0.907835 0.187860 0.821452
O O3 0.665264 0.141911 0.945447
O O4 0.000000 0.000000 0.000000
O O5 0.365278 0.779139 0.328100
O O6 0.673121 0.642682 0.377077
O O7 0.500000 0.000000 0.500000
O O8 0.610588 0.823698 0.181052
O O9 0.256066 0.130433 0.321873
O O10 0.500000 0.000000 0.000000
O O11 0.096022 0.679005 0.381057
O O12 0.000000 0.000000 0.500000
O O13 0.000000 0.500000 0.500000
O O14 0.891685 0.309915 0.347034
O O15 0.500000 0.500000 0.500000
#
# Coordination Sequence:
#
# PCOD9058413 Si02
#       6
#     2   2   2   2   2   2
#     4  11  24  45  72 100 139 184 236 284 351 412
#     4  11  25  44  70 105 137 181 232 282 352 409
#     4  11  26  44  68 100 142 184 230 286 349 405
#     4  11  22  45  72  98 140 189 226 283 351 412
#     4  12  25  46  68 104 140 184 230 288 345 413
#     4  12  26  44  72 105 136 184 233 287 349 413
#
# _framework density 22.399761999999999
#
# number of rings (size 3 to 8) (size 9 to 14) (size 15 to 20)
#    0.000    0.667    6.667    1.000    4.667    4.000 
#    0.000    1.667    0.000    0.000    0.000    0.000 
#    0.000    0.000    0.000    0.000    0.000    0.000 
#
# Total GULP energy -66826.876518 kJ/mol
# GULP energy per Si atom -5568.906377 kJ/mol
# Density = 2.234878 g / cm^3
# Si number density = 22.399762 Si / 1000 Ang^3
#
#
#
# Elastic Constant Matrix: (Units=GPa)
#
#
# Indices 1 2 3 4 5 6 
#
# 1 37.8434 20.8229 28.5498 -13.0465 5.1147 0.7368
# 2 20.8229 142.3141 71.9471 -24.3524 0.7759 24.6332
# 3 28.5498 71.9471 179.0172 -21.7637 13.9366 14.6856
# 4 -13.0465 -24.3524 -21.7637 61.2338 2.3705 1.5661
# 5 5.1147 0.7759 13.9366 2.3705 28.0080 -5.9460
# 6 0.7368 24.6332 14.6856 1.5661 -5.9460 43.4989
#
#
#
# Elastic Compliance Matrix: (Units=1/GPa)
#
#
# Indices 1 2 3 4 5 6 
#
# 1 0.032560 -0.002386 -0.003392 0.004921 -0.004360 0.001172
# 2 -0.002386 0.010166 -0.003042 0.002557 0.000449 -0.004720
# 3 -0.003392 -0.003042 0.007872 0.001041 -0.003600 -0.001407
# 4 0.004921 0.002557 0.001041 0.018990 -0.003748 -0.003079
# 5 -0.004360 0.000449 -0.003600 -0.003748 0.040006 0.006638
# 6 0.001172 -0.004720 -0.001407 -0.003079 0.006638 0.027135
#
#
# Mechanical properties :
#
#
# Convention : Reuss Voigt Hill
#
# Bulk Modulus (GPa) = 30.34264 66.86824 48.60544
# Shear Modulus (GPa) = 30.23811 42.40515 36.32163
#
# Velocity S-wave (km/s) = 3.67813 4.35571 4.03118
# Velocity P-wave (km/s) = 5.62259 7.43056 6.58888
#
# Compressibility (1/GPa) = 0.03295692
#
# Stress axis : x y z
#
# Youngs Moduli (GPa) = 30.71276 98.36937 127.03517
#
# Poissons Ratio (x) = 0.23471 0.43092
# Poissons Ratio (y) = 0.07328 0.38645
# Poissons Ratio (z) = 0.10418 0.29925
#
# Static dielectric constant tensor:
#      x y z
#    x 1.788440 -0.050220 0.109310 
#    y -0.050220 1.950060 -0.070560 
#    z 0.109310 -0.070560 1.737360 
# 
# From -- ./inp_files/159716.got.cif
#   From: 2010.05.17/outbox.cif.g08.bks.cpg/sg2_80_cif.got.tgz:159716.got - 2010.06.03 11:33:40.
