data_PCOD9058782
_publ_section_title
;
Structure prediction by ZEFSAII (Michael W. Deem and Ramdas Pophale) SiO2 
 PCOD9058782
Probable space group: P -1
;
_chemical_formula_sum "Si O2"
_cell_formula_units_Z 15
_cell_length_a 11.290288
_cell_length_b 15.806096
_cell_length_c 17.976712
_cell_angle_alpha 28.102750
_cell_angle_beta 148.507712
_cell_angle_gamma 129.335018
_cell_volume 692.149060
_symmetry_space_group_name_H-M "P -1"
_symmetry_group_IT_number 2
_symmetry_cell_setting 'triclinic'
loop_
_space_group_symop_operation_xyz
x,y,z
-x,-y,-z
loop_
_atom_site_type_symbol
_atom_site_label
_atom_site_fract_x
_atom_site_fract_y
_atom_site_fract_z
Si Si1 0.000000 0.500000 0.500000
Si Si2 0.854771 0.153896 0.734240
Si Si3 0.796176 0.190353 0.921745
Si Si4 0.778637 0.605475 0.585527
Si Si5 0.754881 0.316426 0.246443
Si Si6 0.304780 0.229584 0.427516
Si Si7 0.041842 0.868013 0.778980
Si Si8 0.419088 0.804470 0.897129
O O1 0.100331 0.651647 0.397190
O O2 0.290633 0.354545 0.803650
O O3 0.552620 0.224701 0.525953
O O4 0.000000 0.000000 0.000000
O O5 0.988135 0.016118 0.839660
O O6 0.812815 0.387297 0.746930
O O7 0.510318 0.226637 0.722412
O O8 0.830386 0.196084 0.023296
O O9 0.788329 0.618674 0.669882
O O10 0.002370 0.645179 0.642779
O O11 0.705629 0.289234 0.154774
O O12 0.500000 0.500000 0.000000
O O13 0.818816 0.103147 0.484359
O O14 0.088323 0.256331 0.231299
O O15 0.394180 0.006906 0.686611
O O16 0.244359 0.868266 0.827571
#
# Coordination Sequence:
#
# PCOD9058782 Si02
#       8
#     1   2   2   2   2   2   2   2
#     4  12  28  42  80 110 140 194 254 294 376 438
#     4  12  26  49  73 105 151 191 242 307 365 439
#     4  11  28  43  70 111 141 187 246 311 364 423
#     4  11  23  47  69 101 144 191 241 289 378 432
#     4  11  25  43  71 100 144 194 242 300 369 431
#     4  11  22  49  76  96 149 205 236 298 374 437
#     4  11  25  46  71 106 148 189 247 306 355 449
#     4  11  23  45  71 108 142 197 245 297 370 439
#
# _framework density 21.671631999999999
#
# number of rings (size 3 to 8) (size 9 to 14) (size 15 to 20)
#    0.000    0.800    5.333    0.800    7.467    3.733 
#    0.000    0.000    0.000    0.000    0.000    0.000 
#    0.000    0.000    0.000    0.000    0.000    0.000 
#
# Total GULP energy -83683.702676 kJ/mol
# GULP energy per Si atom -5578.913512 kJ/mol
# Density = 2.162231 g / cm^3
# Si number density = 21.671632 Si / 1000 Ang^3
#
#
#
# Elastic Constant Matrix: (Units=GPa)
#
#
# Indices 1 2 3 4 5 6 
#
# 1 82.5268 45.6009 6.7798 3.6605 -5.9291 16.5072
# 2 45.6009 93.6191 28.2563 20.9637 1.5791 21.8419
# 3 6.7798 28.2563 37.8430 8.7203 -11.4647 5.9848
# 4 3.6605 20.9637 8.7203 36.7100 0.3098 2.1848
# 5 -5.9291 1.5791 -11.4647 0.3098 33.3672 9.2838
# 6 16.5072 21.8419 5.9848 2.1848 9.2838 43.0322
#
#
#
# Elastic Compliance Matrix: (Units=1/GPa)
#
#
# Indices 1 2 3 4 5 6 
#
# 1 0.019023 -0.011239 0.007300 0.002985 0.007618 -0.004403
# 2 -0.011239 0.023629 -0.015339 -0.008456 -0.007322 -0.003539
# 3 0.007300 -0.015339 0.043383 -0.002137 0.018310 -0.004890
# 4 0.002985 -0.008456 -0.002137 0.032169 -0.000645 0.001950
# 5 0.007618 -0.007322 0.018310 -0.000645 0.040900 -0.010543
# 6 -0.004403 -0.003539 -0.004890 0.001950 -0.010543 0.029580
#
#
# Mechanical properties :
#
#
# Convention : Reuss Voigt Hill
#
# Bulk Modulus (GPa) = 21.06197 41.69587 31.37892
# Shear Modulus (GPa) = 20.57047 31.51202 26.04124
#
# Velocity S-wave (km/s) = 3.08423 3.81736 3.47021
# Velocity P-wave (km/s) = 4.73530 6.22184 5.52876
#
# Compressibility (1/GPa) = 0.04747893
#
# Stress axis : x y z
#
# Youngs Moduli (GPa) = 52.56672 42.32151 23.05036
#
# Poissons Ratio (x) = 0.47566 -0.16827
# Poissons Ratio (y) = 0.59080 0.35358
# Poissons Ratio (z) = -0.38374 0.64918
#
# Static dielectric constant tensor:
#      x y z
#    x 1.762840 -0.012910 -0.015110 
#    y -0.012910 1.793200 -0.024520 
#    z -0.015110 -0.024520 1.837910 
# 
# From -- ./inp_files/354287.got.cif
#   From: 2010.05.17/outbox.cif.g08.bks.cpg/sg2_178_cif.got.tgz:354287.got - 2010.06.03 11:33:40.
