data_PCOD9058365
_publ_section_title
;
Structure prediction by ZEFSAII (Michael W. Deem and Ramdas Pophale) SiO2 
 PCOD9058365
Probable space group: P -1
;
_chemical_formula_sum "Si O2"
_cell_formula_units_Z 16
_cell_length_a 11.914912
_cell_length_b 12.349529
_cell_length_c 8.925101
_cell_angle_alpha 122.087330
_cell_angle_beta 52.354345
_cell_angle_gamma 89.022797
_cell_volume 758.303817
_symmetry_space_group_name_H-M "P -1"
_symmetry_group_IT_number 2
_symmetry_cell_setting 'triclinic'
loop_
_space_group_symop_operation_xyz
x,y,z
-x,-y,-z
loop_
_atom_site_type_symbol
_atom_site_label
_atom_site_fract_x
_atom_site_fract_y
_atom_site_fract_z
Si Si1 0.056028 0.601021 0.614402
Si Si2 0.661940 0.348299 0.708867
Si Si3 0.551304 0.159296 0.486455
Si Si4 0.511116 0.854479 0.807717
Si Si5 0.771025 0.837372 0.194962
Si Si6 0.115357 0.402061 0.697192
Si Si7 0.744090 0.167305 0.815762
Si Si8 0.962685 0.818161 0.326293
O O1 0.196187 0.620682 0.437922
O O2 0.115269 0.513764 0.659040
O O3 0.000000 0.500000 0.500000
O O4 0.894574 0.757863 0.899353
O O5 0.608573 0.273991 0.567397
O O6 0.722303 0.237736 0.721414
O O7 0.500000 0.500000 0.000000
O O8 0.576582 0.110044 0.256256
O O9 0.359309 0.218956 0.725019
O O10 0.659033 0.012621 0.389724
O O11 0.695726 0.724461 0.526403
O O12 0.427598 0.792292 0.941648
O O13 0.500000 0.000000 0.000000
O O14 0.880141 0.808438 0.232770
O O15 0.038320 0.299018 0.642517
O O16 0.000000 0.500000 0.000000
O O17 0.852902 0.214363 0.860150
O O18 0.848376 0.987925 0.595037
#
# Coordination Sequence:
#
# PCOD9058365 Si02
#       8
#     2   2   2   2   2   2   2   2
#     4  12  27  44  70 103 139 192 236 284 356 430
#     4  12  27  49  69 103 147 188 236 296 358 420
#     4  11  25  43  75 104 142 184 235 299 356 422
#     4  12  25  43  71 110 138 186 242 289 356 427
#     4  11  23  45  72 102 142 180 236 290 358 426
#     4  12  24  45  71  99 143 184 232 289 353 427
#     4  11  25  44  73 102 142 179 237 295 351 418
#     4  11  22  45  71 101 138 185 228 293 356 412
#
# _framework density 21.099720999999999
#
# number of rings (size 3 to 8) (size 9 to 14) (size 15 to 20)
#    0.000    0.500    5.000    2.250    5.250    3.500 
#    0.000    1.875    0.000    0.000    0.000    0.000 
#    0.000    0.000    0.000    0.000    0.000    0.000 
#
# Total GULP energy -89390.598944 kJ/mol
# GULP energy per Si atom -5586.912434 kJ/mol
# Density = 2.105170 g / cm^3
# Si number density = 21.099721 Si / 1000 Ang^3
#
#
#
# Elastic Constant Matrix: (Units=GPa)
#
#
# Indices 1 2 3 4 5 6 
#
# 1 136.7799 46.3236 55.3437 -11.7454 1.7439 27.5481
# 2 46.3236 126.4803 49.1341 -23.0403 -8.8413 22.2775
# 3 55.3437 49.1341 125.9514 -17.6247 -18.9763 20.3628
# 4 -11.7454 -23.0403 -17.6247 43.6853 2.9126 -8.5201
# 5 1.7439 -8.8413 -18.9763 2.9126 25.0778 -8.7941
# 6 27.5481 22.2775 20.3628 -8.5201 -8.7941 40.2790
#
#
#
# Elastic Compliance Matrix: (Units=1/GPa)
#
#
# Indices 1 2 3 4 5 6 
#
# 1 0.010833 -0.001876 -0.004136 -0.000441 -0.006527 -0.005799
# 2 -0.001876 0.010644 -0.002286 0.003644 0.000857 -0.002490
# 3 -0.004136 -0.002286 0.012189 0.002076 0.008546 0.000236
# 4 -0.000441 0.003644 0.002076 0.026046 0.000893 0.002941
# 5 -0.006527 0.000857 0.008546 0.000893 0.050838 0.010958
# 6 -0.005799 -0.002490 0.000236 0.002941 0.010958 0.033065
#
#
# Mechanical properties :
#
#
# Convention : Reuss Voigt Hill
#
# Bulk Modulus (GPa) = 58.58482 76.75714 67.67098
# Shear Modulus (GPa) = 30.13852 37.70244 33.92048
#
# Velocity S-wave (km/s) = 3.78350 4.23172 4.01387
# Velocity P-wave (km/s) = 6.84927 7.76749 7.32278
#
# Compressibility (1/GPa) = 0.01706927
#
# Stress axis : x y z
#
# Youngs Moduli (GPa) = 92.30988 93.94958 82.04365
#
# Poissons Ratio (x) = 0.17627 0.33931
# Poissons Ratio (y) = 0.17320 0.18757
# Poissons Ratio (z) = 0.38177 0.21479
#
# Static dielectric constant tensor:
#      x y z
#    x 1.802530 -0.030000 0.011080 
#    y -0.030000 1.808260 -0.025800 
#    z 0.011080 -0.025800 1.766270 
# 
# From -- ./inp_files/262919.got.cif
#   From: 2010.05.17/outbox.cif.g08.bks.cpg/sg2_132_cif.got.tgz:262919.got - 2010.06.03 11:33:40.
