data_PCOD9058516
_publ_section_title
;
Structure prediction by ZEFSAII (Michael W. Deem and Ramdas Pophale) SiO2 
 PCOD9058516
Probable space group: P -1
;
_chemical_formula_sum "Si O2"
_cell_formula_units_Z 16
_cell_length_a 15.746817
_cell_length_b 8.477556
_cell_length_c 13.021983
_cell_angle_alpha 133.560431
_cell_angle_beta 36.635376
_cell_angle_gamma 118.047280
_cell_volume 737.785866
_symmetry_space_group_name_H-M "P -1"
_symmetry_group_IT_number 2
_symmetry_cell_setting 'triclinic'
loop_
_space_group_symop_operation_xyz
x,y,z
-x,-y,-z
loop_
_atom_site_type_symbol
_atom_site_label
_atom_site_fract_x
_atom_site_fract_y
_atom_site_fract_z
Si Si1 0.656664 0.987613 0.797512
Si Si2 0.328172 0.123715 0.492656
Si Si3 0.406673 0.080962 0.728431
Si Si4 0.873798 0.248087 0.468525
Si Si5 0.363845 0.536406 0.072597
Si Si6 0.924836 0.813502 0.940582
Si Si7 0.122818 0.500079 0.968228
Si Si8 0.906326 0.008661 0.698513
O O1 0.664306 0.231329 0.855400
O O2 0.766255 0.925280 0.756400
O O3 0.686613 0.841912 0.599956
O O4 0.500000 0.000000 0.000000
O O5 0.265699 0.348770 0.713640
O O6 0.493509 0.032987 0.325809
O O7 0.231028 0.935503 0.531699
O O8 0.500000 0.000000 0.500000
O O9 0.392018 0.342764 0.876477
O O10 0.237531 0.064421 0.881518
O O11 0.773647 0.453158 0.714545
O O12 0.963996 0.293934 0.303406
O O13 0.994898 0.137655 0.381052
O O14 0.500000 0.500000 0.000000
O O15 0.911099 0.631394 0.957182
O O16 0.000000 0.000000 0.000000
O O17 0.132512 0.746049 0.104714
O O18 0.000000 0.500000 0.000000
O O19 0.000000 0.000000 0.500000
#
# Coordination Sequence:
#
# PCOD9058516 Si02
#       8
#     2   2   2   2   2   2   2   2
#     4  11  25  45  67  99 136 176 231 281 335 407
#     4  11  22  46  66  96 141 180 220 280 349 403
#     4  12  24  43  72  98 138 183 223 277 349 406
#     4  11  23  44  70  99 140 173 238 284 332 403
#     4  11  23  45  70  95 137 187 220 277 353 404
#     4  12  25  43  69 108 137 174 235 288 331 408
#     4  12  23  45  73  98 136 185 221 275 355 406
#     4  12  23  45  71  94 136 187 223 276 348 404
#
# _framework density 21.686509000000001
#
# number of rings (size 3 to 8) (size 9 to 14) (size 15 to 20)
#    0.000    0.500    8.750    0.750    1.750    0.500 
#    4.500    1.875    0.000    0.000    0.000    0.000 
#    0.000    0.000    0.000    0.000    0.000    0.000 
#
# Total GULP energy -89473.578026 kJ/mol
# GULP energy per Si atom -5592.098627 kJ/mol
# Density = 2.163715 g / cm^3
# Si number density = 21.686509 Si / 1000 Ang^3
#
#
#
# Elastic Constant Matrix: (Units=GPa)
#
#
# Indices 1 2 3 4 5 6 
#
# 1 136.3213 30.2411 37.2070 -7.7017 -18.7632 1.6505
# 2 30.2411 20.8534 41.1354 -6.8024 3.4471 -5.4379
# 3 37.2070 41.1354 176.0052 -6.6445 17.7096 2.3619
# 4 -7.7017 -6.8024 -6.6445 35.1266 5.0224 -4.0208
# 5 -18.7632 3.4471 17.7096 5.0224 55.1164 -1.0893
# 6 1.6505 -5.4379 2.3619 -4.0208 -1.0893 30.3961
#
#
#
# Elastic Compliance Matrix: (Units=1/GPa)
#
#
# Indices 1 2 3 4 5 6 
#
# 1 0.014102 -0.032430 0.003958 -0.004092 0.005788 -0.007209
# 2 -0.032430 0.185669 -0.034656 0.028891 -0.013339 0.041014
# 3 0.003958 -0.034656 0.012933 -0.004254 -0.000411 -0.007997
# 4 -0.004092 0.028891 -0.004254 0.034194 -0.004750 0.010074
# 5 0.005788 -0.013339 -0.000411 -0.004750 0.021463 -0.002528
# 6 -0.007209 0.041014 -0.007997 0.010074 -0.002528 0.042491
#
#
# Mechanical properties :
#
#
# Convention : Reuss Voigt Hill
#
# Bulk Modulus (GPa) = 11.56755 61.14966 36.35860
# Shear Modulus (GPa) = 10.73139 39.10093 24.91616
#
# Velocity S-wave (km/s) = 2.22692 4.25079 3.39326
# Velocity P-wave (km/s) = 3.45800 7.23537 5.67047
#
# Compressibility (1/GPa) = 0.08644872
#
# Stress axis : x y z
#
# Youngs Moduli (GPa) = 70.91149 5.38593 77.32354
#
# Poissons Ratio (x) = 0.17466 -0.30606
# Poissons Ratio (y) = 2.29964 2.67972
# Poissons Ratio (z) = -0.28068 0.18665
#
# Static dielectric constant tensor:
#      x y z
#    x 1.951640 0.007590 -0.007700 
#    y 0.007590 1.799070 0.005010 
#    z -0.007700 0.005010 1.813780 
# 
# From -- ./inp_files/448154.got.cif
#   From: 2010.05.17/outbox.cif.g08.bks.cpg/sg2_225_cif.got.tgz:448154.got - 2010.06.03 11:33:40.
