data_PCOD9058679
_publ_section_title
;
Structure prediction by ZEFSAII (Michael W. Deem and Ramdas Pophale) SiO2 
 PCOD9058679
Probable space group: P -1
;
_chemical_formula_sum "Si O2"
_cell_formula_units_Z 14
_cell_length_a 13.991370
_cell_length_b 12.789290
_cell_length_c 7.789062
_cell_angle_alpha 118.369772
_cell_angle_beta 36.019601
_cell_angle_gamma 132.478558
_cell_volume 596.332566
_symmetry_space_group_name_H-M "P -1"
_symmetry_group_IT_number 2
_symmetry_cell_setting 'triclinic'
loop_
_space_group_symop_operation_xyz
x,y,z
-x,-y,-z
loop_
_atom_site_type_symbol
_atom_site_label
_atom_site_fract_x
_atom_site_fract_y
_atom_site_fract_z
Si Si1 0.235586 0.379307 0.429067
Si Si2 0.835555 0.027790 0.212074
Si Si3 0.640000 0.428997 0.922316
Si Si4 0.805996 0.276106 0.384584
Si Si5 0.393716 0.854992 0.788109
Si Si6 0.780092 0.460088 0.110715
Si Si7 0.123305 0.936588 0.215907
O O1 0.238789 0.437451 0.280998
O O2 0.287338 0.502592 0.588651
O O3 0.037358 0.235367 0.667590
O O4 0.412053 0.357365 0.159406
O O5 0.886222 0.188187 0.285024
O O6 0.624417 0.926511 0.528077
O O7 0.814006 0.006750 0.022994
O O8 0.000000 0.000000 0.000000
O O9 0.701532 0.320615 0.702845
O O10 0.683592 0.474370 0.091436
O O11 0.663034 0.181505 0.361167
O O12 0.988657 0.422926 0.154366
O O13 0.276645 0.700500 0.926153
O O14 0.314402 0.952402 0.035074
O O15 0.000000 0.000000 0.500000
#
# Coordination Sequence:
#
# PCOD9058679 Si02
#       7
#     2   2   2   2   2   2   2
#     4  11  24  45  67 108 148 181 238 297 358 419
#     4  11  27  45  70 104 141 190 242 294 352 429
#     4  11  26  39  72 109 141 186 235 300 352 428
#     4  11  22  47  69 101 147 187 237 293 362 424
#     4  11  24  45  74 101 143 193 231 300 361 418
#     4  12  23  44  76 103 143 186 245 289 361 415
#     4  11  25  44  71  98 142 189 239 283 368 425
#
# _framework density 23.476831000000001
#
# number of rings (size 3 to 8) (size 9 to 14) (size 15 to 20)
#    0.000    0.857    4.286    3.857    6.000    3.429 
#    0.000    1.429    0.000    0.000    0.000    0.000 
#    0.000    0.000    0.000    0.000    0.000    0.000 
#
# Total GULP energy -78307.252411 kJ/mol
# GULP energy per Si atom -5593.375172 kJ/mol
# Density = 2.342340 g / cm^3
# Si number density = 23.476831 Si / 1000 Ang^3
#
#
#
# Elastic Constant Matrix: (Units=GPa)
#
#
# Indices 1 2 3 4 5 6 
#
# 1 99.3547 32.8723 26.1399 4.7220 -8.1199 -24.9487
# 2 32.8723 84.6423 62.3154 2.1679 -17.1609 -24.5197
# 3 26.1399 62.3154 136.1412 17.5326 -38.8666 -18.4252
# 4 4.7220 2.1679 17.5326 41.9506 -6.4179 -9.8238
# 5 -8.1199 -17.1609 -38.8666 -6.4179 45.4281 8.7019
# 6 -24.9487 -24.5197 -18.4252 -9.8238 8.7019 23.1251
#
#
#
# Elastic Compliance Matrix: (Units=1/GPa)
#
#
# Indices 1 2 3 4 5 6 
#
# 1 0.014149 -0.000688 -0.000965 0.002216 -0.001143 0.015138
# 2 -0.000688 0.025296 -0.010128 0.007846 -0.002384 0.022241
# 3 -0.000965 -0.010128 0.014611 -0.005479 0.008838 -0.005791
# 4 0.002216 0.007846 -0.005479 0.029878 -0.000811 0.019343
# 5 -0.001143 -0.002384 0.008838 -0.000811 0.029951 -0.008334
# 6 0.015138 0.022241 -0.005791 0.019343 -0.008334 0.089897
#
#
# Mechanical properties :
#
#
# Convention : Reuss Voigt Hill
#
# Bulk Modulus (GPa) = 32.79132 62.53259 47.66196
# Shear Modulus (GPa) = 21.05190 35.35480 28.20335
#
# Velocity S-wave (km/s) = 2.99776 3.88486 3.46978
# Velocity P-wave (km/s) = 5.09705 6.84226 6.03310
#
# Compressibility (1/GPa) = 0.03049588
#
# Stress axis : x y z
#
# Youngs Moduli (GPa) = 70.67664 39.53132 68.44079
#
# Poissons Ratio (x) = 0.02719 0.06603
# Poissons Ratio (y) = 0.04862 0.69315
# Poissons Ratio (z) = 0.06818 0.40036
#
# Static dielectric constant tensor:
#      x y z
#    x 1.905690 0.001360 -0.021460 
#    y 0.001360 1.897940 0.025860 
#    z -0.021460 0.025860 1.891080 
# 
# From -- ./inp_files/180764.got.cif
#   From: 2010.05.17/outbox.cif.g08.bks.cpg/sg2_91_cif.got.tgz:180764.got - 2010.06.03 11:33:40.
