data_PCOD9058490
_publ_section_title
;
Structure prediction by ZEFSAII (Michael W. Deem and Ramdas Pophale) SiO2 
 PCOD9058490
Probable space group: P -1
;
_chemical_formula_sum "Si O2"
_cell_formula_units_Z 14
_cell_length_a 13.761915
_cell_length_b 6.866034
_cell_length_c 19.671999
_cell_angle_alpha 115.310289
_cell_angle_beta 153.995363
_cell_angle_gamma 49.580529
_cell_volume 549.298556
_symmetry_space_group_name_H-M "P -1"
_symmetry_group_IT_number 2
_symmetry_cell_setting 'triclinic'
loop_
_space_group_symop_operation_xyz
x,y,z
-x,-y,-z
loop_
_atom_site_type_symbol
_atom_site_label
_atom_site_fract_x
_atom_site_fract_y
_atom_site_fract_z
Si Si1 0.836277 0.688170 0.317246
Si Si2 0.104891 0.061552 0.373500
Si Si3 0.621472 0.681834 0.894997
Si Si4 0.754417 0.823588 0.746864
Si Si5 0.112761 0.886125 0.216330
Si Si6 0.595765 0.197849 0.834485
Si Si7 0.673954 0.308763 0.418906
O O1 0.696487 0.724206 0.308161
O O2 0.918885 0.400003 0.298616
O O3 0.127457 0.649664 0.491958
O O4 0.589190 0.986461 0.165575
O O5 0.452048 0.894656 0.556247
O O6 0.022603 0.944927 0.246616
O O7 0.104822 0.967811 0.435359
O O8 0.571399 0.472590 0.861782
O O9 0.517875 0.709918 0.756165
O O10 0.969629 0.492143 0.098704
O O11 0.848364 0.888325 0.748145
O O12 0.688660 0.046772 0.797047
O O13 0.432553 0.578803 0.355278
O O14 0.860686 0.966502 0.018620
#
# Coordination Sequence:
#
# PCOD9058490 Si02
#       7
#     2   2   2   2   2   2   2
#     4  12  27  43  68 106 145 178 221 285 354 402
#     4  12  27  44  71 102 143 183 226 278 344 414
#     4  11  23  43  72 105 138 174 233 288 337 404
#     4  11  22  45  77 102 132 181 237 284 336 400
#     4  11  23  48  73 100 138 181 234 282 335 408
#     4  11  23  46  74 101 136 180 231 288 339 399
#     4  12  24  44  71 104 137 181 233 283 335 406
#
# _framework density 25.487051000000001
#
# number of rings (size 3 to 8) (size 9 to 14) (size 15 to 20)
#    0.000    0.571    4.286    3.857    2.000    5.714 
#    0.000    3.571    0.000    0.000    0.000    0.000 
#    0.000    0.000    0.000    0.000    0.000    0.000 
#
# Total GULP energy -78439.727207 kJ/mol
# GULP energy per Si atom -5602.837658 kJ/mol
# Density = 2.542904 g / cm^3
# Si number density = 25.487051 Si / 1000 Ang^3
#
#
#
# Elastic Constant Matrix: (Units=GPa)
#
#
# Indices 1 2 3 4 5 6 
#
# 1 74.6592 32.2686 21.1058 -2.7218 -1.7126 7.1139
# 2 32.2686 144.2815 68.0565 -39.2382 -9.7408 9.5364
# 3 21.1058 68.0565 98.3355 -26.3044 -3.8071 -2.4837
# 4 -2.7218 -39.2382 -26.3044 52.3386 -0.8430 -5.6577
# 5 -1.7126 -9.7408 -3.8071 -0.8430 30.6637 -6.4289
# 6 7.1139 9.5364 -2.4837 -5.6577 -6.4289 29.0896
#
#
#
# Elastic Compliance Matrix: (Units=1/GPa)
#
#
# Indices 1 2 3 4 5 6 
#
# 1 0.015580 -0.003141 -0.002133 -0.003052 -0.001281 -0.003839
# 2 -0.003141 0.012578 -0.006414 0.005853 0.002732 -0.002161
# 3 -0.002133 -0.006414 0.016247 0.003800 0.001008 0.004973
# 4 -0.003052 0.005853 0.003800 0.025855 0.003930 0.005049
# 5 -0.001281 0.002732 0.001008 0.003930 0.035335 0.008077
# 6 -0.003839 -0.002161 0.004973 0.005049 0.008077 0.039216
#
#
# Mechanical properties :
#
#
# Convention : Reuss Voigt Hill
#
# Bulk Modulus (GPa) = 47.55395 62.23757 54.89576
# Shear Modulus (GPa) = 28.53952 35.47472 32.00712
#
# Velocity S-wave (km/s) = 3.34992 3.73483 3.54760
# Velocity P-wave (km/s) = 5.80183 6.56284 6.19403
#
# Compressibility (1/GPa) = 0.02102875
#
# Stress axis : x y z
#
# Youngs Moduli (GPa) = 64.18476 79.50491 61.54942
#
# Poissons Ratio (x) = 0.24974 0.13129
# Poissons Ratio (y) = 0.20162 0.39477
# Poissons Ratio (z) = 0.13691 0.50993
#
# Static dielectric constant tensor:
#      x y z
#    x 2.047020 0.059070 0.007020 
#    y 0.059070 2.010230 -0.042690 
#    z 0.007020 -0.042690 1.987260 
# 
# From -- ./inp_files/572436.got.cif
#   From: 2010.05.17/outbox.cif.g08.bks.cpg/sg2_287_cif.got.tgz:572436.got - 2010.06.03 11:33:40.
