data_PCOD9058749
_publ_section_title
;
Structure prediction by ZEFSAII (Michael W. Deem and Ramdas Pophale) SiO2 
 PCOD9058749
Probable space group: P -1
;
_chemical_formula_sum "Si O2"
_cell_formula_units_Z 12
_cell_length_a 5.389267
_cell_length_b 11.445173
_cell_length_c 12.268627
_cell_angle_alpha 38.965013
_cell_angle_beta 77.213274
_cell_angle_gamma 78.352688
_cell_volume 463.524500
_symmetry_space_group_name_H-M "P -1"
_symmetry_group_IT_number 2
_symmetry_cell_setting 'triclinic'
loop_
_space_group_symop_operation_xyz
x,y,z
-x,-y,-z
loop_
_atom_site_type_symbol
_atom_site_label
_atom_site_fract_x
_atom_site_fract_y
_atom_site_fract_z
Si Si1 0.708891 0.581091 0.839841
Si Si2 0.644504 0.984749 0.610823
Si Si3 0.463313 0.985734 0.862433
Si Si4 0.884652 0.354793 0.393292
Si Si5 0.958814 0.209189 0.718506
Si Si6 0.419270 0.575817 0.255924
O O1 0.769661 0.777665 0.743619
O O2 0.579406 0.565054 0.745262
O O3 0.987948 0.520314 0.804839
O O4 0.500000 0.500000 0.000000
O O5 0.462989 0.980168 0.735837
O O6 0.500000 0.000000 0.500000
O O7 0.815157 0.158105 0.489486
O O8 0.283835 0.916515 0.193178
O O9 0.478274 0.776512 0.055695
O O10 0.198961 0.100408 0.830287
O O11 0.036793 0.283200 0.538218
O O12 0.642579 0.475006 0.376571
O O13 0.834612 0.367768 0.693492
#
# Coordination Sequence:
#
# PCOD9058749 Si02
#       6
#     2   2   2   2   2   2
#     4  12  26  46  72 110 151 193 252 313 375 448
#     4  11  22  48  71 107 151 199 249 300 384 446
#     4  11  26  47  76 109 154 201 246 314 375 450
#     4  11  27  46  78 109 149 202 246 318 372 453
#     4  11  27  49  77 111 152 200 251 309 385 444
#     4  12  26  46  75 114 148 195 251 316 371 449
#
# _framework density 25.888597000000001
#
# number of rings (size 3 to 8) (size 9 to 14) (size 15 to 20)
#    0.000    0.667    3.333    3.000    7.000    2.667 
#    0.000    0.000    0.000    0.000    0.000    0.000 
#    0.000    0.000    0.000    0.000    0.000    0.000 
#
# Total GULP energy -66957.853835 kJ/mol
# GULP energy per Si atom -5579.821153 kJ/mol
# Density = 2.582967 g / cm^3
# Si number density = 25.888597 Si / 1000 Ang^3
#
#
#
# Elastic Constant Matrix: (Units=GPa)
#
#
# Indices 1 2 3 4 5 6 
#
# 1 65.9721 31.9711 30.0837 -17.5630 -7.4136 -10.2048
# 2 31.9711 127.1674 51.8930 3.2774 -11.1797 -12.0586
# 3 30.0837 51.8930 127.7210 15.2529 -24.8869 1.8646
# 4 -17.5630 3.2774 15.2529 58.2457 -2.5790 -4.8875
# 5 -7.4136 -11.1797 -24.8869 -2.5790 45.6840 0.9629
# 6 -10.2048 -12.0586 1.8646 -4.8875 0.9629 54.3956
#
#
#
# Elastic Compliance Matrix: (Units=1/GPa)
#
#
# Indices 1 2 3 4 5 6 
#
# 1 0.021913 -0.003324 -0.004778 0.008429 0.000525 0.004286
# 2 -0.003324 0.010237 -0.003316 -0.000563 0.000091 0.001707
# 3 -0.004778 -0.003316 0.011759 -0.004339 0.004627 -0.002506
# 4 0.008429 -0.000563 -0.004339 0.021172 -0.000012 0.003508
# 5 0.000525 0.000091 0.004627 -0.000012 0.024527 -0.000475
# 6 0.004286 0.001707 -0.002506 0.003508 -0.000475 0.019976
#
#
# Mechanical properties :
#
#
# Convention : Reuss Voigt Hill
#
# Bulk Modulus (GPa) = 47.45467 60.97289 54.21378
# Shear Modulus (GPa) = 35.85661 45.45924 40.65792
#
# Velocity S-wave (km/s) = 3.72564 4.19496 3.96725
# Velocity P-wave (km/s) = 6.07267 6.86052 6.47858
#
# Compressibility (1/GPa) = 0.02107274
#
# Stress axis : x y z
#
# Youngs Moduli (GPa) = 45.63400 97.68409 85.04451
#
# Poissons Ratio (x) = 0.32473 0.40632
# Poissons Ratio (y) = 0.15170 0.28203
# Poissons Ratio (z) = 0.21802 0.32394
#
# Static dielectric constant tensor:
#      x y z
#    x 2.300680 0.020110 -0.053620 
#    y 0.020110 2.039910 -0.015190 
#    z -0.053620 -0.015190 2.095760 
# 
# From -- ./inp_files/363609.got.cif
#   From: 2010.05.17/outbox.cif.g08.bks.cpg/sg2_182_cif.got.tgz:363609.got - 2010.06.03 11:33:40.
