data_PCOD9058254
_publ_section_title
;
Structure prediction by ZEFSAII (Michael W. Deem and Ramdas Pophale) SiO2 
 PCOD9058254
Probable space group: P -1
;
_chemical_formula_sum "Si O2"
_cell_formula_units_Z 14
_cell_length_a 8.378226
_cell_length_b 14.131051
_cell_length_c 12.696087
_cell_angle_alpha 44.138203
_cell_angle_beta 40.364218
_cell_angle_gamma 39.248320
_cell_volume 585.284511
_symmetry_space_group_name_H-M "P -1"
_symmetry_group_IT_number 2
_symmetry_cell_setting 'triclinic'
loop_
_space_group_symop_operation_xyz
x,y,z
-x,-y,-z
loop_
_atom_site_type_symbol
_atom_site_label
_atom_site_fract_x
_atom_site_fract_y
_atom_site_fract_z
Si Si1 0.106368 0.547914 0.508591
Si Si2 0.655017 0.297756 0.375149
Si Si3 0.337389 0.889586 0.939206
Si Si4 0.268167 0.783222 0.268294
Si Si5 0.588041 0.526994 0.047647
Si Si6 0.876849 0.472785 0.248592
Si Si7 0.689763 0.982272 0.524998
O O1 0.394460 0.382635 0.518990
O O2 0.117551 0.701576 0.346025
O O3 0.988607 0.588410 0.654066
O O4 0.000000 0.500000 0.500000
O O5 0.541745 0.418554 0.238056
O O6 0.885439 0.330893 0.290313
O O7 0.689381 0.137027 0.445764
O O8 0.531980 0.938112 0.732609
O O9 0.353581 0.879342 0.068007
O O10 0.434472 0.711967 0.997938
O O11 0.000000 0.000000 0.000000
O O12 0.556737 0.622523 0.284885
O O13 0.026654 0.880006 0.400047
O O14 0.500000 0.500000 0.000000
O O15 0.919449 0.468980 0.944437
O O16 0.500000 0.000000 0.500000
#
# Coordination Sequence:
#
# PCOD9058254 Si02
#       7
#     2   2   2   2   2   2   2
#     4  11  22  44  77 106 143 199 262 317 383 471
#     4  11  24  44  72 108 152 199 262 320 387 456
#     4  12  26  46  75 111 160 205 259 324 391 462
#     4  11  24  48  75 113 157 203 258 326 395 462
#     4  12  25  47  79 109 149 205 267 322 387 474
#     4  11  25  48  80 112 153 201 264 330 395 466
#     4  12  25  47  75 112 165 211 262 322 391 467
#
# _framework density 23.919992000000001
#
# number of rings (size 3 to 8) (size 9 to 14) (size 15 to 20)
#    0.000    0.571    4.286    5.571    0.000    0.000 
#    0.000    8.571    0.000    0.000    0.000    0.000 
#    0.000    0.000    0.000    0.000    0.000    0.000 
#
# Total GULP energy -77980.710700 kJ/mol
# GULP energy per Si atom -5570.050764 kJ/mol
# Density = 2.386555 g / cm^3
# Si number density = 23.919992 Si / 1000 Ang^3
#
#
#
# Elastic Constant Matrix: (Units=GPa)
#
#
# Indices 1 2 3 4 5 6 
#
# 1 130.8045 28.0297 69.5913 -1.2048 6.1706 12.6227
# 2 28.0297 155.2795 81.8522 3.8771 -13.7091 7.0545
# 3 69.5913 81.8522 190.9410 -1.2037 9.5071 20.3822
# 4 -1.2048 3.8771 -1.2037 34.7119 -2.5453 -8.2134
# 5 6.1706 -13.7091 9.5071 -2.5453 43.0613 -0.3075
# 6 12.6227 7.0545 20.3822 -8.2134 -0.3075 40.3569
#
#
#
# Elastic Compliance Matrix: (Units=1/GPa)
#
#
# Indices 1 2 3 4 5 6 
#
# 1 0.009567 0.000035 -0.003326 -0.000155 -0.000644 -0.001355
# 2 0.000035 0.008898 -0.004053 -0.000781 0.003679 0.000350
# 3 -0.003326 -0.004053 0.008606 -0.000195 -0.002744 -0.002658
# 4 -0.000155 -0.000781 -0.000195 0.030547 0.001669 0.006513
# 5 -0.000644 0.003679 -0.002744 0.001669 0.025201 0.001476
# 6 -0.001355 0.000350 -0.002658 0.006513 0.001476 0.027821
#
#
# Mechanical properties :
#
#
# Convention : Reuss Voigt Hill
#
# Bulk Modulus (GPa) = 80.75276 92.88572 86.81924
# Shear Modulus (GPa) = 38.62329 43.46281 41.04305
#
# Velocity S-wave (km/s) = 4.02268 4.26726 4.14677
# Velocity P-wave (km/s) = 7.44370 7.94956 7.70079
#
# Compressibility (1/GPa) = 0.01238348
#
# Stress axis : x y z
#
# Youngs Moduli (GPa) = 104.52883 112.37967 116.20012
#
# Poissons Ratio (x) = -0.00391 0.38647
# Poissons Ratio (y) = -0.00364 0.47092
# Poissons Ratio (z) = 0.34765 0.45544
#
# Static dielectric constant tensor:
#      x y z
#    x 1.988930 -0.092700 -0.007790 
#    y -0.092700 2.034990 0.075400 
#    z -0.007790 0.075400 2.131580 
# 
# From -- ./inp_files/505212.got.cif
#   From: 2010.05.17/outbox.cif.g08.bks.cpg/sg2_253_cif.got.tgz:505212.got - 2010.06.03 11:33:40.
