data_PCOD9058334
_publ_section_title
;
Structure prediction by ZEFSAII (Michael W. Deem and Ramdas Pophale) SiO2 
 PCOD9058334
Probable space group: P -1
;
_chemical_formula_sum "Si O2"
_cell_formula_units_Z 16
_cell_length_a 12.220478
_cell_length_b 7.698897
_cell_length_c 8.425925
_cell_angle_alpha 73.142400
_cell_angle_beta 102.751578
_cell_angle_gamma 109.924812
_cell_volume 706.690332
_symmetry_space_group_name_H-M "P -1"
_symmetry_group_IT_number 2
_symmetry_cell_setting 'triclinic'
loop_
_space_group_symop_operation_xyz
x,y,z
-x,-y,-z
loop_
_atom_site_type_symbol
_atom_site_label
_atom_site_fract_x
_atom_site_fract_y
_atom_site_fract_z
Si Si1 0.013471 0.590954 0.307773
Si Si2 0.540387 0.286683 0.345069
Si Si3 0.182105 0.365572 0.319101
Si Si4 0.207841 0.121552 0.696578
Si Si5 0.597636 0.422176 0.850797
Si Si6 0.747139 0.519817 0.188213
Si Si7 0.968093 0.983731 0.810517
Si Si8 0.453528 0.090826 0.700496
O O1 0.882817 0.534012 0.208422
O O2 0.058121 0.818042 0.285449
O O3 0.000000 0.500000 0.500000
O O4 0.098815 0.500143 0.264311
O O5 0.485270 0.441599 0.213447
O O6 0.680629 0.383774 0.347011
O O7 0.490049 0.226545 0.520300
O O8 0.511246 0.095379 0.283542
O O9 0.181750 0.250089 0.511738
O O10 0.310117 0.494739 0.281615
O O11 0.135655 0.201686 0.216346
O O12 0.251060 0.267893 0.817544
O O13 0.083210 0.979677 0.746849
O O14 0.314017 0.043898 0.698692
O O15 0.522599 0.210654 0.837504
O O16 0.672381 0.443455 0.028665
O O17 0.000000 0.000000 0.000000
#
# Coordination Sequence:
#
# PCOD9058334 Si02
#       8
#     2   2   2   2   2   2   2   2
#     4  11  25  45  72 103 136 184 239 280 340 417
#     4  11  24  44  69  98 135 179 234 281 337 412
#     4  12  24  44  75  97 137 187 230 282 345 416
#     4  11  22  45  70 101 136 181 230 282 339 415
#     4  12  25  45  67 101 143 176 224 287 353 399
#     4  11  24  43  69  98 142 177 219 295 344 400
#     4  11  26  45  68 104 144 178 227 292 347 403
#     4  11  25  43  71 102 130 183 236 277 339 413
#
# _framework density 22.640751999999999
#
# number of rings (size 3 to 8) (size 9 to 14) (size 15 to 20)
#    0.000    0.750    5.000    3.375    1.750    3.500 
#    0.000    0.000    0.000    0.000    0.000    0.000 
#    0.000    0.000    0.000    0.000    0.000    0.000 
#
# Total GULP energy -89568.836629 kJ/mol
# GULP energy per Si atom -5598.052289 kJ/mol
# Density = 2.258922 g / cm^3
# Si number density = 22.640752 Si / 1000 Ang^3
#
#
#
# Elastic Constant Matrix: (Units=GPa)
#
#
# Indices 1 2 3 4 5 6 
#
# 1 118.2406 20.4858 2.5019 0.5066 2.1021 -10.4958
# 2 20.4858 91.6137 12.1560 8.9541 21.3912 -17.9453
# 3 2.5019 12.1560 49.8153 15.6201 -2.6350 -9.6947
# 4 0.5066 8.9541 15.6201 30.4918 13.9455 -8.6084
# 5 2.1021 21.3912 -2.6350 13.9455 23.5071 -2.1626
# 6 -10.4958 -17.9453 -9.6947 -8.6084 -2.1626 32.2084
#
#
#
# Elastic Compliance Matrix: (Units=1/GPa)
#
#
# Indices 1 2 3 4 5 6 
#
# 1 0.008948 -0.001874 0.000338 0.000430 0.000885 0.002148
# 2 -0.001874 0.018499 -0.007676 0.011946 -0.023787 0.008981
# 3 0.000338 -0.007676 0.031286 -0.025418 0.025557 0.000173
# 4 0.000430 0.011946 -0.025418 0.071493 -0.054831 0.014571
# 5 0.000885 -0.023787 0.025557 -0.054831 0.098275 -0.013328
# 6 0.002148 0.008981 0.000173 0.014571 -0.013328 0.039803
#
#
# Mechanical properties :
#
#
# Convention : Reuss Voigt Hill
#
# Bulk Modulus (GPa) = 24.80845 36.66189 30.73517
# Shear Modulus (GPa) = 16.65758 32.20983 24.43371
#
# Velocity S-wave (km/s) = 2.71539 3.77589 3.28867
# Velocity P-wave (km/s) = 4.56205 5.93615 5.29387
#
# Compressibility (1/GPa) = 0.04030884
#
# Stress axis : x y z
#
# Youngs Moduli (GPa) = 111.75813 54.05763 31.96309
#
# Poissons Ratio (x) = 0.10128 -0.01080
# Poissons Ratio (y) = 0.20939 0.24535
# Poissons Ratio (z) = -0.03775 0.41495
#
# Static dielectric constant tensor:
#      x y z
#    x 1.861830 -0.000270 -0.025550 
#    y -0.000270 1.858840 -0.016400 
#    z -0.025550 -0.016400 1.871970 
# 
# From -- ./inp_files/237890.got.cif
#   From: 2010.05.17/outbox.cif.g08.bks.cpg/sg2_119_cif.got.tgz:237890.got - 2010.06.03 11:33:40.
