data_PCOD9058923
_publ_section_title
;
Structure prediction by ZEFSAII (Michael W. Deem and Ramdas Pophale) SiO2 
 PCOD9058923
Probable space group: P -1
;
_chemical_formula_sum "Si O2"
_cell_formula_units_Z 14
_cell_length_a 8.871948
_cell_length_b 13.700973
_cell_length_c 14.365719
_cell_angle_alpha 149.854620
_cell_angle_beta 116.964952
_cell_angle_gamma 81.773560
_cell_volume 649.459501
_symmetry_space_group_name_H-M "P -1"
_symmetry_group_IT_number 2
_symmetry_cell_setting 'triclinic'
loop_
_space_group_symop_operation_xyz
x,y,z
-x,-y,-z
loop_
_atom_site_type_symbol
_atom_site_label
_atom_site_fract_x
_atom_site_fract_y
_atom_site_fract_z
Si Si1 0.725463 0.720308 0.770881
Si Si2 0.398117 0.735462 0.987478
Si Si3 0.876278 0.600100 0.091203
Si Si4 0.872820 0.768891 0.414780
Si Si5 0.774634 0.804247 0.055747
Si Si6 0.084181 0.747838 0.782497
Si Si7 0.465146 0.159045 0.686600
O O1 0.500000 0.500000 0.500000
O O2 0.766529 0.682861 0.857895
O O3 0.884568 0.723635 0.748206
O O4 0.779782 0.988470 0.007428
O O5 0.281296 0.472346 0.775818
O O6 0.563406 0.778178 0.993169
O O7 0.230684 0.767094 0.922292
O O8 0.512027 0.882964 0.233866
O O9 0.981168 0.750092 0.337636
O O10 0.825320 0.708837 0.081932
O O11 0.655877 0.413446 0.920109
O O12 0.000000 0.500000 0.000000
O O13 0.741764 0.865837 0.419057
O O14 0.037747 0.929013 0.669674
O O15 0.000000 0.500000 0.500000
O O16 0.500000 0.000000 0.500000
#
# Coordination Sequence:
#
# PCOD9058923 Si02
#       7
#     2   2   2   2   2   2   2
#     4  11  28  49  73 106 137 178 240 300 352 425
#     4  11  24  43  67  97 133 180 223 278 348 405
#     4  11  23  39  62 100 137 176 224 274 333 416
#     4  11  23  43  64  98 142 180 223 275 341 418
#     4  12  24  42  70  96 133 178 226 280 345 408
#     4  11  26  51  75 101 139 181 235 297 360 418
#     4  11  23  40  62  96 141 179 219 273 335 412
#
# _framework density 21.556386
#
# number of rings (size 3 to 8) (size 9 to 14) (size 15 to 20)
#    0.000    0.857    2.857    3.857    8.000    5.714 
#    0.000    0.000    0.000    0.000    0.000    0.000 
#    0.000    0.000    0.000    0.000    0.000    0.000 
#
# Total GULP energy -78165.320503 kJ/mol
# GULP energy per Si atom -5583.237179 kJ/mol
# Density = 2.150732 g / cm^3
# Si number density = 21.556386 Si / 1000 Ang^3
#
#
#
# Elastic Constant Matrix: (Units=GPa)
#
#
# Indices 1 2 3 4 5 6 
#
# 1 97.6362 7.4464 40.4427 2.4027 3.4756 -2.7374
# 2 7.4464 55.8858 35.6993 -12.9100 4.4130 -7.7217
# 3 40.4427 35.6993 131.3975 -11.0607 4.9699 6.8161
# 4 2.4027 -12.9100 -11.0607 26.2826 2.1237 -2.5233
# 5 3.4756 4.4130 4.9699 2.1237 44.2038 -2.5908
# 6 -2.7374 -7.7217 6.8161 -2.5233 -2.5908 34.1084
#
#
#
# Elastic Compliance Matrix: (Units=1/GPa)
#
#
# Indices 1 2 3 4 5 6 
#
# 1 0.012037 0.000835 -0.004202 -0.002258 -0.000343 0.001802
# 2 0.000835 0.025767 -0.006694 0.010676 -0.001936 0.007881
# 3 -0.004202 -0.006694 0.011070 0.001415 -0.000548 -0.004002
# 4 -0.002258 0.010676 0.001415 0.044813 -0.002904 0.005048
# 5 -0.000343 -0.001936 -0.000548 -0.002904 0.023113 0.001184
# 6 0.001802 0.007881 -0.004002 0.005048 0.001184 0.032510
#
#
# Mechanical properties :
#
#
# Convention : Reuss Voigt Hill
#
# Bulk Modulus (GPa) = 34.78187 50.23292 42.50739
# Shear Modulus (GPa) = 27.93012 34.34104 31.13558
#
# Velocity S-wave (km/s) = 3.60346 3.99567 3.80462
# Velocity P-wave (km/s) = 5.78650 6.68138 6.24997
#
# Compressibility (1/GPa) = 0.02875061
#
# Stress axis : x y z
#
# Youngs Moduli (GPa) = 83.07423 38.80973 90.33272
#
# Poissons Ratio (x) = -0.03240 0.37961
# Poissons Ratio (y) = -0.06936 0.60473
# Poissons Ratio (z) = 0.34911 0.25981
#
# Static dielectric constant tensor:
#      x y z
#    x 1.744910 0.008800 0.029150 
#    y 0.008800 1.790610 -0.013290 
#    z 0.029150 -0.013290 2.145360 
# 
# From -- ./inp_files/315008.got.cif
#   From: 2010.05.17/outbox.cif.g08.bks.cpg/sg2_158_cif.got.tgz:315008.got - 2010.06.03 11:33:40.
