data_PCOD9058036
_publ_section_title
;
Structure prediction by ZEFSAII (Michael W. Deem and Ramdas Pophale) SiO2 
 PCOD9058036
Probable space group: P -1
;
_chemical_formula_sum "Si O2"
_cell_formula_units_Z 14
_cell_length_a 9.993799
_cell_length_b 9.289672
_cell_length_c 12.049886
_cell_angle_alpha 93.411882
_cell_angle_beta 147.481706
_cell_angle_gamma 86.539283
_cell_volume 600.204695
_symmetry_space_group_name_H-M "P -1"
_symmetry_group_IT_number 2
_symmetry_cell_setting 'triclinic'
loop_
_space_group_symop_operation_xyz
x,y,z
-x,-y,-z
loop_
_atom_site_type_symbol
_atom_site_label
_atom_site_fract_x
_atom_site_fract_y
_atom_site_fract_z
Si Si1 0.060040 0.594924 0.691333
Si Si2 0.507131 0.580659 0.391872
Si Si3 0.947638 0.905919 0.202763
Si Si4 0.131258 0.289523 0.659758
Si Si5 0.656313 0.154446 0.963780
Si Si6 0.078114 0.759293 0.053290
Si Si7 0.692402 0.870850 0.617551
O O1 0.771323 0.547403 0.514260
O O2 0.045985 0.670047 0.564863
O O3 0.201138 0.441541 0.772917
O O4 0.186388 0.710145 0.866913
O O5 0.500000 0.500000 0.500000
O O6 0.549534 0.745977 0.454983
O O7 0.227870 0.603155 0.145604
O O8 0.984231 0.810844 0.331931
O O9 0.681684 0.990125 0.019275
O O10 0.018936 0.812707 0.139099
O O11 0.106962 0.050768 0.314634
O O12 0.375136 0.210448 0.778459
O O13 0.757263 0.140152 0.907791
O O14 0.816565 0.790593 0.807026
O O15 0.500000 0.000000 0.500000
#
# Coordination Sequence:
#
# PCOD9058036 Si02
#       7
#     2   2   2   2   2   2   2
#     4  11  24  44  66  94 134 181 222 276 327 396
#     4  12  24  42  68  97 134 177 224 273 334 395
#     4  11  23  43  68 103 132 174 218 276 340 399
#     4  11  25  45  65  94 139 174 225 272 332 399
#     4  11  22  44  69  94 131 179 220 275 338 389
#     4  11  23  43  70 100 138 172 220 284 335 390
#     4  11  23  42  66  99 137 172 217 278 338 394
#
# _framework density 23.325375999999999
#
# number of rings (size 3 to 8) (size 9 to 14) (size 15 to 20)
#    0.000    0.857    5.714    3.429    0.000    1.143 
#    5.143    0.000    0.000    0.000    0.000    0.000 
#    0.000    0.000    0.000    0.000    0.000    0.000 
#
# Total GULP energy -77948.962962 kJ/mol
# GULP energy per Si atom -5567.783069 kJ/mol
# Density = 2.327229 g / cm^3
# Si number density = 23.325376 Si / 1000 Ang^3
#
#
#
# Elastic Constant Matrix: (Units=GPa)
#
#
# Indices 1 2 3 4 5 6 
#
# 1 100.8598 10.2036 12.6307 -9.3560 -13.2692 9.6348
# 2 10.2036 41.2704 11.7523 -23.2748 -8.9062 3.5285
# 3 12.6307 11.7523 57.7609 -13.9610 -9.3897 15.9821
# 4 -9.3560 -23.2748 -13.9610 44.0052 -1.9759 -1.2811
# 5 -13.2692 -8.9062 -9.3897 -1.9759 27.6794 -22.6837
# 6 9.6348 3.5285 15.9821 -1.2811 -22.6837 48.1433
#
#
#
# Elastic Compliance Matrix: (Units=1/GPa)
#
#
# Indices 1 2 3 4 5 6 
#
# 1 0.010942 0.000116 -0.001187 0.002306 0.005891 0.001033
# 2 0.000116 0.041146 -0.001809 0.022379 0.020800 0.007957
# 3 -0.001187 -0.001809 0.021097 0.005398 0.001747 -0.005667
# 4 0.002306 0.022379 0.005398 0.037678 0.017036 0.005136
# 5 0.005891 0.020800 0.001747 0.017036 0.073524 0.031812
# 6 0.001033 0.007957 -0.005667 0.005136 0.031812 0.036988
#
#
# Mechanical properties :
#
#
# Convention : Reuss Voigt Hill
#
# Bulk Modulus (GPa) = 14.83115 29.89606 22.36360
# Shear Modulus (GPa) = 20.03129 34.98588 27.50858
#
# Velocity S-wave (km/s) = 2.93367 3.87706 3.43788
# Velocity P-wave (km/s) = 4.22462 5.73472 5.03658
#
# Compressibility (1/GPa) = 0.06742565
#
# Stress axis : x y z
#
# Youngs Moduli (GPa) = 91.39157 24.30374 47.40041
#
# Poissons Ratio (x) = -0.00282 0.05627
# Poissons Ratio (y) = -0.01061 0.08573
# Poissons Ratio (z) = 0.10849 0.04395
#
# Static dielectric constant tensor:
#      x y z
#    x 1.603430 0.153890 -0.319940 
#    y 0.153890 1.728870 0.195280 
#    z -0.319940 0.195280 1.675510 
# 
# From -- ./inp_files/382476.got.cif
#   From: 2010.05.17/outbox.cif.g08.bks.cpg/sg2_192_cif.got.tgz:382476.got - 2010.06.03 11:33:40.
