data_PCOD9058003
_publ_section_title
;
Structure prediction by ZEFSAII (Michael W. Deem and Ramdas Pophale) SiO2 
 PCOD9058003
Probable space group: P -1
;
_chemical_formula_sum "Si O2"
_cell_formula_units_Z 14
_cell_length_a 15.712487
_cell_length_b 10.495034
_cell_length_c 9.924539
_cell_angle_alpha 63.016378
_cell_angle_beta 61.641371
_cell_angle_gamma 24.211455
_cell_volume 589.670630
_symmetry_space_group_name_H-M "P -1"
_symmetry_group_IT_number 2
_symmetry_cell_setting 'triclinic'
loop_
_space_group_symop_operation_xyz
x,y,z
-x,-y,-z
loop_
_atom_site_type_symbol
_atom_site_label
_atom_site_fract_x
_atom_site_fract_y
_atom_site_fract_z
Si Si1 0.308926 0.349764 0.923459
Si Si2 0.346087 0.896070 0.276499
Si Si3 0.406574 0.601342 0.169474
Si Si4 0.273154 0.249125 0.723620
Si Si5 0.701804 0.093178 0.406961
Si Si6 0.357405 0.362247 0.402833
Si Si7 0.961053 0.433251 0.778281
O O1 0.419068 0.352092 0.801207
O O2 0.229193 0.377578 0.836430
O O3 0.134878 0.571187 0.063708
O O4 0.500000 0.000000 0.000000
O O5 0.458049 0.831150 0.535769
O O6 0.317615 0.836519 0.458291
O O7 0.205673 0.218885 0.263648
O O8 0.284818 0.609705 0.278321
O O9 0.604433 0.324638 0.256531
O O10 0.500000 0.500000 0.000000
O O11 0.284708 0.894518 0.186736
O O12 0.218108 0.435714 0.557813
O O13 0.154334 0.255599 0.795045
O O14 0.517796 0.886688 0.687959
O O15 0.938028 0.744957 0.352866
#
# Coordination Sequence:
#
# PCOD9058003 Si02
#       7
#     2   2   2   2   2   2   2
#     4  10  21  32  55  90 122 151 195 245 305 343
#     4  11  21  39  60  90 121 161 193 249 301 360
#     4  10  22  37  60  89 122 162 199 237 303 370
#     4  10  17  37  58  87 116 156 197 249 286 352
#     4   9  19  39  59  84 119 155 202 241 290 351
#     4   8  19  33  61  82 113 156 200 234 293 354
#     4  10  22  34  61  93 119 151 202 253 292 344
#
# _framework density 23.742069999999998
#
# number of rings (size 3 to 8) (size 9 to 14) (size 15 to 20)
#    0.857    1.429    1.429    1.286    4.000    1.143 
#    0.000    1.429    0.000    0.000    0.000    0.000 
#    0.000    0.000    0.000    0.000    0.000    0.000 
#
# Total GULP energy -78080.111880 kJ/mol
# GULP energy per Si atom -5577.150849 kJ/mol
# Density = 2.368803 g / cm^3
# Si number density = 23.742070 Si / 1000 Ang^3
#
#
#
# Elastic Constant Matrix: (Units=GPa)
#
#
# Indices 1 2 3 4 5 6 
#
# 1 57.9867 13.9088 38.8285 16.4271 5.0152 11.3563
# 2 13.9088 45.3698 32.8326 13.0800 -4.9027 0.1851
# 3 38.8285 32.8326 159.3745 28.5524 6.7938 -0.8004
# 4 16.4271 13.0800 28.5524 27.6482 -3.8782 -3.3431
# 5 5.0152 -4.9027 6.7938 -3.8782 27.4791 5.7362
# 6 11.3563 0.1851 -0.8004 -3.3431 5.7362 22.0389
#
#
#
# Elastic Compliance Matrix: (Units=1/GPa)
#
#
# Indices 1 2 3 4 5 6 
#
# 1 0.027469 -0.002000 -0.003747 -0.013827 -0.003149 -0.015552
# 2 -0.002000 0.028542 -0.004362 -0.007220 0.005936 -0.002008
# 3 -0.003747 -0.004362 0.009233 -0.005464 -0.003655 0.002425
# 4 -0.013827 -0.007220 -0.005464 0.056154 0.007693 0.013503
# 5 -0.003149 0.005936 -0.003655 0.007693 0.041738 -0.008256
# 6 -0.015552 -0.002008 0.002425 0.013503 -0.008256 0.057690
#
#
# Mechanical properties :
#
#
# Convention : Reuss Voigt Hill
#
# Bulk Modulus (GPa) = 22.20956 48.20788 35.20872
# Shear Modulus (GPa) = 19.52710 27.24396 23.38553
#
# Velocity S-wave (km/s) = 2.87098 3.39115 3.14185
# Velocity P-wave (km/s) = 4.51275 5.97345 5.29372
#
# Compressibility (1/GPa) = 0.04502565
#
# Stress axis : x y z
#
# Youngs Moduli (GPa) = 36.40435 35.03573 108.30695
#
# Poissons Ratio (x) = 0.07007 0.40583
# Poissons Ratio (y) = 0.07281 0.47248
# Poissons Ratio (z) = 0.13641 0.15284
#
# Static dielectric constant tensor:
#      x y z
#    x 1.966440 0.010750 -0.009280 
#    y 0.010750 2.019370 -0.050790 
#    z -0.009280 -0.050790 1.917700 
# 
# From -- ./inp_files/346866.got.cif
#   From: 2010.05.17/outbox.cif.g08.bks.cpg/sg2_174_cif.got.tgz:346866.got - 2010.06.03 11:33:40.
