data_PCOD9058377
_publ_section_title
;
Structure prediction by ZEFSAII (Michael W. Deem and Ramdas Pophale) SiO2 
 PCOD9058377
Probable space group: P -1
;
_chemical_formula_sum "Si O2"
_cell_formula_units_Z 16
_cell_length_a 14.363652
_cell_length_b 11.099179
_cell_length_c 8.797638
_cell_angle_alpha 78.436570
_cell_angle_beta 85.671774
_cell_angle_gamma 29.875603
_cell_volume 670.419318
_symmetry_space_group_name_H-M "P -1"
_symmetry_group_IT_number 2
_symmetry_cell_setting 'triclinic'
loop_
_space_group_symop_operation_xyz
x,y,z
-x,-y,-z
loop_
_atom_site_type_symbol
_atom_site_label
_atom_site_fract_x
_atom_site_fract_y
_atom_site_fract_z
Si Si1 0.671147 0.644362 0.825010
Si Si2 0.792904 0.032022 0.320222
Si Si3 0.364149 0.389583 0.813171
Si Si4 0.262753 0.171239 0.127566
Si Si5 0.002815 0.314475 0.333748
Si Si6 0.913066 0.142263 0.813696
Si Si7 0.759991 0.821978 0.233769
Si Si8 0.550606 0.430594 0.687961
O O1 0.776486 0.653532 0.833214
O O2 0.786797 0.412047 0.774290
O O3 0.453757 0.925820 0.733976
O O4 0.653308 0.607763 0.005370
O O5 0.831215 0.878986 0.235743
O O6 0.856343 0.904551 0.505448
O O7 0.913545 0.015217 0.273555
O O8 0.573393 0.323495 0.272821
O O9 0.159090 0.597074 0.715013
O O10 0.467670 0.397568 0.762989
O O11 0.515735 0.115823 0.801800
O O12 0.126641 0.224520 0.201312
O O13 0.244961 0.199917 0.940671
O O14 0.888788 0.564790 0.349037
O O15 0.771496 0.201503 0.752117
O O16 0.000000 0.000000 0.000000
O O17 0.500000 0.500000 0.500000
#
# Coordination Sequence:
#
# PCOD9058377 Si02
#       8
#     2   2   2   2   2   2   2   2
#     4  11  22  45  73 105 140 184 234 299 352 419
#     4  12  28  46  71 105 146 186 238 298 356 425
#     4  11  24  41  72 101 141 185 240 290 350 421
#     4  11  23  43  74 106 140 189 234 294 357 427
#     4  12  24  43  71 107 142 191 234 286 360 433
#     4  12  29  48  77 107 140 190 246 299 356 423
#     4  11  22  45  71 104 147 182 236 293 355 425
#     4  12  28  52  71 101 148 194 237 298 365 426
#
# _framework density 23.865660999999999
#
# number of rings (size 3 to 8) (size 9 to 14) (size 15 to 20)
#    0.000    0.500    3.750    4.500    5.250    5.000 
#    0.000    1.250    0.000    0.000    0.000    0.000 
#    0.000    0.000    0.000    0.000    0.000    0.000 
#
# Total GULP energy -89633.584723 kJ/mol
# GULP energy per Si atom -5602.099045 kJ/mol
# Density = 2.381134 g / cm^3
# Si number density = 23.865661 Si / 1000 Ang^3
#
#
#
# Elastic Constant Matrix: (Units=GPa)
#
#
# Indices 1 2 3 4 5 6 
#
# 1 151.0244 8.3240 17.4431 -6.1378 5.9718 -12.9907
# 2 8.3240 81.6628 -3.6115 -1.3165 2.1593 -9.7964
# 3 17.4431 -3.6115 34.4463 -18.9272 -1.9711 -6.1996
# 4 -6.1378 -1.3165 -18.9272 25.0854 3.3311 8.3959
# 5 5.9718 2.1593 -1.9711 3.3311 26.7504 -10.8544
# 6 -12.9907 -9.7964 -6.1996 8.3959 -10.8544 40.0314
#
#
#
# Elastic Compliance Matrix: (Units=1/GPa)
#
#
# Indices 1 2 3 4 5 6 
#
# 1 0.007306 -0.000770 -0.004803 -0.002305 -0.000962 0.001661
# 2 -0.000770 0.012870 0.003396 0.001948 0.000410 0.003128
# 3 -0.004803 0.003396 0.053439 0.039717 -0.000592 -0.000942
# 4 -0.002305 0.001948 0.039717 0.075218 -0.011346 -0.012972
# 5 -0.000962 0.000410 -0.000592 -0.011346 0.044693 0.014195
# 6 0.001661 0.003128 -0.000942 -0.012972 0.014195 0.032709
#
#
# Mechanical properties :
#
#
# Convention : Reuss Voigt Hill
#
# Bulk Modulus (GPa) = 14.43804 34.60495 24.52150
# Shear Modulus (GPa) = 19.71034 34.70529 27.20781
#
# Velocity S-wave (km/s) = 2.87694 3.81753 3.38011
# Velocity P-wave (km/s) = 4.13504 5.82775 5.05279
#
# Compressibility (1/GPa) = 0.06926146
#
# Stress axis : x y z
#
# Youngs Moduli (GPa) = 136.87711 77.70043 18.71309
#
# Poissons Ratio (x) = 0.05979 0.08987
# Poissons Ratio (y) = 0.10533 -0.06355
# Poissons Ratio (z) = 0.65738 -0.26385
#
# Static dielectric constant tensor:
#      x y z
#    x 1.922650 0.018780 0.032510 
#    y 0.018780 1.959150 -0.030810 
#    z 0.032510 -0.030810 1.860980 
# 
# From -- ./inp_files/307030.got.cif
#   From: 2010.05.17/outbox.cif.g08.bks.cpg/sg2_154_cif.got.tgz:307030.got - 2010.06.03 11:33:40.
