data_PCOD9058418
_publ_section_title
;
Structure prediction by ZEFSAII (Michael W. Deem and Ramdas Pophale) SiO2 
 PCOD9058418
Probable space group: P -1
;
_chemical_formula_sum "Si O2"
_cell_formula_units_Z 16
_cell_length_a 9.156859
_cell_length_b 9.667175
_cell_length_c 15.793707
_cell_angle_alpha 35.597218
_cell_angle_beta 99.028442
_cell_angle_gamma 91.524008
_cell_volume 791.210790
_symmetry_space_group_name_H-M "P -1"
_symmetry_group_IT_number 2
_symmetry_cell_setting 'triclinic'
loop_
_space_group_symop_operation_xyz
x,y,z
-x,-y,-z
loop_
_atom_site_type_symbol
_atom_site_label
_atom_site_fract_x
_atom_site_fract_y
_atom_site_fract_z
Si Si1 0.863176 0.698526 0.145158
Si Si2 0.458727 0.285759 0.846865
Si Si3 0.396307 0.501419 0.408387
Si Si4 0.075907 0.738566 0.890205
Si Si5 0.887674 0.107030 0.819749
Si Si6 0.413872 0.494327 0.083600
Si Si7 0.111051 0.824414 0.658487
Si Si8 0.566115 0.026714 0.399694
O O1 0.720603 0.660065 0.205834
O O2 0.911443 0.448179 0.225992
O O3 0.996683 0.771955 0.174460
O O4 0.817400 0.918495 0.965858
O O5 0.536544 0.387934 0.723633
O O6 0.509327 0.394355 0.885323
O O7 0.500000 0.000000 0.000000
O O8 0.500000 0.500000 0.500000
O O9 0.240379 0.676122 0.328451
O O10 0.388934 0.228019 0.516727
O O11 0.080982 0.855853 0.739766
O O12 0.245807 0.639995 0.986159
O O13 0.982743 0.939078 0.842304
O O14 0.000000 0.500000 0.000000
O O15 0.436002 0.209987 0.248346
O O16 0.500000 0.500000 0.000000
O O17 0.281968 0.859301 0.639413
O O18 0.000000 0.000000 0.500000
O O19 0.500000 0.000000 0.500000
#
# Coordination Sequence:
#
# PCOD9058418 Si02
#       8
#     2   2   2   2   2   2   2   2
#     4  11  22  45  73 102 137 186 234 296 364 424
#     4  12  24  45  74 104 138 187 238 297 364 426
#     4  12  29  46  71 107 149 195 238 301 366 432
#     4  12  27  45  74 108 141 194 241 300 360 429
#     4  11  26  45  70 106 146 183 242 294 360 441
#     4  12  26  47  77 108 142 185 254 302 355 439
#     4  12  26  46  71 105 145 186 236 293 367 433
#     4  12  26  47  74 107 144 194 243 303 364 427
#
# _framework density 20.222170999999999
#
# number of rings (size 3 to 8) (size 9 to 14) (size 15 to 20)
#    0.000    0.250    6.250    1.500    7.000    2.000 
#    0.000    1.875    0.000    0.000    0.000    0.000 
#    0.000    0.000    0.000    0.000    0.000    0.000 
#
# Total GULP energy -89472.746050 kJ/mol
# GULP energy per Si atom -5592.046628 kJ/mol
# Density = 2.017614 g / cm^3
# Si number density = 20.222171 Si / 1000 Ang^3
#
#
#
# Elastic Constant Matrix: (Units=GPa)
#
#
# Indices 1 2 3 4 5 6 
#
# 1 104.3120 58.7325 43.2748 2.4230 11.7835 -12.1178
# 2 58.7325 144.2543 67.7221 -17.7095 4.0981 -5.8647
# 3 43.2748 67.7221 133.8051 -2.8358 21.4729 -3.4987
# 4 2.4230 -17.7095 -2.8358 45.4998 -8.7833 -3.7146
# 5 11.7835 4.0981 21.4729 -8.7833 46.0059 -4.3142
# 6 -12.1178 -5.8647 -3.4987 -3.7146 -4.3142 34.4079
#
#
#
# Elastic Compliance Matrix: (Units=1/GPa)
#
#
# Indices 1 2 3 4 5 6 
#
# 1 0.013809 -0.005130 -0.001417 -0.003084 -0.002710 0.003172
# 2 -0.005130 0.011849 -0.004780 0.005339 0.003579 0.000752
# 3 -0.001417 -0.004780 0.011062 -0.002121 -0.004875 -0.001029
# 4 -0.003084 0.005339 -0.002121 0.025601 0.006491 0.003186
# 5 -0.002710 0.003579 -0.004875 0.006491 0.025918 0.003110
# 6 0.003172 0.000752 -0.001029 0.003186 0.003110 0.030938
#
#
# Mechanical properties :
#
#
# Convention : Reuss Voigt Hill
#
# Bulk Modulus (GPa) = 71.09133 80.20335 75.64734
# Shear Modulus (GPa) = 34.12526 39.35885 36.74206
#
# Velocity S-wave (km/s) = 4.11240 4.41650 4.26716
# Velocity P-wave (km/s) = 7.60135 8.10891 7.85923
#
# Compressibility (1/GPa) = 0.01406641
#
# Stress axis : x y z
#
# Youngs Moduli (GPa) = 72.41592 84.39573 90.40277
#
# Poissons Ratio (x) = 0.43292 0.12814
# Poissons Ratio (y) = 0.37146 0.43209
# Poissons Ratio (z) = 0.10265 0.40338
#
# Static dielectric constant tensor:
#      x y z
#    x 1.715540 0.000530 0.009760 
#    y 0.000530 1.688660 -0.015270 
#    z 0.009760 -0.015270 1.711900 
# 
# From -- ./inp_files/188545.got.cif
#   From: 2010.05.17/outbox.cif.g08.bks.cpg/sg2_95_cif.got.tgz:188545.got - 2010.06.03 11:33:40.
