data_PCOD9058070
_publ_section_title
;
Structure prediction by ZEFSAII (Michael W. Deem and Ramdas Pophale) SiO2 
 PCOD9058070
Probable space group: P -1
;
_chemical_formula_sum "Si O2"
_cell_formula_units_Z 16
_cell_length_a 11.823872
_cell_length_b 16.156661
_cell_length_c 8.416999
_cell_angle_alpha 58.083276
_cell_angle_beta 66.498157
_cell_angle_gamma 114.623535
_cell_volume 740.664273
_symmetry_space_group_name_H-M "P -1"
_symmetry_group_IT_number 2
_symmetry_cell_setting 'triclinic'
loop_
_space_group_symop_operation_xyz
x,y,z
-x,-y,-z
loop_
_atom_site_type_symbol
_atom_site_label
_atom_site_fract_x
_atom_site_fract_y
_atom_site_fract_z
Si Si1 0.750207 0.139315 0.708319
Si Si2 0.915345 0.236915 0.166338
Si Si3 0.335872 0.225303 0.497603
Si Si4 0.104939 0.975392 0.130300
Si Si5 0.775895 0.831913 0.864044
Si Si6 0.583951 0.856733 0.746651
Si Si7 0.154228 0.689237 0.197492
Si Si8 0.371857 0.462740 0.758271
O O1 0.828346 0.219778 0.405160
O O2 0.824810 0.074521 0.760604
O O3 0.849098 0.254564 0.690759
O O4 0.500000 0.000000 0.000000
O O5 0.788872 0.054054 0.405778
O O6 0.887545 0.278708 0.975565
O O7 0.162308 0.381026 0.901027
O O8 0.441689 0.241714 0.272238
O O9 0.498085 0.388387 0.347008
O O10 0.139970 0.169068 0.617592
O O11 0.233735 0.066639 0.804600
O O12 0.178877 0.124411 0.020835
O O13 0.611311 0.809492 0.936061
O O14 0.709347 0.689545 0.967671
O O15 0.000000 0.000000 0.500000
O O16 0.388747 0.801053 0.929167
O O17 0.000000 0.500000 0.500000
O O18 0.500000 0.500000 0.500000
#
# Coordination Sequence:
#
# PCOD9058070 Si02
#       8
#     2   2   2   2   2   2   2   2
#     4  12  26  48  80 108 145 203 254 301 372 450
#     4  12  27  51  77 107 149 201 254 308 370 454
#     4  11  26  40  73 107 144 192 239 310 371 436
#     4  11  22  44  70 107 142 185 246 296 371 446
#     4  12  21  44  70 100 144 186 236 296 370 438
#     4  12  25  49  74 102 144 196 247 302 370 447
#     4  12  31  50  74 110 151 195 251 315 372 444
#     4  12  27  44  71 111 150 193 244 311 375 442
#
# _framework density 21.602226999999999
#
# number of rings (size 3 to 8) (size 9 to 14) (size 15 to 20)
#    0.000    0.250    6.250    1.125    8.750    2.000 
#    0.000    0.000    0.000    0.000    0.000    0.000 
#    0.000    0.000    0.000    0.000    0.000    0.000 
#
# Total GULP energy -89272.884527 kJ/mol
# GULP energy per Si atom -5579.555283 kJ/mol
# Density = 2.155306 g / cm^3
# Si number density = 21.602227 Si / 1000 Ang^3
#
#
#
# Elastic Constant Matrix: (Units=GPa)
#
#
# Indices 1 2 3 4 5 6 
#
# 1 120.9575 36.6443 22.4828 -6.8093 -8.3165 19.7739
# 2 36.6443 186.8044 50.7381 -4.1395 -12.2092 16.3703
# 3 22.4828 50.7381 78.5961 3.0528 -7.5435 12.3069
# 4 -6.8093 -4.1395 3.0528 38.8020 1.9484 2.2081
# 5 -8.3165 -12.2092 -7.5435 1.9484 38.8888 1.9050
# 6 19.7739 16.3703 12.3069 2.2081 1.9050 27.6079
#
#
#
# Elastic Compliance Matrix: (Units=1/GPa)
#
#
# Indices 1 2 3 4 5 6 
#
# 1 0.010057 -0.000925 -0.001176 0.002031 0.001845 -0.006420
# 2 -0.000925 0.006822 -0.003762 0.000904 0.001260 -0.001865
# 3 -0.001176 -0.003762 0.016418 -0.001761 0.002048 -0.004246
# 4 0.002031 0.000904 -0.001761 0.026590 -0.000795 -0.003278
# 5 0.001845 0.001260 0.002048 -0.000795 0.027177 -0.004794
# 6 -0.006420 -0.001865 -0.004246 -0.003278 -0.004794 0.044412
#
#
# Mechanical properties :
#
#
# Convention : Reuss Voigt Hill
#
# Bulk Modulus (GPa) = 46.35776 67.34317 56.85047
# Shear Modulus (GPa) = 33.24654 39.49256 36.36955
#
# Velocity S-wave (km/s) = 3.92731 4.28035 4.10762
# Velocity P-wave (km/s) = 6.48624 7.46126 6.99077
#
# Compressibility (1/GPa) = 0.02157136
#
# Stress axis : x y z
#
# Youngs Moduli (GPa) = 99.43304 146.57972 60.90901
#
# Poissons Ratio (x) = 0.13561 0.07164
# Poissons Ratio (y) = 0.09199 0.22911
# Poissons Ratio (z) = 0.11695 0.55137
#
# Static dielectric constant tensor:
#      x y z
#    x 1.826300 0.038780 0.082910 
#    y 0.038780 1.858900 0.058150 
#    z 0.082910 0.058150 1.882110 
# 
# From -- ./inp_files/272124.got.cif
#   From: 2010.05.17/outbox.cif.g08.bks.cpg/sg2_137_cif.got.tgz:272124.got - 2010.06.03 11:33:40.
