data_PCOD9058983
_publ_section_title
;
Structure prediction by ZEFSAII (Michael W. Deem and Ramdas Pophale) SiO2 
 PCOD9058983
Probable space group: P -1
;
_chemical_formula_sum "Si O2"
_cell_formula_units_Z 12
_cell_length_a 7.430490
_cell_length_b 8.071043
_cell_length_c 10.155455
_cell_angle_alpha 95.212545
_cell_angle_beta 110.843662
_cell_angle_gamma 57.066485
_cell_volume 473.611556
_symmetry_space_group_name_H-M "P -1"
_symmetry_group_IT_number 2
_symmetry_cell_setting 'triclinic'
loop_
_space_group_symop_operation_xyz
x,y,z
-x,-y,-z
loop_
_atom_site_type_symbol
_atom_site_label
_atom_site_fract_x
_atom_site_fract_y
_atom_site_fract_z
Si Si1 0.391254 0.675523 0.091361
Si Si2 0.017269 0.314954 0.858746
Si Si3 0.455008 0.168125 0.645022
Si Si4 0.142071 0.051091 0.441194
Si Si5 0.770064 0.104792 0.187072
Si Si6 0.304169 0.259821 0.187595
O O1 0.186472 0.687538 0.119562
O O2 0.562558 0.681258 0.239224
O O3 0.500000 0.500000 0.000000
O O4 0.282177 0.863493 0.978715
O O5 0.888763 0.534706 0.779594
O O6 0.139580 0.125446 0.782764
O O7 0.198247 0.282813 0.015646
O O8 0.621698 0.145081 0.566350
O O9 0.610729 0.947434 0.736068
O O10 0.230027 0.183924 0.531457
O O11 0.964715 0.141900 0.280154
O O12 0.000000 0.000000 0.500000
O O13 0.542685 0.243439 0.222226
#
# Coordination Sequence:
#
# PCOD9058983 Si02
#       6
#     2   2   2   2   2   2
#     4  12  24  43  72 106 142 183 238 296 360 419
#     4  11  23  40  66 107 141 181 232 297 356 419
#     4  11  24  45  72 105 142 189 237 297 352 426
#     4  11  24  44  75  98 142 196 237 284 365 421
#     4  12  22  42  72 101 142 186 229 299 355 416
#     4  11  23  39  69 104 140 183 237 290 360 420
#
# _framework density 25.337219000000001
#
# number of rings (size 3 to 8) (size 9 to 14) (size 15 to 20)
#    0.000    0.667    6.667    2.000    0.000    0.000 
#    0.000    1.667    7.333    0.000    0.000    0.000 
#    0.000    0.000    0.000    0.000    0.000    0.000 
#
# Total GULP energy -67142.764152 kJ/mol
# GULP energy per Si atom -5595.230346 kJ/mol
# Density = 2.527955 g / cm^3
# Si number density = 25.337219 Si / 1000 Ang^3
#
#
#
# Elastic Constant Matrix: (Units=GPa)
#
#
# Indices 1 2 3 4 5 6 
#
# 1 126.9002 3.5287 40.7048 8.0549 26.3601 -10.0241
# 2 3.5287 115.8546 20.0342 12.4581 10.8857 -7.2384
# 3 40.7048 20.0342 132.0246 42.9892 43.3170 -7.0437
# 4 8.0549 12.4581 42.9892 34.2241 8.8522 0.6871
# 5 26.3601 10.8857 43.3170 8.8522 59.7857 -3.9389
# 6 -10.0241 -7.2384 -7.0437 0.6871 -3.9389 25.3141
#
#
#
# Elastic Compliance Matrix: (Units=1/GPa)
#
#
# Indices 1 2 3 4 5 6 
#
# 1 0.009274 0.000394 -0.002374 0.001234 -0.002445 0.002711
# 2 0.000394 0.009247 0.000129 -0.003345 -0.001276 0.002728
# 3 -0.002374 0.000129 0.017638 -0.019466 -0.008664 0.003185
# 4 0.001234 -0.003345 -0.019466 0.053209 0.005868 -0.006416
# 5 -0.002445 -0.001276 -0.008664 0.005868 0.023428 -0.000258
# 6 0.002711 0.002728 0.003185 -0.006416 -0.000258 0.042377
#
#
# Mechanical properties :
#
#
# Convention : Reuss Voigt Hill
#
# Bulk Modulus (GPa) = 30.81002 55.92386 43.36694
# Shear Modulus (GPa) = 29.46458 44.56557 37.01508
#
# Velocity S-wave (km/s) = 3.41383 4.19847 3.82632
# Velocity P-wave (km/s) = 5.26549 6.75445 6.05590
#
# Compressibility (1/GPa) = 0.03245698
#
# Stress axis : x y z
#
# Youngs Moduli (GPa) = 107.82263 108.13937 56.69687
#
# Poissons Ratio (x) = -0.04266 0.13461
# Poissons Ratio (y) = -0.04254 -0.00729
# Poissons Ratio (z) = 0.25600 -0.01390
#
# Static dielectric constant tensor:
#      x y z
#    x 2.017720 0.048750 -0.054850 
#    y 0.048750 2.094200 -0.054120 
#    z -0.054850 -0.054120 2.050060 
# 
# From -- ./inp_files/383005.got.cif
#   From: 2010.05.17/outbox.cif.g08.bks.cpg/sg2_192_cif.got.tgz:383005.got - 2010.06.03 11:33:40.
