data_PCOD9058319
_publ_section_title
;
Structure prediction by ZEFSAII (Michael W. Deem and Ramdas Pophale) SiO2 
 PCOD9058319
Probable space group: P -1
;
_chemical_formula_sum "Si O2"
_cell_formula_units_Z 14
_cell_length_a 13.989784
_cell_length_b 9.152262
_cell_length_c 9.366280
_cell_angle_alpha 104.929896
_cell_angle_beta 151.793034
_cell_angle_gamma 77.554941
_cell_volume 547.520881
_symmetry_space_group_name_H-M "P -1"
_symmetry_group_IT_number 2
_symmetry_cell_setting 'triclinic'
loop_
_space_group_symop_operation_xyz
x,y,z
-x,-y,-z
loop_
_atom_site_type_symbol
_atom_site_label
_atom_site_fract_x
_atom_site_fract_y
_atom_site_fract_z
Si Si1 0.096364 0.414156 0.790703
Si Si2 0.312365 0.200271 0.401454
Si Si3 0.083718 0.749282 0.226580
Si Si4 0.265526 0.029604 0.709102
Si Si5 0.033496 0.737681 0.693168
Si Si6 0.544629 0.466943 0.385750
Si Si7 0.652853 0.004720 0.873098
O O1 0.950973 0.326853 0.465233
O O2 0.056465 0.355625 0.881489
O O3 0.048223 0.590279 0.769507
O O4 0.325459 0.403647 0.031719
O O5 0.395044 0.372741 0.568426
O O6 0.435086 0.080508 0.626556
O O7 0.361691 0.133990 0.290173
O O8 0.068483 0.199259 0.084872
O O9 0.150416 0.891180 0.445905
O O10 0.280015 0.654217 0.425000
O O11 0.176543 0.177931 0.558878
O O12 0.238304 0.036792 0.847006
O O13 0.500000 0.000000 0.000000
O O14 0.210006 0.861077 0.981979
O O15 0.500000 0.500000 0.500000
#
# Coordination Sequence:
#
# PCOD9058319 Si02
#       7
#     2   2   2   2   2   2   2
#     4  11  24  43  73 106 143 188 236 296 352 427
#     4  11  24  43  70 106 143 190 232 287 360 432
#     4  12  25  46  75 105 142 192 242 293 363 420
#     4  12  26  45  71 106 140 187 244 302 345 427
#     4  11  22  45  69 104 142 185 239 291 362 410
#     4  12  26  43  69 102 145 186 238 293 359 432
#     4  11  23  45  73 102 145 188 237 292 358 422
#
# _framework density 25.569800000000001
#
# number of rings (size 3 to 8) (size 9 to 14) (size 15 to 20)
#    0.000    0.571    5.714    2.571    2.000    1.143 
#    0.000    3.571    0.000    0.000    0.000    0.000 
#    0.000    0.000    0.000    0.000    0.000    0.000 
#
# Total GULP energy -78493.365429 kJ/mol
# GULP energy per Si atom -5606.668959 kJ/mol
# Density = 2.551160 g / cm^3
# Si number density = 25.569800 Si / 1000 Ang^3
#
#
#
# Elastic Constant Matrix: (Units=GPa)
#
#
# Indices 1 2 3 4 5 6 
#
# 1 52.2053 23.9025 24.9506 -8.5689 9.9094 -18.7979
# 2 23.9025 142.3810 61.2737 -28.7368 16.9203 -13.1872
# 3 24.9506 61.2737 156.3201 -25.6265 13.2277 -6.3682
# 4 -8.5689 -28.7368 -25.6265 64.5703 -11.6065 3.7993
# 5 9.9094 16.9203 13.2277 -11.6065 38.6134 -6.9796
# 6 -18.7979 -13.1872 -6.3682 3.7993 -6.9796 38.7817
#
#
#
# Elastic Compliance Matrix: (Units=1/GPa)
#
#
# Indices 1 2 3 4 5 6 
#
# 1 0.025766 -0.001740 -0.002676 0.000432 -0.002832 0.010906
# 2 -0.001740 0.009330 -0.002782 0.002431 -0.001719 0.001325
# 3 -0.002676 -0.002782 0.008184 0.001611 -0.000625 -0.001169
# 4 0.000432 0.002431 0.001611 0.017918 0.003696 0.000210
# 5 -0.002832 -0.001719 -0.000625 0.003696 0.029215 0.002836
# 6 0.010906 0.001325 -0.001169 0.000210 0.002836 0.031820
#
#
# Mechanical properties :
#
#
# Convention : Reuss Voigt Hill
#
# Bulk Modulus (GPa) = 34.61952 63.46222 49.04087
# Shear Modulus (GPa) = 34.18651 44.44504 39.31577
#
# Velocity S-wave (km/s) = 3.66045 4.17368 3.92546
# Velocity P-wave (km/s) = 5.60659 6.93536 6.30607
#
# Compressibility (1/GPa) = 0.02888544
#
# Stress axis : x y z
#
# Youngs Moduli (GPa) = 38.81050 107.17962 122.19057
#
# Poissons Ratio (x) = 0.18651 0.32695
# Poissons Ratio (y) = 0.06754 0.33988
# Poissons Ratio (z) = 0.10385 0.29813
#
# Static dielectric constant tensor:
#      x y z
#    x 2.038360 -0.001910 -0.016110 
#    y -0.001910 1.959800 -0.023040 
#    z -0.016110 -0.023040 2.091660 
# 
# From -- ./inp_files/462319.got.cif
#   From: 2010.05.17/outbox.cif.g08.bks.cpg/sg2_232_cif.got.tgz:462319.got - 2010.06.03 11:33:40.
