data_PCOD9058817
_publ_section_title
;
Structure prediction by ZEFSAII (Michael W. Deem and Ramdas Pophale) SiO2 
 PCOD9058817
Probable space group: P -1
;
_chemical_formula_sum "Si O2"
_cell_formula_units_Z 12
_cell_length_a 11.279468
_cell_length_b 9.481327
_cell_length_c 11.770301
_cell_angle_alpha 58.353131
_cell_angle_beta 122.465558
_cell_angle_gamma 74.974771
_cell_volume 594.858126
_symmetry_space_group_name_H-M "P -1"
_symmetry_group_IT_number 2
_symmetry_cell_setting 'triclinic'
loop_
_space_group_symop_operation_xyz
x,y,z
-x,-y,-z
loop_
_atom_site_type_symbol
_atom_site_label
_atom_site_fract_x
_atom_site_fract_y
_atom_site_fract_z
Si Si1 0.199013 0.263413 0.124721
Si Si2 0.396934 0.854993 0.569850
Si Si3 0.023793 0.473621 0.698289
Si Si4 0.597024 0.384281 0.972696
Si Si5 0.297097 0.093832 0.803261
Si Si6 0.977192 0.195003 0.346051
O O1 0.397819 0.216930 0.257166
O O2 0.304918 0.003518 0.340912
O O3 0.095930 0.340347 0.913856
O O4 0.000000 0.500000 0.000000
O O5 0.450236 0.612594 0.711291
O O6 0.201131 0.056481 0.470860
O O7 0.119069 0.276017 0.731995
O O8 0.785814 0.729570 0.423546
O O9 0.113294 0.584188 0.709569
O O10 0.500000 0.500000 0.000000
O O11 0.816324 0.294044 0.121308
O O12 0.649877 0.144865 0.089388
O O13 0.500000 0.000000 0.000000
O O14 0.000000 0.000000 0.500000
#
# Coordination Sequence:
#
# PCOD9058817 Si02
#       6
#     2   2   2   2   2   2
#     4  11  23  41  65  96 132 171 219 268 315 392
#     4  11  23  36  66 101 125 167 221 267 325 375
#     4  11  23  41  62  96 130 170 210 266 330 381
#     4  12  22  38  65  96 131 167 215 271 321 382
#     4  11  26  39  62  96 136 171 210 268 334 386
#     4  12  21  37  66  98 130 162 215 276 322 380
#
# _framework density 20.172875999999999
#
# number of rings (size 3 to 8) (size 9 to 14) (size 15 to 20)
#    0.000    0.667    6.667    1.000    2.333    0.000 
#    0.000    0.833    0.000    5.000    0.000    0.000 
#    0.000    0.000    0.000    0.000    0.000    0.000 
#
# Total GULP energy -66858.945078 kJ/mol
# GULP energy per Si atom -5571.578757 kJ/mol
# Density = 2.012696 g / cm^3
# Si number density = 20.172876 Si / 1000 Ang^3
#
#
#
# Elastic Constant Matrix: (Units=GPa)
#
#
# Indices 1 2 3 4 5 6 
#
# 1 81.0294 27.8288 52.2802 -4.6798 -0.5934 -1.4416
# 2 27.8288 113.8638 56.8354 -15.3723 -7.3281 6.6849
# 3 52.2802 56.8354 195.1558 8.6043 -37.5713 2.0652
# 4 -4.6798 -15.3723 8.6043 44.7744 3.8063 -7.1445
# 5 -0.5934 -7.3281 -37.5713 3.8063 59.5031 2.6265
# 6 -1.4416 6.6849 2.0652 -7.1445 2.6265 25.2684
#
#
#
# Elastic Compliance Matrix: (Units=1/GPa)
#
#
# Indices 1 2 3 4 5 6 
#
# 1 0.016055 -0.001635 -0.004600 0.002729 -0.003245 0.002833
# 2 -0.001635 0.011384 -0.003206 0.004173 -0.000836 -0.001576
# 3 -0.004600 -0.003206 0.008494 -0.003943 0.005253 -0.001769
# 4 0.002729 0.004173 -0.003943 0.026298 -0.003949 0.007220
# 5 -0.003245 -0.000836 0.005253 -0.003949 0.020400 -0.003630
# 6 0.002833 -0.001576 -0.001769 0.007220 -0.003630 0.042717
#
#
# Mechanical properties :
#
#
# Convention : Reuss Voigt Hill
#
# Bulk Modulus (GPa) = 58.64356 73.77088 66.20722
# Shear Modulus (GPa) = 33.35287 42.78283 38.06785
#
# Velocity S-wave (km/s) = 4.07055 4.61022 4.34877
# Velocity P-wave (km/s) = 7.15725 8.06149 7.62279
#
# Compressibility (1/GPa) = 0.01705217
#
# Stress axis : x y z
#
# Youngs Moduli (GPa) = 62.28711 87.84060 117.73280
#
# Poissons Ratio (x) = 0.14358 0.54156
# Poissons Ratio (y) = 0.10181 0.37743
# Poissons Ratio (z) = 0.28652 0.28160
#
# Static dielectric constant tensor:
#      x y z
#    x 1.785440 -0.034860 0.029930 
#    y -0.034860 1.724260 -0.017980 
#    z 0.029930 -0.017980 1.861770 
# 
# From -- ./inp_files/416642.got.cif
#   From: 2010.05.17/outbox.cif.g08.bks.cpg/sg2_209_cif.got.tgz:416642.got - 2010.06.03 11:33:40.
