data_PCOD9058362
_publ_section_title
;
Structure prediction by ZEFSAII (Michael W. Deem and Ramdas Pophale) SiO2 
 PCOD9058362
Probable space group: P -1
;
_chemical_formula_sum "Si O2"
_cell_formula_units_Z 14
_cell_length_a 8.689397
_cell_length_b 11.156092
_cell_length_c 11.150221
_cell_angle_alpha 36.222176
_cell_angle_beta 109.040888
_cell_angle_gamma 90.189899
_cell_volume 534.453322
_symmetry_space_group_name_H-M "P -1"
_symmetry_group_IT_number 2
_symmetry_cell_setting 'triclinic'
loop_
_space_group_symop_operation_xyz
x,y,z
-x,-y,-z
loop_
_atom_site_type_symbol
_atom_site_label
_atom_site_fract_x
_atom_site_fract_y
_atom_site_fract_z
Si Si1 0.137916 0.392969 0.363470
Si Si2 0.180087 0.258893 0.734167
Si Si3 0.848462 0.976313 0.639139
Si Si4 0.533035 0.749815 0.618745
Si Si5 0.166267 0.623729 0.847469
Si Si6 0.478549 0.427025 0.692682
Si Si7 0.875354 0.129666 0.005584
O O1 0.195625 0.219579 0.627269
O O2 0.298996 0.270850 0.405218
O O3 0.124896 0.630405 0.218096
O O4 0.937905 0.453189 0.214463
O O5 0.347473 0.308965 0.769687
O O6 0.000000 0.500000 0.500000
O O7 0.152514 0.046279 0.949124
O O8 0.644528 0.010968 0.585971
O O9 0.812883 0.170129 0.375091
O O10 0.009701 0.739865 0.817479
O O11 0.948409 0.005707 0.758137
O O12 0.434199 0.636423 0.600740
O O13 0.644309 0.572171 0.896092
O O14 0.500000 0.500000 0.500000
O O15 0.680656 0.243834 0.932325
#
# Coordination Sequence:
#
# PCOD9058362 Si02
#       7
#     2   2   2   2   2   2   2
#     4  11  24  46  70  99 146 182 230 296 344 414
#     4  12  25  46  72 102 140 185 235 290 351 415
#     4  11  23  42  72 105 137 189 233 281 355 421
#     4  11  23  43  72 101 144 182 232 288 349 413
#     4  11  23  45  70 102 148 178 233 293 347 413
#     4  11  22  45  71 100 143 183 230 295 346 411
#     4  11  23  46  70 100 140 184 235 281 355 408
#
# _framework density 26.194991999999999
#
# number of rings (size 3 to 8) (size 9 to 14) (size 15 to 20)
#    0.000    0.857    7.143    2.143    0.000    1.143 
#    2.571    0.000    0.000    0.000    0.000    0.000 
#    0.000    0.000    0.000    0.000    0.000    0.000 
#
# Total GULP energy -78237.164735 kJ/mol
# GULP energy per Si atom -5588.368910 kJ/mol
# Density = 2.613537 g / cm^3
# Si number density = 26.194992 Si / 1000 Ang^3
#
#
#
# Elastic Constant Matrix: (Units=GPa)
#
#
# Indices 1 2 3 4 5 6 
#
# 1 118.8020 33.8170 42.2256 -2.4452 32.6926 19.6701
# 2 33.8170 57.0998 16.8466 -11.9711 1.1935 18.6175
# 3 42.2256 16.8466 108.1160 -8.7739 19.3664 -4.9791
# 4 -2.4452 -11.9711 -8.7739 50.3910 6.6112 7.1487
# 5 32.6926 1.1935 19.3664 6.6112 62.4056 -3.9732
# 6 19.6701 18.6175 -4.9791 7.1487 -3.9732 53.7188
#
#
#
# Elastic Compliance Matrix: (Units=1/GPa)
#
#
# Indices 1 2 3 4 5 6 
#
# 1 0.013598 -0.005635 -0.003496 0.000065 -0.006181 -0.003816
# 2 -0.005635 0.025108 -0.001902 0.006170 0.001931 -0.007493
# 3 -0.003496 -0.001902 0.011426 0.001196 -0.001631 0.002718
# 4 0.000065 0.006170 0.001196 0.022704 -0.003267 -0.005314
# 5 -0.006181 0.001931 -0.001631 -0.003267 0.020293 0.003378
# 6 -0.003816 -0.007493 0.002718 -0.005314 0.003378 0.023819
#
#
# Mechanical properties :
#
#
# Convention : Reuss Voigt Hill
#
# Bulk Modulus (GPa) = 35.63080 52.19959 43.91519
# Shear Modulus (GPa) = 33.70003 46.04499 39.87251
#
# Velocity S-wave (km/s) = 3.59068 4.19713 3.90570
# Velocity P-wave (km/s) = 5.55179 6.59231 6.09429
#
# Compressibility (1/GPa) = 0.02806560
#
# Stress axis : x y z
#
# Youngs Moduli (GPa) = 73.54057 39.82842 87.52238
#
# Poissons Ratio (x) = 0.22443 0.30599
# Poissons Ratio (y) = 0.41439 0.16646
# Poissons Ratio (z) = 0.25711 0.07575
#
# Static dielectric constant tensor:
#      x y z
#    x 2.090230 -0.018170 -0.063750 
#    y -0.018170 2.343180 0.007210 
#    z -0.063750 0.007210 2.036130 
# 
# From -- ./inp_files/388874.got.cif
#   From: 2010.05.17/outbox.cif.g08.bks.cpg/sg2_195_cif.got.tgz:388874.got - 2010.06.03 11:33:40.
