data_PCOD9058401
_publ_section_title
;
Structure prediction by ZEFSAII (Michael W. Deem and Ramdas Pophale) SiO2 
 PCOD9058401
Probable space group: P -1
;
_chemical_formula_sum "Si O2"
_cell_formula_units_Z 16
_cell_length_a 14.798216
_cell_length_b 11.683542
_cell_length_c 17.454329
_cell_angle_alpha 31.401183
_cell_angle_beta 30.783535
_cell_angle_gamma 33.550111
_cell_volume 745.844217
_symmetry_space_group_name_H-M "P -1"
_symmetry_group_IT_number 2
_symmetry_cell_setting 'triclinic'
loop_
_space_group_symop_operation_xyz
x,y,z
-x,-y,-z
loop_
_atom_site_type_symbol
_atom_site_label
_atom_site_fract_x
_atom_site_fract_y
_atom_site_fract_z
Si Si1 0.305203 0.063685 0.057099
Si Si2 0.046760 0.810303 0.642900
Si Si3 0.584816 0.172490 0.379926
Si Si4 0.023797 0.999655 0.892036
Si Si5 0.354754 0.965831 0.409037
Si Si6 0.139650 0.443985 0.338518
Si Si7 0.766269 0.732557 0.168199
Si Si8 0.743877 0.405801 0.681071
O O1 0.135134 0.137039 0.200288
O O2 0.297860 0.831777 0.151833
O O3 0.265180 0.256047 0.907868
O O4 0.500000 0.000000 0.000000
O O5 0.215321 0.853092 0.539842
O O6 0.124250 0.531197 0.727956
O O7 0.000000 0.000000 0.500000
O O8 0.768459 0.149642 0.208669
O O9 0.641958 0.082979 0.474995
O O10 0.412208 0.425967 0.359610
O O11 0.500000 0.000000 0.500000
O O12 0.966590 0.278237 0.758177
O O13 0.884416 0.891742 0.015396
O O14 0.000000 0.000000 0.000000
O O15 0.560849 0.844843 0.292186
O O16 0.273043 0.250912 0.293091
O O17 0.272025 0.451391 0.309744
O O18 0.964886 0.354786 0.529880
#
# Coordination Sequence:
#
# PCOD9058401 Si02
#       8
#     2   2   2   2   2   2   2   2
#     4  12  27  48  73 107 145 191 234 310 365 410
#     4  12  29  51  75 100 139 198 249 291 351 440
#     4  12  23  42  70 105 137 190 230 282 355 436
#     4  12  27  43  69 105 149 182 230 306 363 416
#     4  12  26  45  77  99 141 190 241 292 351 438
#     4  11  22  45  72 105 140 188 239 289 356 433
#     4  12  29  49  68 111 146 183 243 305 364 416
#     4  11  23  42  74 103 143 184 245 285 355 442
#
# _framework density 21.452200999999999
#
# number of rings (size 3 to 8) (size 9 to 14) (size 15 to 20)
#    0.000    0.250    5.000    3.750    7.000    1.500 
#    0.000    0.000    0.000    0.000    0.000    0.000 
#    0.000    0.000    0.000    0.000    0.000    0.000 
#
# Total GULP energy -89426.452868 kJ/mol
# GULP energy per Si atom -5589.153304 kJ/mol
# Density = 2.140337 g / cm^3
# Si number density = 21.452201 Si / 1000 Ang^3
#
#
#
# Elastic Constant Matrix: (Units=GPa)
#
#
# Indices 1 2 3 4 5 6 
#
# 1 103.2903 -0.1336 50.6267 13.6805 -8.2303 -15.6217
# 2 -0.1336 91.2017 43.9245 9.6889 -5.7382 -7.4360
# 3 50.6267 43.9245 96.6709 19.2085 -12.6841 -3.9405
# 4 13.6805 9.6889 19.2085 56.4429 -4.1671 2.7567
# 5 -8.2303 -5.7382 -12.6841 -4.1671 47.7636 1.4481
# 6 -15.6217 -7.4360 -3.9405 2.7567 1.4481 26.9755
#
#
#
# Elastic Compliance Matrix: (Units=1/GPa)
#
#
# Indices 1 2 3 4 5 6 
#
# 1 0.016789 0.006275 -0.010809 -0.001937 0.000303 0.010055
# 2 0.006275 0.016632 -0.010324 -0.001194 0.000026 0.006831
# 3 -0.010809 -0.010324 0.021256 -0.002368 0.002514 -0.005894
# 4 -0.001937 -0.001194 -0.002368 0.019436 0.000705 -0.003821
# 5 0.000303 0.000026 0.002514 0.000705 0.021742 -0.000689
# 6 0.010055 0.006831 -0.005894 -0.003821 -0.000689 0.044343
#
#
# Mechanical properties :
#
#
# Convention : Reuss Voigt Hill
#
# Bulk Modulus (GPa) = 40.06311 53.33313 46.69812
# Shear Modulus (GPa) = 28.05285 39.35275 33.70280
#
# Velocity S-wave (km/s) = 3.62012 4.28768 3.96797
# Velocity P-wave (km/s) = 6.01580 7.03048 6.54284
#
# Compressibility (1/GPa) = 0.02496062
#
# Stress axis : x y z
#
# Youngs Moduli (GPa) = 59.56278 60.12620 47.04454
#
# Poissons Ratio (x) = -0.37730 0.50852
# Poissons Ratio (y) = -0.37377 0.48569
# Poissons Ratio (z) = 0.64383 0.62075
#
# Static dielectric constant tensor:
#      x y z
#    x 1.848440 -0.073970 0.093480 
#    y -0.073970 1.822170 -0.066190 
#    z 0.093480 -0.066190 1.797900 
# 
# From -- ./inp_files/573333.got.cif
#   From: 2010.05.17/outbox.cif.g08.bks.cpg/sg2_287_cif.got.tgz:573333.got - 2010.06.03 11:33:40.
