data_PCOD9058572
_publ_section_title
;
Structure prediction by ZEFSAII (Michael W. Deem and Ramdas Pophale) SiO2 
 PCOD9058572
Probable space group: P -1
;
_chemical_formula_sum "Si O2"
_cell_formula_units_Z 16
_cell_length_a 18.165382
_cell_length_b 11.914327
_cell_length_c 9.507363
_cell_angle_alpha 103.145366
_cell_angle_beta 142.697115
_cell_angle_gamma 48.458808
_cell_volume 699.917791
_symmetry_space_group_name_H-M "P -1"
_symmetry_group_IT_number 2
_symmetry_cell_setting 'triclinic'
loop_
_space_group_symop_operation_xyz
x,y,z
-x,-y,-z
loop_
_atom_site_type_symbol
_atom_site_label
_atom_site_fract_x
_atom_site_fract_y
_atom_site_fract_z
Si Si1 0.918964 0.001723 0.237863
Si Si2 0.176220 0.226812 0.321640
Si Si3 0.880795 0.775202 0.090006
Si Si4 0.475548 0.373045 0.600778
Si Si5 0.739871 0.641933 0.917741
Si Si6 0.345946 0.338604 0.663911
Si Si7 0.803529 0.197020 0.666916
Si Si8 0.469492 0.814505 0.801561
O O1 0.835385 0.937230 0.122762
O O2 0.718675 0.221422 0.927226
O O3 0.000000 0.000000 0.500000
O O4 0.102264 0.849779 0.357701
O O5 0.295266 0.255799 0.490872
O O6 0.315501 0.031249 0.566925
O O7 0.124643 0.218555 0.086696
O O8 0.961412 0.423360 0.133591
O O9 0.118724 0.559619 0.434144
O O10 0.736251 0.781113 0.920710
O O11 0.433725 0.297804 0.413059
O O12 0.427168 0.366398 0.682566
O O13 0.312791 0.601708 0.388981
O O14 0.689060 0.660024 0.008103
O O15 0.495045 0.203826 0.984370
O O16 0.633500 0.227942 0.402115
O O17 0.000000 0.000000 0.000000
#
# Coordination Sequence:
#
# PCOD9058572 Si02
#       8
#     2   2   2   2   2   2   2   2
#     4  12  28  45  71 106 138 190 238 293 352 416
#     4  11  22  46  72 104 143 184 231 296 352 423
#     4  11  22  46  77 100 146 181 241 297 343 429
#     4  12  24  46  78 101 135 195 246 281 350 436
#     4  11  23  44  75 107 133 188 239 288 358 420
#     4  11  23  45  71 105 144 182 229 300 359 411
#     4  12  27  51  69 102 150 188 238 294 349 428
#     4  12  28  41  68 108 151 180 231 299 359 417
#
# _framework density 22.859826999999999
#
# number of rings (size 3 to 8) (size 9 to 14) (size 15 to 20)
#    0.000    0.500    3.750    4.875    3.500    7.000 
#    4.500    0.000    0.000    0.000    0.000    0.000 
#    0.000    0.000    0.000    0.000    0.000    0.000 
#
# Total GULP energy -89645.801478 kJ/mol
# GULP energy per Si atom -5602.862592 kJ/mol
# Density = 2.280780 g / cm^3
# Si number density = 22.859827 Si / 1000 Ang^3
#
#
#
# Elastic Constant Matrix: (Units=GPa)
#
#
# Indices 1 2 3 4 5 6 
#
# 1 72.2641 28.3922 26.0811 0.3976 -3.3715 -0.2954
# 2 28.3922 120.0937 41.6779 2.1478 4.4288 15.8068
# 3 26.0811 41.6779 79.7324 -3.0103 -7.1811 11.2973
# 4 0.3976 2.1478 -3.0103 33.5025 -2.0116 -3.2851
# 5 -3.3715 4.4288 -7.1811 -2.0116 34.6302 -3.5288
# 6 -0.2954 15.8068 11.2973 -3.2851 -3.5288 27.4030
#
#
#
# Elastic Compliance Matrix: (Units=1/GPa)
#
#
# Indices 1 2 3 4 5 6 
#
# 1 0.016657 -0.003023 -0.004280 0.000085 0.001522 0.003894
# 2 -0.003023 0.011525 -0.004642 -0.001856 -0.003392 -0.005426
# 3 -0.004280 -0.004642 0.017291 0.001734 0.003472 -0.003842
# 4 0.000085 -0.001856 0.001734 0.030725 0.002839 0.004405
# 5 0.001522 -0.003392 0.003472 0.002839 0.030838 0.004853
# 6 0.003894 -0.005426 -0.003842 0.004405 0.004853 0.042401
#
#
# Mechanical properties :
#
#
# Convention : Reuss Voigt Hill
#
# Bulk Modulus (GPa) = 46.33295 51.59917 48.96606
# Shear Modulus (GPa) = 27.69759 30.83640 29.26699
#
# Velocity S-wave (km/s) = 3.48462 3.67677 3.58198
# Velocity P-wave (km/s) = 6.04172 6.37541 6.21081
#
# Compressibility (1/GPa) = 0.02158291
#
# Stress axis : x y z
#
# Youngs Moduli (GPa) = 60.03497 86.76800 57.83326
#
# Poissons Ratio (x) = 0.26229 0.24752
# Poissons Ratio (y) = 0.18148 0.26848
# Poissons Ratio (z) = 0.25694 0.40280
#
# Static dielectric constant tensor:
#      x y z
#    x 1.854710 0.004920 0.026760 
#    y 0.004920 1.845960 -0.027810 
#    z 0.026760 -0.027810 1.831220 
# 
# From -- ./inp_files/282769.got.cif
#   From: 2010.05.17/outbox.cif.g08.bks.cpg/sg2_142_cif.got.tgz:282769.got - 2010.06.03 11:33:40.
