data_PCOD9058675
_publ_section_title
;
Structure prediction by ZEFSAII (Michael W. Deem and Ramdas Pophale) SiO2 
 PCOD9058675
Probable space group: P -1
;
_chemical_formula_sum "Si O2"
_cell_formula_units_Z 14
_cell_length_a 9.232499
_cell_length_b 26.148614
_cell_length_c 10.229482
_cell_angle_alpha 35.951357
_cell_angle_beta 46.119303
_cell_angle_gamma 28.104906
_cell_volume 681.066966
_symmetry_space_group_name_H-M "P -1"
_symmetry_group_IT_number 2
_symmetry_cell_setting 'triclinic'
loop_
_space_group_symop_operation_xyz
x,y,z
-x,-y,-z
loop_
_atom_site_type_symbol
_atom_site_label
_atom_site_fract_x
_atom_site_fract_y
_atom_site_fract_z
Si Si1 0.635569 0.440950 0.183497
Si Si2 0.366148 0.806105 0.487753
Si Si3 0.324642 0.288356 0.047640
Si Si4 0.724625 0.970329 0.818731
Si Si5 0.673445 0.002493 0.488560
Si Si6 0.573495 0.323978 0.034995
Si Si7 0.653209 0.646860 0.391223
O O1 0.564157 0.366248 0.426851
O O2 0.992661 0.351764 0.140532
O O3 0.500000 0.500000 0.000000
O O4 0.470762 0.561134 0.138848
O O5 0.517704 0.697904 0.729911
O O6 0.568134 0.741596 0.364720
O O7 0.279876 0.926382 0.356221
O O8 0.039261 0.871376 0.519553
O O9 0.575811 0.133674 0.251057
O O10 0.371176 0.354230 0.979893
O O11 0.371291 0.302926 0.839588
O O12 0.069525 0.818066 0.921342
O O13 0.598362 0.002723 0.683909
O O14 0.500000 0.000000 0.000000
O O15 0.500000 0.000000 0.500000
O O16 0.000000 0.500000 0.500000
#
# Coordination Sequence:
#
# PCOD9058675 Si02
#       7
#     2   2   2   2   2   2   2
#     4  12  25  45  71  97 133 181 228 278 341 396
#     4  11  22  47  68  94 139 176 219 274 342 406
#     4  12  25  46  69 101 138 176 231 281 338 402
#     4  11  25  42  70 103 135 178 223 276 338 407
#     4  11  24  42  69 101 136 176 221 278 341 399
#     4  11  23  47  69  95 137 181 219 279 344 398
#     4  12  27  43  71 102 132 182 232 277 337 403
#
# _framework density 20.555980000000002
#
# number of rings (size 3 to 8) (size 9 to 14) (size 15 to 20)
#    0.000    0.571    5.714    2.143    6.000    3.429 
#    0.000    0.000    0.000    0.000    0.000    0.000 
#    0.000    0.000    0.000    0.000    0.000    0.000 
#
# Total GULP energy -78331.174095 kJ/mol
# GULP energy per Si atom -5595.083864 kJ/mol
# Density = 2.050919 g / cm^3
# Si number density = 20.555980 Si / 1000 Ang^3
#
#
#
# Elastic Constant Matrix: (Units=GPa)
#
#
# Indices 1 2 3 4 5 6 
#
# 1 112.6311 40.7824 12.8234 23.5321 15.4634 12.6312
# 2 40.7824 96.4565 37.2402 15.9369 14.6147 21.5660
# 3 12.8234 37.2402 87.3338 25.5120 15.3669 -3.1000
# 4 23.5321 15.9369 25.5120 29.5104 8.7470 -4.1228
# 5 15.4634 14.6147 15.3669 8.7470 41.3207 -3.7207
# 6 12.6312 21.5660 -3.1000 -4.1228 -3.7207 31.7573
#
#
#
# Elastic Compliance Matrix: (Units=1/GPa)
#
#
# Indices 1 2 3 4 5 6 
#
# 1 0.012920 -0.003506 0.003117 -0.010849 -0.002835 -0.004194
# 2 -0.003506 0.017801 -0.006325 -0.002049 -0.003275 -0.011961
# 3 0.003117 -0.006325 0.018239 -0.013692 -0.002566 0.002758
# 4 -0.010849 -0.002049 -0.013692 0.057481 -0.001239 0.011688
# 5 -0.002835 -0.003275 -0.002566 -0.001239 0.028199 0.006244
# 6 -0.004194 -0.011961 0.002758 0.011688 0.006244 0.043798
#
#
# Mechanical properties :
#
#
# Convention : Reuss Voigt Hill
#
# Bulk Modulus (GPa) = 28.14453 53.12369 40.63411
# Shear Modulus (GPa) = 24.54483 34.22272 29.38377
#
# Velocity S-wave (km/s) = 3.45925 4.08469 3.78491
# Velocity P-wave (km/s) = 5.44762 6.93872 6.23788
#
# Compressibility (1/GPa) = 0.03553088
#
# Stress axis : x y z
#
# Youngs Moduli (GPa) = 77.40237 56.17648 54.82817
#
# Poissons Ratio (x) = 0.19697 -0.17092
# Poissons Ratio (y) = 0.27139 0.34681
# Poissons Ratio (z) = -0.24129 0.35534
#
# Static dielectric constant tensor:
#      x y z
#    x 1.756500 0.022950 -0.043670 
#    y 0.022950 1.742260 -0.018020 
#    z -0.043670 -0.018020 1.731790 
# 
# From -- ./inp_files/172609.got.cif
#   From: 2010.05.17/outbox.cif.g08.bks.cpg/sg2_87_cif.got.tgz:172609.got - 2010.06.03 11:33:40.
