data_PCOD9058772
_publ_section_title
;
Structure prediction by ZEFSAII (Michael W. Deem and Ramdas Pophale) SiO2 
 PCOD9058772
Probable space group: P -1
;
_chemical_formula_sum "Si O2"
_cell_formula_units_Z 16
_cell_length_a 10.905840
_cell_length_b 13.365742
_cell_length_c 5.178054
_cell_angle_alpha 117.950928
_cell_angle_beta 109.367561
_cell_angle_gamma 66.581670
_cell_volume 601.896541
_symmetry_space_group_name_H-M "P -1"
_symmetry_group_IT_number 2
_symmetry_cell_setting 'triclinic'
loop_
_space_group_symop_operation_xyz
x,y,z
-x,-y,-z
loop_
_atom_site_type_symbol
_atom_site_label
_atom_site_fract_x
_atom_site_fract_y
_atom_site_fract_z
Si Si1 0.391288 0.124553 0.525250
Si Si2 0.196133 0.797870 0.089474
Si Si3 0.509332 0.191895 0.172117
Si Si4 0.948412 0.359175 0.484091
Si Si5 0.861630 0.806027 0.224856
Si Si6 0.796785 0.608238 0.587810
Si Si7 0.191023 0.949122 0.773745
Si Si8 0.505041 0.367988 0.766729
O O1 0.241389 0.134929 0.537969
O O2 0.342056 0.378507 0.648494
O O3 0.500000 0.000000 0.500000
O O4 0.439645 0.205098 0.865298
O O5 0.168632 0.872921 0.422377
O O6 0.357209 0.721359 0.111848
O O7 0.112555 0.705710 0.858375
O O8 0.157114 0.895208 0.950418
O O9 0.421345 0.155715 0.294597
O O10 0.645706 0.084428 0.134515
O O11 0.537610 0.312747 0.430792
O O12 0.838088 0.483094 0.613168
O O13 0.998243 0.267843 0.638861
O O14 0.084513 0.389841 0.527820
O O15 0.865669 0.913413 0.170095
O O16 0.807665 0.709382 0.918170
O O17 0.500000 0.500000 0.000000
#
# Coordination Sequence:
#
# PCOD9058772 Si02
#       8
#     2   2   2   2   2   2   2   2
#     4  12  24  41  73 110 158 199 260 324 398 477
#     4  11  27  52  78 121 159 215 265 341 397 498
#     4  11  23  43  67 112 156 198 254 326 398 482
#     4  11  27  49  83 110 166 213 284 330 405 484
#     4  12  27  45  78 117 163 220 265 339 410 493
#     4  11  25  52  78 120 159 213 280 341 404 487
#     4  11  27  46  76 114 165 207 270 324 414 477
#     4  11  22  48  80 113 160 208 272 340 416 473
#
# _framework density 26.582639
#
# number of rings (size 3 to 8) (size 9 to 14) (size 15 to 20)
#    0.000    0.750    3.750    3.000    3.500    1.000 
#    0.000    7.500    0.000    0.000    0.000    0.000 
#    0.000    0.000    0.000    0.000    0.000    0.000 
#
# Total GULP energy -89488.318881 kJ/mol
# GULP energy per Si atom -5593.019930 kJ/mol
# Density = 2.652214 g / cm^3
# Si number density = 26.582639 Si / 1000 Ang^3
#
#
#
# Elastic Constant Matrix: (Units=GPa)
#
#
# Indices 1 2 3 4 5 6 
#
# 1 94.8481 37.2727 42.6450 -17.2720 20.6903 -1.9084
# 2 37.2727 226.2597 64.1157 -10.5775 17.4653 -12.2472
# 3 42.6450 64.1157 141.8308 -14.4950 32.7878 -5.3274
# 4 -17.2720 -10.5775 -14.4950 54.6926 6.7510 9.7163
# 5 20.6903 17.4653 32.7878 6.7510 50.5543 -0.7407
# 6 -1.9084 -12.2472 -5.3274 9.7163 -0.7407 18.1226
#
#
#
# Elastic Compliance Matrix: (Units=1/GPa)
#
#
# Indices 1 2 3 4 5 6 
#
# 1 0.013752 -0.001234 -0.002189 0.004540 -0.004427 -0.002645
# 2 -0.001234 0.005328 -0.001978 -0.000446 0.000053 0.003131
# 3 -0.002189 -0.001978 0.010040 0.002238 -0.005232 -0.000029
# 4 0.004540 -0.000446 0.002238 0.023117 -0.006416 -0.011822
# 5 -0.004427 0.000053 -0.005232 -0.006416 0.025862 0.002528
# 6 -0.002645 0.003131 -0.000029 -0.011822 0.002528 0.063449
#
#
# Mechanical properties :
#
#
# Convention : Reuss Voigt Hill
#
# Bulk Modulus (GPa) = 54.58996 83.44504 69.01750
# Shear Modulus (GPa) = 31.55482 45.93425 38.74453
#
# Velocity S-wave (km/s) = 3.44909 4.16141 3.82188
# Velocity P-wave (km/s) = 6.03673 7.38571 6.74503
#
# Compressibility (1/GPa) = 0.01831839
#
# Stress axis : x y z
#
# Youngs Moduli (GPa) = 72.71864 187.68881 99.60347
#
# Poissons Ratio (x) = 0.23167 0.21800
# Poissons Ratio (y) = 0.08976 0.19697
# Poissons Ratio (z) = 0.15915 0.37117
#
# Static dielectric constant tensor:
#      x y z
#    x 2.320230 0.047630 0.058200 
#    y 0.047630 2.179890 0.032310 
#    z 0.058200 0.032310 2.066510 
# 
# From -- ./inp_files/81002.got.cif
#   From: 2010.05.17/outbox.cif.g08.bks.cpg/sg2_41_cif.got.tgz:81002.got - 2010.06.03 11:33:40.
