data_PCOD9058086
_publ_section_title
;
Structure prediction by ZEFSAII (Michael W. Deem and Ramdas Pophale) SiO2 
 PCOD9058086
Probable space group: P -1
;
_chemical_formula_sum "Si O2"
_cell_formula_units_Z 16
_cell_length_a 14.241093
_cell_length_b 18.935570
_cell_length_c 9.280933
_cell_angle_alpha 53.848313
_cell_angle_beta 126.622693
_cell_angle_gamma 158.643588
_cell_volume 726.415731
_symmetry_space_group_name_H-M "P -1"
_symmetry_group_IT_number 2
_symmetry_cell_setting 'triclinic'
loop_
_space_group_symop_operation_xyz
x,y,z
-x,-y,-z
loop_
_atom_site_type_symbol
_atom_site_label
_atom_site_fract_x
_atom_site_fract_y
_atom_site_fract_z
Si Si1 0.882932 0.650876 0.343905
Si Si2 0.377124 0.092075 0.373757
Si Si3 0.626972 0.181851 0.741768
Si Si4 0.935698 0.781729 0.958375
Si Si5 0.535186 0.516359 0.684337
Si Si6 0.494954 0.893093 0.944286
Si Si7 0.287817 0.221767 0.036685
Si Si8 0.118928 0.623411 0.669263
O O1 0.626480 0.511673 0.359705
O O2 0.966742 0.611395 0.516397
O O3 0.862463 0.650562 0.152924
O O4 0.112870 0.872264 0.337005
O O5 0.413112 0.099098 0.566400
O O6 0.413559 0.216778 0.214436
O O7 0.623280 0.205453 0.397675
O O8 0.918864 0.412199 0.705593
O O9 0.581368 0.051721 0.806935
O O10 0.579714 0.159482 0.894707
O O11 0.828499 0.709271 0.784749
O O12 0.771425 0.746965 0.931286
O O13 0.249986 0.995591 0.989735
O O14 0.500000 0.500000 0.500000
O O15 0.413498 0.350654 0.855857
O O16 0.246277 0.703941 0.847220
O O17 0.000000 0.000000 0.000000
#
# Coordination Sequence:
#
# PCOD9058086 Si02
#       8
#     2   2   2   2   2   2   2   2
#     4  11  22  45  70  98 142 178 231 287 343 411
#     4  12  23  43  69 101 134 179 236 285 341 412
#     4  11  27  40  69 103 140 181 228 288 348 415
#     4  11  24  44  72  95 135 185 227 283 339 416
#     4  11  27  45  69 101 136 185 228 288 351 408
#     4  11  24  48  66 102 144 181 225 289 355 402
#     4  11  22  44  70  99 132 179 236 277 339 416
#     4  12  24  45  70 102 135 186 231 284 346 415
#
# _framework density 22.025953999999999
#
# number of rings (size 3 to 8) (size 9 to 14) (size 15 to 20)
#    0.000    0.750    5.000    3.375    7.000    0.000 
#    4.500    1.250    0.000    0.000    0.000    0.000 
#    0.000    0.000    0.000    0.000    0.000    0.000 
#
# Total GULP energy -89427.750890 kJ/mol
# GULP energy per Si atom -5589.234431 kJ/mol
# Density = 2.197582 g / cm^3
# Si number density = 22.025954 Si / 1000 Ang^3
#
#
#
# Elastic Constant Matrix: (Units=GPa)
#
#
# Indices 1 2 3 4 5 6 
#
# 1 45.2237 7.9998 33.6584 10.7129 5.2551 5.5597
# 2 7.9998 76.4714 23.3076 19.1938 5.6206 -11.5965
# 3 33.6584 23.3076 149.2839 30.6390 -4.4840 -7.6935
# 4 10.7129 19.1938 30.6390 36.4369 -4.1244 -1.0586
# 5 5.2551 5.6206 -4.4840 -4.1244 36.1044 6.2595
# 6 5.5597 -11.5965 -7.6935 -1.0586 6.2595 36.4057
#
#
#
# Elastic Compliance Matrix: (Units=1/GPa)
#
#
# Indices 1 2 3 4 5 6 
#
# 1 0.028731 -0.000738 -0.006016 -0.003642 -0.004319 -0.005257
# 2 -0.000738 0.016656 -0.000535 -0.008450 -0.004530 0.005838
# 3 -0.006016 -0.000535 0.009468 -0.005721 0.001065 0.002400
# 4 -0.003642 -0.008450 -0.005721 0.038371 0.006086 -0.003275
# 5 -0.004319 -0.004530 0.001065 0.006086 0.030844 -0.005684
# 6 -0.005257 0.005838 0.002400 -0.003275 -0.005684 0.031520
#
#
# Mechanical properties :
#
#
# Convention : Reuss Voigt Hill
#
# Bulk Modulus (GPa) = 24.82738 44.54563 34.68651
# Shear Modulus (GPa) = 27.23390 35.52362 31.37876
#
# Velocity S-wave (km/s) = 3.52013 4.02033 3.77852
# Velocity P-wave (km/s) = 5.27429 6.46675 5.90072
#
# Compressibility (1/GPa) = 0.04027811
#
# Stress axis : x y z
#
# Youngs Moduli (GPa) = 34.80550 60.03747 105.61468
#
# Poissons Ratio (x) = 0.04430 0.63537
# Poissons Ratio (y) = 0.02568 0.05651
# Poissons Ratio (z) = 0.20939 0.03212
#
# Static dielectric constant tensor:
#      x y z
#    x 1.843470 -0.029190 -0.020590 
#    y -0.029190 1.816240 0.032780 
#    z -0.020590 0.032780 1.878930 
# 
# From -- ./inp_files/246094.got.cif
#   From: 2010.05.17/outbox.cif.g08.bks.cpg/sg2_124_cif.got.tgz:246094.got - 2010.06.03 11:33:40.
