data_PCOD9058916
_publ_section_title
;
Structure prediction by ZEFSAII (Michael W. Deem and Ramdas Pophale) SiO2 
 PCOD9058916
Probable space group: P -1
;
_chemical_formula_sum "Si O2"
_cell_formula_units_Z 16
_cell_length_a 8.590447
_cell_length_b 9.167203
_cell_length_c 11.590571
_cell_angle_alpha 115.182600
_cell_angle_beta 116.609013
_cell_angle_gamma 63.954835
_cell_volume 702.828595
_symmetry_space_group_name_H-M "P -1"
_symmetry_group_IT_number 2
_symmetry_cell_setting 'triclinic'
loop_
_space_group_symop_operation_xyz
x,y,z
-x,-y,-z
loop_
_atom_site_type_symbol
_atom_site_label
_atom_site_fract_x
_atom_site_fract_y
_atom_site_fract_z
Si Si1 0.809046 0.969595 0.904562
Si Si2 0.833414 0.311707 0.633567
Si Si3 0.932888 0.593311 0.887563
Si Si4 0.481180 0.818863 0.959233
Si Si5 0.841684 0.982078 0.653526
Si Si6 0.671121 0.566652 0.100951
Si Si7 0.729388 0.174879 0.327671
Si Si8 0.260522 0.156340 0.650436
O O1 0.785962 0.959699 0.756919
O O2 0.824210 0.791425 0.910962
O O3 0.663373 0.129210 0.967144
O O4 0.000000 0.000000 0.000000
O O5 0.728749 0.299522 0.476001
O O6 0.818806 0.489023 0.746670
O O7 0.047853 0.234695 0.643903
O O8 0.798357 0.178017 0.667800
O O9 0.127731 0.567079 0.876477
O O10 0.000000 0.500000 0.000000
O O11 0.398242 0.753662 0.799235
O O12 0.658984 0.688184 0.026883
O O13 0.500000 0.000000 0.000000
O O14 0.740350 0.896579 0.499702
O O15 0.061237 0.898392 0.675550
O O16 0.651220 0.696837 0.244043
O O17 0.500000 0.500000 0.000000
O O18 0.674614 0.015595 0.309931
#
# Coordination Sequence:
#
# PCOD9058916 Si02
#       8
#     2   2   2   2   2   2   2   2
#     4  12  23  37  61  94 118 150 202 251 293 337
#     4   8  17  34  61  89 112 153 201 246 289 341
#     4  11  23  40  62  87 120 156 198 247 296 348
#     4  12  23  38  63  86 120 160 200 237 288 368
#     4   9  17  34  61  89 114 146 204 256 281 335
#     4  11  23  39  56  89 123 157 191 238 307 349
#     4   9  16  34  62  88 111 155 207 240 278 354
#     4   8  16  34  58  85 115 158 196 235 290 358
#
# _framework density 22.765152
#
# number of rings (size 3 to 8) (size 9 to 14) (size 15 to 20)
#    0.000    2.000    2.500    3.750    1.750    0.000 
#    2.250    2.500    2.750    1.500    0.000    0.000 
#    0.000    0.000    0.000    0.000    0.000    0.000 
#
# Total GULP energy -89403.813527 kJ/mol
# GULP energy per Si atom -5587.738345 kJ/mol
# Density = 2.271334 g / cm^3
# Si number density = 22.765152 Si / 1000 Ang^3
#
#
#
# Elastic Constant Matrix: (Units=GPa)
#
#
# Indices 1 2 3 4 5 6 
#
# 1 58.4127 15.4295 22.5899 7.4281 -5.1848 -1.9640
# 2 15.4295 85.2544 45.9620 14.2531 -7.6500 -1.8750
# 3 22.5899 45.9620 154.8363 6.4726 -1.5355 9.3486
# 4 7.4281 14.2531 6.4726 40.7125 15.4081 5.6277
# 5 -5.1848 -7.6500 -1.5355 15.4081 29.4166 -2.4047
# 6 -1.9640 -1.8750 9.3486 5.6277 -2.4047 35.2107
#
#
#
# Elastic Compliance Matrix: (Units=1/GPa)
#
#
# Indices 1 2 3 4 5 6 
#
# 1 0.019703 -0.000517 -0.002599 -0.005920 0.006562 0.003156
# 2 -0.000517 0.016774 -0.004687 -0.009060 0.009114 0.004179
# 3 -0.002599 -0.004687 0.008298 0.002242 -0.002675 -0.003139
# 4 -0.005920 -0.009060 0.002242 0.039009 -0.024476 -0.009314
# 5 0.006562 0.009114 -0.002675 -0.024476 0.050934 0.008952
# 6 0.003156 0.004179 -0.003139 -0.009314 0.008952 0.031732
#
#
# Mechanical properties :
#
#
# Convention : Reuss Voigt Hill
#
# Bulk Modulus (GPa) = 34.28262 51.82958 43.05610
# Shear Modulus (GPa) = 26.07165 35.36945 30.72055
#
# Velocity S-wave (km/s) = 3.38782 3.94593 3.67748
# Velocity P-wave (km/s) = 5.51317 6.60129 6.08161
#
# Compressibility (1/GPa) = 0.02916930
#
# Stress axis : x y z
#
# Youngs Moduli (GPa) = 50.75481 59.61451 120.50712
#
# Poissons Ratio (x) = 0.03080 0.31322
# Poissons Ratio (y) = 0.02622 0.56484
# Poissons Ratio (z) = 0.13192 0.27943
#
# Static dielectric constant tensor:
#      x y z
#    x 2.021480 0.060850 -0.106940 
#    y 0.060850 1.853870 -0.028850 
#    z -0.106940 -0.028850 1.930530 
# 
# From -- ./inp_files/380078.got.cif
#   From: 2010.05.17/outbox.cif.g08.bks.cpg/sg2_191_cif.got.tgz:380078.got - 2010.06.03 11:33:40.
