data_PCOD9058042
_publ_section_title
;
Structure prediction by ZEFSAII (Michael W. Deem and Ramdas Pophale) SiO2 
 PCOD9058042
Probable space group: P -1
;
_chemical_formula_sum "Si O2"
_cell_formula_units_Z 14
_cell_length_a 18.205372
_cell_length_b 8.036387
_cell_length_c 11.630358
_cell_angle_alpha 80.408687
_cell_angle_beta 140.472136
_cell_angle_gamma 129.104258
_cell_volume 640.313368
_symmetry_space_group_name_H-M "P -1"
_symmetry_group_IT_number 2
_symmetry_cell_setting 'triclinic'
loop_
_space_group_symop_operation_xyz
x,y,z
-x,-y,-z
loop_
_atom_site_type_symbol
_atom_site_label
_atom_site_fract_x
_atom_site_fract_y
_atom_site_fract_z
Si Si1 0.271625 0.159810 0.068801
Si Si2 0.365311 0.230106 0.650972
Si Si3 0.181751 0.590163 0.724437
Si Si4 0.224775 0.229977 0.258180
Si Si5 0.588337 0.114878 0.247624
Si Si6 0.470169 0.827511 0.581368
Si Si7 0.019036 0.974110 0.393526
O O1 0.430786 0.437222 0.149424
O O2 0.296484 0.259855 0.216044
O O3 0.329710 0.032779 0.161008
O O4 0.067325 0.978321 0.794515
O O5 0.266197 0.140668 0.416777
O O6 0.388098 0.059171 0.719489
O O7 0.229772 0.164329 0.586482
O O8 0.264162 0.631626 0.694147
O O9 0.112171 0.348089 0.741240
O O10 0.000000 0.500000 0.500000
O O11 0.367439 0.894380 0.971239
O O12 0.332110 0.521713 0.399305
O O13 0.000000 0.000000 0.000000
O O14 0.615696 0.198691 0.402105
O O15 0.500000 0.000000 0.500000
O O16 0.000000 0.000000 0.500000
#
# Coordination Sequence:
#
# PCOD9058042 Si02
#       7
#     2   2   2   2   2   2   2
#     4  11  24  45  69  96 142 175 224 283 342 407
#     4  11  22  44  69  96 135 183 214 284 345 406
#     4  11  25  44  66  98 139 181 222 283 337 400
#     4  11  23  44  73  99 135 177 228 280 350 407
#     4  11  24  44  69  98 138 178 225 277 350 400
#     4  11  25  44  73 102 136 178 228 285 345 414
#     4  12  27  41  69 101 133 178 237 273 334 407
#
# _framework density 21.864294000000001
#
# number of rings (size 3 to 8) (size 9 to 14) (size 15 to 20)
#    0.000    0.857    4.286    3.429    6.000    0.571 
#    0.000    1.429    0.000    0.000    0.000    0.000 
#    0.000    0.000    0.000    0.000    0.000    0.000 
#
# Total GULP energy -78341.971168 kJ/mol
# GULP energy per Si atom -5595.855083 kJ/mol
# Density = 2.181453 g / cm^3
# Si number density = 21.864294 Si / 1000 Ang^3
#
#
#
# Elastic Constant Matrix: (Units=GPa)
#
#
# Indices 1 2 3 4 5 6 
#
# 1 154.3384 16.6393 29.8605 0.3290 4.5972 22.7248
# 2 16.6393 78.9246 14.1396 -15.9923 12.7172 4.0979
# 3 29.8605 14.1396 99.3497 -15.3997 20.1806 -6.5376
# 4 0.3290 -15.9923 -15.3997 36.5834 5.4161 11.1126
# 5 4.5972 12.7172 20.1806 5.4161 42.4911 -5.4132
# 6 22.7248 4.0979 -6.5376 11.1126 -5.4132 32.3939
#
#
#
# Elastic Compliance Matrix: (Units=1/GPa)
#
#
# Indices 1 2 3 4 5 6 
#
# 1 0.007983 -0.000770 -0.002580 0.000431 -0.000254 -0.006214
# 2 -0.000770 0.016286 0.000555 0.010279 -0.007145 -0.006128
# 3 -0.002580 0.000555 0.013242 0.006550 -0.006882 0.001015
# 4 0.000431 0.010279 0.006550 0.041742 -0.013706 -0.016890
# 5 -0.000254 -0.007145 -0.006882 -0.013706 0.031956 0.009735
# 6 -0.006214 -0.006128 0.001015 -0.016890 0.009735 0.043630
#
#
# Mechanical properties :
#
#
# Convention : Reuss Voigt Hill
#
# Bulk Modulus (GPa) = 31.32786 50.43238 40.88012
# Shear Modulus (GPa) = 29.22797 40.42524 34.82661
#
# Velocity S-wave (km/s) = 3.66018 4.30457 3.99539
# Velocity P-wave (km/s) = 5.67644 6.91534 6.32629
#
# Compressibility (1/GPa) = 0.03192047
#
# Stress axis : x y z
#
# Youngs Moduli (GPa) = 125.26507 61.40403 75.51722
#
# Poissons Ratio (x) = 0.04727 0.19486
# Poissons Ratio (y) = 0.09644 -0.04192
# Poissons Ratio (z) = 0.32322 -0.03408
#
# Static dielectric constant tensor:
#      x y z
#    x 1.789600 0.002280 0.013120 
#    y 0.002280 1.829170 -0.016540 
#    z 0.013120 -0.016540 1.817610 
# 
# From -- ./inp_files/256132.got.cif
#   From: 2010.05.17/outbox.cif.g08.bks.cpg/sg2_129_cif.got.tgz:256132.got - 2010.06.03 11:33:40.
