data_PCOD9058843
_publ_section_title
;
Structure prediction by ZEFSAII (Michael W. Deem and Ramdas Pophale) SiO2 
 PCOD9058843
Probable space group: P -1
;
_chemical_formula_sum "Si O2"
_cell_formula_units_Z 14
_cell_length_a 27.113704
_cell_length_b 18.307611
_cell_length_c 26.640346
_cell_angle_alpha 16.865969
_cell_angle_beta 10.304125
_cell_angle_gamma 15.283452
_cell_volume 614.670761
_symmetry_space_group_name_H-M "P -1"
_symmetry_group_IT_number 2
_symmetry_cell_setting 'triclinic'
loop_
_space_group_symop_operation_xyz
x,y,z
-x,-y,-z
loop_
_atom_site_type_symbol
_atom_site_label
_atom_site_fract_x
_atom_site_fract_y
_atom_site_fract_z
Si Si1 0.306010 0.267699 0.555174
Si Si2 0.192313 0.735999 0.870123
Si Si3 0.064049 0.298176 0.439478
Si Si4 0.997027 0.625704 0.041571
Si Si5 0.452808 0.488864 0.979406
Si Si6 0.499733 0.668654 0.438747
Si Si7 0.603872 0.871392 0.640661
O O1 0.501489 0.325198 0.365253
O O2 0.136386 0.558118 0.502940
O O3 0.500000 0.000000 0.500000
O O4 0.045546 0.221664 0.875756
O O5 0.159338 0.010054 0.690600
O O6 0.173777 0.523338 0.986084
O O7 0.207218 0.514667 0.166685
O O8 0.361823 0.996114 0.343707
O O9 0.804420 0.285989 0.744572
O O10 0.826964 0.526153 0.234225
O O11 0.686625 0.877751 0.208226
O O12 0.247689 0.670354 0.728955
O O13 0.320133 0.373156 0.233991
O O14 0.500975 0.754571 0.772585
O O15 0.500000 0.500000 0.500000
#
# Coordination Sequence:
#
# PCOD9058843 Si02
#       7
#     2   2   2   2   2   2   2
#     4  12  27  41  64  92 139 195 229 258 309 389
#     4  12  24  43  64  94 136 184 230 262 314 390
#     4  12  24  44  61  96 140 173 226 267 330 397
#     4  12  22  43  69 100 130 168 220 283 336 400
#     4  11  25  36  63  97 137 174 211 274 334 403
#     4  12  25  45  73 101 128 165 217 291 361 395
#     4  11  23  37  65  96 136 171 215 265 335 397
#
# _framework density 22.776420000000002
#
# number of rings (size 3 to 8) (size 9 to 14) (size 15 to 20)
#    0.000    0.286    5.714    2.571    4.000    1.143 
#    0.000    0.000    0.000    5.143    0.000    0.000 
#    0.000    0.000    0.000    0.000    0.000    0.000 
#
# Total GULP energy -78029.851738 kJ/mol
# GULP energy per Si atom -5573.560838 kJ/mol
# Density = 2.272458 g / cm^3
# Si number density = 22.776420 Si / 1000 Ang^3
#
#
#
# Elastic Constant Matrix: (Units=GPa)
#
#
# Indices 1 2 3 4 5 6 
#
# 1 124.3300 20.1898 41.7888 -8.2367 -14.3869 16.0193
# 2 20.1898 21.8963 5.6389 -0.3667 3.8138 7.4425
# 3 41.7888 5.6389 157.0629 1.0679 -2.4034 2.8813
# 4 -8.2367 -0.3667 1.0679 14.5568 0.2957 -5.7258
# 5 -14.3869 3.8138 -2.4034 0.2957 62.8347 -3.8291
# 6 16.0193 7.4425 2.8813 -5.7258 -3.8291 24.4730
#
#
#
# Elastic Compliance Matrix: (Units=1/GPa)
#
#
# Indices 1 2 3 4 5 6 
#
# 1 0.011506 -0.009448 -0.002666 0.005374 0.002920 -0.002630
# 2 -0.009448 0.060560 0.000591 -0.009890 -0.006725 -0.015669
# 3 -0.002666 0.000591 0.007058 -0.001913 -0.000353 0.000231
# 4 0.005374 -0.009890 -0.001913 0.078879 0.002518 0.018564
# 5 0.002920 -0.006725 -0.000353 0.002518 0.017177 0.003452
# 6 -0.002630 -0.015669 0.000231 0.018564 0.003452 0.052204
#
#
# Mechanical properties :
#
#
# Convention : Reuss Voigt Hill
#
# Bulk Modulus (GPa) = 17.83154 48.72490 33.27822
# Shear Modulus (GPa) = 18.57888 36.08433 27.33161
#
# Velocity S-wave (km/s) = 2.85916 3.98463 3.46785
# Velocity P-wave (km/s) = 4.32962 6.52754 5.53870
#
# Compressibility (1/GPa) = 0.05608042
#
# Stress axis : x y z
#
# Youngs Moduli (GPa) = 86.90994 16.51249 141.67747
#
# Poissons Ratio (x) = 0.15600 0.37768
# Poissons Ratio (y) = 0.82108 -0.08376
# Poissons Ratio (z) = 0.23168 -0.00976
#
# Static dielectric constant tensor:
#      x y z
#    x 1.992590 -0.016580 -0.068320 
#    y -0.016580 1.888620 -0.004380 
#    z -0.068320 -0.004380 1.844070 
# 
# From -- ./inp_files/621340.got.cif
#   From: 2010.05.17/outbox.cif.g08.bks.cpg/sg2_311_cif.got.tgz:621340.got - 2010.06.03 11:33:40.
