data_PCOD9058785
_publ_section_title
;
Structure prediction by ZEFSAII (Michael W. Deem and Ramdas Pophale) SiO2 
 PCOD9058785
Probable space group: P -1
;
_chemical_formula_sum "Si O2"
_cell_formula_units_Z 16
_cell_length_a 16.260459
_cell_length_b 16.246630
_cell_length_c 5.551974
_cell_angle_alpha 59.647511
_cell_angle_beta 77.744271
_cell_angle_gamma 32.693662
_cell_volume 608.102734
_symmetry_space_group_name_H-M "P -1"
_symmetry_group_IT_number 2
_symmetry_cell_setting 'triclinic'
loop_
_space_group_symop_operation_xyz
x,y,z
-x,-y,-z
loop_
_atom_site_type_symbol
_atom_site_label
_atom_site_fract_x
_atom_site_fract_y
_atom_site_fract_z
Si Si1 0.732712 0.013103 0.153051
Si Si2 0.029882 0.413690 0.859878
Si Si3 0.281940 0.578784 0.401883
Si Si4 0.480291 0.301619 0.295476
Si Si5 0.939953 0.945021 0.767281
Si Si6 0.413911 0.984864 0.124852
Si Si7 0.657855 0.377487 0.255420
Si Si8 0.938121 0.327376 0.279489
O O1 0.620450 0.042156 0.055266
O O2 0.810976 0.007644 0.914815
O O3 0.901762 0.797316 0.475104
O O4 0.631564 0.163725 0.212235
O O5 0.226853 0.185994 0.055623
O O6 0.000000 0.500000 0.500000
O O7 0.000000 0.500000 0.000000
O O8 0.913215 0.433689 0.938254
O O9 0.455983 0.370227 0.475381
O O10 0.111408 0.784721 0.062076
O O11 0.206964 0.558455 0.610118
O O12 0.342016 0.608831 0.478457
O O13 0.335499 0.514888 0.966892
O O14 0.478722 0.191025 0.507559
O O15 0.174351 0.852177 0.542274
O O16 0.991010 0.835464 0.661377
O O17 0.500000 0.000000 0.000000
O O18 0.500000 0.500000 0.000000
#
# Coordination Sequence:
#
# PCOD9058785 Si02
#       8
#     2   2   2   2   2   2   2   2
#     4  11  22  49  78 110 154 218 261 334 416 490
#     4  12  28  51  83 119 158 217 283 345 427 503
#     4  11  28  47  75 119 159 209 270 338 408 486
#     4  12  27  48  74 112 164 208 266 331 416 493
#     4  11  25  48  82 111 160 212 271 341 402 491
#     4  12  28  49  75 116 163 207 268 344 421 495
#     4  12  27  48  78 118 159 214 271 328 418 497
#     4  11  24  49  79 109 159 208 272 338 410 488
#
# _framework density 26.311340999999999
#
# number of rings (size 3 to 8) (size 9 to 14) (size 15 to 20)
#    0.000    0.500    2.500    4.125    3.500    7.500 
#    0.000    0.000    0.000    0.000    0.000    0.000 
#    0.000    0.000    0.000    0.000    0.000    0.000 
#
# Total GULP energy -89320.298426 kJ/mol
# GULP energy per Si atom -5582.518652 kJ/mol
# Density = 2.625146 g / cm^3
# Si number density = 26.311341 Si / 1000 Ang^3
#
#
#
# Elastic Constant Matrix: (Units=GPa)
#
#
# Indices 1 2 3 4 5 6 
#
# 1 105.9248 49.1244 79.9506 -14.3320 -1.6852 1.2711
# 2 49.1244 183.2521 38.4964 5.3998 13.9223 3.1054
# 3 79.9506 38.4964 137.2706 -21.6590 -14.8731 -14.6756
# 4 -14.3320 5.3998 -21.6590 56.4930 -2.7035 -2.4904
# 5 -1.6852 13.9223 -14.8731 -2.7035 64.7134 -1.6472
# 6 1.2711 3.1054 -14.6756 -2.4904 -1.6472 48.8500
#
#
#
# Elastic Compliance Matrix: (Units=1/GPa)
#
#
# Indices 1 2 3 4 5 6 
#
# 1 0.018818 -0.002664 -0.010631 0.000728 -0.001440 -0.003526
# 2 -0.002664 0.006542 -0.000827 -0.001735 -0.001758 -0.000743
# 3 -0.010631 -0.000827 0.015239 0.003631 0.003688 0.005217
# 4 0.000728 -0.001735 0.003631 0.019644 0.002105 0.002255
# 5 -0.001440 -0.001758 0.003688 0.002105 0.016778 0.001930
# 6 -0.003526 -0.000743 0.005217 0.002255 0.001930 0.022357
#
#
# Mechanical properties :
#
#
# Convention : Reuss Voigt Hill
#
# Bulk Modulus (GPa) = 80.93540 84.62117 82.77828
# Shear Modulus (GPa) = 37.95322 51.26968 44.61145
#
# Velocity S-wave (km/s) = 3.80210 4.41906 4.12214
# Velocity P-wave (km/s) = 7.07828 7.63340 7.36107
#
# Compressibility (1/GPa) = 0.01235553
#
# Stress axis : x y z
#
# Youngs Moduli (GPa) = 53.13963 152.85834 65.62093
#
# Poissons Ratio (x) = 0.40716 0.69764
# Poissons Ratio (y) = 0.14154 0.05426
# Poissons Ratio (z) = 0.56495 0.12640
#
# Static dielectric constant tensor:
#      x y z
#    x 2.164150 -0.015600 0.071760 
#    y -0.015600 2.075270 0.139540 
#    z 0.071760 0.139540 2.416150 
# 
# From -- ./inp_files/111642.got.cif
#   From: 2010.05.17/outbox.cif.g08.bks.cpg/sg2_56_cif.got.tgz:111642.got - 2010.06.03 11:33:40.
