data_PCOD9058727
_publ_section_title
;
Structure prediction by ZEFSAII (Michael W. Deem and Ramdas Pophale) SiO2 
 PCOD9058727
Probable space group: P -1
;
_chemical_formula_sum "Si O2"
_cell_formula_units_Z 16
_cell_length_a 11.853572
_cell_length_b 9.151838
_cell_length_c 10.268943
_cell_angle_alpha 117.274416
_cell_angle_beta 91.185257
_cell_angle_gamma 53.147607
_cell_volume 739.981338
_symmetry_space_group_name_H-M "P -1"
_symmetry_group_IT_number 2
_symmetry_cell_setting 'triclinic'
loop_
_space_group_symop_operation_xyz
x,y,z
-x,-y,-z
loop_
_atom_site_type_symbol
_atom_site_label
_atom_site_fract_x
_atom_site_fract_y
_atom_site_fract_z
Si Si1 0.221826 0.082418 0.205870
Si Si2 0.015016 0.405194 0.644544
Si Si3 0.346505 0.169358 0.482289
Si Si4 0.872479 0.499450 0.952567
Si Si5 0.380786 0.013901 0.921474
Si Si6 0.944810 0.082521 0.885232
Si Si7 0.908399 0.183633 0.462389
Si Si8 0.415605 0.417009 0.422607
O O1 0.327457 0.066792 0.312453
O O2 0.080982 0.343131 0.292392
O O3 0.174969 0.940359 0.170160
O O4 0.287018 0.016386 0.033512
O O5 0.191993 0.278826 0.603295
O O6 0.929387 0.414282 0.772081
O O7 0.987139 0.285119 0.494088
O O8 0.352622 0.350961 0.503562
O O9 0.500000 0.000000 0.500000
O O10 0.877409 0.328530 0.964234
O O11 0.000000 0.500000 0.000000
O O12 0.720729 0.751780 0.056634
O O13 0.466583 0.805799 0.746271
O O14 0.500000 0.000000 0.000000
O O15 0.078384 0.926641 0.718813
O O16 0.000000 0.000000 0.000000
O O17 0.734380 0.380944 0.574054
O O18 0.000000 0.000000 0.500000
O O19 0.500000 0.500000 0.500000
#
# Coordination Sequence:
#
# PCOD9058727 Si02
#       8
#     2   2   2   2   2   2   2   2
#     4  11  23  47  75 103 147 199 246 314 373 447
#     4  11  22  47  75 103 141 197 258 303 371 451
#     4  12  26  44  70 111 153 195 243 312 382 447
#     4  11  26  45  76 102 144 196 246 305 369 455
#     4  11  24  49  74  98 145 200 247 294 386 446
#     4  12  26  44  75 118 148 183 260 318 373 440
#     4  12  25  46  82 107 143 198 258 307 373 454
#     4  12  29  47  73 110 155 196 250 318 379 450
#
# _framework density 21.622167000000001
#
# number of rings (size 3 to 8) (size 9 to 14) (size 15 to 20)
#    0.000    0.500    5.000    3.375    7.000    0.000 
#    0.000    0.625    0.000    0.000    0.000    0.000 
#    0.000    0.000    0.000    0.000    0.000    0.000 
#
# Total GULP energy -89392.139914 kJ/mol
# GULP energy per Si atom -5587.008745 kJ/mol
# Density = 2.157295 g / cm^3
# Si number density = 21.622167 Si / 1000 Ang^3
#
#
#
# Elastic Constant Matrix: (Units=GPa)
#
#
# Indices 1 2 3 4 5 6 
#
# 1 148.8542 70.3176 35.6069 27.9514 20.4530 -5.9141
# 2 70.3176 162.8378 67.6096 20.4956 -0.5610 -11.8353
# 3 35.6069 67.6096 128.6538 20.2806 0.6512 -3.0708
# 4 27.9514 20.4956 20.2806 39.7625 -0.4666 -2.8892
# 5 20.4530 -0.5610 0.6512 -0.4666 40.1679 1.6137
# 6 -5.9141 -11.8353 -3.0708 -2.8892 1.6137 45.9585
#
#
#
# Elastic Compliance Matrix: (Units=1/GPa)
#
#
# Indices 1 2 3 4 5 6 
#
# 1 0.010227 -0.003757 0.000012 -0.005306 -0.005330 0.000203
# 2 -0.003757 0.009533 -0.003921 -0.000131 0.002043 0.001630
# 3 0.000012 -0.003921 0.010339 -0.003301 -0.000246 -0.000516
# 4 -0.005306 -0.000131 -0.003301 0.030731 0.003075 0.000887
# 5 -0.005330 0.002043 -0.000246 0.003075 0.027716 -0.000956
# 6 0.000203 0.001630 -0.000516 0.000887 -0.000956 0.022259
#
#
# Mechanical properties :
#
#
# Convention : Reuss Voigt Hill
#
# Bulk Modulus (GPa) = 67.71409 87.49044 77.60226
# Shear Modulus (GPa) = 38.15053 42.96523 40.55788
#
# Velocity S-wave (km/s) = 4.20505 4.46252 4.33570
# Velocity P-wave (km/s) = 7.41361 8.19166 7.81232
#
# Compressibility (1/GPa) = 0.01476798
#
# Stress axis : x y z
#
# Youngs Moduli (GPa) = 97.78430 104.89523 96.71848
#
# Poissons Ratio (x) = 0.39408 -0.00119
# Poissons Ratio (y) = 0.36737 0.37923
# Poissons Ratio (z) = -0.00120 0.41129
#
# Static dielectric constant tensor:
#      x y z
#    x 1.835800 0.027320 -0.079420 
#    y 0.027320 1.673180 0.144760 
#    z -0.079420 0.144760 1.584510 
# 
# From -- ./inp_files/419743.got.cif
#   From: 2010.05.17/outbox.cif.g08.bks.cpg/sg2_210_cif.got.tgz:419743.got - 2010.06.03 11:33:40.
