data_PCOD9058423
_publ_section_title
;
Structure prediction by ZEFSAII (Michael W. Deem and Ramdas Pophale) SiO2 
 PCOD9058423
Probable space group: P -1
;
_chemical_formula_sum "Si O2"
_cell_formula_units_Z 16
_cell_length_a 19.258265
_cell_length_b 15.424126
_cell_length_c 9.766828
_cell_angle_alpha 142.702061
_cell_angle_beta 145.774979
_cell_angle_gamma 27.518577
_cell_volume 732.003410
_symmetry_space_group_name_H-M "P -1"
_symmetry_group_IT_number 2
_symmetry_cell_setting 'triclinic'
loop_
_space_group_symop_operation_xyz
x,y,z
-x,-y,-z
loop_
_atom_site_type_symbol
_atom_site_label
_atom_site_fract_x
_atom_site_fract_y
_atom_site_fract_z
Si Si1 0.087402 0.851653 0.581873
Si Si2 0.012262 0.356328 0.240084
Si Si3 0.553556 0.318975 0.945554
Si Si4 0.146249 0.926815 0.260063
Si Si5 0.593930 0.805519 0.998031
Si Si6 0.650262 0.513102 0.902527
Si Si7 0.317143 0.008883 0.447793
Si Si8 0.918635 0.462646 0.931539
O O1 0.114773 0.667542 0.347432
O O2 0.262322 0.787694 0.829228
O O3 0.000000 0.000000 0.500000
O O4 0.960040 0.954537 0.630244
O O5 0.156079 0.143585 0.259052
O O6 0.000000 0.500000 0.500000
O O7 0.833205 0.426770 0.055910
O O8 0.040479 0.363996 0.137224
O O9 0.555030 0.186709 0.674585
O O10 0.500000 0.500000 0.000000
O O11 0.432952 0.385207 0.960375
O O12 0.291391 0.697938 0.245749
O O13 0.249807 0.978842 0.433505
O O14 0.000000 0.000000 0.000000
O O15 0.545438 0.684899 0.830262
O O16 0.750070 0.653388 0.962814
O O17 0.632112 0.870933 0.277763
O O18 0.500000 0.000000 0.000000
O O19 0.000000 0.500000 0.000000
#
# Coordination Sequence:
#
# PCOD9058423 Si02
#       8
#     2   2   2   2   2   2   2   2
#     4  12  26  46  71 105 145 183 236 296 354 430
#     4  11  22  45  73 103 135 184 236 283 357 425
#     4  12  26  43  68 111 140 182 241 298 358 415
#     4  12  22  42  75 103 137 184 236 287 360 428
#     4  11  27  47  64  99 144 191 231 284 364 418
#     4  11  23  44  71 103 139 180 234 295 350 418
#     4  12  23  44  73  99 137 187 238 289 348 439
#     4  11  25  45  72 107 136 179 238 295 345 415
#
# _framework density 21.857821999999999
#
# number of rings (size 3 to 8) (size 9 to 14) (size 15 to 20)
#    0.000    0.500    6.250    3.000    1.750    3.500 
#    0.000    5.000    0.000    0.000    0.000    0.000 
#    0.000    0.000    0.000    0.000    0.000    0.000 
#
# Total GULP energy -89229.998520 kJ/mol
# GULP energy per Si atom -5576.874908 kJ/mol
# Density = 2.180807 g / cm^3
# Si number density = 21.857822 Si / 1000 Ang^3
#
#
#
# Elastic Constant Matrix: (Units=GPa)
#
#
# Indices 1 2 3 4 5 6 
#
# 1 150.1105 46.5482 18.7333 5.6739 -30.8227 15.6938
# 2 46.5482 126.6799 26.9085 23.8926 -19.2148 19.1409
# 3 18.7333 26.9085 93.9825 22.4500 -17.9071 1.3303
# 4 5.6739 23.8926 22.4500 38.1337 -2.1298 -10.8707
# 5 -30.8227 -19.2148 -17.9071 -2.1298 32.4952 10.2545
# 6 15.6938 19.1409 1.3303 -10.8707 10.2545 43.0632
#
#
#
# Elastic Compliance Matrix: (Units=1/GPa)
#
#
# Indices 1 2 3 4 5 6 
#
# 1 0.009967 -0.000388 0.001330 -0.003411 0.012013 -0.007223
# 2 -0.000388 0.013398 0.001340 -0.011777 0.011145 -0.011482
# 3 0.001330 0.001340 0.015059 -0.011301 0.011895 -0.007231
# 4 -0.003411 -0.011777 -0.011301 0.046290 -0.020797 0.023464
# 5 0.012013 0.011145 0.011895 -0.020797 0.063434 -0.030054
# 6 -0.007223 -0.011482 -0.007231 0.023464 -0.030054 0.044261
#
#
# Mechanical properties :
#
#
# Convention : Reuss Voigt Hill
#
# Bulk Modulus (GPa) = 23.26121 61.68365 42.47243
# Shear Modulus (GPa) = 24.73117 41.31062 33.02089
#
# Velocity S-wave (km/s) = 3.36736 4.35209 3.89101
# Velocity P-wave (km/s) = 5.07779 7.31683 6.29762
#
# Compressibility (1/GPa) = 0.04299002
#
# Stress axis : x y z
#
# Youngs Moduli (GPa) = 100.33294 74.63675 66.40362
#
# Poissons Ratio (x) = 0.02896 -0.08835
# Poissons Ratio (y) = 0.03894 -0.08901
# Poissons Ratio (z) = -0.13349 -0.10004
#
# Static dielectric constant tensor:
#      x y z
#    x 1.781590 0.093370 0.015610 
#    y 0.093370 1.882880 -0.020670 
#    z 0.015610 -0.020670 1.826750 
# 
# From -- ./inp_files/335819.got.cif
#   From: 2010.05.17/outbox.cif.g08.bks.cpg/sg2_168_cif.got.tgz:335819.got - 2010.06.03 11:33:40.
