data_PCOD9058796
_publ_section_title
;
Structure prediction by ZEFSAII (Michael W. Deem and Ramdas Pophale) SiO2 
 PCOD9058796
Probable space group: P -1
;
_chemical_formula_sum "Si O2"
_cell_formula_units_Z 14
_cell_length_a 10.653078
_cell_length_b 17.347252
_cell_length_c 6.825980
_cell_angle_alpha 97.185197
_cell_angle_beta 76.454994
_cell_angle_gamma 33.659536
_cell_volume 546.860533
_symmetry_space_group_name_H-M "P -1"
_symmetry_group_IT_number 2
_symmetry_cell_setting 'triclinic'
loop_
_space_group_symop_operation_xyz
x,y,z
-x,-y,-z
loop_
_atom_site_type_symbol
_atom_site_label
_atom_site_fract_x
_atom_site_fract_y
_atom_site_fract_z
Si Si1 0.865124 0.783751 0.632951
Si Si2 0.812521 0.462938 0.088288
Si Si3 0.881290 0.257272 0.131579
Si Si4 0.651728 0.572958 0.639416
Si Si5 0.279426 0.904521 0.818808
Si Si6 0.334557 0.838403 0.330275
Si Si7 0.427166 0.136782 0.857780
O O1 0.067933 0.735508 0.665866
O O2 0.081525 0.607046 0.397660
O O3 0.640751 0.954652 0.646770
O O4 0.689156 0.833144 0.882717
O O5 0.824076 0.362740 0.049152
O O6 0.751787 0.514848 0.357778
O O7 0.549628 0.651217 0.146571
O O8 0.144029 0.309331 0.891776
O O9 0.617018 0.341252 0.229379
O O10 0.165085 0.053414 0.926928
O O11 0.543897 0.717399 0.765589
O O12 0.370707 0.846640 0.542099
O O13 0.000000 0.000000 0.000000
O O14 0.390556 0.883815 0.195319
O O15 0.000000 0.000000 0.500000
#
# Coordination Sequence:
#
# PCOD9058796 Si02
#       7
#     2   2   2   2   2   2   2
#     4   9  17  31  56  82 101 145 178 223 257 315
#     4   9  18  34  51  79 103 147 173 218 269 311
#     4   9  16  29  55  77 107 140 179 219 262 320
#     4   8  15  27  52  77 106 133 182 212 257 313
#     4   9  19  34  51  80 113 141 169 221 279 310
#     4  11  23  34  57  83 106 140 182 224 260 318
#     4   9  19  33  54  79 113 133 185 219 263 312
#
# _framework density 25.600674999999999
#
# number of rings (size 3 to 8) (size 9 to 14) (size 15 to 20)
#    0.000    3.143    0.000    2.143    8.000    0.000 
#    0.000    3.571    0.000   21.429    3.714    0.000 
#    0.000    0.000    0.000    0.000    0.000    0.000 
#
# Total GULP energy -78174.101534 kJ/mol
# GULP energy per Si atom -5583.864395 kJ/mol
# Density = 2.554241 g / cm^3
# Si number density = 25.600675 Si / 1000 Ang^3
#
#
#
# Elastic Constant Matrix: (Units=GPa)
#
#
# Indices 1 2 3 4 5 6 
#
# 1 58.2369 48.1136 38.3129 18.7066 -8.7886 9.1958
# 2 48.1136 191.3969 73.5012 74.5912 6.2569 29.1391
# 3 38.3129 73.5012 95.5948 55.5178 11.0130 18.4417
# 4 18.7066 74.5912 55.5178 73.2443 3.7763 13.7120
# 5 -8.7886 6.2569 11.0130 3.7763 39.8862 11.6809
# 6 9.1958 29.1391 18.4417 13.7120 11.6809 35.0329
#
#
#
# Elastic Compliance Matrix: (Units=1/GPa)
#
#
# Indices 1 2 3 4 5 6 
#
# 1 0.029931 -0.005427 -0.012998 0.007772 0.011265 -0.003298
# 2 -0.005427 0.010555 -0.000213 -0.008477 -0.000932 -0.003614
# 3 -0.012998 -0.000213 0.026059 -0.015548 -0.008167 -0.001321
# 4 0.007772 -0.008477 -0.015548 0.032011 0.004554 -0.000852
# 5 0.011265 -0.000932 -0.008167 0.004554 0.032610 -0.010538
# 6 -0.003298 -0.003614 -0.001321 -0.000852 -0.010538 0.036959
#
#
# Mechanical properties :
#
#
# Convention : Reuss Voigt Hill
#
# Bulk Modulus (GPa) = 34.16578 73.89821 54.03199
# Shear Modulus (GPa) = 23.23905 41.98604 32.61255
#
# Velocity S-wave (km/s) = 3.01616 4.05413 3.57304
# Velocity P-wave (km/s) = 5.05017 7.13043 6.17848
#
# Compressibility (1/GPa) = 0.02926905
#
# Stress axis : x y z
#
# Youngs Moduli (GPa) = 33.41061 94.73948 38.37519
#
# Poissons Ratio (x) = 0.51420 0.49879
# Poissons Ratio (y) = 0.18134 0.00816
# Poissons Ratio (z) = 0.43426 0.02014
#
# Static dielectric constant tensor:
#      x y z
#    x 2.037100 -0.061640 0.040890 
#    y -0.061640 2.169830 -0.035480 
#    z 0.040890 -0.035480 2.049050 
# 
# From -- ./inp_files/276646.got.cif
#   From: 2010.05.17/outbox.cif.g08.bks.cpg/sg2_139_cif.got.tgz:276646.got - 2010.06.03 11:33:40.
