data_PCOD9058779
_publ_section_title
;
Structure prediction by ZEFSAII (Michael W. Deem and Ramdas Pophale) SiO2 
 PCOD9058779
Probable space group: P -1
;
_chemical_formula_sum "Si O2"
_cell_formula_units_Z 13
_cell_length_a 10.030914
_cell_length_b 7.790206
_cell_length_c 8.470172
_cell_angle_alpha 127.607749
_cell_angle_beta 95.812814
_cell_angle_gamma 78.385640
_cell_volume 513.414196
_symmetry_space_group_name_H-M "P -1"
_symmetry_group_IT_number 2
_symmetry_cell_setting 'triclinic'
loop_
_space_group_symop_operation_xyz
x,y,z
-x,-y,-z
loop_
_atom_site_type_symbol
_atom_site_label
_atom_site_fract_x
_atom_site_fract_y
_atom_site_fract_z
Si Si1 0.224105 0.248625 0.512598
Si Si2 0.783268 0.276317 0.118503
Si Si3 0.751198 0.623692 0.768561
Si Si4 0.972783 0.749265 0.078778
Si Si5 0.913472 0.189182 0.431650
Si Si6 0.500000 0.000000 0.500000
Si Si7 0.503519 0.728712 0.036652
O O1 0.240590 0.457159 0.740707
O O2 0.272844 0.309040 0.377629
O O3 0.333554 0.044298 0.468812
O O4 0.064543 0.245428 0.476474
O O5 0.849280 0.222863 0.267213
O O6 0.640811 0.202450 0.030007
O O7 0.891473 0.192465 0.949261
O O8 0.818761 0.363932 0.628078
O O9 0.862242 0.751331 0.929312
O O10 0.619386 0.674680 0.888795
O O11 0.924277 0.927905 0.308051
O O12 0.000000 0.500000 0.000000
O O13 0.471633 0.096270 0.731794
O O14 0.500000 0.500000 0.000000
#
# Coordination Sequence:
#
# PCOD9058779 Si02
#       7
#     2   2   2   2   2   1   2
#     4  11  23  49  77 114 151 202 256 310 381 457
#     4  11  22  49  76 106 151 202 252 312 377 446
#     4  11  26  47  76 114 150 199 260 313 368 466
#     4  12  25  43  73 114 150 195 257 311 377 454
#     4  11  24  47  82 109 148 199 256 314 381 443
#     4  12  28  46  72 106 154 202 246 312 388 438
#     4  12  27  49  71 109 160 199 249 319 381 448
#
# _framework density 25.320689000000002
#
# number of rings (size 3 to 8) (size 9 to 14) (size 15 to 20)
#    0.000    0.615    4.615    3.231    2.154    4.923 
#    0.000    0.000    0.000    0.000    0.000    0.000 
#    0.000    0.000    0.000    0.000    0.000    0.000 
#
# Total GULP energy -72654.806435 kJ/mol
# GULP energy per Si atom -5588.831264 kJ/mol
# Density = 2.526306 g / cm^3
# Si number density = 25.320689 Si / 1000 Ang^3
#
#
#
# Elastic Constant Matrix: (Units=GPa)
#
#
# Indices 1 2 3 4 5 6 
#
# 1 185.6394 55.2953 88.5814 -15.8064 -26.8093 -38.6680
# 2 55.2953 66.7010 25.7474 -2.1820 0.1991 -12.0956
# 3 88.5814 25.7474 187.1631 2.1829 -10.5039 -11.3318
# 4 -15.8064 -2.1820 2.1829 46.2071 -0.6248 5.7864
# 5 -26.8093 0.1991 -10.5039 -0.6248 45.2806 -6.7121
# 6 -38.6680 -12.0956 -11.3318 5.7864 -6.7121 38.2040
#
#
#
# Elastic Compliance Matrix: (Units=1/GPa)
#
#
# Indices 1 2 3 4 5 6 
#
# 1 0.013441 -0.007433 -0.004219 0.003181 0.008693 0.011045
# 2 -0.007433 0.020727 0.000334 -0.001460 -0.004651 -0.001458
# 3 -0.004219 0.000334 0.007123 -0.001526 -0.001169 -0.002026
# 4 0.003181 -0.001460 -0.001526 0.022863 0.001724 -0.000856
# 5 0.008693 -0.004651 -0.001169 0.001724 0.028749 0.011769
# 6 0.011045 -0.001458 -0.002026 -0.000856 0.011769 0.038489
#
#
# Mechanical properties :
#
#
# Convention : Reuss Voigt Hill
#
# Bulk Modulus (GPa) = 53.60376 86.52798 70.06587
# Shear Modulus (GPa) = 31.20171 43.93029 37.56600
#
# Velocity S-wave (km/s) = 3.51417 4.16980 3.85594
# Velocity P-wave (km/s) = 6.13854 7.57826 6.89608
#
# Compressibility (1/GPa) = 0.01865541
#
# Stress axis : x y z
#
# Youngs Moduli (GPa) = 74.39922 48.24648 140.38092
#
# Poissons Ratio (x) = 0.35861 0.59232
# Poissons Ratio (y) = 0.55300 -0.04693
# Poissons Ratio (z) = 0.31392 -0.01613
#
# Static dielectric constant tensor:
#      x y z
#    x 1.923350 -0.011610 0.002940 
#    y -0.011610 2.119840 0.053360 
#    z 0.002940 0.053360 1.955750 
# 
# From -- ./inp_files/159466.got.cif
#   From: 2010.05.17/outbox.cif.g08.bks.cpg/sg2_80_cif.got.tgz:159466.got - 2010.06.03 11:33:40.
