data_PCOD9058780
_publ_section_title
;
Structure prediction by ZEFSAII (Michael W. Deem and Ramdas Pophale) SiO2 
 PCOD9058780
Probable space group: P -1
;
_chemical_formula_sum "Si O2"
_cell_formula_units_Z 16
_cell_length_a 16.828511
_cell_length_b 7.380006
_cell_length_c 9.359560
_cell_angle_alpha 95.422044
_cell_angle_beta 33.603761
_cell_angle_gamma 99.499709
_cell_volume 632.537816
_symmetry_space_group_name_H-M "P -1"
_symmetry_group_IT_number 2
_symmetry_cell_setting 'triclinic'
loop_
_space_group_symop_operation_xyz
x,y,z
-x,-y,-z
loop_
_atom_site_type_symbol
_atom_site_label
_atom_site_fract_x
_atom_site_fract_y
_atom_site_fract_z
Si Si1 0.321323 0.291148 0.902887
Si Si2 0.358650 0.815229 0.592460
Si Si3 0.798732 0.156652 0.621401
Si Si4 0.839748 0.111428 0.870255
Si Si5 0.128446 0.591397 0.710957
Si Si6 0.692194 0.778855 0.390563
Si Si7 0.865875 0.797754 0.392820
Si Si8 0.436197 0.594769 0.967041
O O1 0.481417 0.231903 0.658528
O O2 0.293960 0.337420 0.781972
O O3 0.330070 0.450155 0.017366
O O4 0.209408 0.107292 0.089523
O O5 0.256215 0.685627 0.628509
O O6 0.351293 0.025534 0.573912
O O7 0.290352 0.804191 0.852472
O O8 0.868624 0.190082 0.675179
O O9 0.898433 0.257520 0.353786
O O10 0.650528 0.241614 0.845666
O O11 0.771972 0.938590 0.615053
O O12 0.974005 0.145595 0.779726
O O13 0.000000 0.500000 0.000000
O O14 0.839160 0.818703 0.265611
O O15 0.569379 0.675928 0.670321
O O16 0.827946 0.579806 0.455950
O O17 0.500000 0.500000 0.000000
#
# Coordination Sequence:
#
# PCOD9058780 Si02
#       8
#     2   2   2   2   2   2   2   2
#     4  11  25  45  79 113 154 198 268 314 382 457
#     4  11  22  49  76 113 149 200 261 320 380 457
#     4  12  28  50  76 109 158 207 250 320 396 447
#     4  11  26  48  76 113 159 200 259 321 381 467
#     4  12  27  50  78 110 150 201 263 318 378 478
#     4  11  24  45  78 106 159 201 256 317 389 448
#     4  12  27  50  75 111 158 201 262 309 393 456
#     4  12  27  48  77 117 155 202 257 328 386 465
#
# _framework density 25.294931999999999
#
# number of rings (size 3 to 8) (size 9 to 14) (size 15 to 20)
#    0.000    0.500    2.500    6.000    3.500    6.500 
#    2.250    0.000    0.000    0.000    0.000    0.000 
#    0.000    0.000    0.000    0.000    0.000    0.000 
#
# Total GULP energy -89750.113959 kJ/mol
# GULP energy per Si atom -5609.382122 kJ/mol
# Density = 2.523736 g / cm^3
# Si number density = 25.294932 Si / 1000 Ang^3
#
#
#
# Elastic Constant Matrix: (Units=GPa)
#
#
# Indices 1 2 3 4 5 6 
#
# 1 148.7897 28.4278 56.0020 -3.0291 17.3925 26.7235
# 2 28.4278 156.6623 23.4914 3.2111 0.5557 19.3486
# 3 56.0020 23.4914 117.5329 -3.1216 27.1311 14.0095
# 4 -3.0291 3.2111 -3.1216 33.9950 4.8496 -9.7418
# 5 17.3925 0.5557 27.1311 4.8496 44.8317 1.7551
# 6 26.7235 19.3486 14.0095 -9.7418 1.7551 45.8851
#
#
#
# Elastic Compliance Matrix: (Units=1/GPa)
#
#
# Indices 1 2 3 4 5 6 
#
# 1 0.008966 -0.000613 -0.003410 -0.000420 -0.001207 -0.003965
# 2 -0.000613 0.007021 -0.001093 -0.001745 0.001106 -0.002683
# 3 -0.003410 -0.001093 0.011845 0.001565 -0.005978 -0.000609
# 4 -0.000420 -0.001745 0.001565 0.032512 -0.004576 0.007580
# 5 -0.001207 0.001106 -0.005978 -0.004576 0.026870 0.000062
# 6 -0.003965 -0.002683 -0.000609 0.007580 0.000062 0.027027
#
#
# Mechanical properties :
#
#
# Convention : Reuss Voigt Hill
#
# Bulk Modulus (GPa) = 56.81400 70.98081 63.89740
# Shear Modulus (GPa) = 38.36083 45.94662 42.15372
#
# Velocity S-wave (km/s) = 3.89851 4.26659 4.08669
# Velocity P-wave (km/s) = 6.54017 7.23836 6.89811
#
# Compressibility (1/GPa) = 0.01760130
#
# Stress axis : x y z
#
# Youngs Moduli (GPa) = 111.53213 142.41980 84.42101
#
# Poissons Ratio (x) = 0.08731 0.28784
# Poissons Ratio (y) = 0.06838 0.09229
# Poissons Ratio (z) = 0.38027 0.15569
#
# Static dielectric constant tensor:
#      x y z
#    x 1.971420 -0.014220 0.010490 
#    y -0.014220 2.002600 0.028440 
#    z 0.010490 0.028440 2.023400 
# 
# From -- ./inp_files/328826.got.cif
#   From: 2010.05.17/outbox.cif.g08.bks.cpg/sg2_165_cif.got.tgz:328826.got - 2010.06.03 11:33:40.
