data_PCOD9058858
_publ_section_title
;
Structure prediction by ZEFSAII (Michael W. Deem and Ramdas Pophale) SiO2 
 PCOD9058858
Probable space group: P -1
;
_chemical_formula_sum "Si O2"
_cell_formula_units_Z 16
_cell_length_a 21.709436
_cell_length_b 12.857410
_cell_length_c 10.176540
_cell_angle_alpha 147.366515
_cell_angle_beta 38.125092
_cell_angle_gamma 144.834602
_cell_volume 836.943485
_symmetry_space_group_name_H-M "P -1"
_symmetry_group_IT_number 2
_symmetry_cell_setting 'triclinic'
loop_
_space_group_symop_operation_xyz
x,y,z
-x,-y,-z
loop_
_atom_site_type_symbol
_atom_site_label
_atom_site_fract_x
_atom_site_fract_y
_atom_site_fract_z
Si Si1 0.883646 0.823896 0.947820
Si Si2 0.840705 0.930147 0.667258
Si Si3 0.095604 0.717792 0.837296
Si Si4 0.240315 0.901658 0.531132
Si Si5 0.456519 0.161687 0.308193
Si Si6 0.053508 0.260241 0.528135
Si Si7 0.150146 0.472558 0.082284
Si Si8 0.659526 0.634548 0.477502
O O1 0.795139 0.908381 0.218073
O O2 0.897817 0.801778 0.747337
O O3 0.857821 0.609536 0.842531
O O4 0.000000 0.000000 0.000000
O O5 0.887321 0.767759 0.470235
O O6 0.716767 0.789469 0.670531
O O7 0.923131 0.085790 0.581153
O O8 0.859105 0.089325 0.927680
O O9 0.184048 0.789114 0.644144
O O10 0.076005 0.502401 0.719792
O O11 0.972279 0.653022 0.913109
O O12 0.189708 0.727915 0.311143
O O13 0.374143 0.021731 0.415231
O O14 0.559189 0.394948 0.423173
O O15 0.385997 0.237067 0.405898
O O16 0.500000 0.000000 0.000000
O O17 0.241404 0.413837 0.799842
#
# Coordination Sequence:
#
# PCOD9058858 Si02
#       8
#     2   2   2   2   2   2   2   2
#     4  12  20  35  59  93 133 164 201 252 314 377
#     4  11  24  42  60  90 133 174 207 246 311 385
#     4  12  24  38  62 101 134 167 205 250 316 389
#     4  12  23  38  65  93 127 163 208 266 315 361
#     4  11  25  45  67  94 119 160 219 272 313 360
#     4  11  23  38  59  93 137 172 202 243 312 391
#     4  12  22  37  65  99 130 162 205 257 321 379
#     4  11  25  43  68  92 122 167 214 261 314 369
#
# _framework density 19.117180999999999
#
# number of rings (size 3 to 8) (size 9 to 14) (size 15 to 20)
#    0.000    0.500    6.250    3.750    1.750    1.000 
#    0.000    0.625    0.000    1.500    0.000    0.000 
#    0.000    0.000    0.000    0.000    0.000    0.000 
#
# Total GULP energy -89313.166338 kJ/mol
# GULP energy per Si atom -5582.072896 kJ/mol
# Density = 1.907367 g / cm^3
# Si number density = 19.117181 Si / 1000 Ang^3
#
#
#
# Elastic Constant Matrix: (Units=GPa)
#
#
# Indices 1 2 3 4 5 6 
#
# 1 84.2856 66.0193 43.5447 8.8664 4.9607 7.5990
# 2 66.0193 133.1279 53.9268 -0.9725 -2.0854 7.2718
# 3 43.5447 53.9268 119.3375 1.0919 0.6967 6.9940
# 4 8.8664 -0.9725 1.0919 38.8467 2.3907 -3.6732
# 5 4.9607 -2.0854 0.6967 2.3907 23.1756 7.9439
# 6 7.5990 7.2718 6.9940 -3.6732 7.9439 30.8175
#
#
#
# Elastic Compliance Matrix: (Units=1/GPa)
#
#
# Indices 1 2 3 4 5 6 
#
# 1 0.022145 -0.009528 -0.003592 -0.005106 -0.004314 -0.001894
# 2 -0.009528 0.013391 -0.002567 0.002297 0.003366 -0.000822
# 3 -0.003592 -0.002567 0.010908 0.000312 0.000551 -0.001089
# 4 -0.005106 0.002297 0.000312 0.027602 -0.003188 0.004758
# 5 -0.004314 0.003366 0.000551 -0.003188 0.049107 -0.012894
# 6 -0.001894 -0.000822 -0.001089 0.004758 -0.012894 0.037248
#
#
# Mechanical properties :
#
#
# Convention : Reuss Voigt Hill
#
# Bulk Modulus (GPa) = 66.35835 73.74807 70.05321
# Shear Modulus (GPa) = 25.40662 30.11865 27.76263
#
# Velocity S-wave (km/s) = 3.64949 3.97353 3.81495
# Velocity P-wave (km/s) = 7.24880 7.72739 7.49192
#
# Compressibility (1/GPa) = 0.01506969
#
# Stress axis : x y z
#
# Youngs Moduli (GPa) = 45.15637 74.67704 91.67659
#
# Poissons Ratio (x) = 0.71156 0.32929
# Poissons Ratio (y) = 0.43027 0.23532
# Poissons Ratio (z) = 0.16220 0.19169
#
# Static dielectric constant tensor:
#      x y z
#    x 1.645010 -0.024570 0.003370 
#    y -0.024570 1.701730 -0.005310 
#    z 0.003370 -0.005310 1.662440 
# 
# From -- ./inp_files/346432.got.cif
#   From: 2010.05.17/outbox.cif.g08.bks.cpg/sg2_174_cif.got.tgz:346432.got - 2010.06.03 11:33:40.
