data_PCOD9058583
_publ_section_title
;
Structure prediction by ZEFSAII (Michael W. Deem and Ramdas Pophale) SiO2 
 PCOD9058583
Probable space group: P -1
;
_chemical_formula_sum "Si O2"
_cell_formula_units_Z 16
_cell_length_a 11.781194
_cell_length_b 8.558611
_cell_length_c 13.267838
_cell_angle_alpha 33.460756
_cell_angle_beta 108.746332
_cell_angle_gamma 110.371696
_cell_volume 690.242689
_symmetry_space_group_name_H-M "P -1"
_symmetry_group_IT_number 2
_symmetry_cell_setting 'triclinic'
loop_
_space_group_symop_operation_xyz
x,y,z
-x,-y,-z
loop_
_atom_site_type_symbol
_atom_site_label
_atom_site_fract_x
_atom_site_fract_y
_atom_site_fract_z
Si Si1 0.122882 0.487647 0.481158
Si Si2 0.232903 0.416282 0.840865
Si Si3 0.985069 0.651835 0.685815
Si Si4 0.725030 0.903211 0.170828
Si Si5 0.530105 0.318650 0.701754
Si Si6 0.420034 0.192358 0.141316
Si Si7 0.249761 0.477522 0.199676
Si Si8 0.315345 0.893083 0.450083
O O1 0.089120 0.493719 0.353011
O O2 0.183240 0.202911 0.667329
O O3 0.000000 0.500000 0.500000
O O4 0.221781 0.724044 0.433929
O O5 0.219969 0.170880 0.881945
O O6 0.113143 0.539660 0.774627
O O7 0.313483 0.680285 0.659683
O O8 0.290805 0.279643 0.025843
O O9 0.892798 0.548970 0.803888
O O10 0.000000 0.000000 0.500000
O O11 0.589284 0.727558 0.237300
O O12 0.716265 0.232277 0.009210
O O13 0.500000 0.500000 0.500000
O O14 0.653419 0.463016 0.712536
O O15 0.547401 0.009436 0.830404
O O16 0.426474 0.016825 0.341901
O O17 0.500000 0.500000 0.000000
O O18 0.270245 0.179518 0.319940
#
# Coordination Sequence:
#
# PCOD9058583 Si02
#       8
#     2   2   2   2   2   2   2   2
#     4  11  22  46  72  98 144 184 237 290 362 424
#     4  11  25  48  71 106 147 187 242 296 358 427
#     4  12  24  46  73 105 141 189 242 291 359 433
#     4  11  24  44  72 106 138 189 238 299 355 425
#     4  12  26  47  71 105 142 191 243 296 361 432
#     4  12  28  46  72 107 146 191 242 294 357 435
#     4  12  25  44  73 103 145 187 237 302 358 423
#     4  11  25  47  69 107 140 189 238 291 367 415
#
# _framework density 23.180253
#
# number of rings (size 3 to 8) (size 9 to 14) (size 15 to 20)
#    0.000    0.500    5.000    4.125    3.500    4.000 
#    0.000    1.875    0.000    0.000    0.000    0.000 
#    0.000    0.000    0.000    0.000    0.000    0.000 
#
# Total GULP energy -89407.704133 kJ/mol
# GULP energy per Si atom -5587.981508 kJ/mol
# Density = 2.312749 g / cm^3
# Si number density = 23.180253 Si / 1000 Ang^3
#
#
#
# Elastic Constant Matrix: (Units=GPa)
#
#
# Indices 1 2 3 4 5 6 
#
# 1 105.9178 1.4125 12.0093 3.3479 9.1061 -2.8431
# 2 1.4125 58.7391 16.0481 -20.7361 9.5451 -3.8890
# 3 12.0093 16.0481 109.7710 -11.6869 10.6951 6.9945
# 4 3.3479 -20.7361 -11.6869 33.6766 -0.0243 5.2253
# 5 9.1061 9.5451 10.6951 -0.0243 47.0301 -4.5036
# 6 -2.8431 -3.8890 6.9945 5.2253 -4.5036 34.6848
#
#
#
# Elastic Compliance Matrix: (Units=1/GPa)
#
#
# Indices 1 2 3 4 5 6 
#
# 1 0.009783 -0.000194 -0.001140 -0.001654 -0.001494 0.001065
# 2 -0.000194 0.022938 -0.001489 0.013584 -0.004248 0.000258
# 3 -0.001140 -0.001489 0.010193 0.003209 -0.002087 -0.003070
# 4 -0.001654 0.013584 0.003209 0.040234 -0.003701 -0.005801
# 5 -0.001494 -0.004248 -0.002087 -0.003701 0.023212 0.003394
# 6 0.001065 0.000258 -0.003070 -0.005801 0.003394 0.030881
#
#
# Mechanical properties :
#
#
# Convention : Reuss Voigt Hill
#
# Bulk Modulus (GPa) = 26.83313 37.04085 31.93699
# Shear Modulus (GPa) = 32.19372 39.40885 35.80128
#
# Velocity S-wave (km/s) = 3.73076 4.12771 3.93424
# Velocity P-wave (km/s) = 5.49173 6.22346 5.86901
#
# Compressibility (1/GPa) = 0.03726737
#
# Stress axis : x y z
#
# Youngs Moduli (GPa) = 102.22335 43.59488 98.10745
#
# Poissons Ratio (x) = 0.00847 0.11187
# Poissons Ratio (y) = 0.01987 0.14605
# Poissons Ratio (z) = 0.11656 0.06490
#
# Static dielectric constant tensor:
#      x y z
#    x 1.906200 -0.038600 -0.008700 
#    y -0.038600 1.851200 0.017690 
#    z -0.008700 0.017690 1.874470 
# 
# From -- ./inp_files/274929.got.cif
#   From: 2010.05.17/outbox.cif.g08.bks.cpg/sg2_138_cif.got.tgz:274929.got - 2010.06.03 11:33:40.
