data_PCOD9058859
_publ_section_title
;
Structure prediction by ZEFSAII (Michael W. Deem and Ramdas Pophale) SiO2 
 PCOD9058859
Probable space group: P -1
;
_chemical_formula_sum "Si O2"
_cell_formula_units_Z 16
_cell_length_a 8.454410
_cell_length_b 13.555501
_cell_length_c 5.568412
_cell_angle_alpha 102.702868
_cell_angle_beta 91.190222
_cell_angle_gamma 102.082218
_cell_volume 607.256273
_symmetry_space_group_name_H-M "P -1"
_symmetry_group_IT_number 2
_symmetry_cell_setting 'triclinic'
loop_
_space_group_symop_operation_xyz
x,y,z
-x,-y,-z
loop_
_atom_site_type_symbol
_atom_site_label
_atom_site_fract_x
_atom_site_fract_y
_atom_site_fract_z
Si Si1 0.604114 0.361980 0.456892
Si Si2 0.675416 0.570424 0.239215
Si Si3 0.149630 0.511600 0.189872
Si Si4 0.082850 0.315153 0.383112
Si Si5 0.867760 0.945890 0.266820
Si Si6 0.406096 0.994588 0.246068
Si Si7 0.346330 0.193297 0.135323
Si Si8 0.861284 0.132863 0.063945
O O1 0.642748 0.464885 0.343375
O O2 0.463167 0.372779 0.648681
O O3 0.767142 0.378441 0.632273
O O4 0.525572 0.262659 0.237846
O O5 0.844813 0.655732 0.335981
O O6 0.702859 0.529236 0.956207
O O7 0.084455 0.426555 0.339456
O O8 0.000000 0.500000 0.000000
O O9 0.224479 0.266358 0.241010
O O10 0.919197 0.239489 0.257576
O O11 0.812060 0.046260 0.219823
O O12 0.703749 0.854717 0.158462
O O13 0.000000 0.000000 0.500000
O O14 0.984951 0.899130 0.070408
O O15 0.322073 0.094018 0.264433
O O16 0.500000 0.000000 0.500000
O O17 0.500000 0.000000 0.000000
O O18 0.274064 0.887319 0.155172
#
# Coordination Sequence:
#
# PCOD9058859 Si02
#       8
#     2   2   2   2   2   2   2   2
#     4   9  19  39  64  89 127 166 227 273 331 409
#     4   9  19  39  62  90 126 168 214 282 330 403
#     4  11  23  38  59  95 134 170 217 277 351 398
#     4   9  20  40  62  91 123 165 224 276 327 409
#     4   9  18  34  64  91 120 157 209 284 332 389
#     4  11  26  47  65  95 142 183 223 284 350 415
#     4   9  20  42  63  95 121 170 232 271 337 408
#     4   9  20  38  58  90 124 164 219 264 339 396
#
# _framework density 26.348018
#
# number of rings (size 3 to 8) (size 9 to 14) (size 15 to 20)
#    0.000    2.500    0.000    1.875    3.500    5.000 
#   11.250    0.000    0.000    0.000    0.000    0.000 
#    0.000    0.000    0.000    0.000    0.000    0.000 
#
# Total GULP energy -89167.525133 kJ/mol
# GULP energy per Si atom -5572.970321 kJ/mol
# Density = 2.628805 g / cm^3
# Si number density = 26.348018 Si / 1000 Ang^3
#
#
#
# Elastic Constant Matrix: (Units=GPa)
#
#
# Indices 1 2 3 4 5 6 
#
# 1 88.1821 29.1839 64.8144 21.6125 18.0238 10.8777
# 2 29.1839 95.2461 67.2786 48.4890 27.8933 15.8898
# 3 64.8144 67.2786 187.5918 60.6251 57.5815 14.8791
# 4 21.6125 48.4890 60.6251 58.3039 14.7587 22.6526
# 5 18.0238 27.8933 57.5815 14.7587 74.8414 24.6933
# 6 10.8777 15.8898 14.8791 22.6526 24.6933 38.2142
#
#
#
# Elastic Compliance Matrix: (Units=1/GPa)
#
#
# Indices 1 2 3 4 5 6 
#
# 1 0.015938 -0.002413 -0.006500 0.004211 0.003032 -0.005458
# 2 -0.002413 0.020619 0.000556 -0.017761 -0.006137 0.006391
# 3 -0.006500 0.000556 0.014687 -0.015212 -0.010885 0.011952
# 4 0.004211 -0.017761 -0.015212 0.053840 0.016811 -0.030668
# 5 0.003032 -0.006137 -0.010885 0.016811 0.027085 -0.021540
# 6 -0.005458 0.006391 0.011952 -0.030668 -0.021540 0.052510
#
#
# Mechanical properties :
#
#
# Convention : Reuss Voigt Hill
#
# Bulk Modulus (GPa) = 28.96154 77.06376 53.01265
# Shear Modulus (GPa) = 23.48500 48.25478 35.86989
#
# Velocity S-wave (km/s) = 2.98877 4.28417 3.69370
# Velocity P-wave (km/s) = 4.78812 7.33376 6.19315
#
# Compressibility (1/GPa) = 0.03452855
#
# Stress axis : x y z
#
# Youngs Moduli (GPa) = 62.74439 48.49900 68.08942
#
# Poissons Ratio (x) = 0.11704 0.44257
# Poissons Ratio (y) = 0.15142 -0.03784
# Poissons Ratio (z) = 0.40782 -0.02695
#
# Static dielectric constant tensor:
#      x y z
#    x 2.242820 0.049290 0.076920 
#    y 0.049290 2.064720 0.016100 
#    z 0.076920 0.016100 2.142040 
# 
# From -- ./inp_files/39536.got.cif
#   From: 2010.05.17/outbox.cif.g08.bks.cpg/sg2_20_cif.got.tgz:39536.got - 2010.06.03 11:33:40.
