data_PCOD9058625
_publ_section_title
;
Structure prediction by ZEFSAII (Michael W. Deem and Ramdas Pophale) SiO2 
 PCOD9058625
Probable space group: P -1
;
_chemical_formula_sum "Si O2"
_cell_formula_units_Z 14
_cell_length_a 19.110667
_cell_length_b 9.097591
_cell_length_c 12.947727
_cell_angle_alpha 64.574894
_cell_angle_beta 28.200965
_cell_angle_gamma 45.348953
_cell_volume 624.278748
_symmetry_space_group_name_H-M "P -1"
_symmetry_group_IT_number 2
_symmetry_cell_setting 'triclinic'
loop_
_space_group_symop_operation_xyz
x,y,z
-x,-y,-z
loop_
_atom_site_type_symbol
_atom_site_label
_atom_site_fract_x
_atom_site_fract_y
_atom_site_fract_z
Si Si1 0.173487 0.595096 0.534545
Si Si2 0.456030 0.712844 0.537891
Si Si3 0.467590 0.426023 0.909706
Si Si4 0.270339 0.307142 0.685610
Si Si5 0.281027 0.959958 0.481167
Si Si6 0.127076 0.922066 0.090456
Si Si7 0.823889 0.603191 0.605489
O O1 0.340089 0.610174 0.287616
O O2 0.294457 0.361934 0.522259
O O3 0.077646 0.585469 0.561111
O O4 0.986815 0.831014 0.780103
O O5 0.500000 0.500000 0.500000
O O6 0.689690 0.586130 0.314237
O O7 0.352627 0.905425 0.522734
O O8 0.294157 0.839044 0.808933
O O9 0.547339 0.290659 0.735698
O O10 0.250037 0.717962 0.081731
O O11 0.387181 0.334121 0.103185
O O12 0.500000 0.000000 0.500000
O O13 0.000000 0.500000 0.000000
O O14 0.259233 0.155843 0.402818
O O15 0.049143 0.053456 0.740996
O O16 0.000000 0.500000 0.500000
#
# Coordination Sequence:
#
# PCOD9058625 Si02
#       7
#     2   2   2   2   2   2   2
#     4  11  26  47  72 102 144 197 244 306 370 457
#     4  12  23  45  78 111 143 195 242 304 375 456
#     4  11  23  48  70 100 142 196 246 293 369 447
#     4  12  27  47  72 113 156 198 245 309 388 459
#     4  11  24  44  74 109 148 187 243 317 371 434
#     4  11  22  46  75 106 146 192 249 295 378 459
#     4  12  26  47  71 104 141 190 251 314 373 432
#
# _framework density 22.425879999999999
#
# number of rings (size 3 to 8) (size 9 to 14) (size 15 to 20)
#    0.000    0.571    4.286    3.857    0.000    4.000 
#    5.143    0.000    0.000    0.000    0.000    0.000 
#    0.000    0.000    0.000    0.000    0.000    0.000 
#
# Total GULP energy -78213.537871 kJ/mol
# GULP energy per Si atom -5586.681277 kJ/mol
# Density = 2.237484 g / cm^3
# Si number density = 22.425880 Si / 1000 Ang^3
#
#
#
# Elastic Constant Matrix: (Units=GPa)
#
#
# Indices 1 2 3 4 5 6 
#
# 1 168.3294 54.3830 45.6103 -4.8935 -9.4316 18.7834
# 2 54.3830 129.1259 51.1467 -20.0956 -6.3530 -0.9032
# 3 45.6103 51.1467 102.6395 -5.3440 -14.4441 8.0415
# 4 -4.8935 -20.0956 -5.3440 25.2817 -3.3982 3.4666
# 5 -9.4316 -6.3530 -14.4441 -3.3982 15.8344 -4.4891
# 6 18.7834 -0.9032 8.0415 3.4666 -4.4891 36.1831
#
#
#
# Elastic Compliance Matrix: (Units=1/GPa)
#
#
# Indices 1 2 3 4 5 6 
#
# 1 0.007678 -0.002575 -0.001747 -0.000328 0.000878 -0.003522
# 2 -0.002575 0.011857 -0.004283 0.007958 0.001597 0.002020
# 3 -0.001747 -0.004283 0.014196 0.000767 0.010019 -0.001186
# 4 -0.000328 0.007958 0.000767 0.048139 0.013243 -0.002770
# 5 0.000878 0.001597 0.010019 0.013243 0.077931 0.005757
# 6 -0.003522 0.002020 -0.001186 -0.002770 0.005757 0.030759
#
#
# Mechanical properties :
#
#
# Convention : Reuss Voigt Hill
#
# Bulk Modulus (GPa) = 60.52545 78.04164 69.28355
# Shear Modulus (GPa) = 23.44366 32.05682 27.75024
#
# Velocity S-wave (km/s) = 3.23675 3.78492 3.52151
# Velocity P-wave (km/s) = 6.40441 7.34685 6.89175
#
# Compressibility (1/GPa) = 0.01652197
#
# Stress axis : x y z
#
# Youngs Moduli (GPa) = 130.23495 84.34150 70.44034
#
# Poissons Ratio (x) = 0.21714 0.12304
# Poissons Ratio (y) = 0.33529 0.30173
# Poissons Ratio (z) = 0.22749 0.36127
#
# Static dielectric constant tensor:
#      x y z
#    x 1.812750 0.012070 -0.011760 
#    y 0.012070 1.929480 -0.025200 
#    z -0.011760 -0.025200 1.863730 
# 
# From -- ./inp_files/60525.got.cif
#   From: 2010.05.17/outbox.cif.g08.bks.cpg/sg2_31_cif.got.tgz:60525.got - 2010.06.03 11:33:40.
