data_PCOD9058964
_publ_section_title
;
Structure prediction by ZEFSAII (Michael W. Deem and Ramdas Pophale) SiO2 
 PCOD9058964
Probable space group: P -1
;
_chemical_formula_sum "Si O2"
_cell_formula_units_Z 10
_cell_length_a 13.659357
_cell_length_b 13.129539
_cell_length_c 13.099802
_cell_angle_alpha 21.475289
_cell_angle_beta 148.872024
_cell_angle_gamma 146.906759
_cell_volume 433.963135
_symmetry_space_group_name_H-M "P -1"
_symmetry_group_IT_number 2
_symmetry_cell_setting 'triclinic'
loop_
_space_group_symop_operation_xyz
x,y,z
-x,-y,-z
loop_
_atom_site_type_symbol
_atom_site_label
_atom_site_fract_x
_atom_site_fract_y
_atom_site_fract_z
Si Si1 0.507929 0.134073 0.768984
Si Si2 0.595277 0.567434 0.283246
Si Si3 0.185955 0.282067 0.101414
Si Si4 0.995259 0.311691 0.571081
Si Si5 0.093764 0.250370 0.276508
O O1 0.650473 0.393377 0.594215
O O2 0.321494 0.276385 0.468997
O O3 0.500000 0.000000 0.000000
O O4 0.516762 0.849837 0.978057
O O5 0.415138 0.358768 0.259854
O O6 0.785832 0.658834 0.300185
O O7 0.070889 0.201643 0.180673
O O8 0.115416 0.015872 0.212305
O O9 0.123554 0.554667 0.744836
O O10 0.000000 0.500000 0.500000
O O11 0.000000 0.000000 0.500000
O O12 0.000000 0.500000 0.000000
#
# Coordination Sequence:
#
# PCOD9058964 Si02
#       5
#     2   2   2   2   2
#     4  11  24  41  67 102 143 189 231 278 351 420
#     4  11  25  46  68 102 145 184 231 295 351 418
#     4  11  25  46  67 100 147 176 235 297 345 423
#     4  12  27  46  75 103 131 189 244 292 361 407
#     4  11  23  39  66  99 137 187 225 272 350 412
#
# _framework density 23.043431000000002
#
# number of rings (size 3 to 8) (size 9 to 14) (size 15 to 20)
#    0.000    0.800    0.000    8.400    8.400    1.600 
#    0.000    0.000    0.000    0.000    0.000    0.000 
#    0.000    0.000    0.000    0.000    0.000    0.000 
#
# Total GULP energy -55879.705666 kJ/mol
# GULP energy per Si atom -5587.970567 kJ/mol
# Density = 2.299098 g / cm^3
# Si number density = 23.043431 Si / 1000 Ang^3
#
#
#
# Elastic Constant Matrix: (Units=GPa)
#
#
# Indices 1 2 3 4 5 6 
#
# 1 78.5495 42.2361 16.7579 4.0803 26.6353 -1.5734
# 2 42.2361 88.3846 22.8300 -2.1284 28.0950 4.5477
# 3 16.7579 22.8300 138.2336 -12.0056 18.2692 2.4159
# 4 4.0803 -2.1284 -12.0056 45.6141 -3.8846 2.4012
# 5 26.6353 28.0950 18.2692 -3.8846 38.8667 -4.5908
# 6 -1.5734 4.5477 2.4159 2.4012 -4.5908 35.7431
#
#
#
# Elastic Compliance Matrix: (Units=1/GPa)
#
#
# Indices 1 2 3 4 5 6 
#
# 1 0.019421 -0.006564 -0.000406 -0.002923 -0.008570 0.000813
# 2 -0.006564 0.017433 -0.000903 0.000665 -0.008029 -0.003522
# 3 -0.000406 -0.000903 0.007976 0.001909 -0.002736 -0.000922
# 4 -0.002923 0.000665 0.001909 0.023033 0.002746 -0.001537
# 5 -0.008570 -0.008029 -0.002736 0.002746 0.039644 0.005737
# 6 0.000813 -0.003522 -0.000922 -0.001537 0.005737 0.029364
#
#
# Mechanical properties :
#
#
# Convention : Reuss Voigt Hill
#
# Bulk Modulus (GPa) = 34.38248 52.09066 43.23657
# Shear Modulus (GPa) = 30.80509 38.93435 34.86972
#
# Velocity S-wave (km/s) = 3.66023 4.11494 3.89423
# Velocity P-wave (km/s) = 5.72854 6.72544 6.24691
#
# Compressibility (1/GPa) = 0.02908458
#
# Stress axis : x y z
#
# Youngs Moduli (GPa) = 51.49107 57.36098 125.37597
#
# Poissons Ratio (x) = 0.37651 0.05088
# Poissons Ratio (y) = 0.33798 0.11323
# Poissons Ratio (z) = 0.02089 0.05181
#
# Static dielectric constant tensor:
#      x y z
#    x 1.840620 -0.028520 -0.043300 
#    y -0.028520 1.928480 0.028290 
#    z -0.043300 0.028290 1.817760 
# 
# From -- ./inp_files/164536.got.cif
#   From: 2010.05.17/outbox.cif.g08.bks.cpg/sg2_83_cif.got.tgz:164536.got - 2010.06.03 11:33:40.
