data_PCOD9058354
_publ_section_title
;
Structure prediction by ZEFSAII (Michael W. Deem and Ramdas Pophale) SiO2 
 PCOD9058354
Probable space group: P -1
;
_chemical_formula_sum "Si O2"
_cell_formula_units_Z 14
_cell_length_a 9.339333
_cell_length_b 9.059228
_cell_length_c 22.308160
_cell_angle_alpha 127.662038
_cell_angle_beta 152.142555
_cell_angle_gamma 50.468223
_cell_volume 674.093472
_symmetry_space_group_name_H-M "P -1"
_symmetry_group_IT_number 2
_symmetry_cell_setting 'triclinic'
loop_
_space_group_symop_operation_xyz
x,y,z
-x,-y,-z
loop_
_atom_site_type_symbol
_atom_site_label
_atom_site_fract_x
_atom_site_fract_y
_atom_site_fract_z
Si Si1 0.652671 0.718123 0.819256
Si Si2 0.731389 0.944182 0.015660
Si Si3 0.406717 0.947683 0.310464
Si Si4 0.255092 0.092446 0.698835
Si Si5 0.640664 0.617889 0.408269
Si Si6 0.658205 0.290873 0.980096
Si Si7 0.520933 0.301881 0.493147
O O1 0.579655 0.515519 0.729854
O O2 0.995171 0.720393 0.920469
O O3 0.393904 0.883914 0.729133
O O4 0.650932 0.779980 0.903346
O O5 0.093152 0.891067 0.158304
O O6 0.690362 0.128747 0.002782
O O7 0.500000 0.000000 0.000000
O O8 0.652319 0.920494 0.339728
O O9 0.555009 0.815022 0.388166
O O10 0.322042 0.171001 0.354544
O O11 0.884565 0.175668 0.593469
O O12 0.440375 0.233291 0.834115
O O13 0.584298 0.656722 0.467273
O O14 0.000000 0.500000 0.500000
O O15 0.500000 0.500000 0.000000
O O16 0.500000 0.500000 0.500000
#
# Coordination Sequence:
#
# PCOD9058354 Si02
#       7
#     2   2   2   2   2   2   2
#     4  11  23  47  69  98 139 178 228 270 337 413
#     4  11  26  42  69 104 136 179 218 282 346 392
#     4  12  25  45  68  99 142 170 226 284 339 400
#     4  11  22  45  70  97 129 181 225 278 337 396
#     4  12  28  45  67 101 138 180 225 282 340 397
#     4  11  23  42  71 100 137 177 228 274 326 414
#     4  12  27  45  72  98 131 182 233 277 336 407
#
# _framework density 20.768633000000001
#
# number of rings (size 3 to 8) (size 9 to 14) (size 15 to 20)
#    0.000    0.571    2.857    5.143   10.000    1.714 
#    0.000    0.000    0.000    0.000    0.000    0.000 
#    0.000    0.000    0.000    0.000    0.000    0.000 
#
# Total GULP energy -78418.792193 kJ/mol
# GULP energy per Si atom -5601.342299 kJ/mol
# Density = 2.072136 g / cm^3
# Si number density = 20.768633 Si / 1000 Ang^3
#
#
#
# Elastic Constant Matrix: (Units=GPa)
#
#
# Indices 1 2 3 4 5 6 
#
# 1 171.1068 20.1631 37.0127 4.3233 -24.8958 -21.1291
# 2 20.1631 75.4705 4.0402 11.6791 -20.4170 0.8585
# 3 37.0127 4.0402 57.8868 9.6633 -7.3831 2.1867
# 4 4.3233 11.6791 9.6633 44.9830 -7.5197 2.8267
# 5 -24.8958 -20.4170 -7.3831 -7.5197 38.8294 -3.7426
# 6 -21.1291 0.8585 2.1867 2.8267 -3.7426 35.3830
#
#
#
# Elastic Compliance Matrix: (Units=1/GPa)
#
#
# Indices 1 2 3 4 5 6 
#
# 1 0.008431 -0.000922 -0.005105 0.000946 0.004692 0.005793
# 2 -0.000922 0.015906 0.000920 -0.003009 0.007367 0.000026
# 3 -0.005105 0.000920 0.021317 -0.004058 0.000087 -0.004055
# 4 0.000946 -0.003009 -0.004058 0.024323 0.002891 -0.000749
# 5 0.004692 0.007367 0.000087 0.002891 0.033787 0.005960
# 6 0.005793 0.000026 -0.004055 -0.000749 0.005960 0.032662
#
#
# Mechanical properties :
#
#
# Convention : Reuss Voigt Hill
#
# Bulk Modulus (GPa) = 28.21658 47.43290 37.82474
# Shear Modulus (GPa) = 31.55520 40.05561 35.80541
#
# Velocity S-wave (km/s) = 3.90214 4.39641 4.15663
# Velocity P-wave (km/s) = 5.82390 6.97564 6.42563
#
# Compressibility (1/GPa) = 0.03544016
#
# Stress axis : x y z
#
# Youngs Moduli (GPa) = 118.60387 62.87078 46.91145
#
# Poissons Ratio (x) = 0.05799 0.23948
# Poissons Ratio (y) = 0.10939 -0.04318
# Poissons Ratio (z) = 0.60548 -0.05787
#
# Static dielectric constant tensor:
#      x y z
#    x 1.697860 0.005460 -0.006970 
#    y 0.005460 1.723360 0.010840 
#    z -0.006970 0.010840 1.761060 
# 
# From -- ./inp_files/156974.got.cif
#   From: 2010.05.17/outbox.cif.g08.bks.cpg/sg2_79_cif.got.tgz:156974.got - 2010.06.03 11:33:40.
