data_PCOD9058929
_publ_section_title
;
Structure prediction by ZEFSAII (Michael W. Deem and Ramdas Pophale) SiO2 
 PCOD9058929
Probable space group: P -1
;
_chemical_formula_sum "Si O2"
_cell_formula_units_Z 16
_cell_length_a 8.595525
_cell_length_b 5.742034
_cell_length_c 21.989278
_cell_angle_alpha 98.226315
_cell_angle_beta 132.449271
_cell_angle_gamma 63.468141
_cell_volume 695.545890
_symmetry_space_group_name_H-M "P -1"
_symmetry_group_IT_number 2
_symmetry_cell_setting 'triclinic'
loop_
_space_group_symop_operation_xyz
x,y,z
-x,-y,-z
loop_
_atom_site_type_symbol
_atom_site_label
_atom_site_fract_x
_atom_site_fract_y
_atom_site_fract_z
Si Si1 0.503458 0.842872 0.764120
Si Si2 0.975233 0.795322 0.572371
Si Si3 0.951330 0.024580 0.277050
Si Si4 0.699199 0.695642 0.049176
Si Si5 0.765384 0.855843 0.397242
Si Si6 0.530295 0.483420 0.109645
Si Si7 0.167128 0.724655 0.206553
Si Si8 0.176624 0.979483 0.099647
O O1 0.253979 0.011563 0.741293
O O2 0.582459 0.541080 0.752179
O O3 0.475998 0.009323 0.701289
O O4 0.716104 0.818182 0.862710
O O5 0.760476 0.882639 0.469914
O O6 0.933579 0.880988 0.635233
O O7 0.105346 0.467122 0.592557
O O8 0.111364 0.961137 0.587838
O O9 0.770438 0.245812 0.190717
O O10 0.142508 0.805847 0.273959
O O11 0.606377 0.593558 0.076588
O O12 0.954221 0.653622 0.134738
O O13 0.677078 0.571951 0.975091
O O14 0.500000 0.000000 0.000000
O O15 0.411935 0.699204 0.138412
O O16 0.096501 0.956600 0.145532
O O17 0.000000 0.000000 0.000000
#
# Coordination Sequence:
#
# PCOD9058929 Si02
#       8
#     2   2   2   2   2   2   2   2
#     4  11  25  44  64  95 130 177 216 280 338 402
#     4   9  19  39  68 107 128 177 220 275 334 408
#     4  11  23  43  66  95 131 169 222 274 339 401
#     4  11  23  40  61  88 123 169 222 273 331 391
#     4   9  19  39  72  98 138 170 225 271 336 409
#     4  11  23  39  63  88 121 170 217 276 333 395
#     4  12  26  41  61  95 128 173 219 281 331 402
#     4  12  26  40  61  92 127 172 227 278 332 399
#
# _framework density 23.003512000000001
#
# number of rings (size 3 to 8) (size 9 to 14) (size 15 to 20)
#    0.000    1.250    2.500    3.000    7.000    2.000 
#    0.000    0.625    0.000    0.750    0.000    0.000 
#    0.000    0.000    0.000    0.000    0.000    0.000 
#
# Total GULP energy -89127.478295 kJ/mol
# GULP energy per Si atom -5570.467393 kJ/mol
# Density = 2.295116 g / cm^3
# Si number density = 23.003512 Si / 1000 Ang^3
#
#
#
# Elastic Constant Matrix: (Units=GPa)
#
#
# Indices 1 2 3 4 5 6 
#
# 1 50.7859 12.1286 38.5796 16.7393 -17.5237 -7.4783
# 2 12.1286 75.7745 26.4411 18.2793 -14.5564 -9.5131
# 3 38.5796 26.4411 153.4724 14.0360 -42.2477 7.8275
# 4 16.7393 18.2793 14.0360 42.2644 -2.1897 -11.3207
# 5 -17.5237 -14.5564 -42.2477 -2.1897 33.2270 4.7753
# 6 -7.4783 -9.5131 7.8275 -11.3207 4.7753 30.5454
#
#
#
# Elastic Compliance Matrix: (Units=1/GPa)
#
#
# Indices 1 2 3 4 5 6 
#
# 1 0.029626 0.001347 -0.004439 -0.009314 0.009398 0.003889
# 2 0.001347 0.016279 -0.001163 -0.006224 0.005591 0.002517
# 3 -0.004439 -0.001163 0.012318 -0.003249 0.013740 -0.007958
# 4 -0.009314 -0.006224 -0.003249 0.033421 -0.011110 0.010737
# 5 0.009398 0.005591 0.013740 -0.011110 0.056016 -0.012354
# 6 0.003889 0.002517 -0.007958 0.010737 -0.012354 0.042424
#
#
# Mechanical properties :
#
#
# Convention : Reuss Voigt Hill
#
# Bulk Modulus (GPa) = 20.11562 48.25903 34.18733
# Shear Modulus (GPa) = 23.23807 34.73294 28.98550
#
# Velocity S-wave (km/s) = 3.18181 3.88995 3.55356
# Velocity P-wave (km/s) = 4.71827 6.41874 5.63304
#
# Compressibility (1/GPa) = 0.04971260
#
# Stress axis : x y z
#
# Youngs Moduli (GPa) = 33.75393 61.42954 81.18464
#
# Poissons Ratio (x) = -0.08277 0.36038
# Poissons Ratio (y) = -0.04548 0.09445
# Poissons Ratio (z) = 0.14983 0.07146
#
# Static dielectric constant tensor:
#      x y z
#    x 1.892000 0.058900 0.023950 
#    y 0.058900 1.919880 0.042560 
#    z 0.023950 0.042560 1.903520 
# 
# From -- ./inp_files/141441.got.cif
#   From: 2010.05.17/outbox.cif.g08.bks.cpg/sg2_71_cif.got.tgz:141441.got - 2010.06.03 11:33:40.
