data_PCOD9058178
_publ_section_title
;
Structure prediction by ZEFSAII (Michael W. Deem and Ramdas Pophale) SiO2 
 PCOD9058178
Probable space group: P -1
;
_chemical_formula_sum "Si O2"
_cell_formula_units_Z 16
_cell_length_a 9.093723
_cell_length_b 8.638506
_cell_length_c 16.089729
_cell_angle_alpha 141.019631
_cell_angle_beta 67.297915
_cell_angle_gamma 110.901110
_cell_volume 729.976364
_symmetry_space_group_name_H-M "P -1"
_symmetry_group_IT_number 2
_symmetry_cell_setting 'triclinic'
loop_
_space_group_symop_operation_xyz
x,y,z
-x,-y,-z
loop_
_atom_site_type_symbol
_atom_site_label
_atom_site_fract_x
_atom_site_fract_y
_atom_site_fract_z
Si Si1 0.854684 0.993821 0.167551
Si Si2 0.210126 0.925612 0.083543
Si Si3 0.605333 0.238772 0.702509
Si Si4 0.751320 0.643311 0.193254
Si Si5 0.319191 0.236913 0.045404
Si Si6 0.639395 0.414101 0.375203
Si Si7 0.163064 0.117380 0.558523
Si Si8 0.572701 0.032174 0.806161
O O1 0.761916 0.230621 0.309332
O O2 0.797001 0.772499 0.149802
O O3 0.042981 0.033065 0.149922
O O4 0.807985 0.906203 0.048083
O O5 0.258434 0.959809 0.183196
O O6 0.330977 0.087494 0.064909
O O7 0.211999 0.640541 0.937965
O O8 0.437248 0.317809 0.737263
O O9 0.710864 0.486799 0.811319
O O10 0.574410 0.080747 0.728274
O O11 0.708187 0.085115 0.555417
O O12 0.853237 0.785337 0.303720
O O13 0.483342 0.242062 0.959542
O O14 0.500000 0.500000 0.500000
O O15 0.747514 0.644682 0.409579
O O16 0.534427 0.224564 0.257776
O O17 0.000000 0.000000 0.500000
#
# Coordination Sequence:
#
# PCOD9058178 Si02
#       8
#     2   2   2   2   2   2   2   2
#     4  11  25  43  71 103 140 181 227 291 354 406
#     4  12  26  40  72 109 140 172 231 297 351 409
#     4  12  24  45  71  97 141 185 236 277 347 422
#     4  12  24  47  70 100 141 184 235 280 350 420
#     4  11  23  42  68 101 140 181 227 287 346 414
#     4  11  23  49  73  97 140 189 233 278 343 419
#     4  12  30  46  70 104 141 186 232 294 348 410
#     4  11  22  44  73 103 132 184 233 284 345 416
#
# _framework density 21.918516
#
# number of rings (size 3 to 8) (size 9 to 14) (size 15 to 20)
#    0.000    0.500    5.000    4.125    7.000    0.000 
#    0.000    1.250    0.000    0.000    0.000    0.000 
#    0.000    0.000    0.000    0.000    0.000    0.000 
#
# Total GULP energy -89417.648896 kJ/mol
# GULP energy per Si atom -5588.603056 kJ/mol
# Density = 2.186863 g / cm^3
# Si number density = 21.918516 Si / 1000 Ang^3
#
#
#
# Elastic Constant Matrix: (Units=GPa)
#
#
# Indices 1 2 3 4 5 6 
#
# 1 129.5776 0.8531 34.0777 1.0526 3.9315 -2.5091
# 2 0.8531 78.3006 27.9301 16.8124 -8.0319 -2.7274
# 3 34.0777 27.9301 93.1574 21.9724 -0.3357 -2.3927
# 4 1.0526 16.8124 21.9724 30.7452 -1.2878 1.4656
# 5 3.9315 -8.0319 -0.3357 -1.2878 33.1768 -1.0704
# 6 -2.5091 -2.7274 -2.3927 1.4656 -1.0704 21.2574
#
#
#
# Elastic Compliance Matrix: (Units=1/GPa)
#
#
# Indices 1 2 3 4 5 6 
#
# 1 0.008757 0.000807 -0.003904 0.001991 -0.000788 0.000521
# 2 0.000807 0.015768 -0.003511 -0.006104 0.003524 0.002321
# 3 -0.003904 -0.003511 0.015379 -0.009027 -0.000536 0.001415
# 4 0.001991 -0.006104 -0.009027 0.042449 -0.000303 -0.004506
# 5 -0.000788 0.003524 -0.000536 -0.000303 0.031132 0.001887
# 6 0.000521 0.002321 0.001415 -0.004506 0.001887 0.047967
#
#
# Mechanical properties :
#
#
# Convention : Reuss Voigt Hill
#
# Bulk Modulus (GPa) = 37.47073 47.41748 42.44410
# Shear Modulus (GPa) = 27.23869 32.91418 30.07643
#
# Velocity S-wave (km/s) = 3.52905 3.87933 3.70833
# Velocity P-wave (km/s) = 5.80846 6.46112 6.14346
#
# Compressibility (1/GPa) = 0.02668750
#
# Stress axis : x y z
#
# Youngs Moduli (GPa) = 114.19830 63.42054 65.02404
#
# Poissons Ratio (x) = -0.05118 0.25388
# Poissons Ratio (y) = -0.09217 0.22827
# Poissons Ratio (z) = 0.44588 0.22264
#
# Static dielectric constant tensor:
#      x y z
#    x 1.851080 0.018760 -0.013280 
#    y 0.018760 1.810000 0.004440 
#    z -0.013280 0.004440 1.807790 
# 
# From -- ./inp_files/205547.got.cif
#   From: 2010.05.17/outbox.cif.g08.bks.cpg/sg2_103_cif.got.tgz:205547.got - 2010.06.03 11:33:40.
