data_PCOD9058421
_publ_section_title
;
Structure prediction by ZEFSAII (Michael W. Deem and Ramdas Pophale) SiO2 
 PCOD9058421
Probable space group: P -1
;
_chemical_formula_sum "Si O2"
_cell_formula_units_Z 14
_cell_length_a 11.582989
_cell_length_b 27.979323
_cell_length_c 14.255576
_cell_angle_alpha 158.005353
_cell_angle_beta 32.566161
_cell_angle_gamma 158.655230
_cell_volume 622.378843
_symmetry_space_group_name_H-M "P -1"
_symmetry_group_IT_number 2
_symmetry_cell_setting 'triclinic'
loop_
_space_group_symop_operation_xyz
x,y,z
-x,-y,-z
loop_
_atom_site_type_symbol
_atom_site_label
_atom_site_fract_x
_atom_site_fract_y
_atom_site_fract_z
Si Si1 0.354355 0.796619 0.241282
Si Si2 0.240398 0.927053 0.120620
Si Si3 0.422869 0.601382 0.690003
Si Si4 0.707912 0.311358 0.582982
Si Si5 0.662522 0.772640 0.147045
Si Si6 0.343913 0.394546 0.638810
Si Si7 0.661687 0.490732 0.788487
O O1 0.505340 0.808779 0.255688
O O2 0.974302 0.659260 0.251253
O O3 0.500000 0.000000 0.500000
O O4 0.442402 0.731379 0.982572
O O5 0.019545 0.938569 0.244163
O O6 0.453644 0.083756 0.340958
O O7 0.990651 0.708583 0.928598
O O8 0.500000 0.000000 0.000000
O O9 0.500000 0.500000 0.500000
O O10 0.640520 0.702023 0.630197
O O11 0.056808 0.433550 0.601717
O O12 0.556860 0.338503 0.812874
O O13 0.731412 0.387260 0.603278
O O14 0.630413 0.624158 0.844943
O O15 0.427028 0.374715 0.647958
O O16 0.500000 0.500000 0.000000
#
# Coordination Sequence:
#
# PCOD9058421 Si02
#       7
#     2   2   2   2   2   2   2
#     4  12  27  46  73 108 149 193 252 321 377 447
#     4  11  26  43  69 111 150 192 250 315 377 452
#     4  12  25  46  77 104 144 201 252 301 381 452
#     4  12  24  44  77 105 146 201 245 313 381 454
#     4  11  22  45  73 102 145 198 249 302 380 458
#     4  11  23  45  73 104 144 197 251 304 376 455
#     4  11  23  44  73 108 152 196 251 307 382 460
#
# _framework density 22.494339
#
# number of rings (size 3 to 8) (size 9 to 14) (size 15 to 20)
#    0.000    0.571    5.714    3.429    2.000    4.000 
#    0.000    0.000    0.000    0.000    0.000    0.000 
#    0.000    0.000    0.000    0.000    0.000    0.000 
#
# Total GULP energy -78195.084073 kJ/mol
# GULP energy per Si atom -5585.363148 kJ/mol
# Density = 2.244314 g / cm^3
# Si number density = 22.494339 Si / 1000 Ang^3
#
#
#
# Elastic Constant Matrix: (Units=GPa)
#
#
# Indices 1 2 3 4 5 6 
#
# 1 184.6814 47.1639 37.1859 -9.6206 -7.7466 8.1088
# 2 47.1639 96.6813 36.8214 -23.9085 -4.2953 -2.0079
# 3 37.1859 36.8214 101.5841 -16.4579 6.1147 -8.4024
# 4 -9.6206 -23.9085 -16.4579 40.6314 -10.6480 1.7373
# 5 -7.7466 -4.2953 6.1147 -10.6480 31.5757 -5.6362
# 6 8.1088 -2.0079 -8.4024 1.7373 -5.6362 38.1874
#
#
#
# Elastic Compliance Matrix: (Units=1/GPa)
#
#
# Indices 1 2 3 4 5 6 
#
# 1 0.006530 -0.002588 -0.001711 -0.000288 0.001179 -0.001712
# 2 -0.002588 0.015195 -0.003455 0.008209 0.005041 0.000959
# 3 -0.001711 -0.003455 0.012367 0.001887 -0.002204 0.002492
# 4 -0.000288 0.008209 0.001887 0.033261 0.012108 0.001182
# 5 0.001179 0.005041 -0.002204 0.012108 0.037973 0.004584
# 6 -0.001712 0.000959 0.002492 0.001182 0.004584 0.027772
#
#
# Mechanical properties :
#
#
# Convention : Reuss Voigt Hill
#
# Bulk Modulus (GPa) = 53.80872 69.47656 61.64264
# Shear Modulus (GPa) = 32.29960 39.53062 35.91511
#
# Velocity S-wave (km/s) = 3.79344 4.19663 4.00012
# Velocity P-wave (km/s) = 6.56961 7.37805 6.98554
#
# Compressibility (1/GPa) = 0.01858435
#
# Stress axis : x y z
#
# Youngs Moduli (GPa) = 153.14216 65.80934 80.85841
#
# Poissons Ratio (x) = 0.17032 0.13838
# Poissons Ratio (y) = 0.39634 0.27934
# Poissons Ratio (z) = 0.26209 0.22735
#
# Static dielectric constant tensor:
#      x y z
#    x 1.902230 0.025690 0.068260 
#    y 0.025690 1.890110 0.008180 
#    z 0.068260 0.008180 2.060630 
# 
# From -- ./inp_files/524627.got.cif
#   From: 2010.05.17/outbox.cif.g08.bks.cpg/sg2_263_cif.got.tgz:524627.got - 2010.06.03 11:33:40.
