data_PCOD9058340
_publ_section_title
;
Structure prediction by ZEFSAII (Michael W. Deem and Ramdas Pophale) SiO2 
 PCOD9058340
Probable space group: P -1
;
_chemical_formula_sum "Si O2"
_cell_formula_units_Z 16
_cell_length_a 14.033329
_cell_length_b 13.823771
_cell_length_c 10.881568
_cell_angle_alpha 88.451999
_cell_angle_beta 114.565803
_cell_angle_gamma 34.117125
_cell_volume 738.621867
_symmetry_space_group_name_H-M "P -1"
_symmetry_group_IT_number 2
_symmetry_cell_setting 'triclinic'
loop_
_space_group_symop_operation_xyz
x,y,z
-x,-y,-z
loop_
_atom_site_type_symbol
_atom_site_label
_atom_site_fract_x
_atom_site_fract_y
_atom_site_fract_z
Si Si1 0.192207 0.273478 0.274128
Si Si2 0.443045 0.221714 0.271390
Si Si3 0.583134 0.823936 0.002706
Si Si4 0.035909 0.716437 0.978600
Si Si5 0.707899 0.309931 0.504573
Si Si6 0.923924 0.908858 0.665622
Si Si7 0.463637 0.470695 0.854984
Si Si8 0.826051 0.981251 0.108202
O O1 0.210667 0.361275 0.213301
O O2 0.145515 0.220642 0.163460
O O3 0.909682 0.521903 0.192313
O O4 0.500000 0.000000 0.500000
O O5 0.683450 0.041426 0.497528
O O6 0.505539 0.105194 0.190238
O O7 0.334966 0.415378 0.153860
O O8 0.407638 0.890647 0.972711
O O9 0.500000 0.000000 0.000000
O O10 0.003505 0.824190 0.852625
O O11 0.966177 0.812998 0.071957
O O12 0.500000 0.500000 0.500000
O O13 0.566178 0.448248 0.292387
O O14 0.833750 0.095385 0.586104
O O15 0.951310 0.179118 0.664528
O O16 0.171952 0.671076 0.718244
O O17 0.500000 0.500000 0.000000
O O18 0.693277 0.194263 0.983857
#
# Coordination Sequence:
#
# PCOD9058340 Si02
#       8
#     2   2   2   2   2   2   2   2
#     4  11  22  45  70 103 140 186 240 295 360 437
#     4  11  23  42  74  96 141 183 236 292 354 431
#     4  11  24  45  72 103 142 185 232 298 366 419
#     4  11  24  44  72 100 138 188 235 289 364 423
#     4  12  28  46  71 103 142 186 238 296 357 420
#     4  12  25  43  71 102 136 185 239 288 355 427
#     4  12  27  45  71 101 143 188 239 290 355 423
#     4  12  26  46  70 102 145 182 237 295 354 423
#
# _framework density 21.661964000000001
#
# number of rings (size 3 to 8) (size 9 to 14) (size 15 to 20)
#    0.000    0.500    2.500    7.125    5.250    1.000 
#    4.500    1.250    0.000    0.000    0.000    0.000 
#    0.000    0.000    0.000    0.000    0.000    0.000 
#
# Total GULP energy -89433.298936 kJ/mol
# GULP energy per Si atom -5589.581184 kJ/mol
# Density = 2.161266 g / cm^3
# Si number density = 21.661964 Si / 1000 Ang^3
#
#
#
# Elastic Constant Matrix: (Units=GPa)
#
#
# Indices 1 2 3 4 5 6 
#
# 1 103.7658 25.5159 47.9039 6.4598 2.7594 -0.6540
# 2 25.5159 106.5315 38.8585 18.5131 9.1081 18.2888
# 3 47.9039 38.8585 133.2276 7.1857 -6.5616 5.7643
# 4 6.4598 18.5131 7.1857 25.4887 -3.2958 -4.8775
# 5 2.7594 9.1081 -6.5616 -3.2958 38.7490 1.1790
# 6 -0.6540 18.2888 5.7643 -4.8775 1.1790 38.0193
#
#
#
# Elastic Compliance Matrix: (Units=1/GPa)
#
#
# Indices 1 2 3 4 5 6 
#
# 1 0.011899 -0.001407 -0.003951 -0.000775 -0.001295 0.001422
# 2 -0.001407 0.014562 -0.003005 -0.011476 -0.004567 -0.007904
# 3 -0.003951 -0.003005 0.009904 0.000723 0.002730 -0.000116
# 4 -0.000775 -0.011476 0.000723 0.050680 0.006830 0.011687
# 5 -0.001295 -0.004567 0.002730 0.006830 0.027962 0.001770
# 6 0.001422 -0.007904 -0.000116 0.011687 0.001770 0.031591
#
#
# Mechanical properties :
#
#
# Convention : Reuss Voigt Hill
#
# Bulk Modulus (GPa) = 50.92548 63.12017 57.02282
# Shear Modulus (GPa) = 29.43398 35.86784 32.65091
#
# Velocity S-wave (km/s) = 3.69017 4.07356 3.88660
# Velocity P-wave (km/s) = 6.45885 7.16430 6.82070
#
# Compressibility (1/GPa) = 0.01963654
#
# Stress axis : x y z
#
# Youngs Moduli (GPa) = 84.04070 68.67281 100.97181
#
# Poissons Ratio (x) = 0.09664 0.39899
# Poissons Ratio (y) = 0.11827 0.30344
# Poissons Ratio (z) = 0.33208 0.20638
#
# Static dielectric constant tensor:
#      x y z
#    x 1.821210 -0.016500 -0.001780 
#    y -0.016500 1.759160 -0.020540 
#    z -0.001780 -0.020540 1.857740 
# 
# From -- ./inp_files/315290.got.cif
#   From: 2010.05.17/outbox.cif.g08.bks.cpg/sg2_158_cif.got.tgz:315290.got - 2010.06.03 11:33:40.
