data_PCOD9058221
_publ_section_title
;
Structure prediction by ZEFSAII (Michael W. Deem and Ramdas Pophale) SiO2 
 PCOD9058221
Probable space group: P -1
;
_chemical_formula_sum "Si O2"
_cell_formula_units_Z 16
_cell_length_a 12.387097
_cell_length_b 11.119214
_cell_length_c 10.602598
_cell_angle_alpha 64.290539
_cell_angle_beta 74.719791
_cell_angle_gamma 33.405457
_cell_volume 709.961473
_symmetry_space_group_name_H-M "P -1"
_symmetry_group_IT_number 2
_symmetry_cell_setting 'triclinic'
loop_
_space_group_symop_operation_xyz
x,y,z
-x,-y,-z
loop_
_atom_site_type_symbol
_atom_site_label
_atom_site_fract_x
_atom_site_fract_y
_atom_site_fract_z
Si Si1 0.690735 0.358086 0.087998
Si Si2 0.611410 0.673310 0.165437
Si Si3 0.619901 0.512078 0.496931
Si Si4 0.972062 0.861405 0.342325
Si Si5 0.750992 0.817016 0.059594
Si Si6 0.107050 0.637199 0.131900
Si Si7 0.326958 0.001976 0.493380
Si Si8 0.485690 0.084792 0.270951
O O1 0.630009 0.534051 0.124590
O O2 0.792684 0.136454 0.232990
O O3 0.500000 0.500000 0.000000
O O4 0.863444 0.249503 0.995047
O O5 0.650525 0.574132 0.336053
O O6 0.756356 0.655374 0.095619
O O7 0.390411 0.957087 0.091909
O O8 0.500000 0.500000 0.500000
O O9 0.488955 0.728313 0.536237
O O10 0.829739 0.265903 0.607388
O O11 0.033992 0.723201 0.258859
O O12 0.887740 0.849474 0.483579
O O13 0.954893 0.691718 0.080713
O O14 0.625364 0.938999 0.173734
O O15 0.328796 0.358527 0.185758
O O16 0.379857 0.021837 0.599367
O O17 0.353726 0.084543 0.339305
#
# Coordination Sequence:
#
# PCOD9058221 Si02
#       8
#     2   2   2   2   2   2   2   2
#     4  12  27  48  79 105 142 190 245 298 351 426
#     4  11  26  48  71 102 149 186 234 298 359 419
#     4  12  28  46  69 100 150 195 236 290 356 426
#     4  12  27  46  73 107 142 190 242 288 354 431
#     4  11  24  48  74 105 143 184 236 305 360 415
#     4  12  25  44  79 107 136 182 246 298 357 415
#     4  11  24  44  73 101 147 181 233 288 359 428
#     4  11  22  44  74 107 136 182 230 301 352 417
#
# _framework density 22.536434
#
# number of rings (size 3 to 8) (size 9 to 14) (size 15 to 20)
#    0.000    0.500    5.000    2.625    5.250    3.000 
#    0.000    0.000    0.000    0.000    0.000    0.000 
#    0.000    0.000    0.000    0.000    0.000    0.000 
#
# Total GULP energy -89558.535270 kJ/mol
# GULP energy per Si atom -5597.408454 kJ/mol
# Density = 2.248514 g / cm^3
# Si number density = 22.536434 Si / 1000 Ang^3
#
#
#
# Elastic Constant Matrix: (Units=GPa)
#
#
# Indices 1 2 3 4 5 6 
#
# 1 123.0567 29.4410 14.9630 1.0008 15.9960 -10.9154
# 2 29.4410 62.7264 22.5068 22.5582 6.6569 9.6513
# 3 14.9630 22.5068 80.6852 4.4592 7.4365 -2.7373
# 4 1.0008 22.5582 4.4592 30.4978 -5.5892 0.9241
# 5 15.9960 6.6569 7.4365 -5.5892 38.6674 -0.7075
# 6 -10.9154 9.6513 -2.7373 0.9241 -0.7075 43.1786
#
#
#
# Elastic Compliance Matrix: (Units=1/GPa)
#
#
# Indices 1 2 3 4 5 6 
#
# 1 0.010362 -0.006688 0.000088 0.004015 -0.002499 0.003993
# 2 -0.006688 0.031251 -0.006070 -0.022639 -0.004877 -0.008656
# 3 0.000088 -0.006070 0.014156 0.002099 -0.001370 0.002209
# 4 0.004015 -0.022639 0.002099 0.050631 0.009248 0.005276
# 5 -0.002499 -0.004877 -0.001370 0.009248 0.029347 0.000654
# 6 0.003993 -0.008656 0.002209 0.005276 0.000654 0.026142
#
#
# Mechanical properties :
#
#
# Convention : Reuss Voigt Hill
#
# Bulk Modulus (GPa) = 32.86446 44.47664 38.67055
# Shear Modulus (GPa) = 25.33292 35.77261 30.55276
#
# Velocity S-wave (km/s) = 3.35638 3.98844 3.68598
# Velocity P-wave (km/s) = 5.44379 6.40223 5.94236
#
# Compressibility (1/GPa) = 0.03042800
#
# Stress axis : x y z
#
# Youngs Moduli (GPa) = 96.50505 31.99945 70.64176
#
# Poissons Ratio (x) = 0.21402 -0.00621
# Poissons Ratio (y) = 0.64546 0.42879
# Poissons Ratio (z) = -0.00848 0.19423
#
# Static dielectric constant tensor:
#      x y z
#    x 1.853320 0.011050 -0.031470 
#    y 0.011050 1.809160 0.019940 
#    z -0.031470 0.019940 1.854080 
# 
# From -- ./inp_files/410731.got.cif
#   From: 2010.05.17/outbox.cif.g08.bks.cpg/sg2_206_cif.got.tgz:410731.got - 2010.06.03 11:33:40.
