data_PCOD9058659
_publ_section_title
;
Structure prediction by ZEFSAII (Michael W. Deem and Ramdas Pophale) SiO2 
 PCOD9058659
Probable space group: P -1
;
_chemical_formula_sum "Si O2"
_cell_formula_units_Z 16
_cell_length_a 15.892319
_cell_length_b 18.833043
_cell_length_c 10.505516
_cell_angle_alpha 43.740880
_cell_angle_beta 34.232425
_cell_angle_gamma 21.978489
_cell_volume 647.246811
_symmetry_space_group_name_H-M "P -1"
_symmetry_group_IT_number 2
_symmetry_cell_setting 'triclinic'
loop_
_space_group_symop_operation_xyz
x,y,z
-x,-y,-z
loop_
_atom_site_type_symbol
_atom_site_label
_atom_site_fract_x
_atom_site_fract_y
_atom_site_fract_z
Si Si1 0.068878 0.783718 0.135294
Si Si2 0.248243 0.599910 0.763825
Si Si3 0.622666 0.980028 0.004660
Si Si4 0.471761 0.875860 0.479048
Si Si5 0.796352 0.535622 0.650099
Si Si6 0.292805 0.368909 0.867970
Si Si7 0.808050 0.108800 0.369988
Si Si8 0.644771 0.297168 0.859141
O O1 0.112646 0.635543 0.254810
O O2 0.227868 0.721518 0.149755
O O3 0.158984 0.817114 0.871923
O O4 0.738296 0.987692 0.317328
O O5 0.500000 0.500000 0.500000
O O6 0.206688 0.506936 0.894029
O O7 0.400822 0.508471 0.827386
O O8 0.950015 0.824195 0.809829
O O9 0.428381 0.191097 0.994091
O O10 0.600014 0.908295 0.235749
O O11 0.500000 0.000000 0.000000
O O12 0.688548 0.654937 0.504280
O O13 0.278905 0.947767 0.513715
O O14 0.000000 0.500000 0.500000
O O15 0.531761 0.690084 0.874705
O O16 0.550531 0.266924 0.588982
O O17 0.000000 0.500000 0.000000
O O18 0.133451 0.884540 0.281007
#
# Coordination Sequence:
#
# PCOD9058659 Si02
#       8
#     2   2   2   2   2   2   2   2
#     4  11  25  47  79 112 143 209 249 311 395 443
#     4  12  29  47  74 117 152 199 258 322 381 446
#     4  12  25  50  76 109 154 207 254 314 384 460
#     4  11  23  45  73 108 150 192 257 308 375 460
#     4  12  26  45  71 111 152 197 254 315 381 458
#     4  12  27  50  81 112 149 206 259 310 388 460
#     4  11  22  46  82 109 150 199 260 313 377 462
#     4  11  24  48  72 109 159 191 253 318 376 460
#
# _framework density 24.720091
#
# number of rings (size 3 to 8) (size 9 to 14) (size 15 to 20)
#    0.000    0.500    5.000    2.625    3.500    5.500 
#    2.250    0.000    0.000    0.000    0.000    0.000 
#    0.000    0.000    0.000    0.000    0.000    0.000 
#
# Total GULP energy -89185.454049 kJ/mol
# GULP energy per Si atom -5574.090878 kJ/mol
# Density = 2.466383 g / cm^3
# Si number density = 24.720091 Si / 1000 Ang^3
#
#
#
# Elastic Constant Matrix: (Units=GPa)
#
#
# Indices 1 2 3 4 5 6 
#
# 1 29.2582 20.0016 30.9100 6.6668 -6.1256 -5.9638
# 2 20.0016 149.6064 50.5751 4.1499 -5.5319 -2.9408
# 3 30.9100 50.5751 145.7515 -11.0331 -14.3186 8.2760
# 4 6.6668 4.1499 -11.0331 42.6981 -5.4814 -0.3668
# 5 -6.1256 -5.5319 -14.3186 -5.4814 34.8595 1.8183
# 6 -5.9638 -2.9408 8.2760 -0.3668 1.8183 39.3290
#
#
#
# Elastic Compliance Matrix: (Units=1/GPa)
#
#
# Indices 1 2 3 4 5 6 
#
# 1 0.053048 -0.002630 -0.011524 -0.010666 0.001968 0.010082
# 2 -0.002630 0.007845 -0.002314 -0.000990 -0.000359 0.000682
# 3 -0.011524 -0.002314 0.011068 0.005259 0.003208 -0.004349
# 4 -0.010666 -0.000990 0.005259 0.027099 0.004533 -0.002755
# 5 0.001968 -0.000359 0.003208 0.004533 0.031100 -0.001799
# 6 0.010082 0.000682 -0.004349 -0.002755 -0.001799 0.027979
#
#
# Mechanical properties :
#
#
# Convention : Reuss Voigt Hill
#
# Bulk Modulus (GPa) = 25.62340 58.62105 42.12222
# Shear Modulus (GPa) = 24.49985 38.25264 31.37624
#
# Velocity S-wave (km/s) = 3.15157 3.93801 3.56653
# Velocity P-wave (km/s) = 4.86119 6.66653 5.83411
#
# Compressibility (1/GPa) = 0.03902683
#
# Stress axis : x y z
#
# Youngs Moduli (GPa) = 18.85076 127.46168 90.35165
#
# Poissons Ratio (x) = 0.33518 1.04123
# Poissons Ratio (y) = 0.04957 0.20903
# Poissons Ratio (z) = 0.21724 0.29489
#
# Static dielectric constant tensor:
#      x y z
#    x 4.433180 -1.755460 -0.337290 
#    y -1.755460 3.265950 0.353820 
#    z -0.337290 0.353820 2.101810 
# 
# From -- ./inp_files/467092.got.cif
#   From: 2010.05.17/outbox.cif.g08.bks.cpg/sg2_234_cif.got.tgz:467092.got - 2010.06.03 11:33:40.
