data_PCOD9058907
_publ_section_title
;
Structure prediction by ZEFSAII (Michael W. Deem and Ramdas Pophale) SiO2 
 PCOD9058907
Probable space group: P -1
;
_chemical_formula_sum "Si O2"
_cell_formula_units_Z 16
_cell_length_a 22.321038
_cell_length_b 12.584641
_cell_length_c 7.948826
_cell_angle_alpha 48.972190
_cell_angle_beta 50.664193
_cell_angle_gamma 25.526913
_cell_volume 719.939060
_symmetry_space_group_name_H-M "P -1"
_symmetry_group_IT_number 2
_symmetry_cell_setting 'triclinic'
loop_
_space_group_symop_operation_xyz
x,y,z
-x,-y,-z
loop_
_atom_site_type_symbol
_atom_site_label
_atom_site_fract_x
_atom_site_fract_y
_atom_site_fract_z
Si Si1 0.336909 0.152746 0.360228
Si Si2 0.371534 0.211992 0.694067
Si Si3 0.174792 0.107091 0.173507
Si Si4 0.276924 0.577700 0.976191
Si Si5 0.583894 0.132726 0.822580
Si Si6 0.154254 0.899635 0.194213
Si Si7 0.865386 0.558456 0.314142
Si Si8 0.847748 0.283748 0.273221
O O1 0.296755 0.377411 0.165487
O O2 0.375522 0.008219 0.274745
O O3 0.205027 0.283806 0.552775
O O4 0.480158 0.936525 0.443253
O O5 0.246584 0.390883 0.595318
O O6 0.291392 0.410841 0.781487
O O7 0.409727 0.998189 0.908974
O O8 0.301379 0.926239 0.266653
O O9 0.027331 0.272683 0.336942
O O10 0.210073 0.964306 0.092817
O O11 0.143305 0.312495 0.950894
O O12 0.233894 0.709187 0.094535
O O13 0.162929 0.774340 0.827570
O O14 0.423164 0.422473 0.813036
O O15 0.159754 0.802212 0.459088
O O16 0.990655 0.154987 0.168035
#
# Coordination Sequence:
#
# PCOD9058907 Si02
#       8
#     2   2   2   2   2   2   2   2
#     4  11  20  36  66  98 116 149 208 265 311 354
#     4  10  17  37  63  89 121 147 199 270 308 345
#     4  10  23  42  55  85 130 167 203 246 299 375
#     4  11  22  41  65  96 124 159 202 262 314 353
#     4  10  21  39  62  88 128 156 201 260 304 362
#     4  11  25  40  62  90 127 168 205 246 305 376
#     4  10  21  36  64  88 118 166 201 252 316 356
#     4  11  21  40  64  91 123 161 205 258 306 356
#
# _framework density 22.224101999999998
#
# number of rings (size 3 to 8) (size 9 to 14) (size 15 to 20)
#    0.000    1.500    3.750    2.250    1.750    3.000 
#    2.250    0.625    0.000    0.000    0.000    0.000 
#    0.000    0.000    0.000    0.000    0.000    0.000 
#
# Total GULP energy -89254.245985 kJ/mol
# GULP energy per Si atom -5578.390374 kJ/mol
# Density = 2.217352 g / cm^3
# Si number density = 22.224102 Si / 1000 Ang^3
#
#
#
# Elastic Constant Matrix: (Units=GPa)
#
#
# Indices 1 2 3 4 5 6 
#
# 1 148.6522 42.6981 34.1224 20.3205 18.4313 -13.9437
# 2 42.6981 69.6268 23.1680 25.3302 -0.6175 -1.9425
# 3 34.1224 23.1680 59.4826 26.4991 19.5708 -7.4585
# 4 20.3205 25.3302 26.4991 36.6523 4.2847 5.1177
# 5 18.4313 -0.6175 19.5708 4.2847 22.8017 6.3912
# 6 -13.9437 -1.9425 -7.4585 5.1177 6.3912 32.1229
#
#
#
# Elastic Compliance Matrix: (Units=1/GPa)
#
#
# Indices 1 2 3 4 5 6 
#
# 1 0.010661 -0.006213 0.003299 -0.003602 -0.013246 0.008227
# 2 -0.006213 0.023806 -0.007071 -0.008996 0.014655 -0.004382
# 3 0.003299 -0.007071 0.051873 -0.032616 -0.049104 0.028015
# 4 -0.003602 -0.008996 -0.032616 0.059405 0.026335 -0.024384
# 5 -0.013246 0.014655 -0.049104 0.026335 0.103675 -0.041088
# 6 0.008227 -0.004382 0.028015 -0.024384 -0.041088 0.053001
#
#
# Mechanical properties :
#
#
# Convention : Reuss Voigt Hill
#
# Bulk Modulus (GPa) = 15.06742 53.08207 34.07475
# Shear Modulus (GPa) = 14.51316 30.16693 22.34004
#
# Velocity S-wave (km/s) = 2.55823 3.68828 3.17396
# Velocity P-wave (km/s) = 3.93961 6.48650 5.36634
#
# Compressibility (1/GPa) = 0.06636834
#
# Stress axis : x y z
#
# Youngs Moduli (GPa) = 93.79985 42.00630 19.27797
#
# Poissons Ratio (x) = 0.26098 -0.06359
# Poissons Ratio (y) = 0.58277 0.13632
# Poissons Ratio (z) = -0.30942 0.29705
#
# Static dielectric constant tensor:
#      x y z
#    x 1.899320 0.021610 0.014960 
#    y 0.021610 1.846550 0.017140 
#    z 0.014960 0.017140 1.859380 
# 
# From -- ./inp_files/344553.got.cif
#   From: 2010.05.17/outbox.cif.g08.bks.cpg/sg2_173_cif.got.tgz:344553.got - 2010.06.03 11:33:40.
