data_PCOD9058551
_publ_section_title
;
Structure prediction by ZEFSAII (Michael W. Deem and Ramdas Pophale) SiO2 
 PCOD9058551
Probable space group: P -1
;
_chemical_formula_sum "Si O2"
_cell_formula_units_Z 16
_cell_length_a 18.585600
_cell_length_b 7.903475
_cell_length_c 8.987368
_cell_angle_alpha 50.123767
_cell_angle_beta 130.285897
_cell_angle_gamma 113.640341
_cell_volume 772.638584
_symmetry_space_group_name_H-M "P -1"
_symmetry_group_IT_number 2
_symmetry_cell_setting 'triclinic'
loop_
_space_group_symop_operation_xyz
x,y,z
-x,-y,-z
loop_
_atom_site_type_symbol
_atom_site_label
_atom_site_fract_x
_atom_site_fract_y
_atom_site_fract_z
Si Si1 0.909435 0.100641 0.403994
Si Si2 0.935311 0.533005 0.044907
Si Si3 0.398863 0.080224 0.376952
Si Si4 0.745654 0.305713 0.580637
Si Si5 0.405556 0.004109 0.774127
Si Si6 0.397975 0.513699 0.940462
Si Si7 0.938180 0.198357 0.735023
Si Si8 0.783884 0.736677 0.552000
O O1 0.930517 0.172728 0.561774
O O2 0.835788 0.904395 0.417994
O O3 0.883745 0.315316 0.153018
O O4 0.000000 0.000000 0.500000
O O5 0.855123 0.720324 0.798036
O O6 0.000000 0.500000 0.000000
O O7 0.005847 0.594983 0.238354
O O8 0.413738 0.091883 0.567177
O O9 0.500000 0.000000 0.500000
O O10 0.319436 0.897479 0.343964
O O11 0.380651 0.310615 0.140239
O O12 0.680116 0.465870 0.301873
O O13 0.833820 0.212698 0.657201
O O14 0.780749 0.480312 0.648636
O O15 0.319295 0.154661 0.632293
O O16 0.384714 0.745311 0.877456
O O17 0.500000 0.000000 0.000000
O O18 0.500000 0.500000 0.000000
O O19 0.000000 0.000000 0.000000
#
# Coordination Sequence:
#
# PCOD9058551 Si02
#       8
#     2   2   2   2   2   2   2   2
#     4  12  24  44  72 104 142 190 235 290 362 415
#     4  12  24  47  69 102 146 187 237 295 347 422
#     4  11  24  46  76 102 135 188 235 286 363 419
#     4  11  25  45  72 104 142 188 234 293 354 420
#     4  11  26  46  70 104 141 179 232 298 355 422
#     4  11  22  46  71 100 142 179 233 292 348 427
#     4  12  24  46  72 100 145 187 240 295 347 422
#     4  12  26  46  69 105 148 181 238 293 353 426
#
# _framework density 20.708259000000002
#
# number of rings (size 3 to 8) (size 9 to 14) (size 15 to 20)
#    0.000    0.500    6.250    2.625    0.000    3.500 
#    2.250    0.000    0.000    0.000    0.000    0.000 
#    0.000    0.000    0.000    0.000    0.000    0.000 
#
# Total GULP energy -89309.540271 kJ/mol
# GULP energy per Si atom -5581.846267 kJ/mol
# Density = 2.066113 g / cm^3
# Si number density = 20.708259 Si / 1000 Ang^3
#
#
#
# Elastic Constant Matrix: (Units=GPa)
#
#
# Indices 1 2 3 4 5 6 
#
# 1 156.7967 62.5222 60.7041 -8.6641 11.0041 3.1672
# 2 62.5222 95.4380 51.8605 2.8027 -21.4573 -0.3863
# 3 60.7041 51.8605 142.4497 -24.2535 -3.6682 17.4897
# 4 -8.6641 2.8027 -24.2535 45.1192 9.0380 -2.8169
# 5 11.0041 -21.4573 -3.6682 9.0380 44.7502 -9.9655
# 6 3.1672 -0.3863 17.4897 -2.8169 -9.9655 36.9052
#
#
#
# Elastic Compliance Matrix: (Units=1/GPa)
#
#
# Indices 1 2 3 4 5 6 
#
# 1 0.011033 -0.008834 -0.000729 0.003785 -0.008366 -0.002664
# 2 -0.008834 0.024562 -0.007506 -0.010189 0.017276 0.008460
# 3 -0.000729 -0.007506 0.012002 0.007450 -0.005409 -0.006596
# 4 0.003785 -0.010189 0.007450 0.029682 -0.012319 -0.005023
# 5 -0.008366 0.017276 -0.005409 -0.012319 0.037552 0.012662
# 6 -0.002664 0.008460 -0.006596 -0.005023 0.012662 0.033575
#
#
# Mechanical properties :
#
#
# Convention : Reuss Voigt Hill
#
# Bulk Modulus (GPa) = 74.30598 82.76199 78.53399
# Shear Modulus (GPa) = 26.73354 39.99476 33.36415
#
# Velocity S-wave (km/s) = 3.59689 4.39947 4.01827
# Velocity P-wave (km/s) = 7.29454 8.11539 7.71589
#
# Compressibility (1/GPa) = 0.01345787
#
# Stress axis : x y z
#
# Youngs Moduli (GPa) = 90.63876 40.71362 83.31691
#
# Poissons Ratio (x) = 0.35968 0.06076
# Poissons Ratio (y) = 0.80074 0.62537
# Poissons Ratio (z) = 0.06610 0.30559
#
# Static dielectric constant tensor:
#      x y z
#    x 1.543910 0.052920 0.089710 
#    y 0.052920 1.910060 0.003360 
#    z 0.089710 0.003360 1.737560 
# 
# From -- ./inp_files/328512.got.cif
#   From: 2010.05.17/outbox.cif.g08.bks.cpg/sg2_165_cif.got.tgz:328512.got - 2010.06.03 11:33:40.
