data_PCOD9058807
_publ_section_title
;
Structure prediction by ZEFSAII (Michael W. Deem and Ramdas Pophale) SiO2 
 PCOD9058807
Probable space group: P -1
;
_chemical_formula_sum "Si O2"
_cell_formula_units_Z 16
_cell_length_a 14.600345
_cell_length_b 4.984264
_cell_length_c 14.306195
_cell_angle_alpha 111.068943
_cell_angle_beta 62.365269
_cell_angle_gamma 101.357457
_cell_volume 860.092467
_symmetry_space_group_name_H-M "P -1"
_symmetry_group_IT_number 2
_symmetry_cell_setting 'triclinic'
loop_
_space_group_symop_operation_xyz
x,y,z
-x,-y,-z
loop_
_atom_site_type_symbol
_atom_site_label
_atom_site_fract_x
_atom_site_fract_y
_atom_site_fract_z
Si Si1 0.763981 0.674716 0.457310
Si Si2 0.696106 0.283810 0.598026
Si Si3 0.794939 0.389016 0.764928
Si Si4 0.674751 0.918918 0.881467
Si Si5 0.593469 0.495056 0.378591
Si Si6 0.457966 0.130174 0.720861
Si Si7 0.469486 0.607399 0.923233
Si Si8 0.990110 0.670856 0.428866
O O1 0.752364 0.365936 0.677012
O O2 0.703378 0.520895 0.381854
O O3 0.881326 0.614041 0.421040
O O4 0.754237 0.015971 0.492588
O O5 0.750815 0.107727 0.803539
O O6 0.700072 0.557016 0.563001
O O7 0.581237 0.164035 0.656207
O O8 0.741664 0.672475 0.865812
O O9 0.917351 0.398446 0.694489
O O10 0.414953 0.245615 0.657586
O O11 0.577558 0.756588 0.854596
O O12 0.615122 0.149696 0.000595
O O13 0.500000 0.500000 0.500000
O O14 0.577845 0.198645 0.292556
O O15 0.433167 0.340873 0.843984
O O16 0.500000 0.500000 0.000000
O O17 0.000000 0.500000 0.500000
O O18 0.000000 0.000000 0.500000
#
# Coordination Sequence:
#
# PCOD9058807 Si02
#       8
#     2   2   2   2   2   2   2   2
#     4  12  23  38  54  81 122 161 196 252 270 339
#     4  12  20  33  59  80 120 156 201 231 286 341
#     4  12  22  36  57  88 118 159 197 233 310 363
#     4  11  23  36  58  85 122 149 186 249 303 358
#     4  12  24  38  56  85 123 162 208 230 284 359
#     4  12  24  36  61  87 116 169 193 236 298 360
#     4  11  24  40  61  90 126 150 200 253 307 361
#     4  12  23  38  58  87 117 159 208 247 296 355
#
# _framework density 18.602653
#
# number of rings (size 3 to 8) (size 9 to 14) (size 15 to 20)
#    0.000    0.250    7.500    2.625    5.250    0.000 
#    0.000    0.000    0.000    0.000    0.000    5.250 
#    0.000    0.000    0.000    0.000    0.000    0.000 
#
# Total GULP energy -89424.549001 kJ/mol
# GULP energy per Si atom -5589.034313 kJ/mol
# Density = 1.856031 g / cm^3
# Si number density = 18.602653 Si / 1000 Ang^3
#
#
#
# Elastic Constant Matrix: (Units=GPa)
#
#
# Indices 1 2 3 4 5 6 
#
# 1 114.6723 6.0373 33.4180 18.3920 -2.8771 0.1645
# 2 6.0373 82.4272 4.8689 8.2337 -8.4786 -1.2565
# 3 33.4180 4.8689 51.9333 16.0860 -4.0807 4.3662
# 4 18.3920 8.2337 16.0860 30.5842 -4.3065 0.8938
# 5 -2.8771 -8.4786 -4.0807 -4.3065 29.0787 -2.3821
# 6 0.1645 -1.2565 4.3662 0.8938 -2.3821 20.4867
#
#
#
# Elastic Compliance Matrix: (Units=1/GPa)
#
#
# Indices 1 2 3 4 5 6 
#
# 1 0.011072 -0.000102 -0.006175 -0.003451 -0.000201 0.001348
# 2 -0.000102 0.012803 -0.000080 -0.002905 0.003390 0.001324
# 3 -0.006175 -0.000080 0.026885 -0.010084 0.001227 -0.005103
# 4 -0.003451 -0.002905 -0.010084 0.041342 0.003569 0.000610
# 5 -0.000201 0.003390 0.001227 0.003569 0.036388 0.004023
# 6 0.001348 0.001324 -0.005103 0.000610 0.004023 0.050411
#
#
# Mechanical properties :
#
#
# Convention : Reuss Voigt Hill
#
# Bulk Modulus (GPa) = 26.28380 37.52012 31.90196
# Shear Modulus (GPa) = 24.47400 29.67715 27.07557
#
# Velocity S-wave (km/s) = 3.63108 3.99848 3.81920
# Velocity P-wave (km/s) = 5.63377 6.44439 6.05266
#
# Compressibility (1/GPa) = 0.03804625
#
# Stress axis : x y z
#
# Youngs Moduli (GPa) = 90.31831 78.10574 37.19482
#
# Poissons Ratio (x) = 0.00794 0.22969
# Poissons Ratio (y) = 0.00918 0.00298
# Poissons Ratio (z) = 0.55775 0.00625
#
# Static dielectric constant tensor:
#      x y z
#    x 1.644470 -0.006710 -0.017310 
#    y -0.006710 1.678210 -0.004900 
#    z -0.017310 -0.004900 1.624570 
# 
# From -- ./inp_files/510053.got.cif
#   From: 2010.05.17/outbox.cif.g08.bks.cpg/sg2_256_cif.got.tgz:510053.got - 2010.06.03 11:33:40.
