data_PCOD9058278
_publ_section_title
;
Structure prediction by ZEFSAII (Michael W. Deem and Ramdas Pophale) SiO2 
 PCOD9058278
Probable space group: P -1
;
_chemical_formula_sum "Si O2"
_cell_formula_units_Z 16
_cell_length_a 9.030792
_cell_length_b 16.120616
_cell_length_c 12.385091
_cell_angle_alpha 38.849143
_cell_angle_beta 41.393907
_cell_angle_gamma 43.309964
_cell_volume 701.727885
_symmetry_space_group_name_H-M "P -1"
_symmetry_group_IT_number 2
_symmetry_cell_setting 'triclinic'
loop_
_space_group_symop_operation_xyz
x,y,z
-x,-y,-z
loop_
_atom_site_type_symbol
_atom_site_label
_atom_site_fract_x
_atom_site_fract_y
_atom_site_fract_z
Si Si1 0.516368 0.779557 0.194760
Si Si2 0.086296 0.762456 0.582929
Si Si3 0.178271 0.485647 0.319262
Si Si4 0.678279 0.946713 0.122237
Si Si5 0.714286 0.292849 0.243542
Si Si6 0.211192 0.790326 0.951383
Si Si7 0.021925 0.485285 0.832764
Si Si8 0.556474 0.943339 0.647202
O O1 0.283348 0.753871 0.393462
O O2 0.623341 0.839949 0.176518
O O3 0.721820 0.639143 0.185369
O O4 0.441369 0.899596 0.022446
O O5 0.186056 0.785277 0.621213
O O6 0.038160 0.615301 0.759224
O O7 0.836721 0.881431 0.574601
O O8 0.430769 0.365869 0.323017
O O9 0.000000 0.500000 0.500000
O O10 0.058403 0.460425 0.299886
O O11 0.222085 0.633428 0.131525
O O12 0.568874 0.949240 0.297705
O O13 0.963562 0.899698 0.018873
O O14 0.791405 0.200927 0.186462
O O15 0.830201 0.415430 0.044786
O O16 0.435450 0.822888 0.841988
O O17 0.500000 0.000000 0.500000
#
# Coordination Sequence:
#
# PCOD9058278 Si02
#       8
#     2   2   2   2   2   2   2   2
#     4  11  24  44  71 105 137 189 233 286 349 412
#     4  12  26  42  70 105 140 177 234 293 349 412
#     4  11  23  40  67 101 137 184 228 287 352 419
#     4  11  25  46  72  97 143 184 238 282 348 419
#     4  11  23  41  69  99 139 183 226 287 353 412
#     4  11  24  46  69  97 139 186 236 284 350 413
#     4  11  22  45  66 102 140 178 234 287 351 412
#     4  12  28  46  70 105 140 184 234 291 346 418
#
# _framework density 22.800861000000001
#
# number of rings (size 3 to 8) (size 9 to 14) (size 15 to 20)
#    0.000    0.750    2.500    6.375    3.500    3.500 
#    0.000    0.000    0.000    0.000    0.000    0.000 
#    0.000    0.000    0.000    0.000    0.000    0.000 
#
# Total GULP energy -89695.990335 kJ/mol
# GULP energy per Si atom -5605.999396 kJ/mol
# Density = 2.274897 g / cm^3
# Si number density = 22.800861 Si / 1000 Ang^3
#
#
#
# Elastic Constant Matrix: (Units=GPa)
#
#
# Indices 1 2 3 4 5 6 
#
# 1 87.0366 43.9159 22.3692 -0.8897 12.3547 -11.2364
# 2 43.9159 127.0840 32.6160 19.8863 10.2697 -28.0675
# 3 22.3692 32.6160 66.1180 13.8111 2.4557 -5.9876
# 4 -0.8897 19.8863 13.8111 35.9887 0.6334 -9.3636
# 5 12.3547 10.2697 2.4557 0.6334 46.2104 1.1661
# 6 -11.2364 -28.0675 -5.9876 -9.3636 1.1661 47.9767
#
#
#
# Elastic Compliance Matrix: (Units=1/GPa)
#
#
# Indices 1 2 3 4 5 6 
#
# 1 0.015405 -0.004541 -0.003719 0.004758 -0.003015 0.001489
# 2 -0.004541 0.012065 -0.003022 -0.004346 -0.001368 0.004803
# 3 -0.003719 -0.003022 0.018986 -0.006107 0.000778 -0.001480
# 4 0.004758 -0.004346 -0.006107 0.033809 -0.000557 0.004422
# 5 -0.003015 -0.001368 0.000778 -0.000557 0.022769 -0.002071
# 6 0.001489 0.004803 -0.001480 0.004422 -0.002071 0.024731
#
#
# Mechanical properties :
#
#
# Convention : Reuss Voigt Hill
#
# Bulk Modulus (GPa) = 41.85361 53.11566 47.48463
# Shear Modulus (GPa) = 31.58708 38.12433 34.85571
#
# Velocity S-wave (km/s) = 3.72606 4.09352 3.91410
# Velocity P-wave (km/s) = 6.07514 6.75933 6.42635
#
# Compressibility (1/GPa) = 0.02389280
#
# Stress axis : x y z
#
# Youngs Moduli (GPa) = 64.91271 82.88511 52.67032
#
# Poissons Ratio (x) = 0.37639 0.19587
# Poissons Ratio (y) = 0.29478 0.15916
# Poissons Ratio (z) = 0.24140 0.25046
#
# Static dielectric constant tensor:
#      x y z
#    x 1.834810 0.028330 0.000060 
#    y 0.028330 1.801400 -0.021830 
#    z 0.000060 -0.021830 1.865930 
# 
# From -- ./inp_files/402791.got.cif
#   From: 2010.05.17/outbox.cif.g08.bks.cpg/sg2_202_cif.got.tgz:402791.got - 2010.06.03 11:33:40.
