data_PCOD9058059
_publ_section_title
;
Structure prediction by ZEFSAII (Michael W. Deem and Ramdas Pophale) SiO2 
 PCOD9058059
Probable space group: P -1
;
_chemical_formula_sum "Si O2"
_cell_formula_units_Z 11
_cell_length_a 9.502414
_cell_length_b 12.311799
_cell_length_c 12.789887
_cell_angle_alpha 141.917090
_cell_angle_beta 35.343980
_cell_angle_gamma 141.981358
_cell_volume 487.316456
_symmetry_space_group_name_H-M "P -1"
_symmetry_group_IT_number 2
_symmetry_cell_setting 'triclinic'
loop_
_space_group_symop_operation_xyz
x,y,z
-x,-y,-z
loop_
_atom_site_type_symbol
_atom_site_label
_atom_site_fract_x
_atom_site_fract_y
_atom_site_fract_z
Si Si1 0.735702 0.911264 0.026185
Si Si2 0.162705 0.409722 0.404939
Si Si3 0.690483 0.744851 0.432539
Si Si4 0.000000 0.500000 0.000000
Si Si5 0.320459 0.912228 0.437853
Si Si6 0.609724 0.175488 0.146298
O O1 0.729197 0.728328 0.827916
O O2 0.488854 0.846984 0.205238
O O3 0.740982 0.089366 0.089074
O O4 0.000000 0.000000 0.000000
O O5 0.414619 0.575243 0.430674
O O6 0.000000 0.500000 0.500000
O O7 0.945294 0.266389 0.505680
O O8 0.622813 0.788947 0.623907
O O9 0.736179 0.923282 0.463123
O O10 0.926063 0.677442 0.221731
O O11 0.190105 0.639635 0.896272
O O12 0.500000 0.000000 0.500000
O O13 0.500000 0.000000 0.000000
#
# Coordination Sequence:
#
# PCOD9058059 Si02
#       6
#     2   2   2   1   2   2
#     4  11  23  42  72 104 141 184 236 293 355 422
#     4  12  23  41  68 104 144 179 234 294 353 424
#     4  11  26  45  69 107 139 186 245 291 352 429
#     4  12  26  44  74  98 144 188 240 284 360 418
#     4  11  22  44  70 100 146 186 227 294 365 415
#     4  11  26  48  71 101 143 189 241 295 351 432
#
# _framework density 22.572602
#
# number of rings (size 3 to 8) (size 9 to 14) (size 15 to 20)
#    0.000    0.727    3.636    3.818    0.000    5.818 
#    0.000    0.000    0.000    0.000    0.000    0.000 
#    0.000    0.000    0.000    0.000    0.000    0.000 
#
# Total GULP energy -61381.289556 kJ/mol
# GULP energy per Si atom -5580.117232 kJ/mol
# Density = 2.252123 g / cm^3
# Si number density = 22.572602 Si / 1000 Ang^3
#
#
#
# Elastic Constant Matrix: (Units=GPa)
#
#
# Indices 1 2 3 4 5 6 
#
# 1 60.8405 30.4148 34.0950 -14.2682 3.6708 -17.8323
# 2 30.4148 154.8336 47.8403 -11.9717 12.2584 -37.5436
# 3 34.0950 47.8403 204.2262 -10.7632 -9.1558 -39.0357
# 4 -14.2682 -11.9717 -10.7632 29.5298 -8.2472 12.5341
# 5 3.6708 12.2584 -9.1558 -8.2472 22.7192 1.3620
# 6 -17.8323 -37.5436 -39.0357 12.5341 1.3620 45.0935
#
#
#
# Elastic Compliance Matrix: (Units=1/GPa)
#
#
# Indices 1 2 3 4 5 6 
#
# 1 0.021304 -0.002259 -0.002161 0.007289 -0.000608 0.002665
# 2 -0.002259 0.009121 -0.000860 -0.002302 -0.006145 0.006781
# 3 -0.002161 -0.000860 0.006332 0.000222 0.003221 0.003752
# 4 0.007289 -0.002302 0.000222 0.046784 0.017879 -0.012386
# 5 -0.000608 -0.006145 0.003221 0.017879 0.055771 -0.009223
# 6 0.002665 0.006781 0.003752 -0.012386 -0.009223 0.035845
#
#
# Mechanical properties :
#
#
# Convention : Reuss Voigt Hill
#
# Bulk Modulus (GPa) = 38.17311 71.62228 54.89769
# Shear Modulus (GPa) = 25.71358 39.97185 32.84272
#
# Velocity S-wave (km/s) = 3.37879 4.21267 3.81856
# Velocity P-wave (km/s) = 5.67183 7.44720 6.61930
#
# Compressibility (1/GPa) = 0.02619645
#
# Stress axis : x y z
#
# Youngs Moduli (GPa) = 46.93912 109.63830 157.92846
#
# Poissons Ratio (x) = 0.24769 0.34130
# Poissons Ratio (y) = 0.10604 0.13583
# Poissons Ratio (z) = 0.10144 0.09429
#
# Static dielectric constant tensor:
#      x y z
#    x 1.832460 0.052900 0.030210 
#    y 0.052900 1.803080 0.024740 
#    z 0.030210 0.024740 1.943220 
# 
# From -- ./inp_files/520453.got.cif
#   From: 2010.05.17/outbox.cif.g08.bks.cpg/sg2_261_cif.got.tgz:520453.got - 2010.06.03 11:33:40.
