data_PCOD9058348
_publ_section_title
;
Structure prediction by ZEFSAII (Michael W. Deem and Ramdas Pophale) SiO2 
 PCOD9058348
Probable space group: P -1
;
_chemical_formula_sum "Si O2"
_cell_formula_units_Z 16
_cell_length_a 9.310067
_cell_length_b 12.576314
_cell_length_c 17.214523
_cell_angle_alpha 139.771994
_cell_angle_beta 105.508002
_cell_angle_gamma 42.717618
_cell_volume 655.525100
_symmetry_space_group_name_H-M "P -1"
_symmetry_group_IT_number 2
_symmetry_cell_setting 'triclinic'
loop_
_space_group_symop_operation_xyz
x,y,z
-x,-y,-z
loop_
_atom_site_type_symbol
_atom_site_label
_atom_site_fract_x
_atom_site_fract_y
_atom_site_fract_z
Si Si1 0.580521 0.273188 0.330316
Si Si2 0.506166 0.258375 0.687899
Si Si3 0.697203 0.827168 0.183220
Si Si4 0.052274 0.852375 0.052429
Si Si5 0.404598 0.927836 0.988900
Si Si6 0.346220 0.194643 0.481385
Si Si7 0.820249 0.882944 0.777064
Si Si8 0.708954 0.366811 0.675325
O O1 0.500000 0.500000 0.500000
O O2 0.398474 0.477572 0.339296
O O3 0.564404 0.110779 0.277515
O O4 0.911945 0.969188 0.181597
O O5 0.376220 0.262999 0.605204
O O6 0.550347 0.379471 0.710883
O O7 0.731968 0.920393 0.571575
O O8 0.322377 0.495613 0.865782
O O9 0.639961 0.921932 0.320238
O O10 0.476414 0.882753 0.175357
O O11 0.000000 0.500000 0.000000
O O12 0.115877 0.985269 0.127506
O O13 0.813328 0.992103 0.040513
O O14 0.246516 0.127435 0.154042
O O15 0.688429 0.549698 0.826865
O O16 0.500000 0.000000 0.000000
O O17 0.099034 0.528595 0.588139
O O18 0.000000 0.000000 0.500000
#
# Coordination Sequence:
#
# PCOD9058348 Si02
#       8
#     2   2   2   2   2   2   2   2
#     4  11  25  46  75 102 147 200 239 305 378 445
#     4  11  23  44  72 106 148 188 244 307 366 440
#     4  12  28  51  71 109 153 200 255 306 376 451
#     4  11  22  45  70 107 143 189 245 301 369 445
#     4  11  23  39  70 106 141 189 240 303 372 435
#     4  11  25  43  75 106 145 198 246 308 367 444
#     4  12  23  44  74 105 147 197 248 303 373 444
#     4  11  25  42  67 106 149 184 244 299 367 443
#
# _framework density 24.407914999999999
#
# number of rings (size 3 to 8) (size 9 to 14) (size 15 to 20)
#    0.000    0.750    2.500    6.000    3.500    2.000 
#    0.000    1.250    0.000    0.000    0.000    0.000 
#    0.000    0.000    0.000    0.000    0.000    0.000 
#
# Total GULP energy -89170.690504 kJ/mol
# GULP energy per Si atom -5573.168156 kJ/mol
# Density = 2.435236 g / cm^3
# Si number density = 24.407915 Si / 1000 Ang^3
#
#
#
# Elastic Constant Matrix: (Units=GPa)
#
#
# Indices 1 2 3 4 5 6 
#
# 1 135.0082 38.7867 43.6955 9.0934 23.7991 25.3958
# 2 38.7867 65.4349 37.1363 6.5308 8.0402 23.4416
# 3 43.6955 37.1363 176.0356 7.4739 14.2034 9.1351
# 4 9.0934 6.5308 7.4739 40.0765 11.5072 2.7631
# 5 23.7991 8.0402 14.2034 11.5072 36.0748 2.5236
# 6 25.3958 23.4416 9.1351 2.7631 2.5236 39.1595
#
#
#
# Elastic Compliance Matrix: (Units=1/GPa)
#
#
# Indices 1 2 3 4 5 6 
#
# 1 0.010516 -0.003384 -0.001249 0.000260 -0.005483 -0.004168
# 2 -0.003384 0.023307 -0.003420 -0.001541 -0.000367 -0.010827
# 3 -0.001249 -0.003420 0.006738 -0.000194 -0.001101 0.001370
# 4 0.000260 -0.001541 -0.000194 0.027673 -0.008537 -0.000603
# 5 -0.005483 -0.000367 -0.001101 -0.008537 0.034407 0.002417
# 6 -0.004168 -0.010827 0.001370 -0.000603 0.002417 0.034288
#
#
# Mechanical properties :
#
#
# Convention : Reuss Voigt Hill
#
# Bulk Modulus (GPa) = 40.89000 68.41287 54.65143
# Shear Modulus (GPa) = 31.01991 40.18616 35.60304
#
# Velocity S-wave (km/s) = 3.56883 4.06204 3.82339
# Velocity P-wave (km/s) = 5.81130 7.07743 6.47538
#
# Compressibility (1/GPa) = 0.02445586
#
# Stress axis : x y z
#
# Youngs Moduli (GPa) = 95.08932 42.90611 148.40986
#
# Poissons Ratio (x) = 0.14519 0.18534
# Poissons Ratio (y) = 0.32177 0.50756
# Poissons Ratio (z) = 0.11875 0.14674
#
# Static dielectric constant tensor:
#      x y z
#    x 1.098840 -0.049290 -0.254660 
#    y -0.049290 2.101490 0.042960 
#    z -0.254660 0.042960 2.042750 
# 
# From -- ./inp_files/560037.got.cif
#   From: 2010.05.17/outbox.cif.g08.bks.cpg/sg2_281_cif.got.tgz:560037.got - 2010.06.03 11:33:40.
