data_PCOD9058687
_publ_section_title
;
Structure prediction by ZEFSAII (Michael W. Deem and Ramdas Pophale) SiO2 
 PCOD9058687
Probable space group: P -1
;
_chemical_formula_sum "Si O2"
_cell_formula_units_Z 16
_cell_length_a 12.728581
_cell_length_b 9.549806
_cell_length_c 21.358115
_cell_angle_alpha 150.248069
_cell_angle_beta 144.140831
_cell_angle_gamma 46.258367
_cell_volume 754.042659
_symmetry_space_group_name_H-M "P -1"
_symmetry_group_IT_number 2
_symmetry_cell_setting 'triclinic'
loop_
_space_group_symop_operation_xyz
x,y,z
-x,-y,-z
loop_
_atom_site_type_symbol
_atom_site_label
_atom_site_fract_x
_atom_site_fract_y
_atom_site_fract_z
Si Si1 0.903488 0.201157 0.327366
Si Si2 0.498425 0.236081 0.144478
Si Si3 0.467486 0.183456 0.329708
Si Si4 0.938693 0.848977 0.748847
Si Si5 0.183848 0.796683 0.356917
Si Si6 0.145841 0.764721 0.474031
Si Si7 0.438087 0.880632 0.326408
Si Si8 0.791420 0.808808 0.907413
O O1 0.702584 0.236743 0.266068
O O2 0.000000 0.500000 0.500000
O O3 0.929692 0.128116 0.238385
O O4 0.017072 0.984525 0.336201
O O5 0.451946 0.549944 0.219669
O O6 0.361782 0.149813 0.099353
O O7 0.500000 0.000000 0.000000
O O8 0.500000 0.500000 0.500000
O O9 0.656199 0.134907 0.368198
O O10 0.302845 0.153522 0.190735
O O11 0.441354 0.955479 0.283307
O O12 0.906832 0.524647 0.628333
O O13 0.749178 0.984137 0.691152
O O14 0.035237 0.007082 0.915499
O O15 0.172384 0.720483 0.395160
O O16 0.164050 0.518644 0.198025
O O17 0.377636 0.954277 0.497359
O O18 0.000000 0.000000 0.500000
#
# Coordination Sequence:
#
# PCOD9058687 Si02
#       8
#     2   2   2   2   2   2   2   2
#     4  12  26  43  69  98 136 178 238 282 339 410
#     4  12  28  48  65 100 146 182 228 296 350 399
#     4  11  22  47  70 103 135 178 230 280 340 420
#     4  12  26  44  68 105 136 183 230 280 348 412
#     4  11  24  44  69 104 130 186 229 279 349 412
#     4  11  24  43  72 101 138 174 231 286 339 409
#     4  11  24  46  73  97 140 181 236 282 338 419
#     4  12  26  45  71  99 145 181 229 284 347 414
#
# _framework density 21.218958000000001
#
# number of rings (size 3 to 8) (size 9 to 14) (size 15 to 20)
#    0.000    0.500    6.250    1.500    8.750    4.000 
#    0.000    1.250    0.000    0.000    0.000    0.000 
#    0.000    0.000    0.000    0.000    0.000    0.000 
#
# Total GULP energy -89423.708812 kJ/mol
# GULP energy per Si atom -5588.981801 kJ/mol
# Density = 2.117066 g / cm^3
# Si number density = 21.218958 Si / 1000 Ang^3
#
#
#
# Elastic Constant Matrix: (Units=GPa)
#
#
# Indices 1 2 3 4 5 6 
#
# 1 76.8398 29.6845 4.5636 -0.8428 5.7556 -15.0990
# 2 29.6845 159.4473 35.1233 -5.0065 4.7197 -20.4131
# 3 4.5636 35.1233 51.7712 -3.6922 -6.1050 -2.9253
# 4 -0.8428 -5.0065 -3.6922 27.3298 -2.8933 -5.2384
# 5 5.7556 4.7197 -6.1050 -2.8933 31.3547 -2.9418
# 6 -15.0990 -20.4131 -2.9253 -5.2384 -2.9418 47.2269
#
#
#
# Elastic Compliance Matrix: (Units=1/GPa)
#
#
# Indices 1 2 3 4 5 6 
#
# 1 0.014747 -0.002252 0.000253 0.000583 -0.001918 0.003702
# 2 -0.002252 0.008281 -0.005384 0.001044 -0.001546 0.002546
# 3 0.000253 -0.005384 0.023807 0.002815 0.005649 -0.000108
# 4 0.000583 0.001044 0.002815 0.038671 0.004356 0.005373
# 5 -0.001918 -0.001546 0.005649 0.004356 0.034137 0.001678
# 6 0.003702 0.002546 -0.000108 0.005373 0.001678 0.024152
#
#
# Mechanical properties :
#
#
# Convention : Reuss Voigt Hill
#
# Bulk Modulus (GPa) = 31.18350 47.42237 39.30294
# Shear Modulus (GPa) = 29.54194 35.76141 32.65168
#
# Velocity S-wave (km/s) = 3.73532 4.10976 3.92701
# Velocity P-wave (km/s) = 5.77334 6.70207 6.25497
#
# Compressibility (1/GPa) = 0.03206824
#
# Stress axis : x y z
#
# Youngs Moduli (GPa) = 67.81241 120.75344 42.00460
#
# Poissons Ratio (x) = 0.27194 -0.01061
# Poissons Ratio (y) = 0.15271 0.22615
# Poissons Ratio (z) = -0.01713 0.65012
#
# Static dielectric constant tensor:
#      x y z
#    x 1.821630 0.012840 -0.029650 
#    y 0.012840 1.726310 -0.005920 
#    z -0.029650 -0.005920 1.798160 
# 
# From -- ./inp_files/342797.got.cif
#   From: 2010.05.17/outbox.cif.g08.bks.cpg/sg2_172_cif.got.tgz:342797.got - 2010.06.03 11:33:40.
