data_PCOD9058383
_publ_section_title
;
Structure prediction by ZEFSAII (Michael W. Deem and Ramdas Pophale) SiO2 
 PCOD9058383
Probable space group: P -1
;
_chemical_formula_sum "Si O2"
_cell_formula_units_Z 12
_cell_length_a 12.125619
_cell_length_b 8.300941
_cell_length_c 5.396379
_cell_angle_alpha 113.360372
_cell_angle_beta 100.489071
_cell_angle_gamma 87.267930
_cell_volume 490.130055
_symmetry_space_group_name_H-M "P -1"
_symmetry_group_IT_number 2
_symmetry_cell_setting 'triclinic'
loop_
_space_group_symop_operation_xyz
x,y,z
-x,-y,-z
loop_
_atom_site_type_symbol
_atom_site_label
_atom_site_fract_x
_atom_site_fract_y
_atom_site_fract_z
Si Si1 0.300255 0.194679 0.990251
Si Si2 0.237034 0.778178 0.767180
Si Si3 0.973438 0.368238 0.683894
Si Si4 0.189137 0.270903 0.500696
Si Si5 0.522735 0.389251 0.192005
Si Si6 0.081408 0.910269 0.171140
O O1 0.252319 0.284297 0.274339
O O2 0.433764 0.225493 0.060063
O O3 0.256039 0.302699 0.800356
O O4 0.264604 0.986406 0.853316
O O5 0.154317 0.677449 0.477921
O O6 0.351547 0.679762 0.790099
O O7 0.159180 0.775849 0.977980
O O8 0.995670 0.182116 0.715541
O O9 0.071102 0.370851 0.515997
O O10 0.000000 0.500000 0.000000
O O11 0.163558 0.063660 0.384077
O O12 0.500000 0.500000 0.500000
O O13 0.500000 0.500000 0.000000
O O14 0.000000 0.000000 0.000000
#
# Coordination Sequence:
#
# PCOD9058383 Si02
#       6
#     2   2   2   2   2   2
#     4  11  25  48  81 104 146 196 254 303 364 450
#     4  11  26  48  76 108 148 204 255 303 370 452
#     4  12  26  42  71 111 159 193 244 307 380 445
#     4  11  23  44  75 111 146 195 246 301 370 448
#     4  12  30  52  76 110 152 195 253 318 378 433
#     4  11  22  45  71 108 149 193 247 303 364 455
#
# _framework density 24.483298000000001
#
# number of rings (size 3 to 8) (size 9 to 14) (size 15 to 20)
#    0.000    0.667    3.333    4.000    4.667    2.000 
#    3.000    4.167    0.000    0.000    0.000    0.000 
#    0.000    0.000    0.000    0.000    0.000    0.000 
#
# Total GULP energy -67125.782885 kJ/mol
# GULP energy per Si atom -5593.815240 kJ/mol
# Density = 2.442757 g / cm^3
# Si number density = 24.483298 Si / 1000 Ang^3
#
#
#
# Elastic Constant Matrix: (Units=GPa)
#
#
# Indices 1 2 3 4 5 6 
#
# 1 193.0568 55.6713 92.8175 -11.6600 6.2167 -28.8021
# 2 55.6713 91.0832 44.6174 4.1037 6.3015 -3.9233
# 3 92.8175 44.6174 151.0715 -13.3937 -1.5248 -5.3922
# 4 -11.6600 4.1037 -13.3937 43.3614 2.9707 12.9341
# 5 6.2167 6.3015 -1.5248 2.9707 45.0256 7.9831
# 6 -28.8021 -3.9233 -5.3922 12.9341 7.9831 58.9840
#
#
#
# Elastic Compliance Matrix: (Units=1/GPa)
#
#
# Indices 1 2 3 4 5 6 
#
# 1 0.008781 -0.002953 -0.004380 0.000250 -0.001648 0.003859
# 2 -0.002953 0.014343 -0.002692 -0.002912 -0.001518 0.000110
# 3 -0.004380 -0.002692 0.010291 0.002807 0.001535 -0.002200
# 4 0.000250 -0.002912 0.002807 0.025920 -0.000274 -0.005462
# 5 -0.001648 -0.001518 0.001535 -0.000274 0.023406 -0.003873
# 6 0.003859 0.000110 -0.002200 -0.005462 -0.003873 0.020366
#
#
# Mechanical properties :
#
#
# Convention : Reuss Voigt Hill
#
# Bulk Modulus (GPa) = 74.80944 91.26933 83.03938
# Shear Modulus (GPa) = 39.18177 45.61457 42.39817
#
# Velocity S-wave (km/s) = 4.00477 4.32103 4.16591
# Velocity P-wave (km/s) = 7.21151 7.89014 7.55844
#
# Compressibility (1/GPa) = 0.01336730
#
# Stress axis : x y z
#
# Youngs Moduli (GPa) = 113.88517 69.72016 97.17284
#
# Poissons Ratio (x) = 0.20585 0.42558
# Poissons Ratio (y) = 0.33625 0.26155
# Poissons Ratio (z) = 0.49877 0.18766
#
# Static dielectric constant tensor:
#      x y z
#    x 1.876270 -0.011250 0.030890 
#    y -0.011250 2.021980 -0.039590 
#    z 0.030890 -0.039590 2.042430 
# 
# From -- ./inp_files/30339.got.cif
#   From: 2010.05.17/outbox.cif.g08.bks.cpg/sg2_16_cif.got.tgz:30339.got - 2010.06.03 11:33:40.
