data_PCOD9058457
_publ_section_title
;
Structure prediction by ZEFSAII (Michael W. Deem and Ramdas Pophale) SiO2 
 PCOD9058457
Probable space group: P -1
;
_chemical_formula_sum "Si O2"
_cell_formula_units_Z 14
_cell_length_a 20.456343
_cell_length_b 10.211520
_cell_length_c 12.124724
_cell_angle_alpha 142.851770
_cell_angle_beta 158.641819
_cell_angle_gamma 34.682548
_cell_volume 518.885981
_symmetry_space_group_name_H-M "P -1"
_symmetry_group_IT_number 2
_symmetry_cell_setting 'triclinic'
loop_
_space_group_symop_operation_xyz
x,y,z
-x,-y,-z
loop_
_atom_site_type_symbol
_atom_site_label
_atom_site_fract_x
_atom_site_fract_y
_atom_site_fract_z
Si Si1 0.219742 0.650264 0.656314
Si Si2 0.011212 0.702328 0.736306
Si Si3 0.735181 0.700895 0.697430
Si Si4 0.707521 0.179326 0.898976
Si Si5 0.221439 0.048068 0.787347
Si Si6 0.243091 0.490709 0.173972
Si Si7 0.332222 0.918627 0.638486
O O1 0.259394 0.425297 0.494275
O O2 0.991773 0.795587 0.402704
O O3 0.305147 0.819191 0.838193
O O4 0.292157 0.629889 0.880977
O O5 0.000000 0.500000 0.500000
O O6 0.084851 0.611334 0.912344
O O7 0.803101 0.906650 0.545914
O O8 0.167835 0.793992 0.988996
O O9 0.512817 0.784212 0.445624
O O10 0.837095 0.529785 0.843270
O O11 0.790058 0.925870 0.916492
O O12 0.203092 0.975624 0.585705
O O13 0.335056 0.224492 0.096847
O O14 0.370680 0.650896 0.493629
O O15 0.500000 0.000000 0.000000
#
# Coordination Sequence:
#
# PCOD9058457 Si02
#       7
#     2   2   2   2   2   2   2
#     4  11  22  45  74 108 152 196 255 314 390 452
#     4  12  27  51  77 112 157 208 253 325 387 464
#     4  11  26  43  78 116 146 208 251 332 378 466
#     4  11  25  48  72 112 160 191 269 313 393 453
#     4  11  24  43  75 110 144 198 255 317 377 463
#     4  12  26  50  78 107 155 206 257 311 402 453
#     4  12  28  50  75 113 153 204 265 321 388 463
#
# _framework density 26.980879000000002
#
# number of rings (size 3 to 8) (size 9 to 14) (size 15 to 20)
#    0.000    0.571    5.714    0.857    4.000    2.857 
#    2.571    0.000    0.000    0.000    0.000    0.000 
#    0.000    0.000    0.000    0.000    0.000    0.000 
#
# Total GULP energy -78505.982746 kJ/mol
# GULP energy per Si atom -5607.570196 kJ/mol
# Density = 2.691947 g / cm^3
# Si number density = 26.980879 Si / 1000 Ang^3
#
#
#
# Elastic Constant Matrix: (Units=GPa)
#
#
# Indices 1 2 3 4 5 6 
#
# 1 134.3573 45.0573 51.5988 5.5682 -18.5443 30.1528
# 2 45.0573 83.5259 49.4544 24.6665 6.0704 -2.2483
# 3 51.5988 49.4544 144.7838 28.7389 4.7784 3.1770
# 4 5.5682 24.6665 28.7389 55.4357 -1.1193 -5.9022
# 5 -18.5443 6.0704 4.7784 -1.1193 54.5244 8.2819
# 6 30.1528 -2.2483 3.1770 -5.9022 8.2819 40.1535
#
#
#
# Elastic Compliance Matrix: (Units=1/GPa)
#
#
# Indices 1 2 3 4 5 6 
#
# 1 0.015422 -0.008130 -0.003207 0.002501 0.008483 -0.013165
# 2 -0.008130 0.020517 -0.002867 -0.006115 -0.006115 0.007843
# 3 -0.003207 -0.002867 0.009723 -0.003334 -0.001902 0.001380
# 4 0.002501 -0.006115 -0.003334 0.022375 0.002148 0.000890
# 5 0.008483 -0.006115 -0.001902 0.002148 0.023812 -0.011157
# 6 -0.013165 0.007843 0.001380 0.000890 -0.011157 0.037552
#
#
# Mechanical properties :
#
#
# Convention : Reuss Voigt Hill
#
# Bulk Modulus (GPa) = 57.95531 72.76534 65.36033
# Shear Modulus (GPa) = 30.56953 44.45982 37.51468
#
# Velocity S-wave (km/s) = 3.36967 4.06375 3.73288
# Velocity P-wave (km/s) = 6.05527 7.00332 6.54648
#
# Compressibility (1/GPa) = 0.01725467
#
# Stress axis : x y z
#
# Youngs Moduli (GPa) = 64.84048 48.74021 102.84515
#
# Poissons Ratio (x) = 0.39627 0.32979
# Poissons Ratio (y) = 0.52716 0.29488
# Poissons Ratio (z) = 0.20792 0.13975
#
# Static dielectric constant tensor:
#      x y z
#    x 2.110080 -0.016350 0.058360 
#    y -0.016350 2.139880 -0.054260 
#    z 0.058360 -0.054260 2.158900 
# 
# From -- ./inp_files/542918.got.cif
#   From: 2010.05.17/outbox.cif.g08.bks.cpg/sg2_272_cif.got.tgz:542918.got - 2010.06.03 11:33:40.
