data_PCOD9058357
_publ_section_title
;
Structure prediction by ZEFSAII (Michael W. Deem and Ramdas Pophale) SiO2 
 PCOD9058357
Probable space group: P -1
;
_chemical_formula_sum "Si O2"
_cell_formula_units_Z 14
_cell_length_a 11.920855
_cell_length_b 8.422851
_cell_length_c 8.479329
_cell_angle_alpha 84.110274
_cell_angle_beta 52.311573
_cell_angle_gamma 100.161144
_cell_volume 638.509001
_symmetry_space_group_name_H-M "P -1"
_symmetry_group_IT_number 2
_symmetry_cell_setting 'triclinic'
loop_
_space_group_symop_operation_xyz
x,y,z
-x,-y,-z
loop_
_atom_site_type_symbol
_atom_site_label
_atom_site_fract_x
_atom_site_fract_y
_atom_site_fract_z
Si Si1 0.000443 0.188126 0.976062
Si Si2 0.531782 0.166948 0.855905
Si Si3 0.496134 0.188905 0.447641
Si Si4 0.227728 0.723840 0.620482
Si Si5 0.976490 0.427213 0.708258
Si Si6 0.370536 0.619341 0.960983
Si Si7 0.313785 0.293664 0.838363
O O1 0.850443 0.188179 0.195867
O O2 0.142471 0.279275 0.954995
O O3 0.005020 0.264699 0.787426
O O4 0.000000 0.000000 0.000000
O O5 0.673789 0.179395 0.619580
O O6 0.382072 0.165438 0.890052
O O7 0.581558 0.334740 0.904714
O O8 0.500000 0.000000 0.000000
O O9 0.642486 0.317833 0.389843
O O10 0.522081 0.222651 0.239564
O O11 0.366725 0.253197 0.623570
O O12 0.500000 0.000000 0.500000
O O13 0.094803 0.571753 0.688208
O O14 0.000000 0.500000 0.500000
O O15 0.803074 0.395774 0.893140
O O16 0.380896 0.459551 0.869264
#
# Coordination Sequence:
#
# PCOD9058357 Si02
#       7
#     2   2   2   2   2   2   2
#     4  12  26  45  73 106 142 182 242 297 346 421
#     4  11  26  45  72 101 147 189 229 291 369 420
#     4  11  23  42  70  98 140 187 231 284 356 422
#     4  11  22  45  70  99 137 192 233 278 357 433
#     4  12  25  46  75 103 139 192 232 289 364 418
#     4  12  22  44  71  99 144 178 242 293 348 423
#     4  11  25  43  67 108 137 182 243 287 349 417
#
# _framework density 21.926079000000001
#
# number of rings (size 3 to 8) (size 9 to 14) (size 15 to 20)
#    0.000    0.571    4.286    4.714    2.000    1.143 
#    5.143    1.429    0.000    0.000    0.000    0.000 
#    0.000    0.000    0.000    0.000    0.000    0.000 
#
# Total GULP energy -77935.835263 kJ/mol
# GULP energy per Si atom -5566.845376 kJ/mol
# Density = 2.187617 g / cm^3
# Si number density = 21.926079 Si / 1000 Ang^3
#
#
#
# Elastic Constant Matrix: (Units=GPa)
#
#
# Indices 1 2 3 4 5 6 
#
# 1 102.7973 17.1090 22.2340 -12.7890 0.2217 -4.5491
# 2 17.1090 89.8073 42.3201 -5.5718 17.8796 -8.6555
# 3 22.2340 42.3201 128.7295 0.4955 4.9002 -22.7330
# 4 -12.7890 -5.5718 0.4955 23.1553 -4.0120 10.3839
# 5 0.2217 17.8796 4.9002 -4.0120 33.3926 1.9592
# 6 -4.5491 -8.6555 -22.7330 10.3839 1.9592 41.1355
#
#
#
# Elastic Compliance Matrix: (Units=1/GPa)
#
#
# Indices 1 2 3 4 5 6 
#
# 1 0.011163 -0.001343 -0.001941 0.007114 0.001902 -0.002007
# 2 -0.001343 0.015024 -0.004330 0.001437 -0.007263 0.000603
# 3 -0.001941 -0.004330 0.010619 -0.005080 -0.000192 0.006035
# 4 0.007114 0.001437 -0.005080 0.056187 0.007634 -0.016265
# 5 0.001902 -0.007263 -0.000192 0.007634 0.035063 -0.005021
# 6 -0.002007 0.000603 0.006035 -0.016265 -0.005021 0.031895
#
#
# Mechanical properties :
#
#
# Convention : Reuss Voigt Hill
#
# Bulk Modulus (GPa) = 46.33955 53.85116 50.09535
# Shear Modulus (GPa) = 27.41641 35.51474 31.46557
#
# Velocity S-wave (km/s) = 3.53994 4.02898 3.79235
# Velocity P-wave (km/s) = 6.15537 6.80126 6.48636
#
# Compressibility (1/GPa) = 0.02157984
#
# Stress axis : x y z
#
# Youngs Moduli (GPa) = 89.57960 66.55810 94.16677
#
# Poissons Ratio (x) = 0.08938 0.18276
# Poissons Ratio (y) = 0.12030 0.40774
# Poissons Ratio (z) = 0.17386 0.28819
#
# Static dielectric constant tensor:
#      x y z
#    x 1.881550 0.042360 -0.042630 
#    y 0.042360 1.876250 -0.098910 
#    z -0.042630 -0.098910 2.145340 
# 
# From -- ./inp_files/179296.got.cif
#   From: 2010.05.17/outbox.cif.g08.bks.cpg/sg2_90_cif.got.tgz:179296.got - 2010.06.03 11:33:40.
