data_PCOD9058992
_publ_section_title
;
Structure prediction by ZEFSAII (Michael W. Deem and Ramdas Pophale) SiO2 
 PCOD9058992
Probable space group: P -1
;
_chemical_formula_sum "Si O2"
_cell_formula_units_Z 12
_cell_length_a 5.218020
_cell_length_b 12.704297
_cell_length_c 8.943823
_cell_angle_alpha 123.590729
_cell_angle_beta 73.910459
_cell_angle_gamma 95.802805
_cell_volume 473.532915
_symmetry_space_group_name_H-M "P -1"
_symmetry_group_IT_number 2
_symmetry_cell_setting 'triclinic'
loop_
_space_group_symop_operation_xyz
x,y,z
-x,-y,-z
loop_
_atom_site_type_symbol
_atom_site_label
_atom_site_fract_x
_atom_site_fract_y
_atom_site_fract_z
Si Si1 0.110155 0.875959 0.971979
Si Si2 0.794594 0.537359 0.431463
Si Si3 0.725630 0.028713 0.659947
Si Si4 0.939999 0.647623 0.995543
Si Si5 0.366426 0.698637 0.218684
Si Si6 0.487442 0.769569 0.569708
O O1 0.925128 0.771725 0.988312
O O2 0.303797 0.798926 0.765411
O O3 0.235748 0.931467 0.143649
O O4 0.000000 0.000000 0.000000
O O5 0.500000 0.500000 0.500000
O O6 0.900610 0.460805 0.209337
O O7 0.745877 0.685159 0.516881
O O8 0.000000 0.500000 0.500000
O O9 0.588036 0.153973 0.707969
O O10 0.569061 0.903215 0.598360
O O11 0.000000 0.000000 0.500000
O O12 0.361756 0.378276 0.936475
O O13 0.113196 0.671960 0.135527
O O14 0.353704 0.694296 0.397023
#
# Coordination Sequence:
#
# PCOD9058992 Si02
#       6
#     2   2   2   2   2   2
#     4  11  23  39  71 108 145 190 246 300 368 438
#     4  12  28  48  75 108 149 194 250 307 354 435
#     4  11  24  44  72 109 151 188 241 306 374 438
#     4  11  25  48  71 104 151 192 240 305 360 428
#     4  11  25  46  73 106 147 189 243 303 369 436
#     4  12  25  44  74 108 146 199 245 300 371 436
#
# _framework density 25.341431
#
# number of rings (size 3 to 8) (size 9 to 14) (size 15 to 20)
#    0.000    0.667    1.667    6.000    4.667    4.000 
#    0.000    0.000    0.000    0.000    0.000    0.000 
#    0.000    0.000    0.000    0.000    0.000    0.000 
#
# Total GULP energy -67293.484182 kJ/mol
# GULP energy per Si atom -5607.790349 kJ/mol
# Density = 2.528375 g / cm^3
# Si number density = 25.341431 Si / 1000 Ang^3
#
#
#
# Elastic Constant Matrix: (Units=GPa)
#
#
# Indices 1 2 3 4 5 6 
#
# 1 116.8477 46.6644 60.1746 -19.6519 -22.4691 -0.6962
# 2 46.6644 132.7393 45.7839 -5.8475 7.9844 -19.9777
# 3 60.1746 45.7839 202.4706 -29.8144 -18.2320 -13.0843
# 4 -19.6519 -5.8475 -29.8144 52.6049 -10.9907 1.2464
# 5 -22.4691 7.9844 -18.2320 -10.9907 44.1337 -1.6273
# 6 -0.6962 -19.9777 -13.0843 1.2464 -1.6273 47.7629
#
#
#
# Elastic Compliance Matrix: (Units=1/GPa)
#
#
# Indices 1 2 3 4 5 6 
#
# 1 0.013945 -0.004966 -0.001547 0.005647 0.008686 -0.002149
# 2 -0.004966 0.010626 -0.001616 -0.002869 -0.005692 0.003810
# 3 -0.001547 -0.001616 0.006667 0.003666 0.003214 0.001142
# 4 0.005647 -0.002869 0.003666 0.025222 0.011175 -0.000391
# 5 0.008686 -0.005692 0.003214 0.011175 0.032200 -0.000568
# 6 -0.002149 0.003810 0.001142 -0.000391 -0.000568 0.022803
#
#
# Mechanical properties :
#
#
# Convention : Reuss Voigt Hill
#
# Bulk Modulus (GPa) = 66.75097 84.14481 75.44789
# Shear Modulus (GPa) = 37.67513 48.86263 43.26888
#
# Velocity S-wave (km/s) = 3.85996 4.39586 4.13660
# Velocity P-wave (km/s) = 6.80173 7.68383 7.25620
#
# Compressibility (1/GPa) = 0.01498105
#
# Stress axis : x y z
#
# Youngs Moduli (GPa) = 71.70997 94.10740 149.99140
#
# Poissons Ratio (x) = 0.46734 0.23201
# Poissons Ratio (y) = 0.35611 0.24235
# Poissons Ratio (z) = 0.11092 0.15206
#
# Static dielectric constant tensor:
#      x y z
#    x 2.004400 0.031800 0.058190 
#    y 0.031800 2.068640 -0.046620 
#    z 0.058190 -0.046620 2.098480 
# 
# From -- ./inp_files/131949.got.cif
#   From: 2010.05.17/outbox.cif.g08.bks.cpg/sg2_66_cif.got.tgz:131949.got - 2010.06.03 11:33:40.
