data_PCOD9058118
_publ_section_title
;
Structure prediction by ZEFSAII (Michael W. Deem and Ramdas Pophale) SiO2 
 PCOD9058118
Probable space group: P -1
;
_chemical_formula_sum "Si O2"
_cell_formula_units_Z 16
_cell_length_a 10.960210
_cell_length_b 10.840408
_cell_length_c 14.001848
_cell_angle_alpha 62.637315
_cell_angle_beta 77.369315
_cell_angle_gamma 131.839601
_cell_volume 669.380066
_symmetry_space_group_name_H-M "P -1"
_symmetry_group_IT_number 2
_symmetry_cell_setting 'triclinic'
loop_
_space_group_symop_operation_xyz
x,y,z
-x,-y,-z
loop_
_atom_site_type_symbol
_atom_site_label
_atom_site_fract_x
_atom_site_fract_y
_atom_site_fract_z
Si Si1 0.914757 0.176131 0.510058
Si Si2 0.499480 0.736950 0.248810
Si Si3 0.223744 0.039676 0.184116
Si Si4 0.208695 0.839032 0.652225
Si Si5 0.420483 0.906884 0.347219
Si Si6 0.768776 0.502399 0.992012
Si Si7 0.780742 0.191135 0.886730
Si Si8 0.956454 0.006838 0.112140
O O1 0.224721 0.446655 0.340858
O O2 0.753954 0.019895 0.493525
O O3 0.838324 0.012602 0.673998
O O4 0.843704 0.260726 0.531908
O O5 0.415251 0.768374 0.330173
O O6 0.646336 0.750542 0.265433
O O7 0.721075 0.018789 0.039472
O O8 0.548667 0.364358 0.013413
O O9 0.054638 0.985828 0.175519
O O10 0.165546 0.836955 0.211108
O O11 0.011916 0.522770 0.761706
O O12 0.467292 0.032471 0.591576
O O13 0.034227 0.737830 0.801760
O O14 0.632464 0.224963 0.149920
O O15 0.853316 0.676426 0.005713
O O16 0.500000 0.000000 0.000000
O O17 0.000000 0.000000 0.000000
#
# Coordination Sequence:
#
# PCOD9058118 Si02
#       8
#     2   2   2   2   2   2   2   2
#     4  11  26  41  64  96 140 178 204 265 334 398
#     4  12  22  42  68  99 133 167 218 268 333 386
#     4  11  25  44  64  96 132 179 223 256 323 393
#     4  12  22  38  68 100 134 167 212 274 333 379
#     4  11  23  41  67 106 129 164 214 275 335 387
#     4  11  22  44  71  96 129 168 222 280 319 379
#     4  12  20  37  69 101 125 164 219 272 322 382
#     4  12  26  44  71  97 125 173 229 277 315 378
#
# _framework density 23.902715000000001
#
# number of rings (size 3 to 8) (size 9 to 14) (size 15 to 20)
#    0.000    0.500    6.250    3.000    1.750    0.500 
#    0.000    0.625    2.750    0.000    0.000    0.000 
#    0.000    0.000    0.000    0.000    0.000    0.000 
#
# Total GULP energy -89506.309671 kJ/mol
# GULP energy per Si atom -5594.144354 kJ/mol
# Density = 2.384831 g / cm^3
# Si number density = 23.902715 Si / 1000 Ang^3
#
#
#
# Elastic Constant Matrix: (Units=GPa)
#
#
# Indices 1 2 3 4 5 6 
#
# 1 138.6572 31.4770 31.7644 -0.8145 -21.8293 53.2527
# 2 31.4770 92.9897 9.4600 15.1991 -8.1722 24.5058
# 3 31.7644 9.4600 68.9944 15.0297 -4.0702 13.8423
# 4 -0.8145 15.1991 15.0297 31.7519 13.5217 -1.9582
# 5 -21.8293 -8.1722 -4.0702 13.5217 33.2939 5.5165
# 6 53.2527 24.5058 13.8423 -1.9582 5.5165 52.1400
#
#
#
# Elastic Compliance Matrix: (Units=1/GPa)
#
#
# Indices 1 2 3 4 5 6 
#
# 1 0.019120 0.003828 -0.000584 -0.012025 0.022261 -0.023980
# 2 0.003828 0.017949 0.004207 -0.019072 0.017838 -0.016067
# 3 -0.000584 0.004207 0.020315 -0.017073 0.011497 -0.008632
# 4 -0.012025 -0.019072 -0.017073 0.071446 -0.049248 0.033672
# 5 0.022261 0.017838 0.011497 -0.049248 0.077748 -0.044248
# 6 -0.023980 -0.016067 -0.008632 0.033672 -0.044248 0.059459
#
#
# Mechanical properties :
#
#
# Convention : Reuss Voigt Hill
#
# Bulk Modulus (GPa) = 13.83375 49.56047 31.69711
# Shear Modulus (GPa) = 18.16648 38.63315 28.39982
#
# Velocity S-wave (km/s) = 2.75983 4.02464 3.45068
# Velocity P-wave (km/s) = 3.99445 6.50970 5.40055
#
# Compressibility (1/GPa) = 0.07228698
#
# Stress axis : x y z
#
# Youngs Moduli (GPa) = 52.30015 55.71325 49.22390
#
# Poissons Ratio (x) = -0.21329 0.02875
# Poissons Ratio (y) = -0.20022 -0.20708
# Poissons Ratio (z) = 0.03055 -0.23437
#
# Static dielectric constant tensor:
#      x y z
#    x 1.962050 0.009890 0.029550 
#    y 0.009890 1.909110 0.010650 
#    z 0.029550 0.010650 1.959550 
# 
# From -- ./inp_files/428154.got.cif
#   From: 2010.05.17/outbox.cif.g08.bks.cpg/sg2_215_cif.got.tgz:428154.got - 2010.06.03 11:33:40.
