data_PCOD9058747
_publ_section_title
;
Structure prediction by ZEFSAII (Michael W. Deem and Ramdas Pophale) SiO2 
 PCOD9058747
Probable space group: P -1
;
_chemical_formula_sum "Si O2"
_cell_formula_units_Z 15
_cell_length_a 14.566889
_cell_length_b 6.602978
_cell_length_c 14.087297
_cell_angle_alpha 93.148253
_cell_angle_beta 29.299822
_cell_angle_gamma 104.289505
_cell_volume 604.751288
_symmetry_space_group_name_H-M "P -1"
_symmetry_group_IT_number 2
_symmetry_cell_setting 'triclinic'
loop_
_space_group_symop_operation_xyz
x,y,z
-x,-y,-z
loop_
_atom_site_type_symbol
_atom_site_label
_atom_site_fract_x
_atom_site_fract_y
_atom_site_fract_z
Si Si1 0.718837 0.499969 0.574238
Si Si2 0.756209 0.883639 0.697509
Si Si3 0.510627 0.628988 0.612787
Si Si4 0.500000 0.000000 0.500000
Si Si5 0.172498 0.152781 0.918860
Si Si6 0.240718 0.799330 0.954087
Si Si7 0.906245 0.335878 0.260361
Si Si8 0.556962 0.892517 0.069640
O O1 0.748809 0.688778 0.628199
O O2 0.690552 0.586103 0.498119
O O3 0.872660 0.387244 0.401631
O O4 0.518697 0.295273 0.786649
O O5 0.633311 0.034214 0.776357
O O6 0.633978 0.807874 0.905663
O O7 0.000000 0.000000 0.500000
O O8 0.552159 0.807368 0.499695
O O9 0.325682 0.393569 0.752415
O O10 0.428579 0.729474 0.776519
O O11 0.296408 0.802633 0.620772
O O12 0.050432 0.199848 0.117771
O O13 0.283839 0.990149 0.840333
O O14 0.000000 0.000000 0.000000
O O15 0.044893 0.580169 0.098857
O O16 0.252846 0.901647 0.049378
#
# Coordination Sequence:
#
# PCOD9058747 Si02
#       8
#     2   2   2   1   2   2   2   2
#     4  12  25  47  72 109 148 192 244 310 380 445
#     4  11  26  48  78 112 151 193 246 310 384 467
#     4  11  25  44  71 101 145 196 244 303 371 439
#     4  12  26  46  64 104 150 192 252 304 362 434
#     4  11  24  45  72 100 141 201 256 312 368 441
#     4  11  22  48  70 103 144 196 248 304 374 445
#     4  11  28  40  71 106 144 196 253 308 371 445
#     4  11  24  47  79 110 152 198 245 312 383 457
#
# _framework density 24.803585000000002
#
# number of rings (size 3 to 8) (size 9 to 14) (size 15 to 20)
#    0.000    0.800    2.667    3.600    3.733    4.267 
#    0.000    0.000    0.000    0.000    0.000    0.000 
#    0.000    0.000    0.000    0.000    0.000    0.000 
#
# Total GULP energy -83540.573013 kJ/mol
# GULP energy per Si atom -5569.371534 kJ/mol
# Density = 2.474713 g / cm^3
# Si number density = 24.803585 Si / 1000 Ang^3
#
#
#
# Elastic Constant Matrix: (Units=GPa)
#
#
# Indices 1 2 3 4 5 6 
#
# 1 57.0656 42.4030 12.1262 -2.0088 -9.6130 10.9107
# 2 42.4030 148.3133 71.4501 16.9891 0.1122 34.1044
# 3 12.1262 71.4501 72.5795 7.8888 -4.8597 7.0863
# 4 -2.0088 16.9891 7.8888 52.2580 9.4287 7.7853
# 5 -9.6130 0.1122 -4.8597 9.4287 39.5642 -2.0269
# 6 10.9107 34.1044 7.0863 7.7853 -2.0269 46.3826
#
#
#
# Elastic Compliance Matrix: (Units=1/GPa)
#
#
# Indices 1 2 3 4 5 6 
#
# 1 0.025162 -0.010830 0.006560 0.002186 0.006478 0.000958
# 2 -0.010830 0.021124 -0.018097 -0.002165 -0.004914 -0.010072
# 3 0.006560 -0.018097 0.030225 -0.000607 0.005887 0.007505
# 4 0.002186 -0.002165 -0.000607 0.021258 -0.004737 -0.002605
# 5 0.006478 -0.004914 0.005887 -0.004737 0.028882 0.003247
# 6 0.000958 -0.010072 0.007505 -0.002605 0.003247 0.028172
#
#
# Mechanical properties :
#
#
# Convention : Reuss Voigt Hill
#
# Bulk Modulus (GPa) = 31.46847 58.87965 45.17406
# Shear Modulus (GPa) = 23.79264 37.77291 30.78277
#
# Velocity S-wave (km/s) = 3.10052 3.90664 3.52669
# Velocity P-wave (km/s) = 5.05295 6.64372 5.90217
#
# Compressibility (1/GPa) = 0.03177784
#
# Stress axis : x y z
#
# Youngs Moduli (GPa) = 39.74269 47.33845 33.08551
#
# Poissons Ratio (x) = 0.51265 -0.21703
# Poissons Ratio (y) = 0.43040 0.59874
# Poissons Ratio (z) = -0.26070 0.85668
#
# Static dielectric constant tensor:
#      x y z
#    x 1.763910 -0.008170 -0.236700 
#    y -0.008170 1.948080 -0.011920 
#    z -0.236700 -0.011920 1.614720 
# 
# From -- ./inp_files/525839.got.cif
#   From: 2010.05.17/outbox.cif.g08.bks.cpg/sg2_263_cif.got.tgz:525839.got - 2010.06.03 11:33:40.
