data_PCOD9058293
_publ_section_title
;
Structure prediction by ZEFSAII (Michael W. Deem and Ramdas Pophale) SiO2 
 PCOD9058293
Probable space group: P -1
;
_chemical_formula_sum "Si O2"
_cell_formula_units_Z 15
_cell_length_a 11.593300
_cell_length_b 9.218595
_cell_length_c 14.149139
_cell_angle_alpha 25.744908
_cell_angle_beta 88.818162
_cell_angle_gamma 75.582022
_cell_volume 556.639316
_symmetry_space_group_name_H-M "P -1"
_symmetry_group_IT_number 2
_symmetry_cell_setting 'triclinic'
loop_
_space_group_symop_operation_xyz
x,y,z
-x,-y,-z
loop_
_atom_site_type_symbol
_atom_site_label
_atom_site_fract_x
_atom_site_fract_y
_atom_site_fract_z
Si Si1 0.326109 0.611340 0.072581
Si Si2 0.986560 0.053206 0.079533
Si Si3 0.891379 0.545803 0.050438
Si Si4 0.303124 0.781719 0.469502
Si Si5 0.381874 0.744543 0.207711
Si Si6 0.713917 0.380107 0.234475
Si Si7 0.240741 0.409419 0.536938
Si Si8 0.500000 0.500000 0.000000
O O1 0.168011 0.753044 0.995756
O O2 0.438348 0.262888 0.211588
O O3 0.334094 0.936424 0.812892
O O4 0.364962 0.657360 0.150309
O O5 0.056271 0.300709 0.956707
O O6 0.088258 0.625853 0.374984
O O7 0.000000 0.000000 0.000000
O O8 0.754985 0.859369 0.812554
O O9 0.859137 0.224011 0.272994
O O10 0.000000 0.500000 0.000000
O O11 0.461247 0.469799 0.642850
O O12 0.271703 0.883290 0.520848
O O13 0.233285 0.556656 0.557432
O O14 0.313062 0.568663 0.376501
O O15 0.321935 0.204456 0.961233
O O16 0.600582 0.454016 0.118172
#
# Coordination Sequence:
#
# PCOD9058293 Si02
#       8
#     2   2   2   2   2   2   2   1
#     4  12  24  45  67 103 148 173 224 284 344 410
#     4  11  22  45  68 102 132 177 233 285 335 384
#     4  11  26  47  69  93 141 187 225 275 333 421
#     4  11  23  39  72 103 125 179 234 269 345 400
#     4  12  22  43  75 101 134 176 232 286 333 406
#     4  12  23  46  69 100 140 175 229 282 339 407
#     4  11  23  40  74 103 126 183 231 287 334 395
#     4  12  28  42  66 102 146 182 206 286 360 400
#
# _framework density 26.947430000000001
#
# number of rings (size 3 to 8) (size 9 to 14) (size 15 to 20)
#    0.000    0.533    6.667    2.800    1.867    0.533 
#    2.400    1.333    0.000    0.000    0.000    0.000 
#    0.000    0.000    0.000    0.000    0.000    0.000 
#
# Total GULP energy -83784.287814 kJ/mol
# GULP energy per Si atom -5585.619188 kJ/mol
# Density = 2.688610 g / cm^3
# Si number density = 26.947430 Si / 1000 Ang^3
#
#
#
# Elastic Constant Matrix: (Units=GPa)
#
#
# Indices 1 2 3 4 5 6 
#
# 1 171.7432 57.1165 44.9893 35.3983 29.4492 -20.9946
# 2 57.1165 138.9622 43.3205 51.7164 17.3091 6.6832
# 3 44.9893 43.3205 103.6071 31.2564 15.0033 3.3135
# 4 35.3983 51.7164 31.2564 58.6638 4.0977 3.0732
# 5 29.4492 17.3091 15.0033 4.0977 45.5194 13.3674
# 6 -20.9946 6.6832 3.3135 3.0732 13.3674 56.8116
#
#
#
# Elastic Compliance Matrix: (Units=1/GPa)
#
#
# Indices 1 2 3 4 5 6 
#
# 1 0.009074 -0.001583 -0.001659 -0.003051 -0.005976 0.005207
# 2 -0.001583 0.011701 -0.001342 -0.008459 -0.001937 -0.000970
# 3 -0.001659 -0.001342 0.012550 -0.004336 -0.002023 -0.000477
# 4 -0.003051 -0.008459 -0.004336 0.028453 0.004808 -0.002550
# 5 -0.005976 -0.001937 -0.002023 0.004808 0.029465 -0.009056
# 6 0.005207 -0.000970 -0.000477 -0.002550 -0.009056 0.021937
#
#
# Mechanical properties :
#
#
# Convention : Reuss Voigt Hill
#
# Bulk Modulus (GPa) = 41.39453 78.35168 59.87311
# Shear Modulus (GPa) = 38.34379 50.12472 44.23426
#
# Velocity S-wave (km/s) = 3.77624 4.31756 4.05594
# Velocity P-wave (km/s) = 5.86582 7.34806 6.64838
#
# Compressibility (1/GPa) = 0.02415778
#
# Stress axis : x y z
#
# Youngs Moduli (GPa) = 110.20631 85.46120 79.68429
#
# Poissons Ratio (x) = 0.13527 0.13219
# Poissons Ratio (y) = 0.17444 0.10691
# Poissons Ratio (z) = 0.18282 0.11466
#
# Static dielectric constant tensor:
#      x y z
#    x 2.134160 -0.619320 0.149880 
#    y -0.619320 2.017920 0.007810 
#    z 0.149880 0.007810 2.062180 
# 
# From -- ./inp_files/390467.got.cif
#   From: 2010.05.17/outbox.cif.g08.bks.cpg/sg2_196_cif.got.tgz:390467.got - 2010.06.03 11:33:40.
