data_PCOD9058273
_publ_section_title
;
Structure prediction by ZEFSAII (Michael W. Deem and Ramdas Pophale) SiO2 
 PCOD9058273
Probable space group: P -1
;
_chemical_formula_sum "Si O2"
_cell_formula_units_Z 14
_cell_length_a 17.410352
_cell_length_b 7.267970
_cell_length_c 19.587091
_cell_angle_alpha 43.676993
_cell_angle_beta 157.975985
_cell_angle_gamma 125.888485
_cell_volume 606.933641
_symmetry_space_group_name_H-M "P -1"
_symmetry_group_IT_number 2
_symmetry_cell_setting 'triclinic'
loop_
_space_group_symop_operation_xyz
x,y,z
-x,-y,-z
loop_
_atom_site_type_symbol
_atom_site_label
_atom_site_fract_x
_atom_site_fract_y
_atom_site_fract_z
Si Si1 0.521015 0.582106 0.154504
Si Si2 0.437128 0.143545 0.018158
Si Si3 0.115486 0.586210 0.008107
Si Si4 0.978806 0.165408 0.666448
Si Si5 0.837299 0.684608 0.026947
Si Si6 0.795470 0.837045 0.504294
Si Si7 0.436651 0.708547 0.328473
O O1 0.431331 0.880952 0.037139
O O2 0.761958 0.426968 0.422093
O O3 0.365834 0.406975 0.092494
O O4 0.528181 0.630851 0.066256
O O5 0.635633 0.008228 0.268586
O O6 0.199195 0.241972 0.829317
O O7 0.120916 0.399615 0.995720
O O8 0.355574 0.565450 0.236508
O O9 0.000000 0.500000 0.000000
O O10 0.002869 0.911782 0.806987
O O11 0.941590 0.017606 0.604255
O O12 0.763050 0.016081 0.889166
O O13 0.044399 0.478787 0.292940
O O14 0.637059 0.799947 0.443817
O O15 0.500000 0.500000 0.500000
#
# Coordination Sequence:
#
# PCOD9058273 Si02
#       7
#     2   2   2   2   2   2   2
#     4  11  23  43  68  98 138 183 228 288 346 404
#     4  11  24  43  67 102 134 185 237 277 349 410
#     4  11  25  46  70 102 138 180 231 289 349 412
#     4  11  22  45  65  98 141 174 231 289 337 412
#     4  11  25  47  69 104 143 180 231 289 348 411
#     4  11  23  43  67  97 141 177 233 287 334 424
#     4  12  25  45  71 103 136 184 235 281 351 421
#
# _framework density 23.066772
#
# number of rings (size 3 to 8) (size 9 to 14) (size 15 to 20)
#    0.000    0.857    5.714    2.143    2.000    4.000 
#    0.000    0.000    0.000    0.000    0.000    0.000 
#    0.000    0.000    0.000    0.000    0.000    0.000 
#
# Total GULP energy -78361.150945 kJ/mol
# GULP energy per Si atom -5597.225068 kJ/mol
# Density = 2.301427 g / cm^3
# Si number density = 23.066772 Si / 1000 Ang^3
#
#
#
# Elastic Constant Matrix: (Units=GPa)
#
#
# Indices 1 2 3 4 5 6 
#
# 1 106.4821 29.2312 57.9394 -5.6310 -14.9331 20.9424
# 2 29.2312 42.8110 17.9219 1.8631 -4.1214 -0.1679
# 3 57.9394 17.9219 176.3339 5.7146 -7.3469 4.0072
# 4 -5.6310 1.8631 5.7146 34.9923 -9.6493 -0.5746
# 5 -14.9331 -4.1214 -7.3469 -9.6493 48.6240 -3.6411
# 6 20.9424 -0.1679 4.0072 -0.5746 -3.6411 26.5197
#
#
#
# Elastic Compliance Matrix: (Units=1/GPa)
#
#
# Indices 1 2 3 4 5 6 
#
# 1 0.018137 -0.010339 -0.004610 0.005122 0.004038 -0.013026
# 2 -0.010339 0.030453 0.000199 -0.003354 -0.000618 0.008170
# 3 -0.004610 0.000199 0.007153 -0.002029 -0.000538 0.002443
# 4 0.005122 -0.003354 -0.002029 0.031848 0.007146 -0.002088
# 5 0.004038 -0.000618 -0.000538 0.007146 0.023107 0.000216
# 6 -0.013026 0.008170 0.002443 -0.002088 0.000216 0.047662
#
#
# Mechanical properties :
#
#
# Convention : Reuss Voigt Hill
#
# Bulk Modulus (GPa) = 38.10475 59.53468 48.81972
# Shear Modulus (GPa) = 25.43121 36.72950 31.08036
#
# Velocity S-wave (km/s) = 3.32400 3.99471 3.67469
# Velocity P-wave (km/s) = 5.59349 6.86605 6.26218
#
# Compressibility (1/GPa) = 0.02624344
#
# Stress axis : x y z
#
# Youngs Moduli (GPa) = 55.13495 32.83730 139.79200
#
# Poissons Ratio (x) = 0.33951 0.64450
# Poissons Ratio (y) = 0.57006 -0.02788
# Poissons Ratio (z) = 0.25419 -0.00655
#
# Static dielectric constant tensor:
#      x y z
#    x 1.886540 -0.038160 -0.006520 
#    y -0.038160 1.886930 0.012690 
#    z -0.006520 0.012690 1.849370 
# 
# From -- ./inp_files/539924.got.cif
#   From: 2010.05.17/outbox.cif.g08.bks.cpg/sg2_270_cif.got.tgz:539924.got - 2010.06.03 11:33:40.
