data_PCOD9058166
_publ_section_title
;
Structure prediction by ZEFSAII (Michael W. Deem and Ramdas Pophale) SiO2 
 PCOD9058166
Probable space group: P -1
;
_chemical_formula_sum "Si O2"
_cell_formula_units_Z 16
_cell_length_a 15.403017
_cell_length_b 24.800516
_cell_length_c 18.866265
_cell_angle_alpha 18.683461
_cell_angle_beta 153.787991
_cell_angle_gamma 160.799205
_cell_volume 759.052675
_symmetry_space_group_name_H-M "P -1"
_symmetry_group_IT_number 2
_symmetry_cell_setting 'triclinic'
loop_
_space_group_symop_operation_xyz
x,y,z
-x,-y,-z
loop_
_atom_site_type_symbol
_atom_site_label
_atom_site_fract_x
_atom_site_fract_y
_atom_site_fract_z
Si Si1 0.361132 0.123395 0.928286
Si Si2 0.374725 0.248992 0.236157
Si Si3 0.767147 0.841829 0.467591
Si Si4 0.865121 0.529139 0.540875
Si Si5 0.920493 0.148908 0.567535
Si Si6 0.159687 0.881110 0.944922
Si Si7 0.892309 0.604083 0.752581
Si Si8 0.790327 0.266356 0.595629
O O1 0.110328 0.098813 0.779885
O O2 0.600671 0.383012 0.793210
O O3 0.373041 0.056460 0.941493
O O4 0.321451 0.949654 0.170578
O O5 0.548610 0.247363 0.421268
O O6 0.094373 0.148094 0.187445
O O7 0.500000 0.500000 0.000000
O O8 0.351543 0.109111 0.325559
O O9 0.449426 0.621292 0.520892
O O10 0.870581 0.747956 0.610920
O O11 0.755909 0.009476 0.206387
O O12 0.000000 0.000000 0.500000
O O13 0.989257 0.681005 0.514009
O O14 0.048729 0.697182 0.401632
O O15 0.899019 0.347346 0.801534
O O16 0.964771 0.264896 0.379351
O O17 0.000000 0.500000 0.000000
O O18 0.000000 0.500000 0.500000
#
# Coordination Sequence:
#
# PCOD9058166 Si02
#       8
#     2   2   2   2   2   2   2   2
#     4  11  22  44  72  97 133 192 231 281 350 419
#     4  11  22  46  72 102 136 190 237 276 351 417
#     4  12  28  46  69 108 143 178 233 298 353 419
#     4  12  26  46  69 108 139 185 236 289 354 407
#     4  11  24  46  72 100 139 183 236 294 345 415
#     4  11  24  45  74  98 137 187 233 286 349 418
#     4  12  25  44  71 102 138 183 236 291 358 413
#     4  12  25  44  72 103 143 188 234 281 346 429
#
# _framework density 21.078906
#
# number of rings (size 3 to 8) (size 9 to 14) (size 15 to 20)
#    0.000    0.500    6.250    3.000    5.250    1.000 
#    0.000    0.000    0.000    0.000    0.000    0.000 
#    0.000    0.000    0.000    0.000    0.000    0.000 
#
# Total GULP energy -89246.825213 kJ/mol
# GULP energy per Si atom -5577.926576 kJ/mol
# Density = 2.103093 g / cm^3
# Si number density = 21.078906 Si / 1000 Ang^3
#
#
#
# Elastic Constant Matrix: (Units=GPa)
#
#
# Indices 1 2 3 4 5 6 
#
# 1 99.9385 51.9721 27.2549 0.1343 5.2083 -28.9368
# 2 51.9721 116.9105 30.5378 -6.3277 8.2145 -31.3363
# 3 27.2549 30.5378 106.4158 7.3747 -4.9140 -23.4588
# 4 0.1343 -6.3277 7.3747 45.0914 -1.7487 8.7323
# 5 5.2083 8.2145 -4.9140 -1.7487 39.4408 -8.0473
# 6 -28.9368 -31.3363 -23.4588 8.7323 -8.0473 46.1036
#
#
#
# Elastic Compliance Matrix: (Units=1/GPa)
#
#
# Indices 1 2 3 4 5 6 
#
# 1 0.014349 -0.004708 -0.000968 -0.001634 0.000042 0.005630
# 2 -0.004708 0.012324 -0.001538 0.001132 -0.001227 0.004211
# 3 -0.000968 -0.001538 0.011600 -0.003030 0.002845 0.005321
# 4 -0.001634 0.001132 -0.003030 0.024064 -0.000651 -0.006469
# 5 0.000042 -0.001227 0.002845 -0.000651 0.027049 0.005484
# 6 0.005630 0.004211 0.005321 -0.006469 0.005484 0.032976
#
#
# Mechanical properties :
#
#
# Convention : Reuss Voigt Hill
#
# Bulk Modulus (GPa) = 41.93484 60.31047 51.12265
# Shear Modulus (GPa) = 34.54511 40.36050 37.45281
#
# Velocity S-wave (km/s) = 4.05266 4.38051 4.21977
# Velocity P-wave (km/s) = 6.46809 7.36608 6.93164
#
# Compressibility (1/GPa) = 0.02384652
#
# Stress axis : x y z
#
# Youngs Moduli (GPa) = 69.69275 81.14036 86.20353
#
# Poissons Ratio (x) = 0.38202 0.08341
# Poissons Ratio (y) = 0.32813 0.13256
# Poissons Ratio (z) = 0.06743 0.12477
#
# Static dielectric constant tensor:
#      x y z
#    x 1.820980 0.017740 -0.009680 
#    y 0.017740 1.818940 -0.037300 
#    z -0.009680 -0.037300 1.724110 
# 
# From -- ./inp_files/398640.got.cif
#   From: 2010.05.17/outbox.cif.g08.bks.cpg/sg2_200_cif.got.tgz:398640.got - 2010.06.03 11:33:40.
