data_PCOD9058484
_publ_section_title
;
Structure prediction by ZEFSAII (Michael W. Deem and Ramdas Pophale) SiO2 
 PCOD9058484
Probable space group: P -1
;
_chemical_formula_sum "Si O2"
_cell_formula_units_Z 16
_cell_length_a 16.954424
_cell_length_b 13.566373
_cell_length_c 11.305378
_cell_angle_alpha 124.198579
_cell_angle_beta 149.318264
_cell_angle_gamma 35.267708
_cell_volume 673.964870
_symmetry_space_group_name_H-M "P -1"
_symmetry_group_IT_number 2
_symmetry_cell_setting 'triclinic'
loop_
_space_group_symop_operation_xyz
x,y,z
-x,-y,-z
loop_
_atom_site_type_symbol
_atom_site_label
_atom_site_fract_x
_atom_site_fract_y
_atom_site_fract_z
Si Si1 0.138422 0.446102 0.465641
Si Si2 0.879152 0.040728 0.057927
Si Si3 0.448296 0.667972 0.520628
Si Si4 0.391387 0.270846 0.433299
Si Si5 0.343940 0.404613 0.011530
Si Si6 0.471454 0.037170 0.747617
Si Si7 0.057139 0.726489 0.693877
Si Si8 0.212558 0.955463 0.797949
O O1 0.181234 0.412064 0.357941
O O2 0.327812 0.231236 0.620874
O O3 0.156474 0.568813 0.621736
O O4 0.863082 0.572299 0.236297
O O5 0.859012 0.191670 0.169361
O O6 0.860341 0.983432 0.118652
O O7 0.655473 0.133546 0.749245
O O8 0.156493 0.859590 0.240477
O O9 0.500000 0.500000 0.500000
O O10 0.618978 0.623270 0.610457
O O11 0.509907 0.688484 0.740301
O O12 0.406314 0.133339 0.297748
O O13 0.544469 0.268623 0.075476
O O14 0.179646 0.619142 0.907542
O O15 0.244472 0.106979 0.569385
O O16 0.686155 0.973643 0.059318
O O17 0.000000 0.000000 0.500000
#
# Coordination Sequence:
#
# PCOD9058484 Si02
#       8
#     2   2   2   2   2   2   2   2
#     4  11  23  43  77 107 143 189 249 305 353 429
#     4  12  26  45  75 111 141 194 253 299 357 438
#     4  12  28  45  67 104 156 195 234 304 373 432
#     4  12  26  46  75 111 144 199 251 291 361 445
#     4  11  23  45  70 103 144 190 239 302 368 420
#     4  11  22  45  76 106 146 193 245 300 361 434
#     4  11  22  45  79 104 142 194 253 303 352 431
#     4  12  24  46  73 108 147 188 241 304 376 422
#
# _framework density 23.740109
#
# number of rings (size 3 to 8) (size 9 to 14) (size 15 to 20)
#    0.000    0.500    6.250    2.250    3.500    3.500 
#    2.250    1.875    0.000    0.000    0.000    0.000 
#    0.000    0.000    0.000    0.000    0.000    0.000 
#
# Total GULP energy -89430.075855 kJ/mol
# GULP energy per Si atom -5589.379741 kJ/mol
# Density = 2.368608 g / cm^3
# Si number density = 23.740109 Si / 1000 Ang^3
#
#
#
# Elastic Constant Matrix: (Units=GPa)
#
#
# Indices 1 2 3 4 5 6 
#
# 1 70.1361 8.1877 -0.9143 -8.8503 7.7374 -14.5744
# 2 8.1877 103.9212 33.2683 18.9571 8.1399 0.7585
# 3 -0.9143 33.2683 108.4458 16.7124 24.3768 0.3348
# 4 -8.8503 18.9571 16.7124 29.1533 -5.2696 7.5049
# 5 7.7374 8.1399 24.3768 -5.2696 30.8625 1.3835
# 6 -14.5744 0.7585 0.3348 7.5049 1.3835 35.8907
#
#
#
# Elastic Compliance Matrix: (Units=1/GPa)
#
#
# Indices 1 2 3 4 5 6 
#
# 1 0.016709 -0.002008 0.001206 0.003283 -0.004333 0.006297
# 2 -0.002008 0.012046 -0.001904 -0.008000 -0.002568 0.000720
# 3 0.001206 -0.001904 0.014138 -0.009543 -0.012725 0.002884
# 4 0.003283 -0.008000 -0.009543 0.051804 0.018115 -0.009940
# 5 -0.004333 -0.002568 -0.012725 0.018115 0.047633 -0.007211
# 6 0.006297 0.000720 0.002884 -0.009940 -0.007211 0.032734
#
#
# Mechanical properties :
#
#
# Convention : Reuss Voigt Hill
#
# Bulk Modulus (GPa) = 26.68142 40.39850 33.53996
# Shear Modulus (GPa) = 25.91089 35.31206 30.61148
#
# Velocity S-wave (km/s) = 3.30728 3.86092 3.59477
# Velocity P-wave (km/s) = 5.08404 6.07697 5.60255
#
# Compressibility (1/GPa) = 0.03747926
#
# Stress axis : x y z
#
# Youngs Moduli (GPa) = 59.84843 83.01700 70.73249
#
# Poissons Ratio (x) = 0.16667 -0.08527
# Poissons Ratio (y) = 0.12016 0.13470
# Poissons Ratio (z) = -0.07215 0.15810
#
# Static dielectric constant tensor:
#      x y z
#    x 1.892980 0.009920 -0.032740 
#    y 0.009920 1.893110 0.011540 
#    z -0.032740 0.011540 1.996000 
# 
# From -- ./inp_files/447891.got.cif
#   From: 2010.05.17/outbox.cif.g08.bks.cpg/sg2_224_cif.got.tgz:447891.got - 2010.06.03 11:33:40.
