data_PCOD9058987
_publ_section_title
;
Structure prediction by ZEFSAII (Michael W. Deem and Ramdas Pophale) SiO2 
 PCOD9058987
Probable space group: P -1
;
_chemical_formula_sum "Si O2"
_cell_formula_units_Z 14
_cell_length_a 14.378028
_cell_length_b 13.645939
_cell_length_c 10.092004
_cell_angle_alpha 68.826077
_cell_angle_beta 134.235107
_cell_angle_gamma 148.753419
_cell_volume 569.776751
_symmetry_space_group_name_H-M "P -1"
_symmetry_group_IT_number 2
_symmetry_cell_setting 'triclinic'
loop_
_space_group_symop_operation_xyz
x,y,z
-x,-y,-z
loop_
_atom_site_type_symbol
_atom_site_label
_atom_site_fract_x
_atom_site_fract_y
_atom_site_fract_z
Si Si1 0.801122 0.301016 0.556547
Si Si2 0.338389 0.531647 0.395325
Si Si3 0.589548 0.950800 0.171260
Si Si4 0.732000 0.756173 0.445129
Si Si5 0.748483 0.211620 0.848607
Si Si6 0.238013 0.495815 0.599894
Si Si7 0.364115 0.584874 0.961223
O O1 0.784390 0.291204 0.703367
O O2 0.902609 0.490644 0.524146
O O3 0.011822 0.354449 0.717262
O O4 0.491615 0.054697 0.293624
O O5 0.609915 0.733770 0.460487
O O6 0.235559 0.335338 0.416099
O O7 0.411632 0.624682 0.570478
O O8 0.045499 0.376547 0.122970
O O9 0.944997 0.208768 0.429649
O O10 0.398263 0.814432 0.182197
O O11 0.500000 0.000000 0.000000
O O12 0.499665 0.790426 0.062364
O O13 0.455095 0.558436 0.161931
O O14 0.000000 0.000000 0.500000
O O15 0.442601 0.621450 0.868888
#
# Coordination Sequence:
#
# PCOD9058987 Si02
#       7
#     2   2   2   2   2   2   2
#     4  11  23  39  69 108 145 178 222 283 366 423
#     4  11  25  48  72 102 140 186 242 295 341 417
#     4  12  22  37  69 103 144 181 222 280 359 424
#     4  11  27  48  75  98 135 195 245 291 349 407
#     4  11  23  41  67 106 145 182 226 286 351 434
#     4  12  25  41  70 109 140 181 229 290 357 423
#     4  12  24  43  71 103 143 184 232 287 350 424
#
# _framework density 24.571027000000001
#
# number of rings (size 3 to 8) (size 9 to 14) (size 15 to 20)
#    0.000    0.571    5.714    2.143    4.000    1.714 
#    0.000    0.714    0.000    0.000    0.000    0.000 
#    0.000    0.000    0.000    0.000    0.000    0.000 
#
# Total GULP energy -78311.212151 kJ/mol
# GULP energy per Si atom -5593.658011 kJ/mol
# Density = 2.451510 g / cm^3
# Si number density = 24.571027 Si / 1000 Ang^3
#
#
#
# Elastic Constant Matrix: (Units=GPa)
#
#
# Indices 1 2 3 4 5 6 
#
# 1 115.7367 31.8990 47.9343 -9.6948 -23.7234 32.9614
# 2 31.8990 94.2328 39.9149 -10.7679 -3.1958 14.2506
# 3 47.9343 39.9149 99.6795 -18.9741 -34.5118 6.7399
# 4 -9.6948 -10.7679 -18.9741 32.0155 1.4693 -10.6328
# 5 -23.7234 -3.1958 -34.5118 1.4693 46.2357 -6.9087
# 6 32.9614 14.2506 6.7399 -10.6328 -6.9087 52.6803
#
#
#
# Elastic Compliance Matrix: (Units=1/GPa)
#
#
# Indices 1 2 3 4 5 6 
#
# 1 0.013557 -0.001426 -0.005149 -0.002038 0.001944 -0.007594
# 2 -0.001426 0.014104 -0.006588 -0.000291 -0.005084 -0.002805
# 3 -0.005149 -0.006588 0.021335 0.010282 0.013413 0.006109
# 4 -0.002038 -0.000291 0.010282 0.039241 0.006683 0.008835
# 5 0.001944 -0.005084 0.013413 0.006683 0.032683 0.004078
# 6 -0.007594 -0.002805 0.006109 0.008835 0.004078 0.026029
#
#
# Mechanical properties :
#
#
# Convention : Reuss Voigt Hill
#
# Bulk Modulus (GPa) = 44.11506 61.01616 52.56561
# Shear Modulus (GPa) = 27.64993 38.84634 33.24813
#
# Velocity S-wave (km/s) = 3.35820 3.98047 3.68250
# Velocity P-wave (km/s) = 5.74715 6.78321 6.28656
#
# Compressibility (1/GPa) = 0.02266800
#
# Stress axis : x y z
#
# Youngs Moduli (GPa) = 73.76487 70.90258 46.87199
#
# Poissons Ratio (x) = 0.10113 0.24137
# Poissons Ratio (y) = 0.10522 0.30878
# Poissons Ratio (z) = 0.37985 0.46709
#
# Static dielectric constant tensor:
#      x y z
#    x 2.046210 0.061730 -0.001880 
#    y 0.061730 2.041630 0.003960 
#    z -0.001880 0.003960 1.929460 
# 
# From -- ./inp_files/315004.got.cif
#   From: 2010.05.17/outbox.cif.g08.bks.cpg/sg2_158_cif.got.tgz:315004.got - 2010.06.03 11:33:40.
