data_PCOD9058300
_publ_section_title
;
Structure prediction by ZEFSAII (Michael W. Deem and Ramdas Pophale) SiO2 
 PCOD9058300
Probable space group: P -1
;
_chemical_formula_sum "Si O2"
_cell_formula_units_Z 14
_cell_length_a 20.770636
_cell_length_b 5.289798
_cell_length_c 12.396209
_cell_angle_alpha 106.551630
_cell_angle_beta 32.791137
_cell_angle_gamma 118.586760
_cell_volume 627.674352
_symmetry_space_group_name_H-M "P -1"
_symmetry_group_IT_number 2
_symmetry_cell_setting 'triclinic'
loop_
_space_group_symop_operation_xyz
x,y,z
-x,-y,-z
loop_
_atom_site_type_symbol
_atom_site_label
_atom_site_fract_x
_atom_site_fract_y
_atom_site_fract_z
Si Si1 0.373306 0.533811 0.642908
Si Si2 0.880787 0.064074 0.136785
Si Si3 0.903869 0.584382 0.287616
Si Si4 0.937490 0.046876 0.702014
Si Si5 0.491915 0.899355 0.875050
Si Si6 0.375344 0.539030 0.400630
Si Si7 0.239106 0.619389 0.049594
O O1 0.500000 0.500000 0.500000
O O2 0.401133 0.676897 0.502006
O O3 0.250382 0.212897 0.751678
O O4 0.322323 0.663735 0.827202
O O5 0.851183 0.240751 0.293728
O O6 0.952195 0.271826 0.958428
O O7 0.000000 0.000000 0.000000
O O8 0.784718 0.639688 0.414426
O O9 0.941431 0.712686 0.368228
O O10 0.839778 0.188739 0.828790
O O11 0.860321 0.731345 0.834646
O O12 0.000000 0.000000 0.500000
O O13 0.556993 0.677250 0.736894
O O14 0.565846 0.196438 0.735830
O O15 0.341407 0.731047 0.019243
O O16 0.500000 0.000000 0.000000
#
# Coordination Sequence:
#
# PCOD9058300 Si02
#       7
#     2   2   2   2   2   2   2
#     4  12  25  47  76 115 161 196 255 318 391 457
#     4  11  22  45  68 105 149 193 242 306 374 451
#     4  11  26  41  75 103 147 193 255 302 382 443
#     4  12  29  50  76 109 148 201 256 321 372 456
#     4  12  29  50  76 105 154 202 256 310 373 460
#     4  12  27  47  76 112 144 204 252 312 379 460
#     4  12  28  50  76 111 153 198 252 317 392 441
#
# _framework density 22.304561
#
# number of rings (size 3 to 8) (size 9 to 14) (size 15 to 20)
#    0.000    0.286    4.286    3.429    6.000    1.714 
#    0.000    0.000    0.000    0.000    0.000    0.000 
#    0.000    0.000    0.000    0.000    0.000    0.000 
#
# Total GULP energy -78364.918195 kJ/mol
# GULP energy per Si atom -5597.494157 kJ/mol
# Density = 2.225379 g / cm^3
# Si number density = 22.304561 Si / 1000 Ang^3
#
#
#
# Elastic Constant Matrix: (Units=GPa)
#
#
# Indices 1 2 3 4 5 6 
#
# 1 161.1684 50.4285 73.7483 27.4745 1.7001 21.5445
# 2 50.4285 98.4914 42.9932 16.9344 -2.6280 -9.6773
# 3 73.7483 42.9932 113.4939 27.5420 0.3998 -7.1157
# 4 27.4745 16.9344 27.5420 55.2269 3.5253 2.0800
# 5 1.7001 -2.6280 0.3998 3.5253 59.2846 2.3719
# 6 21.5445 -9.6773 -7.1157 2.0800 2.3719 58.1414
#
#
#
# Elastic Compliance Matrix: (Units=1/GPa)
#
#
# Indices 1 2 3 4 5 6 
#
# 1 0.010798 -0.003301 -0.005784 -0.001271 -0.000133 -0.005208
# 2 -0.003301 0.013477 -0.002410 -0.001451 0.000667 0.003196
# 3 -0.005784 -0.002410 0.014641 -0.003826 0.000041 0.003669
# 4 -0.001271 -0.001451 -0.003826 0.021206 -0.001225 -0.000948
# 5 -0.000133 0.000667 0.000041 -0.001225 0.016993 -0.000484
# 6 -0.005208 0.003196 0.003669 -0.000948 -0.000484 0.020164
#
#
# Mechanical properties :
#
#
# Convention : Reuss Voigt Hill
#
# Bulk Modulus (GPa) = 62.79065 78.61041 70.70053
# Shear Modulus (GPa) = 39.81611 48.26283 44.03947
#
# Velocity S-wave (km/s) = 4.22964 4.65672 4.44831
# Velocity P-wave (km/s) = 7.21566 8.01461 7.62561
#
# Compressibility (1/GPa) = 0.01592594
#
# Stress axis : x y z
#
# Youngs Moduli (GPa) = 92.60664 74.20278 68.30220
#
# Poissons Ratio (x) = 0.24493 0.39506
# Poissons Ratio (y) = 0.30567 0.16461
# Poissons Ratio (z) = 0.53564 0.17883
#
# Static dielectric constant tensor:
#      x y z
#    x 1.852500 -0.024530 0.037960 
#    y -0.024530 1.887090 -0.042380 
#    z 0.037960 -0.042380 1.818540 
# 
# From -- ./inp_files/72351.got.cif
#   From: 2010.05.17/outbox.cif.g08.bks.cpg/sg2_37_cif.got.tgz:72351.got - 2010.06.03 11:33:40.
