data_PCOD9058838
_publ_section_title
;
Structure prediction by ZEFSAII (Michael W. Deem and Ramdas Pophale) SiO2 
 PCOD9058838
Probable space group: P -1
;
_chemical_formula_sum "Si O2"
_cell_formula_units_Z 15
_cell_length_a 14.852944
_cell_length_b 8.861542
_cell_length_c 8.840261
_cell_angle_alpha 109.850833
_cell_angle_beta 140.455061
_cell_angle_gamma 86.807574
_cell_volume 654.203219
_symmetry_space_group_name_H-M "P -1"
_symmetry_group_IT_number 2
_symmetry_cell_setting 'triclinic'
loop_
_space_group_symop_operation_xyz
x,y,z
-x,-y,-z
loop_
_atom_site_type_symbol
_atom_site_label
_atom_site_fract_x
_atom_site_fract_y
_atom_site_fract_z
Si Si1 0.120131 0.937910 0.948635
Si Si2 0.824711 0.480934 0.780536
Si Si3 0.294420 0.811053 0.672559
Si Si4 0.166759 0.634338 0.746654
Si Si5 0.764299 0.625589 0.069158
Si Si6 0.794121 0.764090 0.616889
Si Si7 0.000000 0.000000 0.500000
Si Si8 0.376047 0.186287 0.874404
O O1 0.192204 0.800847 0.938513
O O2 0.082055 0.026891 0.781374
O O3 0.964248 0.834254 0.795969
O O4 0.216792 0.086774 0.235859
O O5 0.738632 0.282751 0.562115
O O6 0.779266 0.595338 0.634758
O O7 0.786935 0.545334 0.913400
O O8 0.000000 0.500000 0.000000
O O9 0.192269 0.692782 0.627453
O O10 0.265292 0.990301 0.695501
O O11 0.462854 0.830369 0.944821
O O12 0.264003 0.525347 0.896559
O O13 0.000000 0.500000 0.500000
O O14 0.631244 0.701346 0.951874
O O15 0.911292 0.791679 0.352785
O O16 0.682130 0.745817 0.325748
#
# Coordination Sequence:
#
# PCOD9058838 Si02
#       8
#     2   2   2   2   2   2   1   2
#     4  11  23  37  64 103 141 177 229 292 351 416
#     4  12  27  42  68 112 143 177 235 303 355 409
#     4  11  28  48  73  99 143 190 237 299 346 430
#     4  12  23  41  67 103 136 179 233 289 360 412
#     4  12  25  40  70 101 139 191 225 291 353 423
#     4  11  24  40  68 104 137 189 230 289 350 422
#     4  12  20  40  64 102 140 182 226 278 352 422
#     4  11  26  51  71  98 141 198 240 276 362 430
#
# _framework density 22.928653000000001
#
# number of rings (size 3 to 8) (size 9 to 14) (size 15 to 20)
#    0.000    0.533    4.000    4.000    7.467    2.667 
#    0.000    0.667    0.000    0.000    0.000    0.000 
#    0.000    0.000    0.000    0.000    0.000    0.000 
#
# Total GULP energy -83730.699014 kJ/mol
# GULP energy per Si atom -5582.046601 kJ/mol
# Density = 2.287647 g / cm^3
# Si number density = 22.928653 Si / 1000 Ang^3
#
#
#
# Elastic Constant Matrix: (Units=GPa)
#
#
# Indices 1 2 3 4 5 6 
#
# 1 78.5010 37.4919 20.4401 0.7310 -30.2282 -19.6447
# 2 37.4919 123.5875 20.3584 -1.0956 -16.5227 -28.1957
# 3 20.4401 20.3584 52.6951 -2.3443 -24.5629 -13.1811
# 4 0.7310 -1.0956 -2.3443 33.0487 -10.5435 -12.3939
# 5 -30.2282 -16.5227 -24.5629 -10.5435 36.7453 12.4075
# 6 -19.6447 -28.1957 -13.1811 -12.3939 12.4075 45.4747
#
#
#
# Elastic Compliance Matrix: (Units=1/GPa)
#
#
# Indices 1 2 3 4 5 6 
#
# 1 0.022258 -0.003431 0.003491 0.007875 0.019570 0.005307
# 2 -0.003431 0.010580 -0.001383 0.002287 -0.000135 0.005337
# 3 0.003491 -0.001383 0.032041 0.012599 0.025079 0.006529
# 4 0.007875 0.002287 0.012599 0.043876 0.023814 0.013933
# 5 0.019570 -0.000135 0.025079 0.023814 0.065403 0.004285
# 6 0.005307 0.005337 0.006529 0.013933 0.004285 0.032113
#
#
# Mechanical properties :
#
#
# Convention : Reuss Voigt Hill
#
# Bulk Modulus (GPa) = 16.06821 45.70718 30.88770
# Shear Modulus (GPa) = 21.77129 34.81996 28.29563
#
# Velocity S-wave (km/s) = 3.08478 3.90118 3.51675
# Velocity P-wave (km/s) = 4.43970 6.34587 5.47636
#
# Compressibility (1/GPa) = 0.06223467
#
# Stress axis : x y z
#
# Youngs Moduli (GPa) = 44.92670 94.52001 31.21007
#
# Poissons Ratio (x) = 0.32426 -0.10897
# Poissons Ratio (y) = 0.15413 0.04317
# Poissons Ratio (z) = -0.15686 0.13073
#
# Static dielectric constant tensor:
#      x y z
#    x 1.819670 0.059610 -0.087570 
#    y 0.059610 1.870770 0.065120 
#    z -0.087570 0.065120 1.803190 
# 
# From -- ./inp_files/296312.got.cif
#   From: 2010.05.17/outbox.cif.g08.bks.cpg/sg2_149_cif.got.tgz:296312.got - 2010.06.03 11:33:40.
