data_PCOD9058972
_publ_section_title
;
Structure prediction by ZEFSAII (Michael W. Deem and Ramdas Pophale) SiO2 
 PCOD9058972
Probable space group: P -1
;
_chemical_formula_sum "Si O2"
_cell_formula_units_Z 16
_cell_length_a 22.640289
_cell_length_b 9.623589
_cell_length_c 18.906487
_cell_angle_alpha 142.404962
_cell_angle_beta 17.678968
_cell_angle_gamma 142.994576
_cell_volume 741.704199
_symmetry_space_group_name_H-M "P -1"
_symmetry_group_IT_number 2
_symmetry_cell_setting 'triclinic'
loop_
_space_group_symop_operation_xyz
x,y,z
-x,-y,-z
loop_
_atom_site_type_symbol
_atom_site_label
_atom_site_fract_x
_atom_site_fract_y
_atom_site_fract_z
Si Si1 0.859213 0.772986 0.606567
Si Si2 0.616960 0.945234 0.635023
Si Si3 0.108507 0.744945 0.671928
Si Si4 0.136865 0.407288 0.750456
Si Si5 0.647956 0.218652 0.455917
Si Si6 0.280637 0.330865 0.992409
Si Si7 0.573207 0.176793 0.923608
Si Si8 0.190044 0.013993 0.106923
O O1 0.904610 0.532412 0.431652
O O2 0.869825 0.823481 0.698542
O O3 0.627323 0.753475 0.845595
O O4 0.000000 0.000000 0.500000
O O5 0.695932 0.708542 0.451127
O O6 0.745569 0.119512 0.501056
O O7 0.651044 0.056406 0.719428
O O8 0.384065 0.923397 0.874172
O O9 0.200803 0.833269 0.678001
O O10 0.887579 0.769957 0.914504
O O11 0.235922 0.615709 0.669967
O O12 0.991980 0.203303 0.788885
O O13 0.000000 0.500000 0.000000
O O14 0.498948 0.348452 0.719078
O O15 0.500000 0.000000 0.500000
O O16 0.273841 0.590346 0.130061
O O17 0.245723 0.161021 0.031068
O O18 0.500000 0.000000 0.000000
#
# Coordination Sequence:
#
# PCOD9058972 Si02
#       8
#     2   2   2   2   2   2   2   2
#     4  11  23  39  67 108 152 191 235 288 354 435
#     4  11  25  45  73 107 144 190 241 295 357 427
#     4  12  25  44  75 108 143 191 242 291 362 428
#     4  12  28  49  74 104 138 189 243 298 364 428
#     4  12  28  51  74 101 145 186 241 306 356 428
#     4  12  24  44  73 107 146 189 237 294 363 425
#     4  11  23  39  67 107 154 190 232 288 361 427
#     4  11  24  45  71 106 148 186 239 294 358 427
#
# _framework density 21.571943000000001
#
# number of rings (size 3 to 8) (size 9 to 14) (size 15 to 20)
#    0.000    0.500    3.750    3.750    3.500    7.000 
#    0.000    0.000    0.000    0.000    0.000    0.000 
#    0.000    0.000    0.000    0.000    0.000    0.000 
#
# Total GULP energy -89583.423107 kJ/mol
# GULP energy per Si atom -5598.963944 kJ/mol
# Density = 2.152284 g / cm^3
# Si number density = 21.571943 Si / 1000 Ang^3
#
#
#
# Elastic Constant Matrix: (Units=GPa)
#
#
# Indices 1 2 3 4 5 6 
#
# 1 153.4309 71.7963 44.8652 -4.9994 -3.6536 -2.7803
# 2 71.7963 106.4638 19.5725 -18.7692 14.9277 -6.2339
# 3 44.8652 19.5725 81.5588 -6.3727 -4.8500 -3.4106
# 4 -4.9994 -18.7692 -6.3727 37.3807 -1.5577 4.8161
# 5 -3.6536 14.9277 -4.8500 -1.5577 40.7706 -13.7441
# 6 -2.7803 -6.2339 -3.4106 4.8161 -13.7441 42.0806
#
#
#
# Elastic Compliance Matrix: (Units=1/GPa)
#
#
# Indices 1 2 3 4 5 6 
#
# 1 0.011548 -0.007986 -0.004441 -0.003170 0.003561 0.000746
# 2 -0.007986 0.016899 0.000453 0.007346 -0.006937 -0.001094
# 3 -0.004441 0.000453 0.014915 0.002080 0.001731 0.001310
# 4 -0.003170 0.007346 0.002080 0.030690 -0.002680 -0.003340
# 5 0.003561 -0.006937 0.001731 -0.002680 0.030761 0.009701
# 6 0.000746 -0.001094 0.001310 -0.003340 0.009701 0.027308
#
#
# Mechanical properties :
#
#
# Convention : Reuss Voigt Hill
#
# Bulk Modulus (GPa) = 51.50515 68.21350 59.85933
# Shear Modulus (GPa) = 30.76189 37.72768 34.24479
#
# Velocity S-wave (km/s) = 3.78036 4.18655 3.98863
# Velocity P-wave (km/s) = 6.55611 7.42022 7.00151
#
# Compressibility (1/GPa) = 0.01941553
#
# Stress axis : x y z
#
# Youngs Moduli (GPa) = 86.59507 59.17659 67.04448
#
# Poissons Ratio (x) = 0.47257 0.29774
# Poissons Ratio (y) = 0.69152 -0.03039
# Poissons Ratio (z) = 0.38456 -0.02683
#
# Static dielectric constant tensor:
#      x y z
#    x 1.765960 0.008730 -0.022580 
#    y 0.008730 1.748820 0.031490 
#    z -0.022580 0.031490 1.788430 
# 
# From -- ./inp_files/226207.got.cif
#   From: 2010.05.17/outbox.cif.g08.bks.cpg/sg2_114_cif.got.tgz:226207.got - 2010.06.03 11:33:40.
