data_PCOD9058778
_publ_section_title
;
Structure prediction by ZEFSAII (Michael W. Deem and Ramdas Pophale) SiO2 
 PCOD9058778
Probable space group: P -1
;
_chemical_formula_sum "Si O2"
_cell_formula_units_Z 14
_cell_length_a 9.422028
_cell_length_b 9.723270
_cell_length_c 13.287825
_cell_angle_alpha 122.365969
_cell_angle_beta 126.532383
_cell_angle_gamma 43.211223
_cell_volume 658.243842
_symmetry_space_group_name_H-M "P -1"
_symmetry_group_IT_number 2
_symmetry_cell_setting 'triclinic'
loop_
_space_group_symop_operation_xyz
x,y,z
-x,-y,-z
loop_
_atom_site_type_symbol
_atom_site_label
_atom_site_fract_x
_atom_site_fract_y
_atom_site_fract_z
Si Si1 0.317037 0.033960 0.352166
Si Si2 0.199121 0.271672 0.959820
Si Si3 0.502733 0.790891 0.760496
Si Si4 0.748444 0.387287 0.593859
Si Si5 0.383016 0.192394 0.784887
Si Si6 0.030443 0.495650 0.393449
Si Si7 0.031308 0.017385 0.712867
O O1 0.414821 0.886093 0.237697
O O2 0.127591 0.025696 0.318459
O O3 0.500000 0.000000 0.500000
O O4 0.200272 0.259334 0.348030
O O5 0.316448 0.264354 0.901425
O O6 0.095142 0.148912 0.851986
O O7 0.383635 0.176634 0.087286
O O8 0.000000 0.500000 0.000000
O O9 0.701275 0.565072 0.718276
O O10 0.403584 0.982294 0.717370
O O11 0.279733 0.820368 0.711705
O O12 0.500000 0.500000 0.500000
O O13 0.879530 0.379975 0.551526
O O14 0.881805 0.170412 0.618158
O O15 0.190022 0.387638 0.718105
O O16 0.000000 0.500000 0.500000
#
# Coordination Sequence:
#
# PCOD9058778 Si02
#       7
#     2   2   2   2   2   2   2
#     4  12  26  44  66 101 151 186 221 284 355 415
#     4  11  22  49  76 100 134 180 244 298 341 409
#     4  11  23  45  74  96 137 182 231 298 344 400
#     4  12  25  40  69 104 135 180 240 279 345 424
#     4  11  23  42  70  96 135 186 228 280 355 405
#     4  12  24  42  64  98 141 184 222 281 350 415
#     4  11  25  43  70 103 133 183 240 279 346 415
#
# _framework density 21.268713000000002
#
# number of rings (size 3 to 8) (size 9 to 14) (size 15 to 20)
#    0.000    0.571    7.143    2.571    2.000    0.571 
#    0.000    3.571    0.000    0.000    0.000    0.000 
#    0.000    0.000    0.000    0.000    0.000    0.000 
#
# Total GULP energy -77967.220730 kJ/mol
# GULP energy per Si atom -5569.087195 kJ/mol
# Density = 2.122030 g / cm^3
# Si number density = 21.268713 Si / 1000 Ang^3
#
#
#
# Elastic Constant Matrix: (Units=GPa)
#
#
# Indices 1 2 3 4 5 6 
#
# 1 122.9357 -0.7159 20.5088 -6.2767 -8.9359 -4.3348
# 2 -0.7159 81.6456 19.0218 -19.0852 -8.5724 -17.2698
# 3 20.5088 19.0218 87.8062 -7.6489 -2.1897 0.3451
# 4 -6.2767 -19.0852 -7.6489 41.1793 -6.5247 -2.7257
# 5 -8.9359 -8.5724 -2.1897 -6.5247 38.1066 3.2479
# 6 -4.3348 -17.2698 0.3451 -2.7257 3.2479 33.6297
#
#
#
# Elastic Compliance Matrix: (Units=1/GPa)
#
#
# Indices 1 2 3 4 5 6 
#
# 1 0.008897 0.001854 -0.002218 0.002352 0.002603 0.002061
# 2 0.001854 0.017818 -0.003391 0.009348 0.005022 0.009696
# 3 -0.002218 -0.003391 0.012663 0.000250 -0.000333 -0.002105
# 4 0.002352 0.009348 0.000250 0.030638 0.007329 0.006877
# 5 0.002603 0.005022 -0.000333 0.007329 0.029159 0.000696
# 6 0.002061 0.009696 -0.002105 0.006877 0.000696 0.035492
#
#
# Mechanical properties :
#
#
# Convention : Reuss Voigt Hill
#
# Bulk Modulus (GPa) = 31.38047 41.11301 36.24674
# Shear Modulus (GPa) = 32.72230 39.48797 36.10514
#
# Velocity S-wave (km/s) = 3.92665 4.31353 4.12463
# Velocity P-wave (km/s) = 5.94512 6.64688 6.30577
#
# Compressibility (1/GPa) = 0.03186696
#
# Stress axis : x y z
#
# Youngs Moduli (GPa) = 112.39606 56.12317 78.96883
#
# Poissons Ratio (x) = -0.10404 0.17515
# Poissons Ratio (y) = -0.20836 0.26782
# Poissons Ratio (z) = 0.24929 0.19034
#
# Static dielectric constant tensor:
#      x y z
#    x 1.778280 -0.038970 -0.049240 
#    y -0.038970 1.766440 0.110060 
#    z -0.049240 0.110060 1.881510 
# 
# From -- ./inp_files/190534.got.cif
#   From: 2010.05.17/outbox.cif.g08.bks.cpg/sg2_96_cif.got.tgz:190534.got - 2010.06.03 11:33:40.
