data_PCOD9058069
_publ_section_title
;
Structure prediction by ZEFSAII (Michael W. Deem and Ramdas Pophale) SiO2 
 PCOD9058069
Probable space group: P -1
;
_chemical_formula_sum "Si O2"
_cell_formula_units_Z 16
_cell_length_a 11.331615
_cell_length_b 9.602485
_cell_length_c 9.068069
_cell_angle_alpha 46.418863
_cell_angle_beta 85.912210
_cell_angle_gamma 80.295177
_cell_volume 703.147969
_symmetry_space_group_name_H-M "P -1"
_symmetry_group_IT_number 2
_symmetry_cell_setting 'triclinic'
loop_
_space_group_symop_operation_xyz
x,y,z
-x,-y,-z
loop_
_atom_site_type_symbol
_atom_site_label
_atom_site_fract_x
_atom_site_fract_y
_atom_site_fract_z
Si Si1 0.383034 0.514380 0.597102
Si Si2 0.359225 0.096538 0.964162
Si Si3 0.988464 0.191743 0.558173
Si Si4 0.209189 0.775473 0.216599
Si Si5 0.360387 0.166788 0.256386
Si Si6 0.599394 0.257678 0.285026
Si Si7 0.156517 0.463316 0.224149
Si Si8 0.868498 0.229284 0.225036
O O1 0.500000 0.500000 0.500000
O O2 0.338167 0.308724 0.738487
O O3 0.291435 0.687498 0.409400
O O4 0.413487 0.572068 0.716994
O O5 0.335089 0.138856 0.108137
O O6 0.500000 0.000000 0.000000
O O7 0.267872 0.956827 0.021792
O O8 0.070975 0.356329 0.411268
O O9 0.899683 0.233181 0.393161
O O10 0.068328 0.981253 0.680238
O O11 0.920650 0.183316 0.725092
O O12 0.214740 0.608191 0.217428
O O13 0.480830 0.260513 0.197462
O O14 0.252470 0.299571 0.254899
O O15 0.383707 0.951368 0.481321
O O16 0.725419 0.260673 0.193231
O O17 0.089806 0.603027 0.000378
#
# Coordination Sequence:
#
# PCOD9058069 Si02
#       8
#     2   2   2   2   2   2   2   2
#     4  12  23  43  69  99 143 186 228 281 360 419
#     4  12  26  44  69 104 145 188 230 287 353 429
#     4  11  25  49  72 100 145 188 243 293 346 419
#     4  12  27  47  70 106 145 185 236 295 355 417
#     4  11  24  42  75 105 146 180 241 287 358 423
#     4  11  22  44  70 106 138 189 228 298 351 422
#     4  12  27  45  75 109 140 188 241 292 353 420
#     4  11  24  44  75 101 141 185 243 290 352 414
#
# _framework density 22.754812000000001
#
# number of rings (size 3 to 8) (size 9 to 14) (size 15 to 20)
#    0.000    0.500    5.000    2.250    3.500    4.500 
#    0.000    0.000    0.000    0.000    0.000    0.000 
#    0.000    0.000    0.000    0.000    0.000    0.000 
#
# Total GULP energy -89568.856460 kJ/mol
# GULP energy per Si atom -5598.053529 kJ/mol
# Density = 2.270302 g / cm^3
# Si number density = 22.754812 Si / 1000 Ang^3
#
#
#
# Elastic Constant Matrix: (Units=GPa)
#
#
# Indices 1 2 3 4 5 6 
#
# 1 89.3316 45.4125 21.0873 -5.6434 -36.2304 8.0587
# 2 45.4125 114.7443 15.5851 -4.7131 -18.2972 -1.2345
# 3 21.0873 15.5851 86.7401 -24.1890 -19.4160 3.8491
# 4 -5.6434 -4.7131 -24.1890 37.4472 8.6255 -12.7940
# 5 -36.2304 -18.2972 -19.4160 8.6255 27.9668 0.1866
# 6 8.0587 -1.2345 3.8491 -12.7940 0.1866 33.5919
#
#
#
# Elastic Compliance Matrix: (Units=1/GPa)
#
#
# Indices 1 2 3 4 5 6 
#
# 1 0.030163 -0.006425 0.000423 -0.008447 0.037844 -0.010948
# 2 -0.006425 0.011119 -0.000596 0.001352 -0.001897 0.002544
# 3 0.000423 -0.000596 0.015786 0.008701 0.008424 0.001335
# 4 -0.008447 0.001352 0.008701 0.040776 -0.016705 0.016702
# 5 0.037844 -0.001897 0.008424 -0.016705 0.094656 -0.017002
# 6 -0.010948 0.002544 0.001335 0.016702 -0.017002 0.038792
#
#
# Mechanical properties :
#
#
# Convention : Reuss Voigt Hill
#
# Bulk Modulus (GPa) = 22.79419 50.55396 36.67407
# Shear Modulus (GPa) = 19.29653 33.71661 26.50657
#
# Velocity S-wave (km/s) = 2.91524 3.85351 3.41673
# Velocity P-wave (km/s) = 4.62283 6.48571 5.63183
#
# Compressibility (1/GPa) = 0.04387084
#
# Stress axis : x y z
#
# Youngs Moduli (GPa) = 33.15297 89.93308 63.34691
#
# Poissons Ratio (x) = 0.57785 -0.02677
# Poissons Ratio (y) = 0.21302 0.03777
# Poissons Ratio (z) = -0.01401 0.05363
#
# Static dielectric constant tensor:
#      x y z
#    x 1.847980 0.030220 0.003220 
#    y 0.030220 1.798710 -0.001340 
#    z 0.003220 -0.001340 1.861820 
# 
# From -- ./inp_files/242059.got.cif
#   From: 2010.05.17/outbox.cif.g08.bks.cpg/sg2_122_cif.got.tgz:242059.got - 2010.06.03 11:33:40.
