data_PCOD9058617
_publ_section_title
;
Structure prediction by ZEFSAII (Michael W. Deem and Ramdas Pophale) SiO2 
 PCOD9058617
Probable space group: P -1
;
_chemical_formula_sum "Si O2"
_cell_formula_units_Z 16
_cell_length_a 15.949644
_cell_length_b 14.388832
_cell_length_c 5.403704
_cell_angle_alpha 56.077231
_cell_angle_beta 58.525486
_cell_angle_gamma 36.026684
_cell_volume 598.849470
_symmetry_space_group_name_H-M "P -1"
_symmetry_group_IT_number 2
_symmetry_cell_setting 'triclinic'
loop_
_space_group_symop_operation_xyz
x,y,z
-x,-y,-z
loop_
_atom_site_type_symbol
_atom_site_label
_atom_site_fract_x
_atom_site_fract_y
_atom_site_fract_z
Si Si1 0.433364 0.384386 0.595635
Si Si2 0.228686 0.723292 0.122446
Si Si3 0.532985 0.101399 0.507947
Si Si4 0.951217 0.853969 0.608921
Si Si5 0.186485 0.237768 0.274490
Si Si6 0.205441 0.342855 0.586442
Si Si7 0.826363 0.408486 0.968865
Si Si8 0.313263 0.849330 0.109446
O O1 0.356572 0.543559 0.315898
O O2 0.493572 0.236693 0.549955
O O3 0.560657 0.315373 0.684382
O O4 0.305254 0.444078 0.875341
O O5 0.076037 0.825285 0.339707
O O6 0.208697 0.686278 0.939023
O O7 0.269426 0.815779 0.983712
O O8 0.378911 0.183053 0.545321
O O9 0.642144 0.927437 0.731644
O O10 0.621736 0.085585 0.170530
O O11 0.885101 0.824020 0.556728
O O12 0.032284 0.715780 0.901662
O O13 0.823336 0.023793 0.691824
O O14 0.145441 0.334236 0.445681
O O15 0.155120 0.334283 0.934237
O O16 0.171773 0.503117 0.384154
#
# Coordination Sequence:
#
# PCOD9058617 Si02
#       8
#     2   2   2   2   2   2   2   2
#     4  11  22  46  74 107 153 188 249 310 376 439
#     4  11  26  47  75 106 152 201 246 309 380 449
#     4  12  25  45  76 113 154 184 254 322 374 451
#     4  11  28  48  71 108 155 194 254 311 364 462
#     4  12  28  47  79 111 150 205 254 314 385 446
#     4  12  26  48  78 112 150 203 252 316 387 443
#     4  11  26  47  73 107 157 193 252 309 371 456
#     4  12  25  46  78 110 147 198 250 308 388 446
#
# _framework density 26.717901000000001
#
# number of rings (size 3 to 8) (size 9 to 14) (size 15 to 20)
#    0.000    0.500    3.750    3.000    5.250    5.500 
#    0.000    0.000    0.000    0.000    0.000    0.000 
#    0.000    0.000    0.000    0.000    0.000    0.000 
#
# Total GULP energy -89901.497805 kJ/mol
# GULP energy per Si atom -5618.843613 kJ/mol
# Density = 2.665709 g / cm^3
# Si number density = 26.717901 Si / 1000 Ang^3
#
#
#
# Elastic Constant Matrix: (Units=GPa)
#
#
# Indices 1 2 3 4 5 6 
#
# 1 172.5530 27.2325 30.0079 -0.8377 14.4280 6.7614
# 2 27.2325 122.2201 30.1085 6.7033 5.2095 -13.5784
# 3 30.0079 30.1085 96.0680 1.8453 5.4392 0.2594
# 4 -0.8377 6.7033 1.8453 25.6982 3.5926 5.9691
# 5 14.4280 5.2095 5.4392 3.5926 35.2468 -0.6818
# 6 6.7614 -13.5784 0.2594 5.9691 -0.6818 45.7157
#
#
#
# Elastic Compliance Matrix: (Units=1/GPa)
#
#
# Indices 1 2 3 4 5 6 
#
# 1 0.006523 -0.001213 -0.001542 0.001333 -0.002418 -0.001526
# 2 -0.001213 0.009655 -0.002588 -0.003159 -0.000142 0.003472
# 3 -0.001542 -0.002588 0.011749 0.000040 -0.000816 -0.000625
# 4 0.001333 -0.003159 0.000040 0.041957 -0.004491 -0.006681
# 5 -0.002418 -0.000142 -0.000816 -0.004491 0.029992 0.001354
# 6 -0.001526 0.003472 -0.000625 -0.006681 0.001354 0.024027
#
#
# Mechanical properties :
#
#
# Convention : Reuss Voigt Hill
#
# Bulk Modulus (GPa) = 57.99920 62.83764 60.41842
# Shear Modulus (GPa) = 35.62855 41.56495 38.59675
#
# Velocity S-wave (km/s) = 3.65569 3.94851 3.80492
# Velocity P-wave (km/s) = 6.29077 6.66015 6.47810
#
# Compressibility (1/GPa) = 0.01724162
#
# Stress axis : x y z
#
# Youngs Moduli (GPa) = 153.29301 103.57567 85.11351
#
# Poissons Ratio (x) = 0.12566 0.13124
# Poissons Ratio (y) = 0.18598 0.22024
# Poissons Ratio (z) = 0.23637 0.26801
#
# Static dielectric constant tensor:
#      x y z
#    x 2.039490 -0.002080 -0.008730 
#    y -0.002080 2.020990 -0.009700 
#    z -0.008730 -0.009700 2.082740 
# 
# From -- ./inp_files/97555.got.cif
#   From: 2010.05.17/outbox.cif.g08.bks.cpg/sg2_49_cif.got.tgz:97555.got - 2010.06.03 11:33:40.
