data_PCOD9058128
_publ_section_title
;
Structure prediction by ZEFSAII (Michael W. Deem and Ramdas Pophale) SiO2 
 PCOD9058128
Probable space group: P -1
;
_chemical_formula_sum "Si O2"
_cell_formula_units_Z 14
_cell_length_a 9.346245
_cell_length_b 20.644078
_cell_length_c 5.376603
_cell_angle_alpha 66.247355
_cell_angle_beta 117.179480
_cell_angle_gamma 140.069526
_cell_volume 589.819769
_symmetry_space_group_name_H-M "P -1"
_symmetry_group_IT_number 2
_symmetry_cell_setting 'triclinic'
loop_
_space_group_symop_operation_xyz
x,y,z
-x,-y,-z
loop_
_atom_site_type_symbol
_atom_site_label
_atom_site_fract_x
_atom_site_fract_y
_atom_site_fract_z
Si Si1 0.463050 0.569499 0.774075
Si Si2 0.563704 0.181709 0.517270
Si Si3 0.131176 0.985482 0.292033
Si Si4 0.200375 0.732027 0.920645
Si Si5 0.057265 0.203569 0.293468
Si Si6 0.701658 0.068940 0.850220
Si Si7 0.188372 0.498547 0.146076
O O1 0.697346 0.683911 0.717062
O O2 0.308419 0.524623 0.469460
O O3 0.500000 0.500000 0.000000
O O4 0.355448 0.568705 0.939951
O O5 0.637288 0.239167 0.226088
O O6 0.691877 0.146802 0.647260
O O7 0.291957 0.077920 0.474472
O O8 0.669514 0.247105 0.751417
O O9 0.317738 0.998889 0.259690
O O10 0.965359 0.871234 0.432379
O O11 0.000000 0.000000 0.000000
O O12 0.122965 0.790253 0.789167
O O13 0.958238 0.616538 0.869365
O O14 0.953686 0.139287 0.057566
O O15 0.500000 0.000000 0.000000
O O16 0.000000 0.500000 0.000000
#
# Coordination Sequence:
#
# PCOD9058128 Si02
#       7
#     2   2   2   2   2   2   2
#     4  12  27  48  83 111 152 201 261 317 384 461
#     4  11  23  43  72 104 138 198 251 296 357 453
#     4  12  26  44  68 108 157 192 241 315 378 441
#     4  11  24  44  79 103 141 193 259 299 367 451
#     4  11  25  43  75 107 147 196 257 302 371 445
#     4  11  22  44  71  98 142 197 253 292 354 445
#     4  12  28  52  76 116 155 196 254 330 392 452
#
# _framework density 23.736066000000001
#
# number of rings (size 3 to 8) (size 9 to 14) (size 15 to 20)
#    0.000    0.571    4.286    3.857    4.000    1.714 
#    2.571    0.000    0.000    0.000    0.000    0.000 
#    0.000    0.000    0.000    0.000    0.000    0.000 
#
# Total GULP energy -78261.626400 kJ/mol
# GULP energy per Si atom -5590.116171 kJ/mol
# Density = 2.368204 g / cm^3
# Si number density = 23.736066 Si / 1000 Ang^3
#
#
#
# Elastic Constant Matrix: (Units=GPa)
#
#
# Indices 1 2 3 4 5 6 
#
# 1 77.2244 21.2195 44.8939 -8.3291 -7.8633 11.0736
# 2 21.2195 145.2741 74.8427 1.4847 -3.3062 22.9185
# 3 44.8939 74.8427 184.8474 21.3531 -16.7973 6.4806
# 4 -8.3291 1.4847 21.3531 29.9194 1.1854 -6.2852
# 5 -7.8633 -3.3062 -16.7973 1.1854 39.2935 -5.4735
# 6 11.0736 22.9185 6.4806 -6.2852 -5.4735 28.9255
#
#
#
# Elastic Compliance Matrix: (Units=1/GPa)
#
#
# Indices 1 2 3 4 5 6 
#
# 1 0.017220 0.000760 -0.005164 0.007516 0.000475 -0.004314
# 2 0.000760 0.010129 -0.004355 0.001336 -0.001931 -0.007415
# 3 -0.005164 -0.004355 0.009529 -0.007680 0.003216 0.002233
# 4 0.007516 0.001336 -0.007680 0.042400 -0.002024 0.006615
# 5 0.000475 -0.001931 0.003216 -0.002024 0.027571 0.005405
# 6 -0.004314 -0.007415 0.002233 0.006615 0.005405 0.044058
#
#
# Mechanical properties :
#
#
# Convention : Reuss Voigt Hill
#
# Bulk Modulus (GPa) = 51.65658 76.58425 64.12041
# Shear Modulus (GPa) = 28.59133 37.38699 32.98916
#
# Velocity S-wave (km/s) = 3.47443 3.97308 3.73209
# Velocity P-wave (km/s) = 6.15676 7.30630 6.75603
#
# Compressibility (1/GPa) = 0.01935862
#
# Stress axis : x y z
#
# Youngs Moduli (GPa) = 58.07174 98.73057 104.94807
#
# Poissons Ratio (x) = -0.07499 0.54191
# Poissons Ratio (y) = -0.04411 0.45707
# Poissons Ratio (z) = 0.29986 0.42999
#
# Static dielectric constant tensor:
#      x y z
#    x 2.243320 -0.165490 -0.006920 
#    y -0.165490 2.028930 -0.066190 
#    z -0.006920 -0.066190 1.991070 
# 
# From -- ./inp_files/52813.got.cif
#   From: 2010.05.17/outbox.cif.g08.bks.cpg/sg2_27_cif.got.tgz:52813.got - 2010.06.03 11:33:40.
