data_PCOD9058054
_publ_section_title
;
Structure prediction by ZEFSAII (Michael W. Deem and Ramdas Pophale) SiO2 
 PCOD9058054
Probable space group: P -1
;
_chemical_formula_sum "Si O2"
_cell_formula_units_Z 14
_cell_length_a 8.722890
_cell_length_b 19.602167
_cell_length_c 10.923547
_cell_angle_alpha 154.258683
_cell_angle_beta 55.947025
_cell_angle_gamma 124.172851
_cell_volume 663.517628
_symmetry_space_group_name_H-M "P -1"
_symmetry_group_IT_number 2
_symmetry_cell_setting 'triclinic'
loop_
_space_group_symop_operation_xyz
x,y,z
-x,-y,-z
loop_
_atom_site_type_symbol
_atom_site_label
_atom_site_fract_x
_atom_site_fract_y
_atom_site_fract_z
Si Si1 0.003129 0.391862 0.944717
Si Si2 0.189278 0.429555 0.339713
Si Si3 0.761603 0.846526 0.959855
Si Si4 0.057900 0.110857 0.308634
Si Si5 0.684888 0.128470 0.105630
Si Si6 0.331544 0.721955 0.904528
Si Si7 0.323509 0.536734 0.213178
O O1 0.082427 0.237982 0.610528
O O2 0.139980 0.496996 0.147689
O O3 0.000000 0.500000 0.000000
O O4 0.813612 0.320221 0.986937
O O5 0.160391 0.266307 0.159687
O O6 0.319456 0.552691 0.567926
O O7 0.294820 0.416142 0.144739
O O8 0.000000 0.500000 0.500000
O O9 0.845978 0.814742 0.737907
O O10 0.537902 0.800066 0.980346
O O11 0.843095 0.030921 0.250134
O O12 0.158666 0.962717 0.056780
O O13 0.720707 0.171616 0.015549
O O14 0.663440 0.288942 0.449408
O O15 0.500000 0.000000 0.000000
O O16 0.500000 0.500000 0.000000
#
# Coordination Sequence:
#
# PCOD9058054 Si02
#       7
#     2   2   2   2   2   2   2
#     4  12  28  45  67 104 141 177 233 296 343 400
#     4  11  22  44  69  98 136 183 227 278 344 416
#     4  11  24  43  69  99 133 187 231 278 345 420
#     4  11  26  44  71 100 138 184 229 284 352 409
#     4  11  23  47  73 100 140 184 230 279 347 418
#     4  11  24  42  70 100 137 184 230 281 346 414
#     4  11  26  44  70 101 135 180 229 285 343 405
#
# _framework density 21.099665999999999
#
# number of rings (size 3 to 8) (size 9 to 14) (size 15 to 20)
#    0.000    0.857    2.857    3.857    8.000    1.143 
#    2.571    0.000    0.000    0.000    0.000    0.000 
#    0.000    0.000    0.000    0.000    0.000    0.000 
#
# Total GULP energy -78198.903088 kJ/mol
# GULP energy per Si atom -5585.635935 kJ/mol
# Density = 2.105164 g / cm^3
# Si number density = 21.099666 Si / 1000 Ang^3
#
#
#
# Elastic Constant Matrix: (Units=GPa)
#
#
# Indices 1 2 3 4 5 6 
#
# 1 94.8725 67.5502 38.0264 -1.7817 6.5409 14.3923
# 2 67.5502 210.5682 52.3915 -20.5567 -4.1383 -2.2549
# 3 38.0264 52.3915 84.0606 -6.9974 8.1376 -2.8492
# 4 -1.7817 -20.5567 -6.9974 31.0364 6.8443 8.7195
# 5 6.5409 -4.1383 8.1376 6.8443 28.8346 6.8327
# 6 14.3923 -2.2549 -2.8492 8.7195 6.8327 46.3647
#
#
#
# Elastic Compliance Matrix: (Units=1/GPa)
#
#
# Indices 1 2 3 4 5 6 
#
# 1 0.016381 -0.004235 -0.004907 -0.001207 -0.001431 -0.005154
# 2 -0.004235 0.007059 -0.002347 0.003352 0.001690 0.000634
# 3 -0.004907 -0.002347 0.016337 0.002180 -0.005001 0.002740
# 4 -0.001207 0.003352 0.002180 0.038050 -0.007622 -0.005361
# 5 -0.001431 0.001690 -0.005001 -0.007622 0.039454 -0.004162
# 6 -0.005154 0.000634 0.002740 -0.005361 -0.004162 0.024989
#
#
# Mechanical properties :
#
#
# Convention : Reuss Voigt Hill
#
# Bulk Modulus (GPa) = 59.52890 78.38195 68.95542
# Shear Modulus (GPa) = 29.26587 36.68269 32.97428
#
# Velocity S-wave (km/s) = 3.72833 4.17411 3.95750
# Velocity P-wave (km/s) = 6.84166 7.77560 7.32353
#
# Compressibility (1/GPa) = 0.01679856
#
# Stress axis : x y z
#
# Youngs Moduli (GPa) = 61.04722 141.66619 61.21006
#
# Poissons Ratio (x) = 0.59998 0.30037
# Poissons Ratio (y) = 0.25855 0.14364
# Poissons Ratio (z) = 0.29957 0.33245
#
# Static dielectric constant tensor:
#      x y z
#    x 1.969710 0.040010 0.016670 
#    y 0.040010 1.785480 0.002810 
#    z 0.016670 0.002810 1.752510 
# 
# From -- ./inp_files/218995.got.cif
#   From: 2010.05.17/outbox.cif.g08.bks.cpg/sg2_110_cif.got.tgz:218995.got - 2010.06.03 11:33:40.
