data_PCOD9058217
_publ_section_title
;
Structure prediction by ZEFSAII (Michael W. Deem and Ramdas Pophale) SiO2 
 PCOD9058217
Probable space group: P -1
;
_chemical_formula_sum "Si O2"
_cell_formula_units_Z 10
_cell_length_a 7.380748
_cell_length_b 7.380733
_cell_length_c 12.235325
_cell_angle_alpha 44.398837
_cell_angle_beta 135.601097
_cell_angle_gamma 125.848736
_cell_volume 322.400767
_symmetry_space_group_name_H-M "P -1"
_symmetry_group_IT_number 2
_symmetry_cell_setting 'triclinic'
loop_
_space_group_symop_operation_xyz
x,y,z
-x,-y,-z
loop_
_atom_site_type_symbol
_atom_site_label
_atom_site_fract_x
_atom_site_fract_y
_atom_site_fract_z
Si Si1 0.196138 0.803863 0.203649
Si Si2 0.297578 0.702422 0.791706
Si Si3 0.883802 0.614452 0.791421
Si Si4 0.385548 0.116198 0.791421
Si Si5 0.316578 0.683421 0.553897
O O1 0.339705 0.660296 0.223486
O O2 0.226548 0.773452 0.359122
O O3 0.985837 0.503880 0.218957
O O4 0.000000 0.000000 0.000000
O O5 0.503880 0.985837 0.781043
O O6 0.259770 0.740229 0.630008
O O7 0.500000 0.500000 0.000000
O O8 0.638564 0.762487 0.651197
O O9 0.135475 0.864525 0.761359
O O10 0.000000 0.500000 0.000000
O O11 0.237512 0.361435 0.651196
O O12 0.500000 0.000000 0.000000
#
# Coordination Sequence:
#
# PCOD9058217 Si02
#       5
#     2   2   2   2   2
#     4  11  26  49  69 100 145 194 239 296 355 416
#     4  12  22  42  74 111 145 183 237 296 355 432
#     4  11  22  44  74 105 144 185 231 297 362 428
#     4  11  22  44  74 105 144 185 231 297 362 428
#     4  11  26  49  71 103 152 188 235 295 358 431
#
# _framework density 31.017298
#
# number of rings (size 3 to 8) (size 9 to 14) (size 15 to 20)
#    0.000    0.800    4.000    4.800    0.000    1.600 
#    7.200    4.000    0.000    0.000    0.000    0.000 
#    0.000    0.000    0.000    0.000    0.000    0.000 
#
# Total GULP energy -56018.566364 kJ/mol
# GULP energy per Si atom -5601.856636 kJ/mol
# Density = 3.094670 g / cm^3
# Si number density = 31.017298 Si / 1000 Ang^3
#
#
#
# Elastic Constant Matrix: (Units=GPa)
#
#
# Indices 1 2 3 4 5 6 
#
# 1 279.9431 22.9349 27.6968 4.9846 -14.9531 50.2546
# 2 22.9349 315.1315 0.0783 26.6112 -5.8803 11.0964
# 3 27.6968 0.0783 149.6351 8.7641 -13.1658 -39.5271
# 4 4.9846 26.6112 8.7641 65.1870 30.6446 -10.4564
# 5 -14.9531 -5.8803 -13.1658 30.6446 44.1218 17.2738
# 6 50.2546 11.0964 -39.5271 -10.4564 17.2738 87.9944
#
#
#
# Elastic Compliance Matrix: (Units=1/GPa)
#
#
# Indices 1 2 3 4 5 6 
#
# 1 0.005062 0.000277 -0.001562 -0.004051 0.006184 -0.005323
# 2 0.000277 0.003578 0.000016 -0.003496 0.003685 -0.001741
# 3 -0.001562 0.000016 0.008219 -0.000568 0.000599 0.004397
# 4 -0.004051 -0.003496 -0.000568 0.033163 -0.029857 0.012301
# 5 0.006184 0.003685 0.000599 -0.029857 0.053096 -0.017698
# 6 -0.005323 -0.001741 0.004397 0.012301 -0.017698 0.021535
#
#
# Mechanical properties :
#
#
# Convention : Reuss Voigt Hill
#
# Bulk Modulus (GPa) = 69.82291 94.01441 81.91866
# Shear Modulus (GPa) = 37.88858 85.72729 61.80794
#
# Velocity S-wave (km/s) = 3.49883 5.26294 4.46880
# Velocity P-wave (km/s) = 6.23556 8.20412 7.28662
#
# Compressibility (1/GPa) = 0.01432195
#
# Stress axis : x y z
#
# Youngs Moduli (GPa) = 197.55292 279.45530 121.66245
#
# Poissons Ratio (x) = -0.07738 0.19001
# Poissons Ratio (y) = -0.05470 -0.00194
# Poissons Ratio (z) = 0.30853 -0.00446
#
# Static dielectric constant tensor:
#      x y z
#    x 2.383790 0.210500 0.120420 
#    y 0.210500 2.552530 -0.020330 
#    z 0.120420 -0.020330 1.995220 
# 
# From -- ./inp_files/373441.got.cif
#   From: 2010.05.17/outbox.cif.g08.bks.cpg/sg2_187_cif.got.tgz:373441.got - 2010.06.03 11:33:40.
