data_PCOD9058646
_publ_section_title
;
Structure prediction by ZEFSAII (Michael W. Deem and Ramdas Pophale) SiO2 
 PCOD9058646
Probable space group: P -1
;
_chemical_formula_sum "Si O2"
_cell_formula_units_Z 16
_cell_length_a 11.358014
_cell_length_b 17.118614
_cell_length_c 8.322160
_cell_angle_alpha 125.311956
_cell_angle_beta 100.516657
_cell_angle_gamma 37.896354
_cell_volume 679.533668
_symmetry_space_group_name_H-M "P -1"
_symmetry_group_IT_number 2
_symmetry_cell_setting 'triclinic'
loop_
_space_group_symop_operation_xyz
x,y,z
-x,-y,-z
loop_
_atom_site_type_symbol
_atom_site_label
_atom_site_fract_x
_atom_site_fract_y
_atom_site_fract_z
Si Si1 0.300463 0.256773 0.435444
Si Si2 0.495299 0.693975 0.402450
Si Si3 0.409307 0.087158 0.756518
Si Si4 0.066870 0.697548 0.077696
Si Si5 0.122064 0.867180 0.723603
Si Si6 0.781631 0.607422 0.780305
Si Si7 0.696957 0.457567 0.696727
Si Si8 0.228998 0.790786 0.150062
O O1 0.473335 0.214963 0.508569
O O2 0.271751 0.311398 0.310667
O O3 0.053559 0.431182 0.663746
O O4 0.403613 0.081613 0.273974
O O5 0.347985 0.771218 0.613898
O O6 0.361382 0.730265 0.271585
O O7 0.751160 0.478000 0.203321
O O8 0.171813 0.194150 0.858592
O O9 0.500000 0.000000 0.500000
O O10 0.359021 0.233111 0.939566
O O11 0.168181 0.622953 0.195492
O O12 0.071995 0.805086 0.156733
O O13 0.198585 0.705460 0.559621
O O14 0.929481 0.014514 0.714192
O O15 0.000000 0.000000 0.000000
O O16 0.723595 0.536397 0.699000
O O17 0.430621 0.626832 0.880114
#
# Coordination Sequence:
#
# PCOD9058646 Si02
#       8
#     2   2   2   2   2   2   2   2
#     4  11  26  48  75 101 142 198 242 292 364 434
#     4  11  22  47  75 100 141 195 240 291 363 433
#     4  12  27  45  78 111 140 185 250 303 357 421
#     4  11  22  46  77 103 144 190 244 297 357 425
#     4  12  27  44  71 112 148 184 238 296 366 431
#     4  11  27  51  70 103 151 191 240 299 362 429
#     4  11  25  45  73 104 147 189 237 298 359 426
#     4  11  24  45  75 103 145 191 243 296 357 432
#
# _framework density 23.545560999999999
#
# number of rings (size 3 to 8) (size 9 to 14) (size 15 to 20)
#    0.000    0.750    3.750    3.000    7.000    3.500 
#    4.500    0.000    0.000    0.000    0.000    0.000 
#    0.000    0.000    0.000    0.000    0.000    0.000 
#
# Total GULP energy -89647.800714 kJ/mol
# GULP energy per Si atom -5602.987545 kJ/mol
# Density = 2.349197 g / cm^3
# Si number density = 23.545561 Si / 1000 Ang^3
#
#
#
# Elastic Constant Matrix: (Units=GPa)
#
#
# Indices 1 2 3 4 5 6 
#
# 1 92.3872 30.5687 47.9586 20.2925 -0.2715 18.7722
# 2 30.5687 72.8743 37.8721 27.2497 -3.3510 13.6493
# 3 47.9586 37.8721 188.2344 24.8762 -9.2363 17.5934
# 4 20.2925 27.2497 24.8762 34.7292 8.4321 0.2866
# 5 -0.2715 -3.3510 -9.2363 8.4321 34.0380 2.0663
# 6 18.7722 13.6493 17.5934 0.2866 2.0663 21.9627
#
#
#
# Elastic Compliance Matrix: (Units=1/GPa)
#
#
# Indices 1 2 3 4 5 6 
#
# 1 0.016199 -0.000275 -0.001646 -0.008584 0.002540 -0.012483
# 2 -0.000275 0.025430 -0.000281 -0.021582 0.008736 -0.015885
# 3 -0.001646 -0.000281 0.006941 -0.004537 0.003223 -0.004222
# 4 -0.008584 -0.021582 -0.004537 0.058509 -0.019464 0.025452
# 5 0.002540 0.008736 0.003223 -0.019464 0.036768 -0.013387
# 6 -0.012483 -0.015885 -0.004222 0.025452 -0.013387 0.070383
#
#
# Mechanical properties :
#
#
# Convention : Reuss Voigt Hill
#
# Bulk Modulus (GPa) = 22.64170 65.14385 43.89277
# Shear Modulus (GPa) = 21.42644 33.95240 27.68942
#
# Velocity S-wave (km/s) = 3.01989 3.80147 3.43300
# Velocity P-wave (km/s) = 4.66869 6.85532 5.86481
#
# Compressibility (1/GPa) = 0.04416629
#
# Stress axis : x y z
#
# Youngs Moduli (GPa) = 61.73307 39.32288 144.07475
#
# Poissons Ratio (x) = 0.01081 0.23716
# Poissons Ratio (y) = 0.01696 0.04049
# Poissons Ratio (z) = 0.10162 0.01105
#
# Static dielectric constant tensor:
#      x y z
#    x 1.851110 0.007900 0.007860 
#    y 0.007900 1.933940 -0.036550 
#    z 0.007860 -0.036550 1.893530 
# 
# From -- ./inp_files/279886.got.cif
#   From: 2010.05.17/outbox.cif.g08.bks.cpg/sg2_140_cif.got.tgz:279886.got - 2010.06.03 11:33:40.
