data_PCOD9058553
_publ_section_title
;
Structure prediction by ZEFSAII (Michael W. Deem and Ramdas Pophale) SiO2 
 PCOD9058553
Probable space group: P -1
;
_chemical_formula_sum "Si O2"
_cell_formula_units_Z 16
_cell_length_a 9.790772
_cell_length_b 8.170642
_cell_length_c 13.674261
_cell_angle_alpha 120.996872
_cell_angle_beta 63.724949
_cell_angle_gamma 76.992475
_cell_volume 679.214523
_symmetry_space_group_name_H-M "P -1"
_symmetry_group_IT_number 2
_symmetry_cell_setting 'triclinic'
loop_
_space_group_symop_operation_xyz
x,y,z
-x,-y,-z
loop_
_atom_site_type_symbol
_atom_site_label
_atom_site_fract_x
_atom_site_fract_y
_atom_site_fract_z
Si Si1 0.648480 0.061234 0.891353
Si Si2 0.675035 0.353998 0.141213
Si Si3 0.938235 0.724627 0.025493
Si Si4 0.957029 0.856982 0.398933
Si Si5 0.565419 0.172482 0.530032
Si Si6 0.557241 0.204221 0.322943
Si Si7 0.822561 0.736030 0.582052
Si Si8 0.237171 0.337418 0.112456
O O1 0.788344 0.954690 0.723108
O O2 0.712090 0.819718 0.854183
O O3 0.634438 0.241471 0.029324
O O4 0.440359 0.198538 0.955401
O O5 0.541277 0.636949 0.289132
O O6 0.637239 0.272440 0.229694
O O7 0.891069 0.253427 0.025098
O O8 0.902042 0.687197 0.914373
O O9 0.000000 0.500000 0.000000
O O10 0.738210 0.934703 0.196399
O O11 0.867091 0.757994 0.464629
O O12 0.147565 0.612823 0.229508
O O13 0.790754 0.027973 0.429227
O O14 0.000000 0.000000 0.500000
O O15 0.515938 0.294608 0.476131
O O16 0.500000 0.000000 0.500000
O O17 0.365174 0.253018 0.357772
O O18 0.000000 0.500000 0.500000
#
# Coordination Sequence:
#
# PCOD9058553 Si02
#       8
#     2   2   2   2   2   2   2   2
#     4  11  23  45  76 105 142 187 254 307 359 432
#     4  12  27  47  77 112 144 196 257 304 360 450
#     4  12  26  46  74 108 152 195 238 301 384 439
#     4  12  27  46  71 110 148 193 252 302 370 448
#     4  12  26  50  74 107 157 198 240 310 384 439
#     4  12  25  49  75 111 146 195 258 304 365 453
#     4  12  26  46  78 108 147 199 246 306 380 433
#     4  11  22  46  71 100 148 190 236 308 367 430
#
# _framework density 23.556621
#
# number of rings (size 3 to 8) (size 9 to 14) (size 15 to 20)
#    0.000    0.250    5.000    4.500    1.750    2.000 
#    0.000    1.875    0.000    0.000    0.000    0.000 
#    0.000    0.000    0.000    0.000    0.000    0.000 
#
# Total GULP energy -89420.903550 kJ/mol
# GULP energy per Si atom -5588.806472 kJ/mol
# Density = 2.350301 g / cm^3
# Si number density = 23.556621 Si / 1000 Ang^3
#
#
#
# Elastic Constant Matrix: (Units=GPa)
#
#
# Indices 1 2 3 4 5 6 
#
# 1 133.6896 31.5337 30.6666 8.8254 -12.5726 -12.7034
# 2 31.5337 50.6263 4.5041 -7.1271 -11.1880 -2.1472
# 3 30.6666 4.5041 125.2156 15.7975 -1.4474 -14.9822
# 4 8.8254 -7.1271 15.7975 42.8863 -3.7906 -2.7613
# 5 -12.5726 -11.1880 -1.4474 -3.7906 41.7128 -3.7515
# 6 -12.7034 -2.1472 -14.9822 -2.7613 -3.7515 28.2674
#
#
#
# Elastic Compliance Matrix: (Units=1/GPa)
#
#
# Indices 1 2 3 4 5 6 
#
# 1 0.009766 -0.005791 -0.001531 -0.002081 0.001429 0.003124
# 2 -0.005791 0.025501 -0.000119 0.006016 0.005692 0.000615
# 3 -0.001531 -0.000119 0.009188 -0.002847 -0.000084 0.003884
# 4 -0.002081 0.006016 -0.002847 0.026156 0.003356 0.001014
# 5 0.001429 0.005692 -0.000084 0.003356 0.026673 0.004898
# 6 0.003124 0.000615 0.003884 0.001014 0.004898 0.039635
#
#
# Mechanical properties :
#
#
# Convention : Reuss Voigt Hill
#
# Bulk Modulus (GPa) = 33.81317 49.21558 41.51437
# Shear Modulus (GPa) = 30.92947 38.76177 34.84562
#
# Velocity S-wave (km/s) = 3.62744 4.06084 3.85025
# Velocity P-wave (km/s) = 5.65063 6.55172 6.11779
#
# Compressibility (1/GPa) = 0.02957428
#
# Stress axis : x y z
#
# Youngs Moduli (GPa) = 102.39931 39.21375 108.83492
#
# Poissons Ratio (x) = 0.22710 0.16658
# Poissons Ratio (y) = 0.59302 0.01291
# Poissons Ratio (z) = 0.15673 0.00465
#
# Static dielectric constant tensor:
#      x y z
#    x 1.852250 0.020340 0.017230 
#    y 0.020340 1.696930 0.259260 
#    z 0.017230 0.259260 1.887400 
# 
# From -- ./inp_files/495685.got.cif
#   From: 2010.05.17/outbox.cif.g08.bks.cpg/sg2_248_cif.got.tgz:495685.got - 2010.06.03 11:33:40.
