data_PCOD9058011
_publ_section_title
;
Structure prediction by ZEFSAII (Michael W. Deem and Ramdas Pophale) SiO2 
 PCOD9058011
Probable space group: P -1
;
_chemical_formula_sum "Si O2"
_cell_formula_units_Z 16
_cell_length_a 13.036354
_cell_length_b 22.321994
_cell_length_c 6.733257
_cell_angle_alpha 98.777660
_cell_angle_beta 83.201954
_cell_angle_gamma 158.909736
_cell_volume 695.205540
_symmetry_space_group_name_H-M "P -1"
_symmetry_group_IT_number 2
_symmetry_cell_setting 'triclinic'
loop_
_space_group_symop_operation_xyz
x,y,z
-x,-y,-z
loop_
_atom_site_type_symbol
_atom_site_label
_atom_site_fract_x
_atom_site_fract_y
_atom_site_fract_z
Si Si1 0.263531 0.154856 0.665715
Si Si2 0.536708 0.117464 0.953747
Si Si3 0.786687 0.002505 0.367859
Si Si4 0.193920 0.513997 0.479942
Si Si5 0.826325 0.384654 0.176236
Si Si6 0.050299 0.835733 0.202365
Si Si7 0.746068 0.761123 0.947285
Si Si8 0.108300 0.382853 0.773756
O O1 0.497201 0.327333 0.605232
O O2 0.194564 0.146978 0.887742
O O3 0.394233 0.158637 0.656482
O O4 0.000000 0.000000 0.500000
O O5 0.853565 0.267875 0.913663
O O6 0.380920 0.038548 0.738531
O O7 0.559318 0.198977 0.071346
O O8 0.337968 0.975463 0.085947
O O9 0.868640 0.073483 0.596697
O O10 0.062698 0.135660 0.241806
O O11 0.237571 0.590325 0.672879
O O12 0.070973 0.389949 0.565139
O O13 0.995885 0.433002 0.312143
O O14 0.000000 0.500000 0.000000
O O15 0.849384 0.760615 0.055062
O O16 0.908202 0.698444 0.255885
O O17 0.414107 0.573152 0.876650
#
# Coordination Sequence:
#
# PCOD9058011 Si02
#       8
#     2   2   2   2   2   2   2   2
#     4  12  23  43  72 103 139 177 236 293 360 425
#     4  11  25  44  73 104 138 188 238 295 358 420
#     4  11  25  46  72 105 138 184 236 296 364 422
#     4  11  26  40  66 107 138 185 226 288 357 419
#     4  11  22  44  68  99 146 177 223 286 358 422
#     4  11  26  50  70  99 146 195 241 292 347 419
#     4  11  26  48  71 106 138 190 242 295 354 417
#     4  12  26  47  71 105 145 190 243 291 348 422
#
# _framework density 23.014776000000001
#
# number of rings (size 3 to 8) (size 9 to 14) (size 15 to 20)
#    0.000    0.750    2.500    4.125    7.000    1.000 
#    9.000    0.000    0.000    0.000    0.000    0.000 
#    0.000    0.000    0.000    0.000    0.000    0.000 
#
# Total GULP energy -89600.950648 kJ/mol
# GULP energy per Si atom -5600.059416 kJ/mol
# Density = 2.296239 g / cm^3
# Si number density = 23.014776 Si / 1000 Ang^3
#
#
#
# Elastic Constant Matrix: (Units=GPa)
#
#
# Indices 1 2 3 4 5 6 
#
# 1 72.1307 24.8413 37.9863 -9.4307 5.8261 -11.4381
# 2 24.8413 90.1814 35.2912 -16.9685 10.6357 5.4633
# 3 37.9863 35.2912 115.3799 -20.6819 11.4813 4.3547
# 4 -9.4307 -16.9685 -20.6819 33.0241 -0.2625 5.7263
# 5 5.8261 10.6357 11.4813 -0.2625 31.2698 -14.1535
# 6 -11.4381 5.4633 4.3547 5.7263 -14.1535 46.7532
#
#
#
# Elastic Compliance Matrix: (Units=1/GPa)
#
#
# Indices 1 2 3 4 5 6 
#
# 1 0.018935 -0.003961 -0.005827 -0.001418 0.002987 0.006716
# 2 -0.003961 0.014983 -0.001267 0.006644 -0.006238 -0.005304
# 3 -0.005827 -0.001267 0.012867 0.006551 -0.005373 -0.004905
# 4 -0.001418 0.006644 0.006551 0.038881 -0.008128 -0.008956
# 5 0.002987 -0.006238 -0.005373 -0.008128 0.042628 0.015860
# 6 0.006716 -0.005304 -0.004905 -0.008956 0.015860 0.030007
#
#
# Mechanical properties :
#
#
# Convention : Reuss Voigt Hill
#
# Bulk Modulus (GPa) = 40.52826 52.65884 46.59355
# Shear Modulus (GPa) = 26.50598 34.18097 30.34347
#
# Velocity S-wave (km/s) = 3.39734 3.85798 3.63496
# Velocity P-wave (km/s) = 5.74780 6.54029 6.15681
#
# Compressibility (1/GPa) = 0.02467414
#
# Stress axis : x y z
#
# Youngs Moduli (GPa) = 52.81194 66.74293 77.71813
#
# Poissons Ratio (x) = 0.26440 0.45288
# Poissons Ratio (y) = 0.20921 0.09844
# Poissons Ratio (z) = 0.30775 0.08454
#
# Static dielectric constant tensor:
#      x y z
#    x 1.898940 0.012450 0.036460 
#    y 0.012450 1.854510 -0.024410 
#    z 0.036460 -0.024410 1.856170 
# 
# From -- ./inp_files/101165.got.cif
#   From: 2010.05.17/outbox.cif.g08.bks.cpg/sg2_51_cif.got.tgz:101165.got - 2010.06.03 11:33:40.
