data_PCOD9058099
_publ_section_title
;
Structure prediction by ZEFSAII (Michael W. Deem and Ramdas Pophale) SiO2 
 PCOD9058099
Probable space group: P -1
;
_chemical_formula_sum "Si O2"
_cell_formula_units_Z 12
_cell_length_a 13.402085
_cell_length_b 11.867940
_cell_length_c 9.416278
_cell_angle_alpha 129.717661
_cell_angle_beta 29.610427
_cell_angle_gamma 138.555119
_cell_volume 489.447787
_symmetry_space_group_name_H-M "P -1"
_symmetry_group_IT_number 2
_symmetry_cell_setting 'triclinic'
loop_
_space_group_symop_operation_xyz
x,y,z
-x,-y,-z
loop_
_atom_site_type_symbol
_atom_site_label
_atom_site_fract_x
_atom_site_fract_y
_atom_site_fract_z
Si Si1 0.701012 0.074922 0.619575
Si Si2 0.294702 0.109897 0.272335
Si Si3 0.024565 0.681446 0.752475
Si Si4 0.499319 0.514602 0.680657
Si Si5 0.736478 0.019784 0.079553
Si Si6 0.544943 0.358380 0.759722
O O1 0.503497 0.979691 0.664088
O O2 0.926748 0.218987 0.375987
O O3 0.755459 0.960882 0.563363
O O4 0.563660 0.145286 0.940761
O O5 0.319528 0.289043 0.354229
O O6 0.161287 0.979954 0.203122
O O7 0.793831 0.384341 0.518958
O O8 0.761044 0.538973 0.990826
O O9 0.101067 0.824584 0.896196
O O10 0.500000 0.500000 0.500000
O O11 0.552125 0.391385 0.608981
O O12 0.642968 0.833880 0.113957
O O13 0.500000 0.500000 0.000000
#
# Coordination Sequence:
#
# PCOD9058099 Si02
#       6
#     2   2   2   2   2   2
#     4   8  17  37  71  90 127 169 223 260 333 392
#     4   9  19  39  66  95 136 169 213 281 325 386
#     4  11  24  43  73  97 130 186 221 266 344 392
#     4  12  28  43  63 101 139 173 228 283 327 390
#     4   9  19  40  69  97 130 178 221 268 330 402
#     4  11  22  44  71 100 139 170 222 279 330 403
#
# _framework density 24.517424999999999
#
# number of rings (size 3 to 8) (size 9 to 14) (size 15 to 20)
#    1.000    1.000    1.667    2.000    4.667    4.000 
#    0.000    2.500    0.000    0.000    0.000    0.000 
#    0.000    0.000    0.000    0.000    0.000    0.000 
#
# Total GULP energy -67125.796417 kJ/mol
# GULP energy per Si atom -5593.816368 kJ/mol
# Density = 2.446162 g / cm^3
# Si number density = 24.517425 Si / 1000 Ang^3
#
#
#
# Elastic Constant Matrix: (Units=GPa)
#
#
# Indices 1 2 3 4 5 6 
#
# 1 148.1655 58.5976 40.1955 -15.5655 18.7298 -35.7801
# 2 58.5976 149.6875 41.3215 -7.8447 11.1602 -13.2868
# 3 40.1955 41.3215 96.5167 -11.9395 18.1408 -11.0166
# 4 -15.5655 -7.8447 -11.9395 43.3409 -2.3968 3.6785
# 5 18.7298 11.1602 18.1408 -2.3968 52.0837 -5.5723
# 6 -35.7801 -13.2868 -11.0166 3.6785 -5.5723 37.3342
#
#
#
# Elastic Compliance Matrix: (Units=1/GPa)
#
#
# Indices 1 2 3 4 5 6 
#
# 1 0.010768 -0.002748 -0.001783 0.002077 -0.001673 0.008362
# 2 -0.002748 0.008411 -0.002517 -0.000126 0.000018 -0.000368
# 3 -0.001783 -0.002517 0.013136 0.002297 -0.003229 0.000564
# 4 0.002077 -0.000126 0.002297 0.024394 -0.000380 0.000163
# 5 -0.001673 0.000018 -0.003229 -0.000380 0.020971 0.000618
# 6 0.008362 -0.000368 0.000564 0.000163 0.000618 0.034911
#
#
# Mechanical properties :
#
#
# Convention : Reuss Voigt Hill
#
# Bulk Modulus (GPa) = 54.88394 74.95545 64.91969
# Shear Modulus (GPa) = 37.66223 43.50210 40.58217
#
# Velocity S-wave (km/s) = 3.92362 4.21685 4.07288
# Velocity P-wave (km/s) = 6.55444 7.37210 6.97526
#
# Compressibility (1/GPa) = 0.01822027
#
# Stress axis : x y z
#
# Youngs Moduli (GPa) = 92.86470 118.89825 76.12452
#
# Poissons Ratio (x) = 0.32668 0.13570
# Poissons Ratio (y) = 0.25515 0.19163
# Poissons Ratio (z) = 0.16554 0.29931
#
# Static dielectric constant tensor:
#      x y z
#    x 1.984970 0.012200 -0.017810 
#    y 0.012200 1.916940 0.007040 
#    z -0.017810 0.007040 2.053250 
# 
# From -- ./inp_files/262984.got.cif
#   From: 2010.05.17/outbox.cif.g08.bks.cpg/sg2_132_cif.got.tgz:262984.got - 2010.06.03 11:33:40.
