data_PCOD9058146
_publ_section_title
;
Structure prediction by ZEFSAII (Michael W. Deem and Ramdas Pophale) SiO2 
 PCOD9058146
Probable space group: P -1
;
_chemical_formula_sum "Si O2"
_cell_formula_units_Z 14
_cell_length_a 8.997693
_cell_length_b 7.953011
_cell_length_c 20.887906
_cell_angle_alpha 42.717576
_cell_angle_beta 46.798291
_cell_angle_gamma 80.381995
_cell_volume 542.486549
_symmetry_space_group_name_H-M "P -1"
_symmetry_group_IT_number 2
_symmetry_cell_setting 'triclinic'
loop_
_space_group_symop_operation_xyz
x,y,z
-x,-y,-z
loop_
_atom_site_type_symbol
_atom_site_label
_atom_site_fract_x
_atom_site_fract_y
_atom_site_fract_z
Si Si1 0.321627 0.454304 0.952876
Si Si2 0.721198 0.081278 0.276098
Si Si3 0.678904 0.212531 0.688927
Si Si4 0.303253 0.133929 0.388391
Si Si5 0.443906 0.358139 0.431920
Si Si6 0.964755 0.690659 0.122682
Si Si7 0.481727 0.069144 0.057988
O O1 0.480393 0.541186 0.813898
O O2 0.500916 0.826600 0.827730
O O3 0.370102 0.254510 0.037927
O O4 0.986915 0.225589 0.112883
O O5 0.407614 0.934459 0.395937
O O6 0.836207 0.425378 0.178347
O O7 0.696154 0.857955 0.402458
O O8 0.541005 0.335311 0.662550
O O9 0.000000 0.500000 0.500000
O O10 0.686309 0.233221 0.757966
O O11 0.324778 0.179273 0.447126
O O12 0.000000 0.000000 0.500000
O O13 0.756694 0.520797 0.291124
O O14 0.217395 0.732867 0.057875
O O15 0.000000 0.000000 0.000000
O O16 0.500000 0.000000 0.000000
#
# Coordination Sequence:
#
# PCOD9058146 Si02
#       7
#     2   2   2   2   2   2   2
#     4  12  26  46  76 106 150 191 242 303 376 426
#     4  11  25  47  76 104 148 196 241 300 369 436
#     4  12  25  46  71 105 146 191 237 301 367 435
#     4  11  25  43  72 111 141 189 245 303 353 433
#     4  11  24  47  74 101 146 194 246 290 366 439
#     4  11  22  44  72 103 142 195 241 294 367 436
#     4  12  27  46  75 107 143 188 253 300 358 438
#
# _framework density 25.807092000000001
#
# number of rings (size 3 to 8) (size 9 to 14) (size 15 to 20)
#    0.000    0.571    2.857    5.143    8.000    0.000 
#    2.571    0.714    0.000    0.000    0.000    0.000 
#    0.000    0.000    0.000    0.000    0.000    0.000 
#
# Total GULP energy -78160.596686 kJ/mol
# GULP energy per Si atom -5582.899763 kJ/mol
# Density = 2.574835 g / cm^3
# Si number density = 25.807092 Si / 1000 Ang^3
#
#
#
# Elastic Constant Matrix: (Units=GPa)
#
#
# Indices 1 2 3 4 5 6 
#
# 1 141.7017 26.3579 57.1307 9.1829 -7.1411 -38.9928
# 2 26.3579 96.0351 33.3738 2.1858 -2.4559 -19.4095
# 3 57.1307 33.3738 166.4908 44.1414 1.1156 -16.6370
# 4 9.1829 2.1858 44.1414 46.4715 -13.9398 4.6437
# 5 -7.1411 -2.4559 1.1156 -13.9398 61.5605 5.5172
# 6 -38.9928 -19.4095 -16.6370 4.6437 5.5172 46.9465
#
#
#
# Elastic Compliance Matrix: (Units=1/GPa)
#
#
# Indices 1 2 3 4 5 6 
#
# 1 0.010274 -0.000375 -0.002723 0.000011 0.000570 0.007345
# 2 -0.000375 0.012036 -0.002321 0.001496 0.000492 0.003637
# 3 -0.002723 -0.002321 0.010332 -0.010274 -0.003085 0.001819
# 4 0.000011 0.001496 -0.010274 0.034574 0.008745 -0.007461
# 5 0.000570 0.000492 -0.003085 0.008745 0.018678 -0.003476
# 6 0.007345 0.003637 0.001819 -0.007461 -0.003476 0.030696
#
#
# Mechanical properties :
#
#
# Convention : Reuss Voigt Hill
#
# Bulk Modulus (GPa) = 45.86055 70.88359 58.37207
# Shear Modulus (GPa) = 37.12085 50.15339 43.63712
#
# Velocity S-wave (km/s) = 3.79674 4.41318 4.11651
# Velocity P-wave (km/s) = 6.08518 7.31400 6.72770
#
# Compressibility (1/GPa) = 0.02180523
#
# Stress axis : x y z
#
# Youngs Moduli (GPa) = 97.33389 83.08648 96.78205
#
# Poissons Ratio (x) = 0.03112 0.26355
# Poissons Ratio (y) = 0.03646 0.22460
# Poissons Ratio (z) = 0.26506 0.19282
#
# Static dielectric constant tensor:
#      x y z
#    x 3.453530 0.175690 0.722990 
#    y 0.175690 2.145110 0.124290 
#    z 0.722990 0.124290 2.506040 
# 
# From -- ./inp_files/587749.got.cif
#   From: 2010.05.17/outbox.cif.g08.bks.cpg/sg2_294_cif.got.tgz:587749.got - 2010.06.03 11:33:40.
