data_PCOD9058169
_publ_section_title
;
Structure prediction by ZEFSAII (Michael W. Deem and Ramdas Pophale) SiO2 
 PCOD9058169
Probable space group: P -1
;
_chemical_formula_sum "Si O2"
_cell_formula_units_Z 14
_cell_length_a 21.606465
_cell_length_b 9.308036
_cell_length_c 12.339422
_cell_angle_alpha 59.047583
_cell_angle_beta 151.084927
_cell_angle_gamma 140.700303
_cell_volume 643.319673
_symmetry_space_group_name_H-M "P -1"
_symmetry_group_IT_number 2
_symmetry_cell_setting 'triclinic'
loop_
_space_group_symop_operation_xyz
x,y,z
-x,-y,-z
loop_
_atom_site_type_symbol
_atom_site_label
_atom_site_fract_x
_atom_site_fract_y
_atom_site_fract_z
Si Si1 0.297853 0.640984 0.619781
Si Si2 0.289688 0.934653 0.796662
Si Si3 0.396089 0.996548 0.439997
Si Si4 0.897201 0.900021 0.498691
Si Si5 0.085295 0.966523 0.972767
Si Si6 0.775569 0.616719 0.813844
Si Si7 0.992693 0.428232 0.685788
O O1 0.263549 0.416516 0.617760
O O2 0.082837 0.491197 0.392386
O O3 0.362276 0.829791 0.548762
O O4 0.470742 0.826139 0.905555
O O5 0.202922 0.827897 0.584595
O O6 0.174409 0.672338 0.790532
O O7 0.208423 0.030043 0.675520
O O8 0.188310 0.890197 0.141534
O O9 0.559614 0.305608 0.602372
O O10 0.500000 0.000000 0.500000
O O11 0.000000 0.000000 0.500000
O O12 0.057964 0.032352 0.791244
O O13 0.213043 0.207401 0.162085
O O14 0.864027 0.733406 0.783458
O O15 0.933005 0.645776 0.097432
#
# Coordination Sequence:
#
# PCOD9058169 Si02
#       7
#     2   2   2   2   2   2   2
#     4  12  25  43  69  99 135 178 226 278 339 402
#     4  11  24  45  68  99 136 179 225 275 342 404
#     4  12  27  43  71 104 135 176 227 286 340 408
#     4  12  26  45  66  98 140 181 218 279 342 405
#     4  11  26  47  71  97 137 182 227 283 342 402
#     4  11  23  48  71 100 135 177 235 280 339 404
#     4  11  22  44  72  99 133 178 226 280 338 402
#
# _framework density 21.762119999999999
#
# number of rings (size 3 to 8) (size 9 to 14) (size 15 to 20)
#    0.000    0.571    5.714    2.143    4.000    1.143 
#    5.143    0.000    0.000    0.000    0.000    0.000 
#    0.000    0.000    0.000    0.000    0.000    0.000 
#
# Total GULP energy -78307.110242 kJ/mol
# GULP energy per Si atom -5593.365017 kJ/mol
# Density = 2.171259 g / cm^3
# Si number density = 21.762120 Si / 1000 Ang^3
#
#
#
# Elastic Constant Matrix: (Units=GPa)
#
#
# Indices 1 2 3 4 5 6 
#
# 1 79.9284 9.7999 23.9185 -14.2974 4.3908 -1.8614
# 2 9.7999 75.6510 2.2422 2.4196 6.3616 -2.6772
# 3 23.9185 2.2422 58.7585 -11.1712 4.7565 -0.1175
# 4 -14.2974 2.4196 -11.1712 39.8794 -6.4497 0.0342
# 5 4.3908 6.3616 4.7565 -6.4497 23.2701 -12.2345
# 6 -1.8614 -2.6772 -0.1175 0.0342 -12.2345 37.8614
#
#
#
# Elastic Compliance Matrix: (Units=1/GPa)
#
#
# Indices 1 2 3 4 5 6 
#
# 1 0.015064 -0.001921 -0.005303 0.004071 0.000244 0.000663
# 2 -0.001921 0.013879 0.000189 -0.002180 -0.004345 -0.000515
# 3 -0.005303 0.000189 0.020012 0.003238 -0.002823 -0.001100
# 4 0.004071 -0.002180 0.003238 0.028977 0.008690 0.002838
# 5 0.000244 -0.004345 -0.002823 0.008690 0.056543 0.017959
# 6 0.000663 -0.000515 -0.001100 0.002838 0.017959 0.032206
#
#
# Mechanical properties :
#
#
# Convention : Reuss Voigt Hill
#
# Bulk Modulus (GPa) = 28.66720 31.80658 30.23689
# Shear Modulus (GPa) = 25.99016 32.09400 29.04208
#
# Velocity S-wave (km/s) = 3.45959 3.84443 3.65708
# Velocity P-wave (km/s) = 5.39999 5.86119 5.63531
#
# Compressibility (1/GPa) = 0.03488308
#
# Stress axis : x y z
#
# Youngs Moduli (GPa) = 66.38358 72.05231 49.96955
#
# Poissons Ratio (x) = 0.13845 0.26500
# Poissons Ratio (y) = 0.12755 -0.00943
# Poissons Ratio (z) = 0.35205 -0.01360
#
# Static dielectric constant tensor:
#      x y z
#    x 1.799660 -0.005530 -0.008900 
#    y -0.005530 1.773880 0.025630 
#    z -0.008900 0.025630 1.782450 
# 
# From -- ./inp_files/28270.got.cif
#   From: 2010.05.17/outbox.cif.g08.bks.cpg/sg2_15_cif.got.tgz:28270.got - 2010.06.03 11:33:40.
