data_PCOD9058650
_publ_section_title
;
Structure prediction by ZEFSAII (Michael W. Deem and Ramdas Pophale) SiO2 
 PCOD9058650
Probable space group: P -1
;
_chemical_formula_sum "Si O2"
_cell_formula_units_Z 14
_cell_length_a 12.086874
_cell_length_b 9.581338
_cell_length_c 8.990706
_cell_angle_alpha 66.102412
_cell_angle_beta 124.686754
_cell_angle_gamma 70.044943
_cell_volume 508.160804
_symmetry_space_group_name_H-M "P -1"
_symmetry_group_IT_number 2
_symmetry_cell_setting 'triclinic'
loop_
_space_group_symop_operation_xyz
x,y,z
-x,-y,-z
loop_
_atom_site_type_symbol
_atom_site_label
_atom_site_fract_x
_atom_site_fract_y
_atom_site_fract_z
Si Si1 0.709937 0.400421 0.287112
Si Si2 0.456838 0.125782 0.758005
Si Si3 0.394333 0.670937 0.204388
Si Si4 0.536248 0.169105 0.318495
Si Si5 0.866291 0.552477 0.008472
Si Si6 0.954795 0.914481 0.675139
Si Si7 0.972218 0.401673 0.651630
O O1 0.543452 0.510959 0.243780
O O2 0.819971 0.164756 0.386624
O O3 0.906372 0.305441 0.561365
O O4 0.587527 0.618615 0.989011
O O5 0.606749 0.143614 0.855724
O O6 0.231048 0.392014 0.494024
O O7 0.439651 0.010626 0.671557
O O8 0.500000 0.000000 0.000000
O O9 0.500000 0.500000 0.500000
O O10 0.165600 0.797379 0.954912
O O11 0.369073 0.297054 0.265965
O O12 0.766814 0.026473 0.595120
O O13 0.852756 0.698531 0.056436
O O14 0.983700 0.297273 0.265742
O O15 0.000000 0.500000 0.000000
O O16 0.000000 0.500000 0.500000
#
# Coordination Sequence:
#
# PCOD9058650 Si02
#       7
#     2   2   2   2   2   2   2
#     4  11  26  46  76 115 154 202 270 322 394 479
#     4  11  22  46  78 115 148 210 272 323 387 478
#     4  11  28  49  75 114 164 206 265 329 399 487
#     4  12  25  49  78 115 158 205 272 333 393 481
#     4  12  29  48  76 114 160 209 267 332 399 480
#     4  12  29  47  77 114 158 207 254 339 417 451
#     4  11  22  46  77 112 150 202 267 317 386 474
#
# _framework density 27.550336000000001
#
# number of rings (size 3 to 8) (size 9 to 14) (size 15 to 20)
#    0.000    0.571    5.714    1.286    8.000    4.571 
#    0.000    0.000    0.000    0.000    0.000    0.000 
#    0.000    0.000    0.000    0.000    0.000    0.000 
#
# Total GULP energy -78341.480360 kJ/mol
# GULP energy per Si atom -5595.820026 kJ/mol
# Density = 2.748763 g / cm^3
# Si number density = 27.550336 Si / 1000 Ang^3
#
#
#
# Elastic Constant Matrix: (Units=GPa)
#
#
# Indices 1 2 3 4 5 6 
#
# 1 187.9577 39.4756 81.5257 12.5352 26.4837 11.1333
# 2 39.4756 159.7348 44.9687 -14.7804 5.1511 23.4789
# 3 81.5257 44.9687 147.5193 5.6811 26.8279 24.6768
# 4 12.5352 -14.7804 5.6811 50.6292 16.5452 12.2991
# 5 26.4837 5.1511 26.8279 16.5452 84.6501 2.8424
# 6 11.1333 23.4789 24.6768 12.2991 2.8424 40.6820
#
#
#
# Elastic Compliance Matrix: (Units=1/GPa)
#
#
# Indices 1 2 3 4 5 6 
#
# 1 0.007321 -0.001126 -0.003757 -0.001858 -0.000720 0.001538
# 2 -0.001126 0.007932 -0.001071 0.004017 -0.000415 -0.004805
# 3 -0.003757 -0.001071 0.010334 0.001340 -0.002133 -0.004878
# 4 -0.001858 0.004017 0.001340 0.025168 -0.004674 -0.009905
# 5 -0.000720 -0.000415 -0.002133 -0.004674 0.013579 0.002194
# 6 0.001538 -0.004805 -0.004878 -0.009905 0.002194 0.032734
#
#
# Mechanical properties :
#
#
# Convention : Reuss Voigt Hill
#
# Bulk Modulus (GPa) = 73.11237 91.90574 82.50905
# Shear Modulus (GPa) = 44.03927 57.14171 50.59049
#
# Velocity S-wave (km/s) = 4.00246 4.55915 4.28985
# Velocity P-wave (km/s) = 6.92495 7.81960 7.38583
#
# Compressibility (1/GPa) = 0.01367758
#
# Stress axis : x y z
#
# Youngs Moduli (GPa) = 136.59698 126.07795 96.76906
#
# Poissons Ratio (x) = 0.14199 0.36359
# Poissons Ratio (y) = 0.15383 0.10363
# Poissons Ratio (z) = 0.51324 0.13501
#
# Static dielectric constant tensor:
#      x y z
#    x 2.484230 -0.353700 0.017820 
#    y -0.353700 3.080370 -0.014830 
#    z 0.017820 -0.014830 2.153050 
# 
# From -- ./inp_files/419201.got.cif
#   From: 2010.05.17/outbox.cif.g08.bks.cpg/sg2_210_cif.got.tgz:419201.got - 2010.06.03 11:33:40.
