data_PCOD9058885
_publ_section_title
;
Structure prediction by ZEFSAII (Michael W. Deem and Ramdas Pophale) SiO2 
 PCOD9058885
Probable space group: P -1
;
_chemical_formula_sum "Si O2"
_cell_formula_units_Z 12
_cell_length_a 15.335350
_cell_length_b 11.516646
_cell_length_c 19.104452
_cell_angle_alpha 149.904637
_cell_angle_beta 21.051622
_cell_angle_gamma 151.247140
_cell_volume 561.025240
_symmetry_space_group_name_H-M "P -1"
_symmetry_group_IT_number 2
_symmetry_cell_setting 'triclinic'
loop_
_space_group_symop_operation_xyz
x,y,z
-x,-y,-z
loop_
_atom_site_type_symbol
_atom_site_label
_atom_site_fract_x
_atom_site_fract_y
_atom_site_fract_z
Si Si1 0.562017 0.241737 0.999447
Si Si2 0.253397 0.553254 0.182841
Si Si3 0.820804 0.038636 0.214920
Si Si4 0.725653 0.342308 0.083244
Si Si5 0.341646 0.183448 0.634548
Si Si6 0.985924 0.728454 0.582688
O O1 0.703458 0.382305 0.897223
O O2 0.441311 0.942334 0.917220
O O3 0.741818 0.304009 0.966811
O O4 0.309821 0.316015 0.240347
O O5 0.183578 0.754870 0.384242
O O6 0.998825 0.301319 0.252993
O O7 0.500000 0.500000 0.000000
O O8 0.563327 0.072702 0.398259
O O9 0.730508 0.838188 0.240226
O O10 0.000000 0.000000 0.000000
O O11 0.576818 0.532979 0.302557
O O12 0.000000 0.500000 0.000000
O O13 0.089029 0.988484 0.683180
O O14 0.000000 0.500000 0.500000
#
# Coordination Sequence:
#
# PCOD9058885 Si02
#       6
#     2   2   2   2   2   2
#     4  11  25  46  71  99 139 183 226 282 342 404
#     4  12  23  40  66 103 136 170 222 282 351 405
#     4  11  23  38  65 100 133 169 225 290 342 401
#     4  11  24  47  72  94 139 192 232 274 332 410
#     4  11  23  42  66  98 134 178 228 277 343 405
#     4  12  22  41  68 100 139 175 216 286 354 401
#
# _framework density 21.389413000000001
#
# number of rings (size 3 to 8) (size 9 to 14) (size 15 to 20)
#    0.000    0.667    5.000    3.000    2.333    0.000 
#    3.000   10.000    0.000    0.000    0.000    0.000 
#    0.000    0.000    0.000    0.000    0.000    0.000 
#
# Total GULP energy -67034.220217 kJ/mol
# GULP energy per Si atom -5586.185018 kJ/mol
# Density = 2.134073 g / cm^3
# Si number density = 21.389413 Si / 1000 Ang^3
#
#
#
# Elastic Constant Matrix: (Units=GPa)
#
#
# Indices 1 2 3 4 5 6 
#
# 1 91.8837 30.7733 31.7121 -10.1413 4.4402 19.7273
# 2 30.7733 108.7998 0.6237 12.6742 -10.9439 7.7669
# 3 31.7121 0.6237 98.0829 -3.1720 19.4035 -6.9841
# 4 -10.1413 12.6742 -3.1720 33.7656 1.5607 -0.6920
# 5 4.4402 -10.9439 19.4035 1.5607 28.1380 -1.5513
# 6 19.7273 7.7669 -6.9841 -0.6920 -1.5513 40.8747
#
#
#
# Elastic Compliance Matrix: (Units=1/GPa)
#
#
# Indices 1 2 3 4 5 6 
#
# 1 0.017047 -0.005128 -0.005518 0.006437 -0.001686 -0.008151
# 2 -0.005128 0.011902 0.000300 -0.006231 0.005598 0.000371
# 3 -0.005518 0.000300 0.013971 0.000026 -0.008391 0.004675
# 4 0.006437 -0.006231 0.000026 0.034110 -0.005435 -0.001547
# 5 -0.001686 0.005598 -0.008391 -0.005435 0.044064 -0.000103
# 6 -0.008151 0.000371 0.004675 -0.001547 -0.000103 0.029097
#
#
# Mechanical properties :
#
#
# Convention : Reuss Voigt Hill
#
# Bulk Modulus (GPa) = 44.98594 47.22051 46.10323
# Shear Modulus (GPa) = 28.04390 36.26615 32.15503
#
# Velocity S-wave (km/s) = 3.62486 4.12213 3.88147
# Velocity P-wave (km/s) = 6.21265 6.69182 6.45668
#
# Compressibility (1/GPa) = 0.02222917
#
# Stress axis : x y z
#
# Youngs Moduli (GPa) = 58.66199 84.01860 71.57589
#
# Poissons Ratio (x) = 0.43081 0.39493
# Poissons Ratio (y) = 0.30079 -0.02145
# Poissons Ratio (z) = 0.32368 -0.02518
#
# Static dielectric constant tensor:
#      x y z
#    x 1.882600 0.032490 -0.088870 
#    y 0.032490 1.783330 0.088430 
#    z -0.088870 0.088430 2.012240 
# 
# From -- ./inp_files/425938.got.cif
#   From: 2010.05.17/outbox.cif.g08.bks.cpg/sg2_213_cif.got.tgz:425938.got - 2010.06.03 11:33:40.
