data_PCOD9058734
_publ_section_title
;
Structure prediction by ZEFSAII (Michael W. Deem and Ramdas Pophale) SiO2 
 PCOD9058734
Probable space group: P -1
;
_chemical_formula_sum "Si O2"
_cell_formula_units_Z 16
_cell_length_a 19.482867
_cell_length_b 12.462742
_cell_length_c 7.891200
_cell_angle_alpha 126.786355
_cell_angle_beta 42.747973
_cell_angle_gamma 151.718281
_cell_volume 609.361884
_symmetry_space_group_name_H-M "P -1"
_symmetry_group_IT_number 2
_symmetry_cell_setting 'triclinic'
loop_
_space_group_symop_operation_xyz
x,y,z
-x,-y,-z
loop_
_atom_site_type_symbol
_atom_site_label
_atom_site_fract_x
_atom_site_fract_y
_atom_site_fract_z
Si Si1 0.187992 0.648934 0.749978
Si Si2 0.511242 0.406713 0.234391
Si Si3 0.657147 0.934224 0.262115
Si Si4 0.636780 0.026543 0.761905
Si Si5 0.270473 0.453577 0.561212
Si Si6 0.136075 0.264919 0.001160
Si Si7 0.813905 0.911898 0.716416
Si Si8 0.980332 0.308832 0.535307
O O1 0.227491 0.561345 0.703184
O O2 0.150090 0.556259 0.541319
O O3 0.321356 0.914793 0.759448
O O4 0.000000 0.500000 0.000000
O O5 0.500000 0.500000 0.500000
O O6 0.451370 0.196921 0.204944
O O7 0.713049 0.608412 0.018466
O O8 0.377502 0.296276 0.224220
O O9 0.674819 0.015837 0.492920
O O10 0.470576 0.666182 0.347458
O O11 0.794183 0.971491 0.984124
O O12 0.822170 0.239447 0.720726
O O13 0.500000 0.000000 0.000000
O O14 0.229959 0.381692 0.762281
O O15 0.157723 0.217770 0.449944
O O16 0.036911 0.293591 0.250544
O O17 0.000000 0.000000 0.000000
O O18 0.916718 0.121138 0.599650
#
# Coordination Sequence:
#
# PCOD9058734 Si02
#       8
#     2   2   2   2   2   2   2   2
#     4  12  30  51  70 109 167 202 250 325 390 463
#     4  11  22  47  75 112 154 197 256 316 380 459
#     4  12  27  50  79 111 155 210 255 323 383 469
#     4  11  27  49  80 110 148 203 265 311 383 473
#     4  12  27  49  77 115 148 210 263 307 395 470
#     4  12  24  47  80 116 156 197 255 332 390 450
#     4  11  24  51  77 113 153 200 263 324 387 467
#     4  11  27  49  76 116 157 199 257 327 397 451
#
# _framework density 26.256975000000001
#
# number of rings (size 3 to 8) (size 9 to 14) (size 15 to 20)
#    0.000    0.500    5.000    1.500    7.000    2.000 
#    2.250    0.000    0.000    0.000    0.000    0.000 
#    0.000    0.000    0.000    0.000    0.000    0.000 
#
# Total GULP energy -89658.481345 kJ/mol
# GULP energy per Si atom -5603.655084 kJ/mol
# Density = 2.619721 g / cm^3
# Si number density = 26.256975 Si / 1000 Ang^3
#
#
#
# Elastic Constant Matrix: (Units=GPa)
#
#
# Indices 1 2 3 4 5 6 
#
# 1 47.2106 3.6578 -6.7129 7.8686 -3.2717 -21.1398
# 2 3.6578 163.9988 -3.6606 -1.7170 7.0055 -30.7485
# 3 -6.7129 -3.6606 122.8071 13.7983 10.4569 -25.7433
# 4 7.8686 -1.7170 13.7983 44.6729 -2.2829 -6.9166
# 5 -3.2717 7.0055 10.4569 -2.2829 36.0631 10.0709
# 6 -21.1398 -30.7485 -25.7433 -6.9166 10.0709 46.8706
#
#
#
# Elastic Compliance Matrix: (Units=1/GPa)
#
#
# Indices 1 2 3 4 5 6 
#
# 1 0.032004 0.003732 0.007474 -0.004775 -0.006335 0.021644
# 2 0.003732 0.008073 0.002850 0.000012 -0.004725 0.009561
# 3 0.007474 0.002850 0.012394 -0.003378 -0.007349 0.013128
# 4 -0.004775 0.000012 -0.003378 0.024246 0.002337 -0.000926
# 5 -0.006335 -0.004725 -0.007349 0.002337 0.035155 -0.017203
# 6 0.021644 0.009561 0.013128 -0.000926 -0.017203 0.048140
#
#
# Mechanical properties :
#
#
# Convention : Reuss Voigt Hill
#
# Bulk Modulus (GPa) = 12.40993 35.62057 24.01525
# Shear Modulus (GPa) = 31.49392 48.23679 39.86536
#
# Velocity S-wave (km/s) = 3.46706 4.29079 3.90073
# Velocity P-wave (km/s) = 4.55675 6.17604 5.42713
#
# Compressibility (1/GPa) = 0.08058063
#
# Stress axis : x y z
#
# Youngs Moduli (GPa) = 31.24641 123.87518 80.68654
#
# Poissons Ratio (x) = -0.46227 -0.60302
# Poissons Ratio (y) = -0.11660 -0.22995
# Poissons Ratio (z) = -0.23352 -0.35304
#
# Static dielectric constant tensor:
#      x y z
#    x 2.226250 0.071510 0.096770 
#    y 0.071510 2.167390 0.082840 
#    z 0.096770 0.082840 2.310660 
# 
# From -- ./inp_files/346340.got.cif
#   From: 2010.05.17/outbox.cif.g08.bks.cpg/sg2_174_cif.got.tgz:346340.got - 2010.06.03 11:33:40.
