data_PCOD9058155
_publ_section_title
;
Structure prediction by ZEFSAII (Michael W. Deem and Ramdas Pophale) SiO2 
 PCOD9058155
Probable space group: P -1
;
_chemical_formula_sum "Si O2"
_cell_formula_units_Z 14
_cell_length_a 8.647560
_cell_length_b 14.985287
_cell_length_c 7.838128
_cell_angle_alpha 69.053564
_cell_angle_beta 92.765192
_cell_angle_gamma 39.018220
_cell_volume 497.000068
_symmetry_space_group_name_H-M "P -1"
_symmetry_group_IT_number 2
_symmetry_cell_setting 'triclinic'
loop_
_space_group_symop_operation_xyz
x,y,z
-x,-y,-z
loop_
_atom_site_type_symbol
_atom_site_label
_atom_site_fract_x
_atom_site_fract_y
_atom_site_fract_z
Si Si1 0.312405 0.927116 0.291985
Si Si2 0.949137 0.587050 0.142078
Si Si3 0.449935 0.715760 0.141198
Si Si4 0.793319 0.827749 0.743922
Si Si5 0.248193 0.631109 0.629008
Si Si6 0.591923 0.252091 0.274497
Si Si7 0.784485 0.808216 0.248256
O O1 0.295730 0.859381 0.183710
O O2 0.270336 0.899805 0.490810
O O3 0.636872 0.804776 0.364041
O O4 0.135712 0.119304 0.165356
O O5 0.243147 0.414956 0.171559
O O6 0.768505 0.598165 0.211089
O O7 0.011154 0.630409 0.265662
O O8 0.736844 0.763395 0.892954
O O9 0.509063 0.573202 0.280447
O O10 0.321098 0.793363 0.888877
O O11 0.080334 0.667920 0.752821
O O12 0.500000 0.000000 0.500000
O O13 0.355999 0.673564 0.682129
O O14 0.979735 0.782063 0.376761
O O15 0.500000 0.000000 0.000000
#
# Coordination Sequence:
#
# PCOD9058155 Si02
#       7
#     2   2   2   2   2   2   2
#     4  11  25  46  74 107 142 186 245 298 360 425
#     4  11  23  41  76 102 140 186 245 295 357 417
#     4  11  25  44  74 111 140 190 250 295 347 441
#     4  12  23  44  73 103 139 188 239 299 361 423
#     4  12  26  45  74 105 146 190 246 293 365 441
#     4  12  26  47  72 107 150 192 236 303 365 424
#     4  11  22  44  72 106 137 186 246 299 351 434
#
# _framework density 28.169011999999999
#
# number of rings (size 3 to 8) (size 9 to 14) (size 15 to 20)
#    0.000    0.571    4.286    3.429    0.000    6.286 
#    0.000    1.429    0.000    0.000    0.000    0.000 
#    0.000    0.000    0.000    0.000    0.000    0.000 
#
# Total GULP energy -78414.257774 kJ/mol
# GULP energy per Si atom -5601.018412 kJ/mol
# Density = 2.810490 g / cm^3
# Si number density = 28.169012 Si / 1000 Ang^3
#
#
#
# Elastic Constant Matrix: (Units=GPa)
#
#
# Indices 1 2 3 4 5 6 
#
# 1 121.5716 25.8696 42.5422 2.8357 5.8534 30.2320
# 2 25.8696 174.3637 28.1298 33.6261 13.1270 42.4659
# 3 42.5422 28.1298 138.7888 4.5957 13.8641 16.7223
# 4 2.8357 33.6261 4.5957 41.0583 2.5090 5.5552
# 5 5.8534 13.1270 13.8641 2.5090 49.0137 4.2654
# 6 30.2320 42.4659 16.7223 5.5552 4.2654 57.0960
#
#
#
# Elastic Compliance Matrix: (Units=1/GPa)
#
#
# Indices 1 2 3 4 5 6 
#
# 1 0.010302 0.000002 -0.002588 0.000220 -0.000100 -0.004712
# 2 0.000002 0.008414 -0.000734 -0.006005 -0.001272 -0.005364
# 3 -0.002588 -0.000734 0.008378 0.000008 -0.001830 -0.000402
# 4 0.000220 -0.006005 0.000008 0.029054 -0.000040 0.001523
# 5 -0.000100 -0.001272 -0.001830 -0.000040 0.021279 -0.000051
# 6 -0.004712 -0.005364 -0.000402 0.001523 -0.000051 0.023973
#
#
# Mechanical properties :
#
#
# Convention : Reuss Voigt Hill
#
# Bulk Modulus (GPa) = 48.88876 69.75637 59.32256
# Shear Modulus (GPa) = 43.53234 51.97910 47.75572
#
# Velocity S-wave (km/s) = 3.93542 4.30031 4.12190
# Velocity P-wave (km/s) = 6.16792 7.03378 6.61503
#
# Compressibility (1/GPa) = 0.02045460
#
# Stress axis : x y z
#
# Youngs Moduli (GPa) = 97.06544 118.85580 119.35955
#
# Poissons Ratio (x) = -0.00020 0.30888
# Poissons Ratio (y) = -0.00016 0.08755
# Poissons Ratio (z) = 0.25119 0.08718
#
# Static dielectric constant tensor:
#      x y z
#    x 2.150090 0.011410 0.072960 
#    y 0.011410 2.201810 0.043560 
#    z 0.072960 0.043560 2.282600 
# 
# From -- ./inp_files/206395.got.cif
#   From: 2010.05.17/outbox.cif.g08.bks.cpg/sg2_104_cif.got.tgz:206395.got - 2010.06.03 11:33:40.
