data_PCOD9058917
_publ_section_title
;
Structure prediction by ZEFSAII (Michael W. Deem and Ramdas Pophale) SiO2 
 PCOD9058917
Probable space group: P -1
;
_chemical_formula_sum "Si O2"
_cell_formula_units_Z 16
_cell_length_a 5.288142
_cell_length_b 9.318590
_cell_length_c 16.109779
_cell_angle_alpha 104.297664
_cell_angle_beta 108.053277
_cell_angle_gamma 96.284166
_cell_volume 716.338213
_symmetry_space_group_name_H-M "P -1"
_symmetry_group_IT_number 2
_symmetry_cell_setting 'triclinic'
loop_
_space_group_symop_operation_xyz
x,y,z
-x,-y,-z
loop_
_atom_site_type_symbol
_atom_site_label
_atom_site_fract_x
_atom_site_fract_y
_atom_site_fract_z
Si Si1 0.720943 0.847243 0.599530
Si Si2 0.455267 0.511435 0.740615
Si Si3 0.112799 0.830064 0.307275
Si Si4 0.568139 0.005747 0.104378
Si Si5 0.801687 0.821158 0.797402
Si Si6 0.513554 0.763484 0.195758
Si Si7 0.021418 0.612903 0.597239
Si Si8 0.637513 0.366586 0.591978
O O1 0.700592 0.836233 0.695236
O O2 0.488158 0.744133 0.508211
O O3 0.991072 0.780725 0.595387
O O4 0.733414 0.021692 0.609257
O O5 0.728385 0.642705 0.787703
O O6 0.457842 0.411645 0.810492
O O7 0.236656 0.600082 0.689444
O O8 0.446481 0.380445 0.651463
O O9 0.271028 0.799433 0.234749
O O10 0.115233 0.689857 0.347698
O O11 0.810919 0.852981 0.266275
O O12 0.372861 0.096411 0.146977
O O13 0.882153 0.095111 0.157414
O O14 0.501230 0.837054 0.114384
O O15 0.500000 0.000000 0.000000
O O16 0.000000 0.500000 0.500000
O O17 0.731838 0.536966 0.596844
#
# Coordination Sequence:
#
# PCOD9058917 Si02
#       8
#     2   2   2   2   2   2   2   2
#     4  12  22  40  62  98 139 178 246 274 325 384
#     4  11  24  42  64  97 144 188 230 271 337 402
#     4  11  24  41  65  95 139 184 238 273 334 395
#     4  12  26  50  76 104 132 168 223 292 364 424
#     4  12  25  43  73 105 133 178 228 282 338 415
#     4  11  23  46  69  98 136 182 221 285 351 408
#     4  12  22  37  59  90 137 192 239 273 325 374
#     4  11  23  39  56  97 139 193 226 282 322 383
#
# _framework density 22.335819000000001
#
# number of rings (size 3 to 8) (size 9 to 14) (size 15 to 20)
#    0.000    0.500    6.250    2.625    0.000    1.000 
#    0.000    3.750    0.000    0.000    0.000    0.000 
#    0.000    0.000    0.000    0.000    0.000    0.000 
#
# Total GULP energy -89188.341717 kJ/mol
# GULP energy per Si atom -5574.271357 kJ/mol
# Density = 2.228498 g / cm^3
# Si number density = 22.335819 Si / 1000 Ang^3
#
#
#
# Elastic Constant Matrix: (Units=GPa)
#
#
# Indices 1 2 3 4 5 6 
#
# 1 100.4935 12.0307 27.2593 -1.0282 -12.7404 12.0276
# 2 12.0307 93.0994 24.9247 -22.1303 1.7154 8.9555
# 3 27.2593 24.9247 93.8529 -20.3601 -13.5977 3.0913
# 4 -1.0282 -22.1303 -20.3601 25.7002 -0.9094 -0.8425
# 5 -12.7404 1.7154 -13.5977 -0.9094 22.4298 8.6361
# 6 12.0276 8.9555 3.0913 -0.8425 8.6361 32.5766
#
#
#
# Elastic Compliance Matrix: (Units=1/GPa)
#
#
# Indices 1 2 3 4 5 6 
#
# 1 0.012488 -0.001036 -0.002484 -0.002283 0.007987 -0.006267
# 2 -0.001036 0.014098 -0.001029 0.011162 -0.000715 -0.002917
# 3 -0.002484 -0.001029 0.015658 0.011676 0.009608 -0.002531
# 4 -0.002283 0.011162 0.011676 0.057857 0.008889 -0.004194
# 5 0.007987 -0.000715 0.009608 0.008889 0.063126 -0.020169
# 6 -0.006267 -0.002917 -0.002531 -0.004194 -0.020169 0.039291
#
#
# Mechanical properties :
#
#
# Convention : Reuss Voigt Hill
#
# Bulk Modulus (GPa) = 30.16916 46.20836 38.18876
# Shear Modulus (GPa) = 22.45543 31.02341 26.73942
#
# Velocity S-wave (km/s) = 3.17417 3.73091 3.46375
# Velocity P-wave (km/s) = 5.19329 6.26837 5.75599
#
# Compressibility (1/GPa) = 0.03314643
#
# Stress axis : x y z
#
# Youngs Moduli (GPa) = 80.07794 70.93421 63.86495
#
# Poissons Ratio (x) = 0.07347 0.15861
# Poissons Ratio (y) = 0.08295 0.06573
# Poissons Ratio (z) = 0.19888 0.07300
#
# Static dielectric constant tensor:
#      x y z
#    x 1.928130 -0.000950 -0.013570 
#    y -0.000950 1.874500 -0.044630 
#    z -0.013570 -0.044630 1.816350 
# 
# From -- ./inp_files/83141.got.cif
#   From: 2010.05.17/outbox.cif.g08.bks.cpg/sg2_42_cif.got.tgz:83141.got - 2010.06.03 11:33:40.
