data_PCOD9058028
_publ_section_title
;
Structure prediction by ZEFSAII (Michael W. Deem and Ramdas Pophale) SiO2 
 PCOD9058028
Probable space group: P -1
;
_chemical_formula_sum "Si O2"
_cell_formula_units_Z 13
_cell_length_a 17.981308
_cell_length_b 8.947604
_cell_length_c 9.175394
_cell_angle_alpha 56.318535
_cell_angle_beta 113.563446
_cell_angle_gamma 155.205263
_cell_volume 491.894261
_symmetry_space_group_name_H-M "P -1"
_symmetry_group_IT_number 2
_symmetry_cell_setting 'triclinic'
loop_
_space_group_symop_operation_xyz
x,y,z
-x,-y,-z
loop_
_atom_site_type_symbol
_atom_site_label
_atom_site_fract_x
_atom_site_fract_y
_atom_site_fract_z
Si Si1 0.052225 0.813117 0.892488
Si Si2 0.481091 0.646248 0.823389
Si Si3 0.191013 0.682940 0.772943
Si Si4 0.784050 0.865601 0.567779
Si Si5 0.516738 0.236131 0.932236
Si Si6 0.438635 0.035429 0.548066
Si Si7 0.000000 0.000000 0.500000
O O1 0.977609 0.796698 0.719092
O O2 0.982111 0.721874 0.048177
O O3 0.273157 0.261821 0.815694
O O4 0.000000 0.500000 0.000000
O O5 0.610975 0.916984 0.640200
O O6 0.500000 0.500000 0.000000
O O7 0.514619 0.844038 0.876686
O O8 0.172613 0.842684 0.599233
O O9 0.353185 0.020916 0.841260
O O10 0.267112 0.691839 0.709736
O O11 0.707099 0.690986 0.766457
O O12 0.610334 0.448912 0.555512
O O13 0.942837 0.042782 0.552217
O O14 0.500000 0.000000 0.000000
O O15 0.500000 0.000000 0.500000
#
# Coordination Sequence:
#
# PCOD9058028 Si02
#       7
#     2   2   2   2   2   2   1
#     4  12  25  47  76 113 152 201 250 321 384 443
#     4  12  24  45  73 109 148 193 254 309 373 457
#     4  11  23  47  75 101 147 199 252 305 384 443
#     4  11  22  44  69 102 142 202 246 304 371 451
#     4  11  23  43  72 104 147 198 251 306 377 449
#     4  11  23  43  70 106 143 192 246 309 371 448
#     4  12  24  44  72 106 148 192 254 300 380 442
#
# _framework density 26.428443999999999
#
# number of rings (size 3 to 8) (size 9 to 14) (size 15 to 20)
#    0.000    0.615    3.077    7.385    0.000    1.231 
#    2.769    3.846    0.000    0.000    0.000    0.000 
#    0.000    0.000    0.000    0.000    0.000    0.000 
#
# Total GULP energy -72530.520563 kJ/mol
# GULP energy per Si atom -5579.270813 kJ/mol
# Density = 2.636829 g / cm^3
# Si number density = 26.428444 Si / 1000 Ang^3
#
#
#
# Elastic Constant Matrix: (Units=GPa)
#
#
# Indices 1 2 3 4 5 6 
#
# 1 142.0997 8.8748 41.4327 -5.0352 2.3592 -2.9105
# 2 8.8748 53.0276 26.8958 8.4154 -7.2726 -3.7852
# 3 41.4327 26.8958 201.0578 -2.9751 -13.8821 9.9437
# 4 -5.0352 8.4154 -2.9751 28.9296 -10.3519 -11.8521
# 5 2.3592 -7.2726 -13.8821 -10.3519 66.7899 -8.6135
# 6 -2.9105 -3.7852 9.9437 -11.8521 -8.6135 21.9334
#
#
#
# Elastic Compliance Matrix: (Units=1/GPa)
#
#
# Indices 1 2 3 4 5 6 
#
# 1 0.007705 -0.000660 -0.001605 0.002719 0.000152 0.003165
# 2 -0.000660 0.021613 -0.002872 -0.005109 0.001337 0.002709
# 3 -0.001605 -0.002872 0.005883 0.000104 0.000584 -0.003090
# 4 0.002719 -0.005109 0.000104 0.054767 0.012220 0.033825
# 5 0.000152 0.001337 0.000584 0.012220 0.018937 0.014026
# 6 0.003165 0.002709 -0.003090 0.033825 0.014026 0.071667
#
#
# Mechanical properties :
#
#
# Convention : Reuss Voigt Hill
#
# Bulk Modulus (GPa) = 40.11865 61.17685 50.64775
# Shear Modulus (GPa) = 25.10572 44.79604 34.95088
#
# Velocity S-wave (km/s) = 3.08547 4.12150 3.64053
# Velocity P-wave (km/s) = 5.28267 6.77107 6.07264
#
# Compressibility (1/GPa) = 0.02492607
#
# Stress axis : x y z
#
# Youngs Moduli (GPa) = 129.78093 46.26840 169.96694
#
# Poissons Ratio (x) = 0.03054 0.27286
# Poissons Ratio (y) = 0.08566 0.48822
# Poissons Ratio (z) = 0.20835 0.13290
#
# Static dielectric constant tensor:
#      x y z
#    x 1.732670 0.174530 0.160180 
#    y 0.174530 2.028460 -0.060560 
#    z 0.160180 -0.060560 2.091640 
# 
# From -- ./inp_files/328602.got.cif
#   From: 2010.05.17/outbox.cif.g08.bks.cpg/sg2_165_cif.got.tgz:328602.got - 2010.06.03 11:33:40.
