data_PCOD9058434
_publ_section_title
;
Structure prediction by ZEFSAII (Michael W. Deem and Ramdas Pophale) SiO2 
 PCOD9058434
Probable space group: P -1
;
_chemical_formula_sum "Si O2"
_cell_formula_units_Z 16
_cell_length_a 17.436849
_cell_length_b 6.456731
_cell_length_c 9.106756
_cell_angle_alpha 71.246624
_cell_angle_beta 136.744544
_cell_angle_gamma 101.687076
_cell_volume 664.491156
_symmetry_space_group_name_H-M "P -1"
_symmetry_group_IT_number 2
_symmetry_cell_setting 'triclinic'
loop_
_space_group_symop_operation_xyz
x,y,z
-x,-y,-z
loop_
_atom_site_type_symbol
_atom_site_label
_atom_site_fract_x
_atom_site_fract_y
_atom_site_fract_z
Si Si1 0.389559 0.361532 0.871672
Si Si2 0.179597 0.715782 0.495477
Si Si3 0.710439 0.510866 0.747024
Si Si4 0.665938 0.926125 0.395412
Si Si5 0.601994 0.128625 0.551895
Si Si6 0.727948 0.778943 0.982150
Si Si7 0.924683 0.292038 0.969952
Si Si8 0.020250 0.115493 0.657947
O O1 0.274848 0.519216 0.662341
O O2 0.403973 0.195420 0.794355
O O3 0.356368 0.224491 0.999231
O O4 0.500000 0.500000 0.000000
O O5 0.131999 0.753360 0.256057
O O6 0.075743 0.706294 0.463819
O O7 0.242756 0.929973 0.585481
O O8 0.718708 0.729772 0.612858
O O9 0.613258 0.372882 0.569848
O O10 0.827680 0.380077 0.923840
O O11 0.695061 0.578734 0.877857
O O12 0.607576 0.090082 0.395141
O O13 0.500000 0.000000 0.500000
O O14 0.705285 0.994417 0.803244
O O15 0.858371 0.781069 0.201218
O O16 0.000000 0.500000 0.000000
O O17 0.979698 0.075950 0.172399
O O18 0.000000 0.000000 0.500000
#
# Coordination Sequence:
#
# PCOD9058434 Si02
#       8
#     2   2   2   2   2   2   2   2
#     4  12  30  48  73 111 149 197 245 299 379 443
#     4  12  26  49  75 106 150 195 248 303 368 439
#     4  11  22  45  73 106 142 188 246 296 363 437
#     4  11  23  47  73 105 145 187 246 301 358 444
#     4  11  25  44  77 104 140 193 247 308 365 431
#     4  11  27  46  72 108 151 188 247 306 370 442
#     4  12  23  43  76 108 143 194 246 297 364 443
#     4  12  27  47  75 112 152 194 246 308 376 438
#
# _framework density 24.078572999999999
#
# number of rings (size 3 to 8) (size 9 to 14) (size 15 to 20)
#    0.000    0.500    3.750    3.375    8.750    3.000 
#    0.000    0.000    0.000    0.000    0.000    0.000 
#    0.000    0.000    0.000    0.000    0.000    0.000 
#
# Total GULP energy -89535.844787 kJ/mol
# GULP energy per Si atom -5595.990299 kJ/mol
# Density = 2.402377 g / cm^3
# Si number density = 24.078573 Si / 1000 Ang^3
#
#
#
# Elastic Constant Matrix: (Units=GPa)
#
#
# Indices 1 2 3 4 5 6 
#
# 1 106.9594 13.1799 45.0157 9.3463 9.6351 6.7090
# 2 13.1799 106.3651 46.3191 15.0027 6.0026 10.8043
# 3 45.0157 46.3191 104.0689 16.5830 -5.7062 -12.8356
# 4 9.3463 15.0027 16.5830 50.3351 -1.5411 4.4436
# 5 9.6351 6.0026 -5.7062 -1.5411 41.8179 7.8446
# 6 6.7090 10.8043 -12.8356 4.4436 7.8446 38.1371
#
#
#
# Elastic Compliance Matrix: (Units=1/GPa)
#
#
# Indices 1 2 3 4 5 6 
#
# 1 0.012727 0.002268 -0.007205 -0.000366 -0.003398 -0.004565
# 2 0.002268 0.013382 -0.007588 -0.001446 -0.002391 -0.006084
# 3 -0.007205 -0.007588 0.017886 -0.002992 0.003374 0.009092
# 4 -0.000366 -0.001446 -0.002992 0.021686 0.001307 -0.003329
# 5 -0.003398 -0.002391 0.003374 0.001307 0.026133 -0.003117
# 6 -0.004565 -0.006084 0.009092 -0.003329 -0.003117 0.032837
#
#
# Mechanical properties :
#
#
# Convention : Reuss Voigt Hill
#
# Bulk Modulus (GPa) = 52.78779 58.49141 55.63960
# Shear Modulus (GPa) = 32.04806 40.24993 36.14900
#
# Velocity S-wave (km/s) = 3.65222 4.09297 3.87886
# Velocity P-wave (km/s) = 6.30521 6.83236 6.57407
#
# Compressibility (1/GPa) = 0.01894377
#
# Stress axis : x y z
#
# Youngs Moduli (GPa) = 78.57370 74.72864 55.90872
#
# Poissons Ratio (x) = -0.16948 0.40285
# Poissons Ratio (y) = -0.17820 0.42424
# Poissons Ratio (z) = 0.56616 0.56704
#
# Static dielectric constant tensor:
#      x y z
#    x 1.902150 -0.018270 0.036310 
#    y -0.018270 1.936970 -0.013020 
#    z 0.036310 -0.013020 1.989680 
# 
# From -- ./inp_files/323611.got.cif
#   From: 2010.05.17/outbox.cif.g08.bks.cpg/sg2_162_cif.got.tgz:323611.got - 2010.06.03 11:33:40.
