data_PCOD9058410
_publ_section_title
;
Structure prediction by ZEFSAII (Michael W. Deem and Ramdas Pophale) SiO2 
 PCOD9058410
Probable space group: P -1
;
_chemical_formula_sum "Si O2"
_cell_formula_units_Z 14
_cell_length_a 9.430164
_cell_length_b 9.513703
_cell_length_c 19.831350
_cell_angle_alpha 55.839573
_cell_angle_beta 133.899700
_cell_angle_gamma 87.003319
_cell_volume 712.699222
_symmetry_space_group_name_H-M "P -1"
_symmetry_group_IT_number 2
_symmetry_cell_setting 'triclinic'
loop_
_space_group_symop_operation_xyz
x,y,z
-x,-y,-z
loop_
_atom_site_type_symbol
_atom_site_label
_atom_site_fract_x
_atom_site_fract_y
_atom_site_fract_z
Si Si1 0.702384 0.534929 0.050919
Si Si2 0.242935 0.658522 0.512044
Si Si3 0.673599 0.188630 0.871785
Si Si4 0.589158 0.967253 0.247952
Si Si5 0.285674 0.346641 0.503728
Si Si6 0.314816 0.984234 0.400682
Si Si7 0.365281 0.272805 0.872839
O O1 0.699422 0.614977 0.104082
O O2 0.021359 0.268231 0.206338
O O3 0.500000 0.500000 0.000000
O O4 0.580449 0.751538 0.900020
O O5 0.475089 0.459840 0.699106
O O6 0.326730 0.497959 0.516053
O O7 0.926186 0.786272 0.390436
O O8 0.226329 0.870120 0.441701
O O9 0.548865 0.089309 0.829829
O O10 0.600711 0.227376 0.917184
O O11 0.000000 0.000000 0.000000
O O12 0.600998 0.876044 0.349996
O O13 0.944943 0.538284 0.319902
O O14 0.482380 0.211800 0.539336
O O15 0.500000 0.000000 0.500000
O O16 0.500000 0.000000 0.000000
#
# Coordination Sequence:
#
# PCOD9058410 Si02
#       7
#     2   2   2   2   2   2   2
#     4  12  26  45  68 100 140 179 222 277 342 403
#     4  11  22  45  72  95 137 180 226 277 339 400
#     4  11  24  40  70 108 133 167 231 292 329 389
#     4  11  22  47  69  96 138 179 224 281 339 402
#     4  11  23  45  72  98 131 185 230 273 337 398
#     4  12  27  43  66 102 141 179 225 279 333 405
#     4  12  23  43  74  98 135 179 229 275 336 403
#
# _framework density 19.643630000000002
#
# number of rings (size 3 to 8) (size 9 to 14) (size 15 to 20)
#    0.000    0.571    7.143    1.286    4.000    2.857 
#    2.571    2.143    0.000    0.000    0.000    0.000 
#    0.000    0.000    0.000    0.000    0.000    0.000 
#
# Total GULP energy -78212.258091 kJ/mol
# GULP energy per Si atom -5586.589864 kJ/mol
# Density = 1.959892 g / cm^3
# Si number density = 19.643630 Si / 1000 Ang^3
#
#
#
# Elastic Constant Matrix: (Units=GPa)
#
#
# Indices 1 2 3 4 5 6 
#
# 1 62.8242 -2.7556 23.3785 1.3982 9.5560 3.6830
# 2 -2.7556 32.6069 -0.6378 0.7051 -8.0924 11.9752
# 3 23.3785 -0.6378 122.0444 -19.3918 -4.1163 10.6856
# 4 1.3982 0.7051 -19.3918 29.8077 0.1981 0.9353
# 5 9.5560 -8.0924 -4.1163 0.1981 42.3043 -9.9779
# 6 3.6830 11.9752 10.6856 0.9353 -9.9779 29.0325
#
#
#
# Elastic Compliance Matrix: (Units=1/GPa)
#
#
# Indices 1 2 3 4 5 6 
#
# 1 0.018470 0.001453 -0.003960 -0.003347 -0.004993 -0.003093
# 2 0.001453 0.037107 0.001395 0.000405 0.003402 -0.014847
# 3 -0.003960 0.001395 0.010449 0.007058 0.001270 -0.003710
# 4 -0.003347 0.000405 0.007058 0.038390 0.000541 -0.003391
# 5 -0.004993 0.003402 0.001270 0.000541 0.027469 0.008186
# 6 -0.003093 -0.014847 -0.003710 -0.003391 0.008186 0.045248
#
#
# Mechanical properties :
#
#
# Convention : Reuss Voigt Hill
#
# Bulk Modulus (GPa) = 15.67396 28.60508 22.13952
# Shear Modulus (GPa) = 24.92212 33.39494 29.15853
#
# Velocity S-wave (km/s) = 3.56576 4.12763 3.85694
# Velocity P-wave (km/s) = 4.99493 6.10819 5.57940
#
# Compressibility (1/GPa) = 0.06380010
#
# Stress axis : x y z
#
# Youngs Moduli (GPa) = 54.14163 26.94932 95.70601
#
# Poissons Ratio (x) = -0.03914 0.37898
# Poissons Ratio (y) = -0.07864 -0.13348
# Poissons Ratio (z) = 0.21439 -0.03758
#
# Static dielectric constant tensor:
#      x y z
#    x 1.610280 0.015480 -0.106670 
#    y 0.015480 1.677540 0.046800 
#    z -0.106670 0.046800 1.560030 
# 
# From -- ./inp_files/148063.got.cif
#   From: 2010.05.17/outbox.cif.g08.bks.cpg/sg2_75_cif.got.tgz:148063.got - 2010.06.03 11:33:40.
