data_PCOD9058955
_publ_section_title
;
Structure prediction by ZEFSAII (Michael W. Deem and Ramdas Pophale) SiO2 
 PCOD9058955
Probable space group: P -1
;
_chemical_formula_sum "Si O2"
_cell_formula_units_Z 12
_cell_length_a 13.858443
_cell_length_b 9.756494
_cell_length_c 13.573736
_cell_angle_alpha 55.093937
_cell_angle_beta 31.218009
_cell_angle_gamma 41.271008
_cell_volume 613.952106
_symmetry_space_group_name_H-M "P -1"
_symmetry_group_IT_number 2
_symmetry_cell_setting 'triclinic'
loop_
_space_group_symop_operation_xyz
x,y,z
-x,-y,-z
loop_
_atom_site_type_symbol
_atom_site_label
_atom_site_fract_x
_atom_site_fract_y
_atom_site_fract_z
Si Si1 0.691136 0.595681 0.642876
Si Si2 0.291960 0.744517 0.612114
Si Si3 0.924590 0.804583 0.407904
Si Si4 0.387709 0.222267 0.555790
Si Si5 0.843187 0.235284 0.991320
Si Si6 0.007681 0.337413 0.987623
O O1 0.747946 0.742782 0.584402
O O2 0.764588 0.592400 0.466783
O O3 0.856589 0.369205 0.643509
O O4 0.417908 0.689059 0.839146
O O5 0.500000 0.500000 0.500000
O O6 0.408872 0.766182 0.595053
O O7 0.208486 0.953732 0.538853
O O8 0.058848 0.774741 0.834808
O O9 0.029738 0.777537 0.216404
O O10 0.255655 0.226562 0.763956
O O11 0.500000 0.000000 0.500000
O O12 0.847144 0.380691 0.012115
O O13 0.000000 0.000000 0.000000
O O14 0.000000 0.500000 0.000000
#
# Coordination Sequence:
#
# PCOD9058955 Si02
#       6
#     2   2   2   2   2   2
#     4  11  23  39  65  99 135 165 212 278 330 383
#     4  12  24  40  66  93 128 174 220 270 319 387
#     4  11  24  40  63 102 133 168 214 273 333 385
#     4  12  22  40  67  96 125 168 225 269 316 388
#     4  12  22  39  70  97 123 170 224 272 315 392
#     4  12  24  38  64  96 128 165 219 272 324 375
#
# _framework density 19.545500000000001
#
# number of rings (size 3 to 8) (size 9 to 14) (size 15 to 20)
#    0.000    0.333    8.333    1.500    0.000    0.000 
#    0.000    0.833    0.000    2.000    0.000    0.000 
#    0.000    0.000    0.000    0.000    0.000    0.000 
#
# Total GULP energy -66813.783529 kJ/mol
# GULP energy per Si atom -5567.815294 kJ/mol
# Density = 1.950101 g / cm^3
# Si number density = 19.545500 Si / 1000 Ang^3
#
#
#
# Elastic Constant Matrix: (Units=GPa)
#
#
# Indices 1 2 3 4 5 6 
#
# 1 101.7569 71.4987 31.1420 2.7967 -17.9068 -4.1525
# 2 71.4987 151.5243 47.1157 -0.9677 1.3470 -3.9900
# 3 31.1420 47.1157 101.0127 3.9158 -13.0285 8.0260
# 4 2.7967 -0.9677 3.9158 29.7234 6.6850 0.4897
# 5 -17.9068 1.3470 -13.0285 6.6850 42.4113 -2.6337
# 6 -4.1525 -3.9900 8.0260 0.4897 -2.6337 54.1041
#
#
#
# Elastic Compliance Matrix: (Units=1/GPa)
#
#
# Indices 1 2 3 4 5 6 
#
# 1 0.017160 -0.008011 -0.000478 -0.003632 0.008001 0.001220
# 2 -0.008011 0.011640 -0.003798 0.002823 -0.005331 0.000522
# 3 -0.000478 -0.003798 0.012603 -0.002625 0.004082 -0.001964
# 4 -0.003632 0.002823 -0.002625 0.036267 -0.008171 -0.000407
# 5 0.008001 -0.005331 0.004082 -0.008171 0.029739 0.001137
# 6 0.001220 0.000522 -0.001964 -0.000407 0.001137 0.018965
#
#
# Mechanical properties :
#
#
# Convention : Reuss Voigt Hill
#
# Bulk Modulus (GPa) = 59.42111 72.64519 66.03315
# Shear Modulus (GPa) = 31.93719 38.88359 35.41039
#
# Velocity S-wave (km/s) = 4.04665 4.46509 4.26101
# Velocity P-wave (km/s) = 7.23196 7.98941 7.62010
#
# Compressibility (1/GPa) = 0.01682904
#
# Stress axis : x y z
#
# Youngs Moduli (GPa) = 58.27546 85.91288 79.34653
#
# Poissons Ratio (x) = 0.68822 0.03793
# Poissons Ratio (y) = 0.46683 0.30136
# Poissons Ratio (z) = 0.02786 0.32630
#
# Static dielectric constant tensor:
#      x y z
#    x 1.709080 0.008830 0.005060 
#    y 0.008830 1.758430 -0.011220 
#    z 0.005060 -0.011220 1.734420 
# 
# From -- ./inp_files/527207.got.cif
#   From: 2010.05.17/outbox.cif.g08.bks.cpg/sg2_264_cif.got.tgz:527207.got - 2010.06.03 11:33:40.
