data_PCOD9058623
_publ_section_title
;
Structure prediction by ZEFSAII (Michael W. Deem and Ramdas Pophale) SiO2 
 PCOD9058623
Probable space group: P -1
;
_chemical_formula_sum "Si O2"
_cell_formula_units_Z 14
_cell_length_a 18.875782
_cell_length_b 25.495148
_cell_length_c 8.951263
_cell_angle_alpha 151.329219
_cell_angle_beta 28.264851
_cell_angle_gamma 160.914136
_cell_volume 638.179075
_symmetry_space_group_name_H-M "P -1"
_symmetry_group_IT_number 2
_symmetry_cell_setting 'triclinic'
loop_
_space_group_symop_operation_xyz
x,y,z
-x,-y,-z
loop_
_atom_site_type_symbol
_atom_site_label
_atom_site_fract_x
_atom_site_fract_y
_atom_site_fract_z
Si Si1 0.569036 0.504370 0.547305
Si Si2 0.891714 0.520844 0.428070
Si Si3 0.727854 0.825831 0.553384
Si Si4 0.578236 0.157464 0.675471
Si Si5 0.402106 0.259375 0.766865
Si Si6 0.620506 0.975856 0.610674
Si Si7 0.978745 0.647807 0.276461
O O1 0.500000 0.500000 0.500000
O O2 0.359356 0.332633 0.597369
O O3 0.781911 0.537990 0.242950
O O4 0.676113 0.669927 0.842587
O O5 0.677948 0.421202 0.681651
O O6 0.857858 0.576757 0.484327
O O7 0.149583 0.681502 0.403583
O O8 0.876957 0.384417 0.072971
O O9 0.663191 0.784275 0.394827
O O10 0.575459 0.836359 0.940438
O O11 0.000000 0.000000 0.500000
O O12 0.529309 0.132348 0.527427
O O13 0.500000 0.000000 0.500000
O O14 0.327738 0.107268 0.606002
O O15 0.849275 0.158845 0.582046
O O16 0.500000 0.000000 0.000000
#
# Coordination Sequence:
#
# PCOD9058623 Si02
#       7
#     2   2   2   2   2   2   2
#     4  12  28  48  69 104 143 193 234 283 360 427
#     4  11  22  46  75 102 135 188 237 287 351 416
#     4  12  28  48  70 105 142 184 239 293 349 421
#     4  12  25  44  74 104 139 181 236 291 352 415
#     4  12  27  46  73 104 141 186 238 291 355 421
#     4  12  26  44  68 109 140 180 232 297 355 410
#     4  11  23  45  73  96 147 182 231 291 351 418
#
# _framework density 21.937415000000001
#
# number of rings (size 3 to 8) (size 9 to 14) (size 15 to 20)
#    0.000    0.286    5.714    3.000    6.000    2.286 
#    0.000    0.000    0.000    0.000    0.000    0.000 
#    0.000    0.000    0.000    0.000    0.000    0.000 
#
# Total GULP energy -78311.900836 kJ/mol
# GULP energy per Si atom -5593.707203 kJ/mol
# Density = 2.188748 g / cm^3
# Si number density = 21.937415 Si / 1000 Ang^3
#
#
#
# Elastic Constant Matrix: (Units=GPa)
#
#
# Indices 1 2 3 4 5 6 
#
# 1 183.8243 51.3125 34.2000 21.6440 3.7547 -7.2648
# 2 51.3125 134.0863 13.6874 22.5052 -23.7645 0.6881
# 3 34.2000 13.6874 90.3129 19.3303 2.1229 -6.6142
# 4 21.6440 22.5052 19.3303 34.3894 -1.5960 -17.9776
# 5 3.7547 -23.7645 2.1229 -1.5960 35.7392 11.5575
# 6 -7.2648 0.6881 -6.6142 -17.9776 11.5575 49.3190
#
#
#
# Elastic Compliance Matrix: (Units=1/GPa)
#
#
# Indices 1 2 3 4 5 6 
#
# 1 0.006756 -0.002737 -0.001778 -0.001027 -0.002819 0.001081
# 2 -0.002737 0.011666 0.000506 -0.008875 0.009549 -0.005971
# 3 -0.001778 0.000506 0.013129 -0.007158 -0.000232 -0.001063
# 4 -0.001027 -0.008875 -0.007158 0.049111 -0.009354 0.019106
# 5 -0.002819 0.009549 -0.000232 -0.009354 0.038424 -0.012994
# 6 0.001081 -0.005971 -0.001063 0.019106 -0.012994 0.030386
#
#
# Mechanical properties :
#
#
# Convention : Reuss Voigt Hill
#
# Bulk Modulus (GPa) = 42.49282 67.40258 54.94770
# Shear Modulus (GPa) = 30.24171 44.49109 37.36640
#
# Velocity S-wave (km/s) = 3.71690 4.50832 4.13161
# Velocity P-wave (km/s) = 6.15082 7.60865 6.91824
#
# Compressibility (1/GPa) = 0.02353339
#
# Stress axis : x y z
#
# Youngs Moduli (GPa) = 148.01638 85.71796 76.16661
#
# Poissons Ratio (x) = 0.23458 0.13545
# Poissons Ratio (y) = 0.40508 -0.03855
# Poissons Ratio (z) = 0.26322 -0.04338
#
# Static dielectric constant tensor:
#      x y z
#    x 1.782710 0.002970 0.006880 
#    y 0.002970 1.788330 -0.000960 
#    z 0.006880 -0.000960 1.841330 
# 
# From -- ./inp_files/156626.got.cif
#   From: 2010.05.17/outbox.cif.g08.bks.cpg/sg2_79_cif.got.tgz:156626.got - 2010.06.03 11:33:40.
