data_PCOD9058165
_publ_section_title
;
Structure prediction by ZEFSAII (Michael W. Deem and Ramdas Pophale) SiO2 
 PCOD9058165
Probable space group: P -1
;
_chemical_formula_sum "Si O2"
_cell_formula_units_Z 14
_cell_length_a 21.962571
_cell_length_b 12.256503
_cell_length_c 21.983188
_cell_angle_alpha 160.034739
_cell_angle_beta 18.983605
_cell_angle_gamma 150.129006
_cell_volume 644.692847
_symmetry_space_group_name_H-M "P -1"
_symmetry_group_IT_number 2
_symmetry_cell_setting 'triclinic'
loop_
_space_group_symop_operation_xyz
x,y,z
-x,-y,-z
loop_
_atom_site_type_symbol
_atom_site_label
_atom_site_fract_x
_atom_site_fract_y
_atom_site_fract_z
Si Si1 0.252153 0.283878 0.265580
Si Si2 0.541599 0.849338 0.121273
Si Si3 0.948216 0.813379 0.778715
Si Si4 0.451992 0.642078 0.362885
Si Si5 0.093785 0.750859 0.833995
Si Si6 0.811407 0.340543 0.934719
Si Si7 0.181159 0.273769 0.743797
O O1 0.345927 0.538122 0.349624
O O2 0.058464 0.457252 0.506080
O O3 0.410167 0.144219 0.992548
O O4 0.188207 0.020153 0.231556
O O5 0.371593 0.143904 0.456769
O O6 0.500000 0.500000 0.000000
O O7 0.742815 0.863178 0.969359
O O8 0.100034 0.953247 0.668439
O O9 0.920456 0.028242 0.977841
O O10 0.308332 0.628551 0.546737
O O11 0.647208 0.413487 0.077521
O O12 0.500000 0.000000 0.500000
O O13 0.989526 0.455079 0.794172
O O14 0.000000 0.000000 0.000000
O O15 0.775188 0.557365 0.145229
O O16 0.000000 0.500000 0.000000
#
# Coordination Sequence:
#
# PCOD9058165 Si02
#       7
#     2   2   2   2   2   2   2
#     4  12  26  45  69 108 149 187 239 306 356 423
#     4  12  27  43  75 105 140 196 237 291 368 424
#     4  11  24  46  68 103 145 185 244 292 354 434
#     4  12  24  46  72 101 143 186 244 295 358 435
#     4  11  22  44  72  97 130 196 235 285 367 417
#     4  11  26  44  69 104 143 182 242 303 352 426
#     4  11  25  48  74 104 143 190 238 296 357 428
#
# _framework density 21.715767
#
# number of rings (size 3 to 8) (size 9 to 14) (size 15 to 20)
#    0.000    0.571    4.286    3.429    4.000    5.143 
#    0.000    0.000    0.000    0.000    0.000    0.000 
#    0.000    0.000    0.000    0.000    0.000    0.000 
#
# Total GULP energy -78266.330405 kJ/mol
# GULP energy per Si atom -5590.452172 kJ/mol
# Density = 2.166634 g / cm^3
# Si number density = 21.715767 Si / 1000 Ang^3
#
#
#
# Elastic Constant Matrix: (Units=GPa)
#
#
# Indices 1 2 3 4 5 6 
#
# 1 87.2250 35.3237 31.3978 -4.0266 3.4049 8.1744
# 2 35.3237 135.0990 33.7387 -5.3818 11.2395 -9.5819
# 3 31.3978 33.7387 91.2576 -24.2562 0.9409 2.8552
# 4 -4.0266 -5.3818 -24.2562 41.6834 -15.1725 -4.0078
# 5 3.4049 11.2395 0.9409 -15.1725 30.8610 2.6117
# 6 8.1744 -9.5819 2.8552 -4.0078 2.6117 41.1008
#
#
#
# Elastic Compliance Matrix: (Units=1/GPa)
#
#
# Indices 1 2 3 4 5 6 
#
# 1 0.014493 -0.002919 -0.004406 -0.002326 -0.001257 -0.003404
# 2 -0.002919 0.009433 -0.003108 -0.002157 -0.004339 0.003061
# 3 -0.004406 -0.003108 0.016537 0.011181 0.006639 -0.000329
# 4 -0.002326 -0.002157 0.011181 0.036969 0.018742 0.001597
# 5 -0.001257 -0.004339 0.006639 0.018742 0.043316 -0.002148
# 6 -0.003404 0.003061 -0.000329 0.001597 -0.002148 0.026036
#
#
# Mechanical properties :
#
#
# Convention : Reuss Voigt Hill
#
# Bulk Modulus (GPa) = 51.02569 57.16688 54.09629
# Shear Modulus (GPa) = 28.70563 36.93713 32.82138
#
# Velocity S-wave (km/s) = 3.63971 4.12872 3.89190
# Velocity P-wave (km/s) = 6.41961 7.00789 6.72019
#
# Compressibility (1/GPa) = 0.01959797
#
# Stress axis : x y z
#
# Youngs Moduli (GPa) = 68.99729 106.00710 60.47160
#
# Poissons Ratio (x) = 0.30939 0.26645
# Poissons Ratio (y) = 0.20138 0.18794
# Poissons Ratio (z) = 0.30402 0.32946
#
# Static dielectric constant tensor:
#      x y z
#    x 1.770730 0.058900 -0.024530 
#    y 0.058900 1.655810 0.061540 
#    z -0.024530 0.061540 1.840840 
# 
# From -- ./inp_files/278996.got.cif
#   From: 2010.05.17/outbox.cif.g08.bks.cpg/sg2_140_cif.got.tgz:278996.got - 2010.06.03 11:33:40.
