data_PCOD9058253
_publ_section_title
;
Structure prediction by ZEFSAII (Michael W. Deem and Ramdas Pophale) SiO2 
 PCOD9058253
Probable space group: P -1
;
_chemical_formula_sum "Si O2"
_cell_formula_units_Z 16
_cell_length_a 8.327159
_cell_length_b 14.471601
_cell_length_c 18.415048
_cell_angle_alpha 158.699785
_cell_angle_beta 73.253614
_cell_angle_gamma 110.056056
_cell_volume 754.022973
_symmetry_space_group_name_H-M "P -1"
_symmetry_group_IT_number 2
_symmetry_cell_setting 'triclinic'
loop_
_space_group_symop_operation_xyz
x,y,z
-x,-y,-z
loop_
_atom_site_type_symbol
_atom_site_label
_atom_site_fract_x
_atom_site_fract_y
_atom_site_fract_z
Si Si1 0.915543 0.750287 0.876544
Si Si2 0.681648 0.670633 0.586445
Si Si3 0.798116 0.508497 0.301516
Si Si4 0.334317 0.154074 0.899559
Si Si5 0.942688 0.082799 0.646737
Si Si6 0.300588 0.735397 0.009191
Si Si7 0.895867 0.618045 0.021405
Si Si8 0.177800 0.547330 0.467504
O O1 0.852700 0.516386 0.658217
O O2 0.052426 0.654232 0.839420
O O3 0.758610 0.799413 0.979593
O O4 0.000000 0.000000 0.000000
O O5 0.500000 0.500000 0.500000
O O6 0.753301 0.519121 0.400554
O O7 0.753746 0.674941 0.661625
O O8 0.684806 0.958055 0.772531
O O9 0.851612 0.811223 0.495103
O O10 0.672647 0.379308 0.158342
O O11 0.224947 0.266579 0.933820
O O12 0.293016 0.837616 0.669552
O O13 0.537208 0.285901 0.976116
O O14 0.086081 0.217828 0.785794
O O15 0.165914 0.692611 0.185897
O O16 0.000000 0.000000 0.500000
O O17 0.097883 0.635473 0.983747
O O18 0.000000 0.500000 0.500000
#
# Coordination Sequence:
#
# PCOD9058253 Si02
#       8
#     2   2   2   2   2   2   2   2
#     4  12  23  39  65  97 133 178 228 274 330 399
#     4  12  25  42  59  99 140 181 227 269 333 403
#     4  12  24  43  71  95 137 184 222 282 343 397
#     4  12  25  43  65 101 132 178 227 271 340 399
#     4  11  22  44  77 100 125 178 228 276 351 399
#     4  12  25  43  69  98 139 177 224 279 333 403
#     4  11  24  46  73  96 135 173 223 287 336 404
#     4  12  22  39  62  89 132 179 226 271 326 397
#
# _framework density 21.219512000000002
#
# number of rings (size 3 to 8) (size 9 to 14) (size 15 to 20)
#    0.000    0.250    7.500    2.250    1.750    0.500 
#    0.000    3.125    0.000    0.000    0.000    0.000 
#    0.000    0.000    0.000    0.000    0.000    0.000 
#
# Total GULP energy -89165.790218 kJ/mol
# GULP energy per Si atom -5572.861889 kJ/mol
# Density = 2.117122 g / cm^3
# Si number density = 21.219512 Si / 1000 Ang^3
#
#
#
# Elastic Constant Matrix: (Units=GPa)
#
#
# Indices 1 2 3 4 5 6 
#
# 1 103.4063 42.6657 25.6980 8.1099 7.0302 -25.7239
# 2 42.6657 79.8877 16.0112 -8.4877 -2.5499 -20.4519
# 3 25.6980 16.0112 106.6101 -11.3837 9.8111 -8.6538
# 4 8.1099 -8.4877 -11.3837 41.0892 -14.3626 6.0260
# 5 7.0302 -2.5499 9.8111 -14.3626 21.9663 -2.4511
# 6 -25.7239 -20.4519 -8.6538 6.0260 -2.4511 33.8168
#
#
#
# Elastic Compliance Matrix: (Units=1/GPa)
#
#
# Indices 1 2 3 4 5 6 
#
# 1 0.017561 -0.008189 -0.002388 -0.011285 -0.011885 0.008944
# 2 -0.008189 0.019523 -0.000697 0.008777 0.011458 0.004667
# 3 -0.002388 -0.000697 0.010532 0.002406 -0.002464 -0.000150
# 4 -0.011285 0.008777 0.002406 0.040341 0.029069 -0.007742
# 5 -0.011885 0.011458 -0.002464 0.029069 0.070451 -0.002815
# 6 0.008944 0.004667 -0.000150 -0.007742 -0.002815 0.040334
#
#
# Mechanical properties :
#
#
# Convention : Reuss Voigt Hill
#
# Bulk Modulus (GPa) = 39.89064 50.96154 45.42609
# Shear Modulus (GPa) = 21.77267 33.07640 27.42453
#
# Velocity S-wave (km/s) = 3.20671 3.95241 3.59893
# Velocity P-wave (km/s) = 5.70530 6.70054 6.22285
#
# Compressibility (1/GPa) = 0.02506854
#
# Stress axis : x y z
#
# Youngs Moduli (GPa) = 56.94461 51.22053 94.95046
#
# Poissons Ratio (x) = 0.41943 0.22679
# Poissons Ratio (y) = 0.46630 0.06615
# Poissons Ratio (z) = 0.13601 0.03569
#
# Static dielectric constant tensor:
#      x y z
#    x 1.762270 0.026220 0.009180 
#    y 0.026220 1.829910 -0.048260 
#    z 0.009180 -0.048260 1.753870 
# 
# From -- ./inp_files/561238.got.cif
#   From: 2010.05.17/outbox.cif.g08.bks.cpg/sg2_281_cif.got.tgz:561238.got - 2010.06.03 11:33:40.
