data_PCOD9058481
_publ_section_title
;
Structure prediction by ZEFSAII (Michael W. Deem and Ramdas Pophale) SiO2 
 PCOD9058481
Probable space group: P -1
;
_chemical_formula_sum "Si O2"
_cell_formula_units_Z 16
_cell_length_a 11.505904
_cell_length_b 9.144826
_cell_length_c 9.075922
_cell_angle_alpha 72.345288
_cell_angle_beta 126.811585
_cell_angle_gamma 106.780338
_cell_volume 721.345675
_symmetry_space_group_name_H-M "P -1"
_symmetry_group_IT_number 2
_symmetry_cell_setting 'triclinic'
loop_
_space_group_symop_operation_xyz
x,y,z
-x,-y,-z
loop_
_atom_site_type_symbol
_atom_site_label
_atom_site_fract_x
_atom_site_fract_y
_atom_site_fract_z
Si Si1 0.642346 0.817765 0.193935
Si Si2 0.941060 0.445730 0.308815
Si Si3 0.670538 0.165821 0.168505
Si Si4 0.735000 0.677427 0.008826
Si Si5 0.852906 0.959522 0.811777
Si Si6 0.182557 0.286481 0.372376
Si Si7 0.387395 0.861689 0.523399
Si Si8 0.439298 0.411712 0.337520
O O1 0.702193 0.725719 0.133936
O O2 0.696804 0.749916 0.406553
O O3 0.707467 0.000602 0.187773
O O4 0.466950 0.803028 0.046124
O O5 0.805085 0.304076 0.244109
O O6 0.878291 0.592638 0.145936
O O7 0.000000 0.500000 0.500000
O O8 0.069029 0.382099 0.333716
O O9 0.611626 0.134918 0.300116
O O10 0.752313 0.837482 0.879085
O O11 0.599458 0.561156 0.870951
O O12 0.882768 0.874265 0.707170
O O13 0.769852 0.103779 0.664190
O O14 0.000000 0.000000 0.000000
O O15 0.271142 0.373321 0.279219
O O16 0.445662 0.709671 0.556746
O O17 0.500000 0.000000 0.500000
O O18 0.500000 0.500000 0.500000
#
# Coordination Sequence:
#
# PCOD9058481 Si02
#       8
#     2   2   2   2   2   2   2   2
#     4  11  22  45  76 104 140 169 254 301 356 420
#     4  12  29  45  70 103 155 192 232 288 372 449
#     4  11  26  42  76 112 136 189 233 306 367 421
#     4  11  25  46  67 106 141 187 235 295 358 420
#     4  11  26  43  73 101 143 186 237 295 350 423
#     4  11  25  46  67 106 141 187 235 295 358 420
#     4  12  21  48  74 103 136 179 248 290 355 411
#     4  11  26  43  73 101 143 186 237 295 350 423
#
# _framework density 22.180766999999999
#
# number of rings (size 3 to 8) (size 9 to 14) (size 15 to 20)
#    0.000    0.750    6.250    0.000    7.000    5.000 
#    0.000    0.000    0.000    0.000    0.000    0.000 
#    0.000    0.000    0.000    0.000    0.000    0.000 
#
# Total GULP energy -89260.956117 kJ/mol
# GULP energy per Si atom -5578.809757 kJ/mol
# Density = 2.213028 g / cm^3
# Si number density = 22.180767 Si / 1000 Ang^3
#
#
#
# Elastic Constant Matrix: (Units=GPa)
#
#
# Indices 1 2 3 4 5 6 
#
# 1 69.9308 34.5831 19.3046 5.0159 7.3611 -28.2876
# 2 34.5831 90.7698 52.6753 14.9124 8.1517 -31.5453
# 3 19.3046 52.6753 155.2776 15.4342 11.1323 -31.5752
# 4 5.0159 14.9124 15.4342 51.5159 -7.6405 5.3117
# 5 7.3611 8.1517 11.1323 -7.6405 37.5894 -3.2603
# 6 -28.2876 -31.5453 -31.5752 5.3117 -3.2603 44.0961
#
#
#
# Elastic Compliance Matrix: (Units=1/GPa)
#
#
# Indices 1 2 3 4 5 6 
#
# 1 0.021345 -0.004109 0.001771 -0.003178 -0.003405 0.012153
# 2 -0.004109 0.018665 -0.003324 -0.005294 -0.002573 0.008784
# 3 0.001771 -0.003324 0.008860 -0.002756 -0.002354 0.005261
# 4 -0.003178 -0.005294 -0.002756 0.024112 0.006602 -0.010216
# 5 -0.003405 -0.002573 -0.002354 0.006602 0.029492 -0.004325
# 6 0.012153 0.008784 0.005261 -0.010216 -0.004325 0.041435
#
#
# Mechanical properties :
#
#
# Convention : Reuss Voigt Hill
#
# Bulk Modulus (GPa) = 26.63359 58.78936 42.71148
# Shear Modulus (GPa) = 29.80668 40.60130 35.20399
#
# Velocity S-wave (km/s) = 3.66977 4.28304 3.98822
# Velocity P-wave (km/s) = 5.47630 7.14293 6.36441
#
# Compressibility (1/GPa) = 0.03754657
#
# Stress axis : x y z
#
# Youngs Moduli (GPa) = 46.84881 53.57648 112.86787
#
# Poissons Ratio (x) = 0.22015 -0.19994
# Poissons Ratio (y) = 0.19251 0.37518
# Poissons Ratio (z) = -0.08299 0.17809
#
# Static dielectric constant tensor:
#      x y z
#    x 1.801880 0.068220 0.006570 
#    y 0.068220 1.907900 0.017830 
#    z 0.006570 0.017830 1.827690 
# 
# From -- ./inp_files/243702.got.cif
#   From: 2010.05.17/outbox.cif.g08.bks.cpg/sg2_122_cif.got.tgz:243702.got - 2010.06.03 11:33:40.
