data_PCOD9058752
_publ_section_title
;
Structure prediction by ZEFSAII (Michael W. Deem and Ramdas Pophale) SiO2 
 PCOD9058752
Probable space group: P -1
;
_chemical_formula_sum "Si O2"
_cell_formula_units_Z 16
_cell_length_a 12.741726
_cell_length_b 18.629694
_cell_length_c 9.641301
_cell_angle_alpha 127.019693
_cell_angle_beta 38.814688
_cell_angle_gamma 148.952393
_cell_volume 724.516954
_symmetry_space_group_name_H-M "P -1"
_symmetry_group_IT_number 2
_symmetry_cell_setting 'triclinic'
loop_
_space_group_symop_operation_xyz
x,y,z
-x,-y,-z
loop_
_atom_site_type_symbol
_atom_site_label
_atom_site_fract_x
_atom_site_fract_y
_atom_site_fract_z
Si Si1 0.358771 0.865569 0.084826
Si Si2 0.410319 0.683885 0.505829
Si Si3 0.736568 0.570347 0.732797
Si Si4 0.666507 0.141473 0.577237
Si Si5 0.388635 0.334767 0.218827
Si Si6 0.691964 0.847491 0.132908
Si Si7 0.023796 0.421932 0.985607
Si Si8 0.275996 0.158390 0.363981
O O1 0.321500 0.880528 0.298978
O O2 0.535340 0.846949 0.879666
O O3 0.079582 0.711611 0.135957
O O4 0.500000 0.000000 0.000000
O O5 0.284240 0.543660 0.404849
O O6 0.587336 0.802207 0.344212
O O7 0.589907 0.740541 0.522042
O O8 0.174550 0.646673 0.761626
O O9 0.685270 0.596282 0.667881
O O10 0.039968 0.723019 0.631408
O O11 0.500000 0.500000 0.000000
O O12 0.494365 0.160475 0.765800
O O13 0.500000 0.000000 0.500000
O O14 0.234120 0.213841 0.351956
O O15 0.348577 0.263083 0.033591
O O16 0.684256 0.458485 0.116604
O O17 0.000000 0.000000 0.000000
O O18 0.000000 0.500000 0.000000
O O19 0.000000 0.000000 0.500000
#
# Coordination Sequence:
#
# PCOD9058752 Si02
#       8
#     2   2   2   2   2   2   2   2
#     4  11  26  46  71 105 142 181 238 304 356 423
#     4  11  25  43  73 100 139 184 238 294 356 423
#     4  12  28  46  68 110 146 183 244 298 354 425
#     4  12  29  47  73 103 145 190 237 293 364 430
#     4  12  24  45  74  97 143 191 233 297 355 426
#     4  12  25  47  73 101 143 189 236 295 360 430
#     4  11  22  48  72 101 139 183 240 292 357 427
#     4  11  25  44  70 103 138 187 239 289 362 427
#
# _framework density 22.083679
#
# number of rings (size 3 to 8) (size 9 to 14) (size 15 to 20)
#    0.000    0.500    5.000    3.000    7.000    2.500 
#    0.000    0.000    0.000    0.000    0.000    0.000 
#    0.000    0.000    0.000    0.000    0.000    0.000 
#
# Total GULP energy -89508.757727 kJ/mol
# GULP energy per Si atom -5594.297358 kJ/mol
# Density = 2.203342 g / cm^3
# Si number density = 22.083679 Si / 1000 Ang^3
#
#
#
# Elastic Constant Matrix: (Units=GPa)
#
#
# Indices 1 2 3 4 5 6 
#
# 1 81.1363 27.9230 21.9259 -23.1397 13.1494 -6.7164
# 2 27.9230 162.7548 58.8157 -20.2557 10.9662 17.2671
# 3 21.9259 58.8157 101.5314 -22.3429 32.2718 7.4879
# 4 -23.1397 -20.2557 -22.3429 47.9127 3.9293 3.3106
# 5 13.1494 10.9662 32.2718 3.9293 39.1141 -9.6711
# 6 -6.7164 17.2671 7.4879 3.3106 -9.6711 44.2287
#
#
#
# Elastic Compliance Matrix: (Units=1/GPa)
#
#
# Indices 1 2 3 4 5 6 
#
# 1 0.016059 -0.001927 0.001506 0.008134 -0.006705 0.000861
# 2 -0.001927 0.008366 -0.004571 0.000535 0.001397 -0.002520
# 3 0.001506 -0.004571 0.021199 0.010732 -0.019432 -0.006628
# 4 0.008134 0.000535 0.010732 0.031864 -0.016624 -0.006810
# 5 -0.006705 0.001397 -0.019432 -0.016624 0.048487 0.013573
# 6 0.000861 -0.002520 -0.006628 -0.006810 0.013573 0.028324
#
#
# Mechanical properties :
#
#
# Convention : Reuss Voigt Hill
#
# Bulk Modulus (GPa) = 28.05812 62.52797 45.29304
# Shear Modulus (GPa) = 28.38287 42.03495 35.20891
#
# Velocity S-wave (km/s) = 3.58892 4.36758 3.99725
# Velocity P-wave (km/s) = 5.46870 7.33552 6.46980
#
# Compressibility (1/GPa) = 0.03564031
#
# Stress axis : x y z
#
# Youngs Moduli (GPa) = 62.27167 119.52735 47.17240
#
# Poissons Ratio (x) = 0.23027 -0.07103
# Poissons Ratio (y) = 0.11997 0.21562
# Poissons Ratio (z) = -0.09376 0.54635
#
# Static dielectric constant tensor:
#      x y z
#    x 1.903920 -0.145500 -0.159760 
#    y -0.145500 1.928870 0.177330 
#    z -0.159760 0.177330 2.044110 
# 
# From -- ./inp_files/279695.got.cif
#   From: 2010.05.17/outbox.cif.g08.bks.cpg/sg2_140_cif.got.tgz:279695.got - 2010.06.03 11:33:40.
