data_PCOD9058320
_publ_section_title
;
Structure prediction by ZEFSAII (Michael W. Deem and Ramdas Pophale) SiO2 
 PCOD9058320
Probable space group: P -1
;
_chemical_formula_sum "Si O2"
_cell_formula_units_Z 16
_cell_length_a 10.785446
_cell_length_b 9.724866
_cell_length_c 13.513302
_cell_angle_alpha 91.338301
_cell_angle_beta 146.720168
_cell_angle_gamma 100.084878
_cell_volume 726.956196
_symmetry_space_group_name_H-M "P -1"
_symmetry_group_IT_number 2
_symmetry_cell_setting 'triclinic'
loop_
_space_group_symop_operation_xyz
x,y,z
-x,-y,-z
loop_
_atom_site_type_symbol
_atom_site_label
_atom_site_fract_x
_atom_site_fract_y
_atom_site_fract_z
Si Si1 0.412270 0.886354 0.189696
Si Si2 0.965683 0.449485 0.774544
Si Si3 0.215499 0.316576 0.411002
Si Si4 0.588670 0.166374 0.597752
Si Si5 0.539947 0.416577 0.818167
Si Si6 0.239979 0.959751 0.879552
Si Si7 0.949334 0.089372 0.560127
Si Si8 0.869899 0.567242 0.334802
O O1 0.293153 0.826464 0.214069
O O2 0.461608 0.749195 0.168307
O O3 0.667633 0.008188 0.391022
O O4 0.281409 0.953289 0.024212
O O5 0.086558 0.476216 0.747149
O O6 0.835475 0.569448 0.695301
O O7 0.778670 0.285436 0.657503
O O8 0.181031 0.483295 0.997209
O O9 0.362043 0.221224 0.460413
O O10 0.384331 0.404100 0.614992
O O11 0.961502 0.201071 0.280561
O O12 0.500000 0.000000 0.500000
O O13 0.404575 0.469918 0.814672
O O14 0.116069 0.071866 0.760386
O O15 0.500000 0.000000 0.000000
O O16 0.012131 0.256761 0.577787
O O17 0.000000 0.000000 0.500000
O O18 0.000000 0.500000 0.500000
#
# Coordination Sequence:
#
# PCOD9058320 Si02
#       8
#     2   2   2   2   2   2   2   2
#     4  11  23  42  75 102 138 186 238 295 347 424
#     4  12  26  45  73 101 142 195 235 290 362 426
#     4  11  24  46  74 103 141 189 236 298 354 425
#     4  11  26  52  72 100 145 187 246 302 351 420
#     4  11  22  45  69 105 144 181 234 290 358 427
#     4  12  22  39  73 113 138 179 237 286 359 428
#     4  12  22  42  69 103 143 186 231 285 354 418
#     4  12  25  44  69 107 151 182 230 300 359 423
#
# _framework density 22.009578999999999
#
# number of rings (size 3 to 8) (size 9 to 14) (size 15 to 20)
#    0.000    0.500    7.500    1.500    0.000    2.000 
#    4.500    0.625    0.000    0.000    0.000    0.000 
#    0.000    0.000    0.000    0.000    0.000    0.000 
#
# Total GULP energy -89497.743857 kJ/mol
# GULP energy per Si atom -5593.608991 kJ/mol
# Density = 2.195948 g / cm^3
# Si number density = 22.009579 Si / 1000 Ang^3
#
#
#
# Elastic Constant Matrix: (Units=GPa)
#
#
# Indices 1 2 3 4 5 6 
#
# 1 73.5873 22.9071 35.2778 -12.3778 -4.3229 -2.0857
# 2 22.9071 130.5409 48.8469 -11.8712 8.6735 6.2455
# 3 35.2778 48.8469 136.5087 -11.5784 8.8915 10.0431
# 4 -12.3778 -11.8712 -11.5784 35.2200 16.4970 -4.4329
# 5 -4.3229 8.6735 8.8915 16.4970 23.9645 3.5044
# 6 -2.0857 6.2455 10.0431 -4.4329 3.5044 32.7727
#
#
#
# Elastic Compliance Matrix: (Units=1/GPa)
#
#
# Indices 1 2 3 4 5 6 
#
# 1 0.016666 -0.001454 -0.003842 0.003416 0.002206 0.002741
# 2 -0.001454 0.009625 -0.002238 0.004997 -0.006373 0.000116
# 3 -0.003842 -0.002238 0.009942 0.003687 -0.005856 -0.001740
# 4 0.003416 0.004997 0.003687 0.052450 -0.040058 0.009513
# 5 0.002206 -0.006373 -0.005856 -0.040058 0.075697 -0.010363
# 6 0.002741 0.000116 -0.001740 0.009513 -0.010363 0.033594
#
#
# Mechanical properties :
#
#
# Convention : Reuss Voigt Hill
#
# Bulk Modulus (GPa) = 47.25022 61.63339 54.44180
# Shear Modulus (GPa) = 22.71733 33.96512 28.34122
#
# Velocity S-wave (km/s) = 3.21620 3.93262 3.59231
# Velocity P-wave (km/s) = 5.94194 6.97742 6.48039
#
# Compressibility (1/GPa) = 0.02116392
#
# Stress axis : x y z
#
# Youngs Moduli (GPa) = 60.00351 103.89278 100.58818
#
# Poissons Ratio (x) = 0.15104 0.38649
# Poissons Ratio (y) = 0.08723 0.22513
# Poissons Ratio (z) = 0.23055 0.23253
#
# Static dielectric constant tensor:
#      x y z
#    x 1.868180 0.001240 0.003590 
#    y 0.001240 1.788440 -0.013960 
#    z 0.003590 -0.013960 1.815800 
# 
# From -- ./inp_files/515710.got.cif
#   From: 2010.05.17/outbox.cif.g08.bks.cpg/sg2_258_cif.got.tgz:515710.got - 2010.06.03 11:33:40.
