data_PCOD9058607
_publ_section_title
;
Structure prediction by ZEFSAII (Michael W. Deem and Ramdas Pophale) SiO2 
 PCOD9058607
Probable space group: P -1
;
_chemical_formula_sum "Si O2"
_cell_formula_units_Z 16
_cell_length_a 8.738471
_cell_length_b 23.995001
_cell_length_c 9.302758
_cell_angle_alpha 29.698389
_cell_angle_beta 118.522437
_cell_angle_gamma 122.594838
_cell_volume 813.973429
_symmetry_space_group_name_H-M "P -1"
_symmetry_group_IT_number 2
_symmetry_cell_setting 'triclinic'
loop_
_space_group_symop_operation_xyz
x,y,z
-x,-y,-z
loop_
_atom_site_type_symbol
_atom_site_label
_atom_site_fract_x
_atom_site_fract_y
_atom_site_fract_z
Si Si1 0.257159 0.725899 0.306873
Si Si2 0.784221 0.268658 0.059525
Si Si3 0.568699 0.037595 0.605163
Si Si4 0.438632 0.563669 0.461137
Si Si5 0.317891 0.978964 0.872148
Si Si6 0.814969 0.918501 0.157905
Si Si7 0.835456 0.533700 0.190127
Si Si8 0.364447 0.336796 0.393914
O O1 0.132118 0.590672 0.564295
O O2 0.453637 0.702301 0.477001
O O3 0.238790 0.762596 0.050630
O O4 0.236273 0.837537 0.135961
O O5 0.729624 0.157498 0.388243
O O6 0.628871 0.332739 0.868902
O O7 0.979598 0.362046 0.957237
O O8 0.394804 0.038672 0.621739
O O9 0.500000 0.000000 0.500000
O O10 0.656218 0.947049 0.927066
O O11 0.500000 0.500000 0.500000
O O12 0.267828 0.490767 0.646843
O O13 0.594879 0.614817 0.534819
O O14 0.202257 0.044685 0.766808
O O15 0.500000 0.000000 0.000000
O O16 0.794104 0.782964 0.428283
O O17 0.000000 0.000000 0.000000
O O18 0.694173 0.570276 0.939722
#
# Coordination Sequence:
#
# PCOD9058607 Si02
#       8
#     2   2   2   2   2   2   2   2
#     4  10  17  37  62  85 114 154 200 235 290 360
#     4  10  20  37  61  87 120 152 189 248 299 343
#     4  11  19  38  63  86 115 155 201 237 287 358
#     4  10  21  39  57  86 116 156 198 235 291 358
#     4  10  20  37  62  86 111 161 202 237 290 355
#     4  11  23  40  58  87 123 153 197 248 301 337
#     4  10  21  37  63  86 118 155 190 243 302 342
#     4  10  19  39  60  83 115 159 193 241 288 351
#
# _framework density 19.656661
#
# number of rings (size 3 to 8) (size 9 to 14) (size 15 to 20)
#    0.000    2.000    3.750    4.500    0.000    1.000 
#    9.000    1.250    0.000    0.000    0.000    0.000 
#    0.000    0.000    0.000    0.000    0.000    0.000 
#
# Total GULP energy -89124.756015 kJ/mol
# GULP energy per Si atom -5570.297251 kJ/mol
# Density = 1.961192 g / cm^3
# Si number density = 19.656661 Si / 1000 Ang^3
#
#
#
# Elastic Constant Matrix: (Units=GPa)
#
#
# Indices 1 2 3 4 5 6 
#
# 1 49.3678 45.2847 8.0776 -5.0949 -21.3263 -8.6117
# 2 45.2847 112.0724 31.0145 -17.0954 -7.1987 -13.2508
# 3 8.0776 31.0145 103.7213 -11.0795 -13.6492 -2.7206
# 4 -5.0949 -17.0954 -11.0795 35.7049 12.4093 -4.2147
# 5 -21.3263 -7.1987 -13.6492 12.4093 24.8873 -2.6756
# 6 -8.6117 -13.2508 -2.7206 -4.2147 -2.6756 33.1039
#
#
#
# Elastic Compliance Matrix: (Units=1/GPa)
#
#
# Indices 1 2 3 4 5 6 
#
# 1 0.092037 -0.038214 0.013382 -0.031531 0.092294 0.013191
# 2 -0.038214 0.026852 -0.008210 0.018203 -0.038631 -0.000672
# 3 0.013382 -0.008210 0.013117 -0.004149 0.018597 0.002248
# 4 -0.031531 0.018203 -0.004149 0.047616 -0.047670 0.000952
# 5 0.092294 -0.038631 0.018597 -0.047670 0.143743 0.015623
# 6 0.013191 -0.000672 0.002248 0.000952 0.015623 0.034939
#
#
# Mechanical properties :
#
#
# Convention : Reuss Voigt Hill
#
# Bulk Modulus (GPa) = 15.16947 48.21280 31.69114
# Shear Modulus (GPa) = 11.20169 30.79153 20.99661
#
# Velocity S-wave (km/s) = 2.38978 3.96216 3.27183
# Velocity P-wave (km/s) = 3.91774 6.74628 5.51638
#
# Compressibility (1/GPa) = 0.06592187
#
# Stress axis : x y z
#
# Youngs Moduli (GPa) = 10.86521 37.24158 76.23707
#
# Poissons Ratio (x) = 1.42316 -1.02023
# Poissons Ratio (y) = 0.41521 0.62590
# Poissons Ratio (z) = -0.14540 0.30575
#
# Static dielectric constant tensor:
#      x y z
#    x 1.753700 0.004950 0.028460 
#    y 0.004950 1.743500 -0.039010 
#    z 0.028460 -0.039010 1.788480 
# 
# From -- ./inp_files/225192.got.cif
#   From: 2010.05.17/outbox.cif.g08.bks.cpg/sg2_113_cif.got.tgz:225192.got - 2010.06.03 11:33:40.
