data_PCOD9058123
_publ_section_title
;
Structure prediction by ZEFSAII (Michael W. Deem and Ramdas Pophale) SiO2 
 PCOD9058123
Probable space group: P -1
;
_chemical_formula_sum "Si O2"
_cell_formula_units_Z 15
_cell_length_a 12.498478
_cell_length_b 8.911607
_cell_length_c 16.515728
_cell_angle_alpha 83.664974
_cell_angle_beta 25.512282
_cell_angle_gamma 68.990291
_cell_volume 627.056654
_symmetry_space_group_name_H-M "P -1"
_symmetry_group_IT_number 2
_symmetry_cell_setting 'triclinic'
loop_
_space_group_symop_operation_xyz
x,y,z
-x,-y,-z
loop_
_atom_site_type_symbol
_atom_site_label
_atom_site_fract_x
_atom_site_fract_y
_atom_site_fract_z
Si Si1 0.968668 0.721191 0.155641
Si Si2 0.595341 0.583323 0.361115
Si Si3 0.581086 0.315846 0.700709
Si Si4 0.846719 0.295021 0.786001
Si Si5 0.192125 0.179752 0.982000
Si Si6 0.893899 0.711565 0.556772
Si Si7 0.668773 0.027632 0.954170
Si Si8 0.000000 0.000000 0.000000
O O1 0.007626 0.720234 0.225613
O O2 0.680230 0.716861 0.330209
O O3 0.287519 0.520956 0.921403
O O4 0.952719 0.886835 0.111748
O O5 0.500000 0.500000 0.500000
O O6 0.389901 0.665380 0.415831
O O7 0.926728 0.390213 0.118113
O O8 0.499612 0.169814 0.776312
O O9 0.871160 0.266397 0.556387
O O10 0.074254 0.260991 0.560789
O O11 0.500000 0.500000 0.000000
O O12 0.806647 0.129960 0.819498
O O13 0.176532 0.046664 0.940513
O O14 0.112850 0.157745 0.128885
O O15 0.000000 0.500000 0.500000
O O16 0.576747 0.835916 0.816081
O O17 0.500000 0.000000 0.000000
#
# Coordination Sequence:
#
# PCOD9058123 Si02
#       8
#     2   2   2   2   2   2   2   1
#     4  11  22  44  73 100 139 188 232 303 356 436
#     4  11  25  42  69 103 134 183 240 291 358 435
#     4  11  22  44  71  97 137 186 240 285 359 432
#     4  12  24  45  71 106 142 189 243 293 363 434
#     4  11  24  44  70  97 137 183 227 296 360 421
#     4  12  27  45  75 107 141 194 247 293 358 445
#     4  12  28  46  72 105 144 191 234 304 363 419
#     4  12  20  44  70  98 132 180 242 276 366 418
#
# _framework density 23.921284
#
# number of rings (size 3 to 8) (size 9 to 14) (size 15 to 20)
#    0.000    0.533    6.667    1.600    5.600    2.133 
#    0.000    0.667    0.000    0.000    0.000    0.000 
#    0.000    0.000    0.000    0.000    0.000    0.000 
#
# Total GULP energy -83742.001247 kJ/mol
# GULP energy per Si atom -5582.800083 kJ/mol
# Density = 2.386684 g / cm^3
# Si number density = 23.921284 Si / 1000 Ang^3
#
#
#
# Elastic Constant Matrix: (Units=GPa)
#
#
# Indices 1 2 3 4 5 6 
#
# 1 204.2649 59.4753 22.4816 -22.2413 30.7732 5.6387
# 2 59.4753 131.4364 43.2041 -47.1144 14.4986 2.8821
# 3 22.4816 43.2041 84.3491 -21.7453 31.9939 3.0666
# 4 -22.2413 -47.1144 -21.7453 50.1748 -8.8618 -2.9586
# 5 30.7732 14.4986 31.9939 -8.8618 38.6827 -16.8590
# 6 5.6387 2.8821 3.0666 -2.9586 -16.8590 47.3688
#
#
#
# Elastic Compliance Matrix: (Units=1/GPa)
#
#
# Indices 1 2 3 4 5 6 
#
# 1 0.006862 -0.003244 0.003157 -0.000397 -0.008659 -0.003930
# 2 -0.003244 0.014044 -0.005926 0.010345 0.005720 0.002597
# 3 0.003157 -0.005926 0.023929 0.001343 -0.024169 -0.010083
# 4 -0.000397 0.010345 0.001343 0.030810 0.003472 0.002491
# 5 -0.008659 0.005720 -0.024169 0.003472 0.062085 0.024561
# 6 -0.003930 0.002597 -0.010083 0.002491 0.024561 0.030971
#
#
# Mechanical properties :
#
#
# Convention : Reuss Voigt Hill
#
# Bulk Modulus (GPa) = 30.47790 74.48583 52.48187
# Shear Modulus (GPa) = 26.08725 46.90457 36.49591
#
# Velocity S-wave (km/s) = 3.30592 4.43288 3.91022
# Velocity P-wave (km/s) = 5.22884 7.57668 6.50949
#
# Compressibility (1/GPa) = 0.03281066
#
# Stress axis : x y z
#
# Youngs Moduli (GPa) = 145.72129 71.20256 41.78965
#
# Poissons Ratio (x) = 0.23099 -0.13195
# Poissons Ratio (y) = 0.47273 0.24765
# Poissons Ratio (z) = -0.46011 0.42196
#
# Static dielectric constant tensor:
#      x y z
#    x 1.943190 -0.135520 -0.088810 
#    y -0.135520 2.040260 0.167950 
#    z -0.088810 0.167950 2.072050 
# 
# From -- ./inp_files/514989.got.cif
#   From: 2010.05.17/outbox.cif.g08.bks.cpg/sg2_258_cif.got.tgz:514989.got - 2010.06.03 11:33:40.
