data_PCOD9058537
_publ_section_title
;
Structure prediction by ZEFSAII (Michael W. Deem and Ramdas Pophale) SiO2 
 PCOD9058537
Probable space group: P -1
;
_chemical_formula_sum "Si O2"
_cell_formula_units_Z 15
_cell_length_a 14.980320
_cell_length_b 9.284039
_cell_length_c 8.181314
_cell_angle_alpha 46.593593
_cell_angle_beta 129.298793
_cell_angle_gamma 102.187550
_cell_volume 586.671089
_symmetry_space_group_name_H-M "P -1"
_symmetry_group_IT_number 2
_symmetry_cell_setting 'triclinic'
loop_
_space_group_symop_operation_xyz
x,y,z
-x,-y,-z
loop_
_atom_site_type_symbol
_atom_site_label
_atom_site_fract_x
_atom_site_fract_y
_atom_site_fract_z
Si Si1 0.142639 0.388841 0.311563
Si Si2 0.699377 0.447880 0.438079
Si Si3 0.765671 0.494408 0.132621
Si Si4 0.494644 0.919444 0.742039
Si Si5 0.501165 0.648169 0.537076
Si Si6 0.000000 0.000000 0.000000
Si Si7 0.968543 0.702419 0.435759
Si Si8 0.777478 0.898462 0.680488
O O1 0.212528 0.542892 0.319459
O O2 0.216363 0.219393 0.392684
O O3 0.129414 0.291874 0.547420
O O4 0.000000 0.500000 0.000000
O O5 0.783199 0.381294 0.420898
O O6 0.613050 0.328830 0.491731
O O7 0.602355 0.690276 0.088324
O O8 0.890579 0.356793 0.283881
O O9 0.633559 0.526990 0.877960
O O10 0.766147 0.733945 0.934766
O O11 0.505620 0.116197 0.703552
O O12 0.359440 0.909513 0.621257
O O13 0.500000 0.000000 0.500000
O O14 0.500000 0.500000 0.500000
O O15 0.064543 0.073941 0.865930
O O16 0.095371 0.066260 0.181232
O O17 0.000000 0.500000 0.500000
#
# Coordination Sequence:
#
# PCOD9058537 Si02
#       8
#     2   2   2   2   2   1   2   2
#     4  12  25  46  74 103 147 188 234 304 368 418
#     4  12  24  45  77 102 136 198 239 293 365 431
#     4  11  22  46  70 102 140 185 242 293 356 432
#     4  11  25  47  73 103 147 186 237 301 351 430
#     4  11  26  44  70 107 143 183 241 298 360 433
#     4  12  26  44  74 102 136 194 246 288 360 438
#     4  12  24  47  72 100 139 189 238 298 359 426
#     4  11  24  45  69 105 143 182 240 295 358 424
#
# _framework density 25.567988
#
# number of rings (size 3 to 8) (size 9 to 14) (size 15 to 20)
#    0.000    0.533    6.667    2.000    1.867    2.667 
#    0.000    0.000    0.000    0.000    0.000    0.000 
#    0.000    0.000    0.000    0.000    0.000    0.000 
#
# Total GULP energy -83713.208840 kJ/mol
# GULP energy per Si atom -5580.880589 kJ/mol
# Density = 2.550979 g / cm^3
# Si number density = 25.567988 Si / 1000 Ang^3
#
#
#
# Elastic Constant Matrix: (Units=GPa)
#
#
# Indices 1 2 3 4 5 6 
#
# 1 140.3365 41.7087 -8.7722 12.6849 -1.3978 18.0317
# 2 41.7087 132.8013 2.9139 26.5803 -9.7230 16.6534
# 3 -8.7722 2.9139 32.8099 11.2634 -4.6829 7.0113
# 4 12.6849 26.5803 11.2634 43.5655 14.0377 5.7077
# 5 -1.3978 -9.7230 -4.6829 14.0377 41.0517 -1.4399
# 6 18.0317 16.6534 7.0113 5.7077 -1.4399 56.1827
#
#
#
# Elastic Compliance Matrix: (Units=1/GPa)
#
#
# Indices 1 2 3 4 5 6 
#
# 1 0.008458 -0.001911 0.003868 -0.002302 0.000980 -0.002372
# 2 -0.001911 0.010236 0.002367 -0.007745 0.005215 -0.001795
# 3 0.003868 0.002367 0.039085 -0.015310 0.010211 -0.005004
# 4 -0.002302 -0.007745 -0.015310 0.037520 -0.016464 0.000712
# 5 0.000980 0.005215 0.010211 -0.016464 0.032401 -0.000632
# 6 -0.002372 -0.001795 -0.005004 0.000712 -0.000632 0.019628
#
#
# Mechanical properties :
#
#
# Convention : Reuss Voigt Hill
#
# Bulk Modulus (GPa) = 15.05436 41.96095 28.50765
# Shear Modulus (GPa) = 31.09015 46.16648 38.62831
#
# Velocity S-wave (km/s) = 3.49087 4.25389 3.89113
# Velocity P-wave (km/s) = 4.70627 6.36982 5.60016
#
# Compressibility (1/GPa) = 0.06642596
#
# Stress axis : x y z
#
# Youngs Moduli (GPa) = 118.22881 97.69795 25.58530
#
# Poissons Ratio (x) = 0.18674 -0.09897
# Poissons Ratio (y) = 0.22598 -0.06056
# Poissons Ratio (z) = -0.45733 -0.23124
#
# Static dielectric constant tensor:
#      x y z
#    x 2.193210 -0.498490 0.206570 
#    y -0.498490 4.831300 -0.456230 
#    z 0.206570 -0.456230 2.334470 
# 
# From -- ./inp_files/294324.got.cif
#   From: 2010.05.17/outbox.cif.g08.bks.cpg/sg2_148_cif.got.tgz:294324.got - 2010.06.03 11:33:40.
