data_PCOD9058366
_publ_section_title
;
Structure prediction by ZEFSAII (Michael W. Deem and Ramdas Pophale) SiO2 
 PCOD9058366
Probable space group: P -1
;
_chemical_formula_sum "Si O2"
_cell_formula_units_Z 15
_cell_length_a 9.375529
_cell_length_b 6.691086
_cell_length_c 14.031963
_cell_angle_alpha 77.001942
_cell_angle_beta 94.330635
_cell_angle_gamma 60.815699
_cell_volume 730.866147
_symmetry_space_group_name_H-M "P -1"
_symmetry_group_IT_number 2
_symmetry_cell_setting 'triclinic'
loop_
_space_group_symop_operation_xyz
x,y,z
-x,-y,-z
loop_
_atom_site_type_symbol
_atom_site_label
_atom_site_fract_x
_atom_site_fract_y
_atom_site_fract_z
Si Si1 0.769088 0.855797 0.267268
Si Si2 0.561357 0.386484 0.176913
Si Si3 0.598716 0.793191 0.449692
Si Si4 0.273895 0.277102 0.189624
Si Si5 0.839387 0.452866 0.652056
Si Si6 0.381829 0.748916 0.295705
Si Si7 0.000000 0.500000 0.000000
Si Si8 0.347934 0.250157 0.926757
O O1 0.664150 0.873088 0.353882
O O2 0.706174 0.778471 0.179732
O O3 0.962629 0.673813 0.318104
O O4 0.726872 0.125223 0.217010
O O5 0.411112 0.338392 0.152553
O O6 0.506899 0.525079 0.260187
O O7 0.591374 0.559005 0.093341
O O8 0.755108 0.574878 0.534903
O O9 0.471359 0.728949 0.401849
O O10 0.500000 0.000000 0.500000
O O11 0.245763 0.343175 0.292924
O O12 0.096434 0.442433 0.113612
O O13 0.334577 0.997408 0.215257
O O14 0.782349 0.265016 0.695386
O O15 0.813996 0.656407 0.025406
O O16 0.500000 0.000000 0.000000
#
# Coordination Sequence:
#
# PCOD9058366 Si02
#       8
#     2   2   2   2   2   2   1   2
#     4  12  25  46  66 107 146 180 231 298 350 422
#     4  11  23  46  73  98 144 189 229 289 361 422
#     4  12  22  45  73  98 141 188 235 288 348 420
#     4  11  23  47  69 104 141 181 241 295 344 426
#     4  11  25  41  69 104 141 184 231 288 355 414
#     4  11  22  45  71 101 139 185 239 285 348 423
#     4  12  26  44  78 102 138 188 232 298 364 416
#     4  12  27  49  74 105 145 188 239 297 362 429
#
# _framework density 20.523592000000001
#
# number of rings (size 3 to 8) (size 9 to 14) (size 15 to 20)
#    0.000    0.533    5.333    3.200    1.867    2.133 
#    0.000    4.000    0.000    0.000    0.000    0.000 
#    0.000    0.000    0.000    0.000    0.000    0.000 
#
# Total GULP energy -83608.597588 kJ/mol
# GULP energy per Si atom -5573.906506 kJ/mol
# Density = 2.047688 g / cm^3
# Si number density = 20.523592 Si / 1000 Ang^3
#
#
#
# Elastic Constant Matrix: (Units=GPa)
#
#
# Indices 1 2 3 4 5 6 
#
# 1 103.6349 46.5852 46.5503 -12.6536 7.6800 -21.4145
# 2 46.5852 91.6264 20.8254 -7.6112 -5.0377 5.8905
# 3 46.5503 20.8254 99.2190 1.9057 6.8667 2.1056
# 4 -12.6536 -7.6112 1.9057 37.3456 -2.8092 -2.2676
# 5 7.6800 -5.0377 6.8667 -2.8092 46.7360 0.2309
# 6 -21.4145 5.8905 2.1056 -2.2676 0.2309 36.4241
#
#
#
# Elastic Compliance Matrix: (Units=1/GPa)
#
#
# Indices 1 2 3 4 5 6 
#
# 1 0.022294 -0.010006 -0.008601 0.006667 -0.003155 0.015657
# 2 -0.010006 0.016429 0.001212 -0.000384 0.003257 -0.008654
# 3 -0.008601 0.001212 0.014117 -0.003825 -0.000729 -0.006302
# 4 0.006667 -0.000384 -0.003825 0.029608 0.001175 0.006038
# 5 -0.003155 0.003257 -0.000729 0.001175 0.022456 -0.002409
# 6 0.015657 -0.008654 -0.006302 0.006038 -0.002409 0.038815
#
#
# Mechanical properties :
#
#
# Convention : Reuss Voigt Hill
#
# Bulk Modulus (GPa) = 55.40344 58.04468 56.72406
# Shear Modulus (GPa) = 27.09646 36.13578 31.61612
#
# Velocity S-wave (km/s) = 3.63748 4.20062 3.92915
# Velocity P-wave (km/s) = 6.68545 7.20210 6.94858
#
# Compressibility (1/GPa) = 0.01804942
#
# Stress axis : x y z
#
# Youngs Moduli (GPa) = 44.85587 60.86696 70.83426
#
# Poissons Ratio (x) = 0.60903 0.60926
# Poissons Ratio (y) = 0.44883 -0.08583
# Poissons Ratio (z) = 0.38582 -0.07375
#
# Static dielectric constant tensor:
#      x y z
#    x 1.722020 0.020680 -0.012450 
#    y 0.020680 1.728880 0.001810 
#    z -0.012450 0.001810 1.764990 
# 
# From -- ./inp_files/38349.got.cif
#   From: 2010.05.17/outbox.cif.g08.bks.cpg/sg2_20_cif.got.tgz:38349.got - 2010.06.03 11:33:40.
