data_PCOD9058652
_publ_section_title
;
Structure prediction by ZEFSAII (Michael W. Deem and Ramdas Pophale) SiO2 
 PCOD9058652
Probable space group: P -1
;
_chemical_formula_sum "Si O2"
_cell_formula_units_Z 12
_cell_length_a 8.229545
_cell_length_b 8.556212
_cell_length_c 11.652410
_cell_angle_alpha 139.753991
_cell_angle_beta 107.577993
_cell_angle_gamma 87.625500
_cell_volume 480.939548
_symmetry_space_group_name_H-M "P -1"
_symmetry_group_IT_number 2
_symmetry_cell_setting 'triclinic'
loop_
_space_group_symop_operation_xyz
x,y,z
-x,-y,-z
loop_
_atom_site_type_symbol
_atom_site_label
_atom_site_fract_x
_atom_site_fract_y
_atom_site_fract_z
Si Si1 0.440264 0.070653 0.150195
Si Si2 0.039718 0.193701 0.841508
Si Si3 0.125751 0.279466 0.161387
Si Si4 0.322722 0.507114 0.895756
Si Si5 0.692957 0.960100 0.506902
Si Si6 0.188994 0.772184 0.559988
O O1 0.321558 0.256925 0.214585
O O2 0.616954 0.199244 0.332445
O O3 0.339313 0.795677 0.030756
O O4 0.500000 0.000000 0.000000
O O5 0.154966 0.369802 0.864095
O O6 0.099549 0.938655 0.710476
O O7 0.101042 0.332116 0.052194
O O8 0.830025 0.090610 0.709499
O O9 0.083349 0.482519 0.349398
O O10 0.000000 0.000000 0.000000
O O11 0.318511 0.332824 0.684344
O O12 0.500000 0.500000 0.000000
O O13 0.500000 0.000000 0.500000
O O14 0.779785 0.097196 0.485062
#
# Coordination Sequence:
#
# PCOD9058652 Si02
#       6
#     2   2   2   2   2   2
#     4  12  25  48  75 107 155 194 238 304 375 443
#     4  11  26  52  73 107 153 193 249 312 364 439
#     4  12  30  45  74 112 148 196 247 303 370 447
#     4  11  22  46  79 106 144 199 245 298 375 433
#     4  11  27  44  78 108 143 194 257 314 358 434
#     4  11  25  49  73 105 149 196 247 299 375 440
#
# _framework density 24.951160000000002
#
# number of rings (size 3 to 8) (size 9 to 14) (size 15 to 20)
#    0.000    0.667    5.000    2.500   11.667    2.667 
#    0.000    0.000    0.000    0.000    0.000    0.000 
#    0.000    0.000    0.000    0.000    0.000    0.000 
#
# Total GULP energy -67323.544229 kJ/mol
# GULP energy per Si atom -5610.295352 kJ/mol
# Density = 2.489437 g / cm^3
# Si number density = 24.951160 Si / 1000 Ang^3
#
#
#
# Elastic Constant Matrix: (Units=GPa)
#
#
# Indices 1 2 3 4 5 6 
#
# 1 105.9033 38.0676 40.4036 2.8442 12.2247 -30.3550
# 2 38.0676 70.7632 44.0667 -9.2383 0.2273 -5.7935
# 3 40.4036 44.0667 168.9354 7.3448 -1.7428 -18.3278
# 4 2.8442 -9.2383 7.3448 33.0175 -9.3427 12.2390
# 5 12.2247 0.2273 -1.7428 -9.3427 45.5381 -5.8272
# 6 -30.3550 -5.7935 -18.3278 12.2390 -5.8272 47.2083
#
#
#
# Elastic Compliance Matrix: (Units=1/GPa)
#
#
# Indices 1 2 3 4 5 6 
#
# 1 0.017085 -0.009551 0.000066 -0.009967 -0.005072 0.011797
# 2 -0.009551 0.023506 -0.005236 0.012643 0.003804 -0.008098
# 3 0.000066 -0.005236 0.007862 -0.004613 -0.000173 0.003627
# 4 -0.009967 0.012643 -0.004613 0.044705 0.009423 -0.017075
# 5 -0.005072 0.003804 -0.000173 0.009423 0.024944 -0.002225
# 6 0.011797 -0.008098 0.003627 -0.017075 -0.002225 0.033335
#
#
# Mechanical properties :
#
#
# Convention : Reuss Voigt Hill
#
# Bulk Modulus (GPa) = 52.60343 65.63086 59.11714
# Shear Modulus (GPa) = 26.70723 40.02373 33.36548
#
# Velocity S-wave (km/s) = 3.27522 4.00945 3.66079
# Velocity P-wave (km/s) = 5.95240 6.91340 6.45082
#
# Compressibility (1/GPa) = 0.01901017
#
# Stress axis : x y z
#
# Youngs Moduli (GPa) = 58.53023 42.54256 127.19971
#
# Poissons Ratio (x) = 0.40634 -0.00842
# Poissons Ratio (y) = 0.55904 0.66603
# Poissons Ratio (z) = -0.00387 0.22276
#
# Static dielectric constant tensor:
#      x y z
#    x 1.981810 -0.036350 0.003800 
#    y -0.036350 2.024750 0.006100 
#    z 0.003800 0.006100 1.963200 
# 
# From -- ./inp_files/168620.got.cif
#   From: 2010.05.17/outbox.cif.g08.bks.cpg/sg2_85_cif.got.tgz:168620.got - 2010.06.03 11:33:40.
