data_PCOD9058356
_publ_section_title
;
Structure prediction by ZEFSAII (Michael W. Deem and Ramdas Pophale) SiO2 
 PCOD9058356
Probable space group: P -1
;
_chemical_formula_sum "Si O2"
_cell_formula_units_Z 16
_cell_length_a 9.483003
_cell_length_b 12.034687
_cell_length_c 7.783363
_cell_angle_alpha 79.638444
_cell_angle_beta 92.438032
_cell_angle_gamma 51.608221
_cell_volume 671.017877
_symmetry_space_group_name_H-M "P -1"
_symmetry_group_IT_number 2
_symmetry_cell_setting 'triclinic'
loop_
_space_group_symop_operation_xyz
x,y,z
-x,-y,-z
loop_
_atom_site_type_symbol
_atom_site_label
_atom_site_fract_x
_atom_site_fract_y
_atom_site_fract_z
Si Si1 0.982895 0.547292 0.180050
Si Si2 0.707447 0.854336 0.225046
Si Si3 0.293545 0.914204 0.743234
Si Si4 0.722053 0.419725 0.818956
Si Si5 0.091173 0.903022 0.204161
Si Si6 0.336748 0.969033 0.352747
Si Si7 0.321150 0.643324 0.785689
Si Si8 0.965715 0.724205 0.605598
O O1 0.164692 0.527164 0.239362
O O2 0.975593 0.435108 0.316638
O O3 0.804599 0.719217 0.138507
O O4 0.000000 0.500000 0.000000
O O5 0.519366 0.907398 0.280258
O O6 0.858584 0.781225 0.405414
O O7 0.675583 0.003031 0.137289
O O8 0.377878 0.914443 0.568658
O O9 0.350050 0.757091 0.821595
O O10 0.073463 0.017707 0.690067
O O11 0.829806 0.258304 0.795060
O O12 0.508931 0.521262 0.730911
O O13 0.714596 0.411922 0.029322
O O14 0.243783 0.908693 0.279198
O O15 0.000000 0.000000 0.000000
O O16 0.185596 0.146992 0.305270
O O17 0.145162 0.710277 0.640349
#
# Coordination Sequence:
#
# PCOD9058356 Si02
#       8
#     2   2   2   2   2   2   2   2
#     4  12  26  46  70  95 140 182 223 278 347 405
#     4  11  27  45  69 101 136 179 232 281 335 411
#     4  11  22  45  70  99 134 183 222 282 343 390
#     4  11  25  43  66 106 137 178 228 279 336 410
#     4  12  23  44  72  98 138 179 227 282 337 397
#     4  11  26  44  70 102 136 177 233 281 336 404
#     4  11  24  42  71 101 140 176 227 284 338 400
#     4  11  23  46  67  98 141 181 220 281 341 397
#
# _framework density 23.844372
#
# number of rings (size 3 to 8) (size 9 to 14) (size 15 to 20)
#    0.000    0.750    5.000    2.250    7.000    0.000 
#    0.000    2.500    0.000    0.000    0.000    0.000 
#    0.000    0.000    0.000    0.000    0.000    0.000 
#
# Total GULP energy -89569.645471 kJ/mol
# GULP energy per Si atom -5598.102842 kJ/mol
# Density = 2.379010 g / cm^3
# Si number density = 23.844372 Si / 1000 Ang^3
#
#
#
# Elastic Constant Matrix: (Units=GPa)
#
#
# Indices 1 2 3 4 5 6 
#
# 1 121.9102 49.8242 5.2360 13.5008 -14.9687 -8.0399
# 2 49.8242 133.4774 14.8816 13.0012 -3.3742 0.9660
# 3 5.2360 14.8816 39.0356 6.6749 2.5293 -0.3631
# 4 13.5008 13.0012 6.6749 28.7096 7.0216 -4.6516
# 5 -14.9687 -3.3742 2.5293 7.0216 28.1986 -2.3626
# 6 -8.0399 0.9660 -0.3631 -4.6516 -2.3626 57.4896
#
#
#
# Elastic Compliance Matrix: (Units=1/GPa)
#
#
# Indices 1 2 3 4 5 6 
#
# 1 0.011145 -0.003529 0.000300 -0.005153 0.006874 0.001485
# 2 -0.003529 0.009317 -0.002732 -0.002042 -0.000075 -0.000836
# 3 0.000300 -0.002732 0.027564 -0.004999 -0.001412 -0.000201
# 4 -0.005153 -0.002042 -0.004999 0.042886 -0.013025 0.002217
# 5 0.006874 -0.000075 -0.001412 -0.013025 0.042611 0.001651
# 6 0.001485 -0.000836 -0.000201 0.002217 0.001651 0.017862
#
#
# Mechanical properties :
#
#
# Convention : Reuss Voigt Hill
#
# Bulk Modulus (GPa) = 27.69858 48.25631 37.97744
# Shear Modulus (GPa) = 28.51590 37.84499 33.18044
#
# Velocity S-wave (km/s) = 3.46196 3.98825 3.73438
# Velocity P-wave (km/s) = 5.25564 6.44128 5.87843
#
# Compressibility (1/GPa) = 0.03610294
#
# Stress axis : x y z
#
# Youngs Moduli (GPa) = 89.72867 107.33446 36.27983
#
# Poissons Ratio (x) = 0.37873 -0.01088
# Poissons Ratio (y) = 0.31661 0.09913
# Poissons Ratio (z) = -0.02691 0.29327
#
# Static dielectric constant tensor:
#      x y z
#    x 1.898950 0.035920 -0.029590 
#    y 0.035920 1.943330 -0.031120 
#    z -0.029590 -0.031120 1.974260 
# 
# From -- ./inp_files/186699.got.cif
#   From: 2010.05.17/outbox.cif.g08.bks.cpg/sg2_94_cif.got.tgz:186699.got - 2010.06.03 11:33:40.
