data_PCOD9058462
_publ_section_title
;
Structure prediction by ZEFSAII (Michael W. Deem and Ramdas Pophale) SiO2 
 PCOD9058462
Probable space group: P -1
;
_chemical_formula_sum "Si O2"
_cell_formula_units_Z 16
_cell_length_a 14.326094
_cell_length_b 9.442196
_cell_length_c 16.995448
_cell_angle_alpha 30.417277
_cell_angle_beta 38.497023
_cell_angle_gamma 39.842835
_cell_volume 692.347819
_symmetry_space_group_name_H-M "P -1"
_symmetry_group_IT_number 2
_symmetry_cell_setting 'triclinic'
loop_
_space_group_symop_operation_xyz
x,y,z
-x,-y,-z
loop_
_atom_site_type_symbol
_atom_site_label
_atom_site_fract_x
_atom_site_fract_y
_atom_site_fract_z
Si Si1 0.747849 0.521755 0.173268
Si Si2 0.486380 0.965891 0.857827
Si Si3 0.933426 0.271013 0.310858
Si Si4 0.624340 0.483224 0.774707
Si Si5 0.779082 0.752503 0.657764
Si Si6 0.353466 0.897861 0.676355
Si Si7 0.277125 0.012416 0.171828
Si Si8 0.054427 0.258513 0.797271
O O1 0.901978 0.399293 0.181937
O O2 0.700860 0.271353 0.277457
O O3 0.617868 0.698114 0.237777
O O4 0.747561 0.758575 0.993074
O O5 0.610167 0.840551 0.768956
O O6 0.587526 0.954406 0.876370
O O7 0.375456 0.759888 0.043102
O O8 0.895716 0.536714 0.269387
O O9 0.115295 0.092376 0.286977
O O10 0.837957 0.036572 0.490232
O O11 0.740488 0.662792 0.638834
O O12 0.444078 0.672400 0.792251
O O13 0.678748 0.307276 0.742480
O O14 0.907070 0.477218 0.744067
O O15 0.500000 0.000000 0.500000
O O16 0.201069 0.120680 0.708852
O O17 0.000000 0.000000 0.000000
#
# Coordination Sequence:
#
# PCOD9058462 Si02
#       8
#     2   2   2   2   2   2   2   2
#     4  11  24  44  69 103 137 184 233 288 349 425
#     4  11  22  45  74  96 138 188 239 282 351 422
#     4  12  28  45  71 103 142 184 231 296 356 418
#     4  11  24  44  69 103 137 184 233 288 349 425
#     4  12  28  45  71 103 142 184 231 296 356 418
#     4  12  26  43  70 105 144 180 234 297 355 414
#     4  11  22  45  74  96 138 188 239 282 351 422
#     4  12  29  48  72 103 145 189 240 289 356 429
#
# _framework density 23.109770999999999
#
# number of rings (size 3 to 8) (size 9 to 14) (size 15 to 20)
#    0.000    0.500    3.750    4.125   10.500    1.000 
#    0.000    0.000    0.000    0.000    0.000    0.000 
#    0.000    0.000    0.000    0.000    0.000    0.000 
#
# Total GULP energy -89532.774242 kJ/mol
# GULP energy per Si atom -5595.798390 kJ/mol
# Density = 2.305717 g / cm^3
# Si number density = 23.109771 Si / 1000 Ang^3
#
#
#
# Elastic Constant Matrix: (Units=GPa)
#
#
# Indices 1 2 3 4 5 6 
#
# 1 112.5607 24.8984 7.8390 -23.0622 -19.1742 3.8835
# 2 24.8984 148.8149 44.5991 -5.4217 -30.9860 7.8759
# 3 7.8390 44.5991 75.2687 -13.8314 -21.1843 9.9040
# 4 -23.0622 -5.4217 -13.8314 31.5437 4.0679 -7.4470
# 5 -19.1742 -30.9860 -21.1843 4.0679 33.8295 -6.1912
# 6 3.8835 7.8759 9.9040 -7.4470 -6.1912 30.2726
#
#
#
# Elastic Compliance Matrix: (Units=1/GPa)
#
#
# Indices 1 2 3 4 5 6 
#
# 1 0.011920 -0.001216 0.002835 0.009251 0.006576 0.001480
# 2 -0.001216 0.009223 -0.004145 -0.001870 0.005341 -0.000255
# 3 0.002835 -0.004145 0.019719 0.008432 0.008804 -0.001862
# 4 0.009251 -0.001870 0.008432 0.043115 0.005125 0.008196
# 5 0.006576 0.005341 0.008804 0.005125 0.044018 0.005150
# 6 0.001480 -0.000255 -0.001862 0.008196 0.005150 0.036588
#
#
# Mechanical properties :
#
#
# Convention : Reuss Voigt Hill
#
# Bulk Modulus (GPa) = 27.92548 54.59083 41.25815
# Shear Modulus (GPa) = 27.53726 36.41634 31.97680
#
# Velocity S-wave (km/s) = 3.45568 3.97394 3.72384
# Velocity P-wave (km/s) = 5.29456 6.68804 6.03168
#
# Compressibility (1/GPa) = 0.03580959
#
# Stress axis : x y z
#
# Youngs Moduli (GPa) = 83.89178 108.42515 50.71301
#
# Poissons Ratio (x) = 0.13185 -0.14378
# Poissons Ratio (y) = 0.10202 0.21021
# Poissons Ratio (z) = -0.23784 0.44944
#
# Static dielectric constant tensor:
#      x y z
#    x 1.843090 -0.010280 0.062290 
#    y -0.010280 1.885500 -0.014810 
#    z 0.062290 -0.014810 1.938580 
# 
# From -- ./inp_files/216517.got.cif
#   From: 2010.05.17/outbox.cif.g08.bks.cpg/sg2_109_cif.got.tgz:216517.got - 2010.06.03 11:33:40.
