data_PCOD9058933
_publ_section_title
;
Structure prediction by ZEFSAII (Michael W. Deem and Ramdas Pophale) SiO2 
 PCOD9058933
Probable space group: P -1
;
_chemical_formula_sum "Si O2"
_cell_formula_units_Z 16
_cell_length_a 9.281270
_cell_length_b 16.918571
_cell_length_c 11.151479
_cell_angle_alpha 55.538738
_cell_angle_beta 40.228565
_cell_angle_gamma 84.216465
_cell_volume 730.083761
_symmetry_space_group_name_H-M "P -1"
_symmetry_group_IT_number 2
_symmetry_cell_setting 'triclinic'
loop_
_space_group_symop_operation_xyz
x,y,z
-x,-y,-z
loop_
_atom_site_type_symbol
_atom_site_label
_atom_site_fract_x
_atom_site_fract_y
_atom_site_fract_z
Si Si1 0.439018 0.695815 0.835259
Si Si2 0.605623 0.943269 0.566301
Si Si3 0.534011 0.421159 0.631688
Si Si4 0.053058 0.464584 0.127116
Si Si5 0.074040 0.416248 0.573679
Si Si6 0.045224 0.237958 0.394415
Si Si7 0.147593 0.154463 0.172207
Si Si8 0.308722 0.823573 0.108996
O O1 0.586958 0.837692 0.596237
O O2 0.644688 0.699916 0.797375
O O3 0.336716 0.592476 0.890114
O O4 0.146223 0.655104 0.116094
O O5 0.500000 0.000000 0.500000
O O6 0.419309 0.895020 0.850590
O O7 0.927170 0.042913 0.323089
O O8 0.500000 0.500000 0.500000
O O9 0.616619 0.490094 0.647525
O O10 0.793611 0.427896 0.410186
O O11 0.260950 0.281772 0.930203
O O12 0.040832 0.345683 0.252443
O O13 0.000000 0.500000 0.000000
O O14 0.000000 0.500000 0.500000
O O15 0.975561 0.313764 0.627383
O O16 0.809584 0.154414 0.718310
O O17 0.000669 0.150546 0.391103
O O18 0.428991 0.171796 0.017215
#
# Coordination Sequence:
#
# PCOD9058933 Si02
#       8
#     2   2   2   2   2   2   2   2
#     4  10  23  43  66  95 138 186 225 278 347 406
#     4  11  27  48  73  95 137 188 235 289 342 408
#     4  11  23  38  65  98 139 184 219 284 346 404
#     4  11  24  41  67 108 146 174 229 290 347 415
#     4  10  17  37  63  92 131 173 224 268 333 405
#     4  12  23  42  73 107 138 180 226 285 346 415
#     4  12  24  46  71 100 139 184 234 278 343 413
#     4  11  23  44  69 101 134 182 234 281 336 418
#
# _framework density 21.915293999999999
#
# number of rings (size 3 to 8) (size 9 to 14) (size 15 to 20)
#    0.000    1.000    5.000    2.250    7.000    2.500 
#    0.000    0.625    0.000    0.000    0.000    0.000 
#    0.000    0.000    0.000    0.000    0.000    0.000 
#
# Total GULP energy -89306.211407 kJ/mol
# GULP energy per Si atom -5581.638213 kJ/mol
# Density = 2.186541 g / cm^3
# Si number density = 21.915294 Si / 1000 Ang^3
#
#
#
# Elastic Constant Matrix: (Units=GPa)
#
#
# Indices 1 2 3 4 5 6 
#
# 1 96.1235 10.3007 9.0144 -21.1457 11.9964 -8.7076
# 2 10.3007 58.1147 14.7798 -3.1371 -10.4050 2.2965
# 3 9.0144 14.7798 80.6002 -7.4443 7.6326 5.4679
# 4 -21.1457 -3.1371 -7.4443 44.0117 4.8856 -1.0679
# 5 11.9964 -10.4050 7.6326 4.8856 31.2710 -7.6148
# 6 -8.7076 2.2965 5.4679 -1.0679 -7.6148 35.2419
#
#
#
# Elastic Compliance Matrix: (Units=1/GPa)
#
#
# Indices 1 2 3 4 5 6 
#
# 1 0.013343 -0.003373 0.000277 0.007033 -0.006871 0.002202
# 2 -0.003373 0.020563 -0.004532 -0.001983 0.009690 0.000563
# 3 0.000277 -0.004532 0.014280 0.002850 -0.006307 -0.003128
# 4 0.007033 -0.001983 0.002850 0.027364 -0.008212 0.000480
# 5 -0.006871 0.009690 -0.006307 -0.008212 0.042508 0.007585
# 6 0.002202 0.000563 -0.003128 0.000480 0.007585 0.031022
#
#
# Mechanical properties :
#
#
# Convention : Reuss Voigt Hill
#
# Bulk Modulus (GPa) = 30.36813 33.66979 32.01896
# Shear Modulus (GPa) = 28.52032 35.48781 32.00407
#
# Velocity S-wave (km/s) = 3.61139 4.02844 3.82560
# Velocity P-wave (km/s) = 5.59255 6.08562 5.84429
#
# Compressibility (1/GPa) = 0.03292926
#
# Stress axis : x y z
#
# Youngs Moduli (GPa) = 74.94549 48.62996 70.02957
#
# Poissons Ratio (x) = 0.16404 -0.01941
# Poissons Ratio (y) = 0.25280 0.31741
# Poissons Ratio (z) = -0.02077 0.22041
#
# Static dielectric constant tensor:
#      x y z
#    x 1.071830 -0.086810 -0.308220 
#    y -0.086810 1.831410 -0.052740 
#    z -0.308220 -0.052740 1.741150 
# 
# From -- ./inp_files/402946.got.cif
#   From: 2010.05.17/outbox.cif.g08.bks.cpg/sg2_202_cif.got.tgz:402946.got - 2010.06.03 11:33:40.
