data_PCOD9058080
_publ_section_title
;
Structure prediction by ZEFSAII (Michael W. Deem and Ramdas Pophale) SiO2 
 PCOD9058080
Probable space group: P -1
;
_chemical_formula_sum "Si O2"
_cell_formula_units_Z 16
_cell_length_a 9.355045
_cell_length_b 9.151092
_cell_length_c 20.076875
_cell_angle_alpha 51.507837
_cell_angle_beta 36.513048
_cell_angle_gamma 44.682851
_cell_volume 713.771477
_symmetry_space_group_name_H-M "P -1"
_symmetry_group_IT_number 2
_symmetry_cell_setting 'triclinic'
loop_
_space_group_symop_operation_xyz
x,y,z
-x,-y,-z
loop_
_atom_site_type_symbol
_atom_site_label
_atom_site_fract_x
_atom_site_fract_y
_atom_site_fract_z
Si Si1 0.744661 0.798607 0.495219
Si Si2 0.150500 0.829873 0.436817
Si Si3 0.596148 0.460282 0.859136
Si Si4 0.362466 0.749962 0.756077
Si Si5 0.647887 0.862511 0.265285
Si Si6 0.221952 0.026818 0.065289
Si Si7 0.126916 0.443813 0.616731
Si Si8 0.032283 0.773280 0.033578
O O1 0.584317 0.715031 0.627792
O O2 0.892114 0.658459 0.416824
O O3 0.953366 0.843291 0.447441
O O4 0.500000 0.000000 0.500000
O O5 0.395389 0.878139 0.313470
O O6 0.220269 0.613006 0.510205
O O7 0.000000 0.000000 0.500000
O O8 0.446802 0.530060 0.823462
O O9 0.723927 0.214331 0.896889
O O10 0.840398 0.522058 0.739614
O O11 0.342476 0.601789 0.960241
O O12 0.366581 0.920628 0.761358
O O13 0.049829 0.858895 0.820457
O O14 0.668103 0.732047 0.361327
O O15 0.891105 0.730274 0.161867
O O16 0.500000 0.000000 0.000000
O O17 0.130205 0.171310 0.991762
O O18 0.000000 0.000000 0.000000
#
# Coordination Sequence:
#
# PCOD9058080 Si02
#       8
#     2   2   2   2   2   2   2   2
#     4  12  23  43  71 101 140 191 233 285 363 421
#     4  12  25  43  68 105 144 183 241 295 344 422
#     4  11  22  44  74  96 137 184 232 284 361 412
#     4  11  22  44  70  96 144 181 227 295 351 417
#     4  12  23  46  66 102 148 179 235 299 341 426
#     4  11  25  46  70 101 136 183 241 292 349 421
#     4  12  24  44  75 101 140 194 235 285 366 425
#     4  11  24  44  70 102 136 184 234 289 351 420
#
# _framework density 22.416136999999999
#
# number of rings (size 3 to 8) (size 9 to 14) (size 15 to 20)
#    0.000    0.500    7.500    0.750    0.000    6.000 
#    2.250    0.000    0.000    0.000    0.000    0.000 
#    0.000    0.000    0.000    0.000    0.000    0.000 
#
# Total GULP energy -89278.999882 kJ/mol
# GULP energy per Si atom -5579.937493 kJ/mol
# Density = 2.236512 g / cm^3
# Si number density = 22.416137 Si / 1000 Ang^3
#
#
#
# Elastic Constant Matrix: (Units=GPa)
#
#
# Indices 1 2 3 4 5 6 
#
# 1 118.1508 13.0503 40.3649 3.6898 -6.4431 -9.1201
# 2 13.0503 67.6608 0.2623 6.1296 9.3624 -21.6512
# 3 40.3649 0.2623 98.0984 29.2049 -2.6475 1.1897
# 4 3.6898 6.1296 29.2049 33.6748 -6.1887 -3.2367
# 5 -6.4431 9.3624 -2.6475 -6.1887 45.0647 0.3089
# 6 -9.1201 -21.6512 1.1897 -3.2367 0.3089 30.5119
#
#
#
# Elastic Compliance Matrix: (Units=1/GPa)
#
#
# Indices 1 2 3 4 5 6 
#
# 1 0.010877 -0.002028 -0.005922 0.004980 0.002295 0.002548
# 2 -0.002028 0.020651 0.001924 -0.004867 -0.005228 0.013509
# 3 -0.005922 0.001924 0.017133 -0.015242 -0.002315 -0.002667
# 4 0.004980 -0.004867 -0.015242 0.044853 0.006965 0.003316
# 5 0.002295 -0.005228 -0.002315 0.006965 0.024442 -0.002442
# 6 0.002548 0.013509 -0.002667 0.003316 -0.002442 0.043602
#
#
# Mechanical properties :
#
#
# Convention : Reuss Voigt Hill
#
# Bulk Modulus (GPa) = 27.31695 43.47389 35.39542
# Shear Modulus (GPa) = 26.90866 37.19910 32.05388
#
# Velocity S-wave (km/s) = 3.46846 4.07809 3.78557
# Velocity P-wave (km/s) = 5.31536 6.45062 5.91031
#
# Compressibility (1/GPa) = 0.03660730
#
# Stress axis : x y z
#
# Youngs Moduli (GPa) = 91.93527 48.42472 58.36752
#
# Poissons Ratio (x) = 0.09823 0.34564
# Poissons Ratio (y) = 0.18649 -0.11227
# Poissons Ratio (z) = 0.54442 -0.09315
#
# Static dielectric constant tensor:
#      x y z
#    x 1.864430 -0.066770 0.030040 
#    y -0.066770 1.827180 0.064180 
#    z 0.030040 0.064180 1.806910 
# 
# From -- ./inp_files/587289.got.cif
#   From: 2010.05.17/outbox.cif.g08.bks.cpg/sg2_294_cif.got.tgz:587289.got - 2010.06.03 11:33:40.
