data_PCOD9058379
_publ_section_title
;
Structure prediction by ZEFSAII (Michael W. Deem and Ramdas Pophale) SiO2 
 PCOD9058379
Probable space group: P -1
;
_chemical_formula_sum "Si O2"
_cell_formula_units_Z 16
_cell_length_a 8.384058
_cell_length_b 16.355443
_cell_length_c 6.161090
_cell_angle_alpha 120.151498
_cell_angle_beta 66.104506
_cell_angle_gamma 94.826474
_cell_volume 660.264395
_symmetry_space_group_name_H-M "P -1"
_symmetry_group_IT_number 2
_symmetry_cell_setting 'triclinic'
loop_
_space_group_symop_operation_xyz
x,y,z
-x,-y,-z
loop_
_atom_site_type_symbol
_atom_site_label
_atom_site_fract_x
_atom_site_fract_y
_atom_site_fract_z
Si Si1 0.297041 0.807192 0.770483
Si Si2 0.874474 0.753161 0.288730
Si Si3 0.635539 0.007221 0.242107
Si Si4 0.391754 0.197857 0.162983
Si Si5 0.835036 0.328772 0.672991
Si Si6 0.841674 0.647721 0.757397
Si Si7 0.501077 0.542851 0.805149
Si Si8 0.062264 0.069765 0.732884
O O1 0.406247 0.787896 0.907384
O O2 0.275164 0.719189 0.512386
O O3 0.388947 0.888879 0.710896
O O4 0.102192 0.858950 0.992756
O O5 0.701513 0.741970 0.504404
O O6 0.830723 0.858127 0.352922
O O7 0.040457 0.749155 0.353387
O O8 0.913858 0.668709 0.981947
O O9 0.827285 0.988674 0.220226
O O10 0.500000 0.000000 0.500000
O O11 0.623651 0.914199 0.978271
O O12 0.273789 0.248834 0.103458
O O13 0.989132 0.376755 0.527331
O O14 0.689718 0.390040 0.983208
O O15 0.689648 0.582209 0.752548
O O16 0.500000 0.500000 0.500000
O O17 0.500000 0.500000 0.000000
O O18 0.000000 0.000000 0.500000
#
# Coordination Sequence:
#
# PCOD9058379 Si02
#       8
#     2   2   2   2   2   2   2   2
#     4  12  24  41  67 103 147 201 258 313 380 451
#     4  11  22  45  71 105 143 201 250 309 382 452
#     4  12  24  40  59  99 147 202 259 316 375 437
#     4  11  24  42  68 102 147 202 257 316 374 452
#     4  11  27  48  81 113 154 201 257 318 394 481
#     4  11  26  50  81 111 155 200 254 321 392 476
#     4  12  33  55  86 124 158 201 256 331 415 497
#     4  12  22  37  62  98 147 194 260 315 368 439
#
# _framework density 24.232717000000001
#
# number of rings (size 3 to 8) (size 9 to 14) (size 15 to 20)
#    0.000    0.500    2.500    5.250   10.500    1.000 
#    0.000    0.000    0.000    0.000    0.000    0.000 
#    0.000    0.000    0.000    0.000    0.000    0.000 
#
# Total GULP energy -89340.817316 kJ/mol
# GULP energy per Si atom -5583.801082 kJ/mol
# Density = 2.417756 g / cm^3
# Si number density = 24.232717 Si / 1000 Ang^3
#
#
#
# Elastic Constant Matrix: (Units=GPa)
#
#
# Indices 1 2 3 4 5 6 
#
# 1 137.9058 17.5885 36.6410 5.6112 7.9353 11.9394
# 2 17.5885 64.6697 24.8335 -16.8707 -3.0308 21.3669
# 3 36.6410 24.8335 157.0096 4.9655 -3.7674 22.0390
# 4 5.6112 -16.8707 4.9655 26.2767 3.2765 -2.9420
# 5 7.9353 -3.0308 -3.7674 3.2765 46.3206 7.1198
# 6 11.9394 21.3669 22.0390 -2.9420 7.1198 40.5605
#
#
#
# Elastic Compliance Matrix: (Units=1/GPa)
#
#
# Indices 1 2 3 4 5 6 
#
# 1 0.008159 -0.002372 -0.001425 -0.002857 -0.001415 -0.000336
# 2 -0.002372 0.024449 -0.002302 0.015204 0.002316 -0.010234
# 3 -0.001425 -0.002302 0.007616 -0.003119 0.001391 -0.002976
# 4 -0.002857 0.015204 -0.003119 0.049092 -0.002002 -0.001561
# 5 -0.001415 0.002316 0.001391 -0.002002 0.023123 -0.005764
# 6 -0.000336 -0.010234 -0.002976 -0.001561 -0.005764 0.032660
#
#
# Mechanical properties :
#
#
# Convention : Reuss Voigt Hill
#
# Bulk Modulus (GPa) = 35.68354 57.52344 46.60349
# Shear Modulus (GPa) = 30.00469 41.33303 35.66886
#
# Velocity S-wave (km/s) = 3.52261 4.13446 3.84074
# Velocity P-wave (km/s) = 5.59485 6.82503 6.24033
#
# Compressibility (1/GPa) = 0.02802412
#
# Stress axis : x y z
#
# Youngs Moduli (GPa) = 122.55775 40.90216 131.31037
#
# Poissons Ratio (x) = 0.09704 0.18715
# Poissons Ratio (y) = 0.29076 0.30228
# Poissons Ratio (z) = 0.17468 0.09416
#
# Static dielectric constant tensor:
#      x y z
#    x 1.924790 -0.013840 0.005010 
#    y -0.013840 2.007000 -0.057780 
#    z 0.005010 -0.057780 1.939600 
# 
# From -- ./inp_files/48797.got.cif
#   From: 2010.05.17/outbox.cif.g08.bks.cpg/sg2_25_cif.got.tgz:48797.got - 2010.06.03 11:33:40.
