data_PCOD9058467
_publ_section_title
;
Structure prediction by ZEFSAII (Michael W. Deem and Ramdas Pophale) SiO2 
 PCOD9058467
Probable space group: P -1
;
_chemical_formula_sum "Si O2"
_cell_formula_units_Z 16
_cell_length_a 12.444134
_cell_length_b 20.883969
_cell_length_c 9.317388
_cell_angle_alpha 45.948121
_cell_angle_beta 34.268540
_cell_angle_gamma 30.220390
_cell_volume 684.747693
_symmetry_space_group_name_H-M "P -1"
_symmetry_group_IT_number 2
_symmetry_cell_setting 'triclinic'
loop_
_space_group_symop_operation_xyz
x,y,z
-x,-y,-z
loop_
_atom_site_type_symbol
_atom_site_label
_atom_site_fract_x
_atom_site_fract_y
_atom_site_fract_z
Si Si1 0.467741 0.645885 0.109617
Si Si2 0.375940 0.148640 0.030444
Si Si3 0.872885 0.197037 0.502941
Si Si4 0.504256 0.443015 0.357991
Si Si5 0.903175 0.612763 0.829920
Si Si6 0.746499 0.083644 0.457999
Si Si7 0.794428 0.273884 0.032560
Si Si8 0.578695 0.934610 0.358801
O O1 0.197797 0.758014 0.324592
O O2 0.587394 0.509083 0.234637
O O3 0.687308 0.647294 0.900848
O O4 0.381946 0.667635 0.007411
O O5 0.243230 0.266146 0.097396
O O6 0.124615 0.173041 0.210153
O O7 0.542412 0.025302 0.139898
O O8 0.542375 0.132287 0.739393
O O9 0.608739 0.322297 0.518829
O O10 0.971995 0.063220 0.591339
O O11 0.649083 0.383185 0.140088
O O12 0.177911 0.554766 0.541198
O O13 0.000000 0.500000 0.000000
O O14 0.793957 0.171632 0.247088
O O15 0.613847 0.080034 0.468899
O O16 0.105439 0.198518 0.779745
O O17 0.500000 0.000000 0.500000
#
# Coordination Sequence:
#
# PCOD9058467 Si02
#       8
#     2   2   2   2   2   2   2   2
#     4  12  27  45  68 104 140 184 233 285 346 422
#     4  11  23  45  70 103 141 182 232 287 345 407
#     4  11  22  45  75 100 135 182 233 290 344 409
#     4  12  25  47  70 101 140 185 235 287 342 411
#     4  12  25  42  71 102 135 183 237 285 342 405
#     4  11  26  45  71 108 142 176 236 290 341 414
#     4  12  28  45  72 104 142 185 227 286 354 414
#     4  11  26  46  73 103 144 184 221 288 355 415
#
# _framework density 23.366271000000001
#
# number of rings (size 3 to 8) (size 9 to 14) (size 15 to 20)
#    0.000    0.500    2.500    6.750    3.500    3.500 
#    0.000    0.000    0.000    0.000    0.000    0.000 
#    0.000    0.000    0.000    0.000    0.000    0.000 
#
# Total GULP energy -89681.905603 kJ/mol
# GULP energy per Si atom -5605.119100 kJ/mol
# Density = 2.331309 g / cm^3
# Si number density = 23.366271 Si / 1000 Ang^3
#
#
#
# Elastic Constant Matrix: (Units=GPa)
#
#
# Indices 1 2 3 4 5 6 
#
# 1 86.5769 33.6735 20.9050 22.9591 0.3178 10.9960
# 2 33.6735 126.2971 20.1476 12.0973 0.5119 19.3454
# 3 20.9050 20.1476 69.9435 22.6989 3.4909 10.8368
# 4 22.9591 12.0973 22.6989 43.1203 12.0143 6.2818
# 5 0.3178 0.5119 3.4909 12.0143 37.7389 2.9160
# 6 10.9960 19.3454 10.8368 6.2818 2.9160 44.4949
#
#
#
# Elastic Compliance Matrix: (Units=1/GPa)
#
#
# Indices 1 2 3 4 5 6 
#
# 1 0.015005 -0.002940 -0.001302 -0.006945 0.002344 -0.001286
# 2 -0.002940 0.009383 -0.001375 0.000030 0.000250 -0.003038
# 3 -0.001302 -0.001375 0.018137 -0.008464 0.001231 -0.002383
# 4 -0.006945 0.000030 -0.008464 0.034184 -0.010010 -0.000405
# 5 0.002344 0.000250 0.001231 -0.010010 0.029665 -0.001519
# 6 -0.001286 -0.003038 -0.002383 -0.000405 -0.001519 0.024851
#
#
# Mechanical properties :
#
#
# Convention : Reuss Voigt Hill
#
# Bulk Modulus (GPa) = 31.95912 48.02996 39.99454
# Shear Modulus (GPa) = 32.70343 38.94358 35.82351
#
# Velocity S-wave (km/s) = 3.74518 4.08690 3.91977
# Velocity P-wave (km/s) = 5.69289 6.54754 6.13511
#
# Compressibility (1/GPa) = 0.03128997
#
# Stress axis : x y z
#
# Youngs Moduli (GPa) = 66.64566 106.57920 55.13490
#
# Poissons Ratio (x) = 0.31337 0.07177
# Poissons Ratio (y) = 0.19596 0.07584
# Poissons Ratio (z) = 0.08675 0.14660
#
# Static dielectric constant tensor:
#      x y z
#    x 1.870040 -0.029100 -0.000840 
#    y -0.029100 1.864910 -0.024110 
#    z -0.000840 -0.024110 1.892300 
# 
# From -- ./inp_files/282851.got.cif
#   From: 2010.05.17/outbox.cif.g08.bks.cpg/sg2_142_cif.got.tgz:282851.got - 2010.06.03 11:33:40.
