data_PCOD9058367
_publ_section_title
;
Structure prediction by ZEFSAII (Michael W. Deem and Ramdas Pophale) SiO2 
 PCOD9058367
Probable space group: P -1
;
_chemical_formula_sum "Si O2"
_cell_formula_units_Z 12
_cell_length_a 9.143467
_cell_length_b 11.944461
_cell_length_c 12.358563
_cell_angle_alpha 37.205675
_cell_angle_beta 139.524346
_cell_angle_gamma 118.654131
_cell_volume 501.589139
_symmetry_space_group_name_H-M "P -1"
_symmetry_group_IT_number 2
_symmetry_cell_setting 'triclinic'
loop_
_space_group_symop_operation_xyz
x,y,z
-x,-y,-z
loop_
_atom_site_type_symbol
_atom_site_label
_atom_site_fract_x
_atom_site_fract_y
_atom_site_fract_z
Si Si1 0.823196 0.944096 0.022686
Si Si2 0.105932 0.286623 0.167873
Si Si3 0.715415 0.466927 0.064289
Si Si4 0.836495 0.781110 0.378008
Si Si5 0.383864 0.704036 0.222340
Si Si6 0.660919 0.069689 0.261385
O O1 0.649011 0.146813 0.813327
O O2 0.625075 0.856601 0.934392
O O3 0.937684 0.835148 0.281394
O O4 0.000000 0.000000 0.000000
O O5 0.222246 0.097815 0.453532
O O6 0.298709 0.337346 0.160023
O O7 0.000000 0.500000 0.000000
O O8 0.875066 0.266772 0.992660
O O9 0.968830 0.401659 0.318751
O O10 0.728460 0.268816 0.157063
O O11 0.500000 0.500000 0.000000
O O12 0.594780 0.736837 0.244483
O O13 0.759740 0.954223 0.292219
O O14 0.500000 0.500000 0.500000
#
# Coordination Sequence:
#
# PCOD9058367 Si02
#       6
#     2   2   2   2   2   2
#     4  11  27  45  71 102 140 190 231 295 367 406
#     4  12  25  44  78 108 138 189 244 286 351 431
#     4  12  28  45  71 112 145 183 234 298 366 412
#     4  11  24  49  71  99 141 193 234 291 353 423
#     4  11  22  45  71 101 140 182 240 283 339 434
#     4  11  25  48  73 103 146 188 239 293 347 431
#
# _framework density 23.923963000000001
#
# number of rings (size 3 to 8) (size 9 to 14) (size 15 to 20)
#    0.000    0.667    3.333    4.500    9.333    0.667 
#    0.000    1.667    0.000    0.000    0.000    0.000 
#    0.000    0.000    0.000    0.000    0.000    0.000 
#
# Total GULP energy -67032.136001 kJ/mol
# GULP energy per Si atom -5586.011333 kJ/mol
# Density = 2.386951 g / cm^3
# Si number density = 23.923963 Si / 1000 Ang^3
#
#
#
# Elastic Constant Matrix: (Units=GPa)
#
#
# Indices 1 2 3 4 5 6 
#
# 1 156.6374 21.6953 7.8079 19.7233 -22.1762 38.3986
# 2 21.6953 85.1088 18.1231 11.3476 -12.6571 32.2834
# 3 7.8079 18.1231 89.0278 9.3407 -29.3244 17.6478
# 4 19.7233 11.3476 9.3407 37.0322 11.3669 4.3777
# 5 -22.1762 -12.6571 -29.3244 11.3669 45.1760 -7.0036
# 6 38.3986 32.2834 17.6478 4.3777 -7.0036 35.9419
#
#
#
# Elastic Compliance Matrix: (Units=1/GPa)
#
#
# Indices 1 2 3 4 5 6 
#
# 1 0.013127 0.005760 0.006805 -0.012158 0.012652 -0.018593
# 2 0.005760 0.021714 0.004778 -0.011445 0.011103 -0.024446
# 3 0.006805 0.004778 0.020704 -0.014281 0.019193 -0.016248
# 4 -0.012158 -0.011445 -0.014281 0.046653 -0.027191 0.019300
# 5 0.012652 0.011103 0.019193 -0.027191 0.047606 -0.020324
# 6 -0.018593 -0.024446 -0.016248 0.019300 -0.020324 0.071312
#
#
# Mechanical properties :
#
#
# Convention : Reuss Voigt Hill
#
# Bulk Modulus (GPa) = 11.08264 47.33630 29.20947
# Shear Modulus (GPa) = 23.09408 42.50653 32.80031
#
# Velocity S-wave (km/s) = 3.11032 4.21971 3.70675
# Velocity P-wave (km/s) = 4.18823 6.60078 5.52773
#
# Compressibility (1/GPa) = 0.09023120
#
# Stress axis : x y z
#
# Youngs Moduli (GPa) = 76.17705 46.05363 48.30015
#
# Poissons Ratio (x) = -0.26527 -0.32867
# Poissons Ratio (y) = -0.43878 -0.23079
# Poissons Ratio (z) = -0.51836 -0.22006
#
# Static dielectric constant tensor:
#      x y z
#    x 2.004310 0.034540 -0.008530 
#    y 0.034540 2.078650 0.140730 
#    z -0.008530 0.140730 1.930820 
# 
# From -- ./inp_files/173806.got.cif
#   From: 2010.05.17/outbox.cif.g08.bks.cpg/sg2_87_cif.got.tgz:173806.got - 2010.06.03 11:33:40.
