data_PCOD9058333
_publ_section_title
;
Structure prediction by ZEFSAII (Michael W. Deem and Ramdas Pophale) SiO2 
 PCOD9058333
Probable space group: P -1
;
_chemical_formula_sum "Si O2"
_cell_formula_units_Z 16
_cell_length_a 18.124083
_cell_length_b 8.397497
_cell_length_c 11.642120
_cell_angle_alpha 75.431979
_cell_angle_beta 139.389335
_cell_angle_gamma 133.434708
_cell_volume 686.925558
_symmetry_space_group_name_H-M "P -1"
_symmetry_group_IT_number 2
_symmetry_cell_setting 'triclinic'
loop_
_space_group_symop_operation_xyz
x,y,z
-x,-y,-z
loop_
_atom_site_type_symbol
_atom_site_label
_atom_site_fract_x
_atom_site_fract_y
_atom_site_fract_z
Si Si1 0.705478 0.601362 0.837412
Si Si2 0.476911 0.713423 0.091026
Si Si3 0.359488 0.105649 0.383466
Si Si4 0.992661 0.784214 0.658468
Si Si5 0.861291 0.005822 0.460806
Si Si6 0.988852 0.280503 0.796781
Si Si7 0.616720 0.222938 0.260428
Si Si8 0.277498 0.893375 0.086282
O O1 0.653974 0.508344 0.925968
O O2 0.557372 0.325876 0.638317
O O3 0.666086 0.741177 0.727455
O O4 0.911853 0.773541 0.033914
O O5 0.642136 0.776444 0.251964
O O6 0.566016 0.984788 0.195848
O O7 0.379401 0.651324 0.868411
O O8 0.333387 0.954044 0.273937
O O9 0.198529 0.903091 0.323144
O O10 0.813735 0.463181 0.509732
O O11 0.074918 0.866638 0.612503
O O12 0.923861 0.890708 0.576111
O O13 0.151016 0.908081 0.908889
O O14 0.947368 0.214800 0.625121
O O15 0.142316 0.592149 0.945084
O O16 0.455686 0.093330 0.179665
#
# Coordination Sequence:
#
# PCOD9058333 Si02
#       8
#     2   2   2   2   2   2   2   2
#     4  11  24  45  70  98 131 179 229 279 331 398
#     4  11  22  45  70 101 136 174 225 270 341 411
#     4  11  27  44  67  98 135 181 233 276 329 389
#     4  11  26  43  67 104 140 172 220 285 337 407
#     4  11  24  44  70 101 136 180 224 273 345 403
#     4  12  24  45  72  93 135 183 223 281 333 397
#     4  11  25  42  71 104 136 178 215 278 345 404
#     4  12  26  44  66 105 138 176 228 279 333 401
#
# _framework density 23.292187999999999
#
# number of rings (size 3 to 8) (size 9 to 14) (size 15 to 20)
#    0.000    0.750    3.750    3.000    3.500    4.000 
#    0.000    0.000    0.000    0.000    0.000    0.000 
#    0.000    0.000    0.000    0.000    0.000    0.000 
#
# Total GULP energy -89700.371927 kJ/mol
# GULP energy per Si atom -5606.273245 kJ/mol
# Density = 2.323917 g / cm^3
# Si number density = 23.292188 Si / 1000 Ang^3
#
#
#
# Elastic Constant Matrix: (Units=GPa)
#
#
# Indices 1 2 3 4 5 6 
#
# 1 98.7697 11.6725 44.4483 5.0450 -11.8097 7.2508
# 2 11.6725 65.9798 0.9106 -1.5842 -6.8113 7.3851
# 3 44.4483 0.9106 102.3530 -2.6538 -0.6844 5.3141
# 4 5.0450 -1.5842 -2.6538 35.5178 -8.4641 0.3803
# 5 -11.8097 -6.8113 -0.6844 -8.4641 37.4922 1.2554
# 6 7.2508 7.3851 5.3141 0.3803 1.2554 20.0247
#
#
#
# Elastic Compliance Matrix: (Units=1/GPa)
#
#
# Indices 1 2 3 4 5 6 
#
# 1 0.013655 -0.001661 -0.005775 -0.001544 0.003646 -0.002998
# 2 -0.001661 0.016468 0.000953 0.001845 0.003102 -0.005954
# 3 -0.005775 0.000953 0.012382 0.001562 -0.001017 -0.001512
# 4 -0.001544 0.001845 0.001562 0.030197 0.006746 -0.001532
# 5 0.003646 0.003102 -0.001017 0.006746 0.030029 -0.004205
# 6 -0.002998 -0.005954 -0.001512 -0.001532 -0.004205 0.053914
#
#
# Mechanical properties :
#
#
# Convention : Reuss Voigt Hill
#
# Bulk Modulus (GPa) = 33.85568 42.35171 38.10370
# Shear Modulus (GPa) = 27.86185 32.61167 30.23676
#
# Velocity S-wave (km/s) = 3.46235 3.74587 3.60689
# Velocity P-wave (km/s) = 5.52726 6.07708 5.80868
#
# Compressibility (1/GPa) = 0.02953714
#
# Stress axis : x y z
#
# Youngs Moduli (GPa) = 73.23553 60.72466 80.76458
#
# Poissons Ratio (x) = 0.10087 0.46641
# Poissons Ratio (y) = 0.12165 -0.07693
# Poissons Ratio (z) = 0.42293 -0.05784
#
# Static dielectric constant tensor:
#      x y z
#    x 1.845120 -0.053670 0.005220 
#    y -0.053670 1.877770 -0.022950 
#    z 0.005220 -0.022950 1.840880 
# 
# From -- ./inp_files/397244.got.cif
#   From: 2010.05.17/outbox.cif.g08.bks.cpg/sg2_199_cif.got.tgz:397244.got - 2010.06.03 11:33:40.
