data_PCOD9058764
_publ_section_title
;
Structure prediction by ZEFSAII (Michael W. Deem and Ramdas Pophale) SiO2 
 PCOD9058764
Probable space group: P -1
;
_chemical_formula_sum "Si O2"
_cell_formula_units_Z 16
_cell_length_a 15.599672
_cell_length_b 7.774662
_cell_length_c 5.502665
_cell_angle_alpha 108.640548
_cell_angle_beta 81.117530
_cell_angle_gamma 103.953770
_cell_volume 611.531632
_symmetry_space_group_name_H-M "P -1"
_symmetry_group_IT_number 2
_symmetry_cell_setting 'triclinic'
loop_
_space_group_symop_operation_xyz
x,y,z
-x,-y,-z
loop_
_atom_site_type_symbol
_atom_site_label
_atom_site_fract_x
_atom_site_fract_y
_atom_site_fract_z
Si Si1 0.079239 0.514865 0.165968
Si Si2 0.565695 0.872848 0.008661
Si Si3 0.299016 0.904533 0.565092
Si Si4 0.290251 0.279635 0.286262
Si Si5 0.894204 0.881264 0.882417
Si Si6 0.889405 0.080971 0.474818
Si Si7 0.606714 0.365257 0.892996
Si Si8 0.248450 0.565857 0.774015
O O1 0.076674 0.316461 0.202208
O O2 0.080765 0.696390 0.410532
O O3 0.173808 0.555161 0.003825
O O4 0.000000 0.500000 0.000000
O O5 0.497919 0.696447 0.067486
O O6 0.632447 0.963364 0.231340
O O7 0.630477 0.826855 0.747557
O O8 0.500000 0.000000 0.000000
O O9 0.355913 0.802443 0.317696
O O10 0.244526 0.737326 0.681145
O O11 0.218714 0.971783 0.497912
O O12 0.213609 0.169056 0.099028
O O13 0.346505 0.457135 0.198686
O O14 0.238969 0.371370 0.554457
O O15 0.917649 0.988739 0.666861
O O16 0.917555 0.001427 0.171731
O O17 0.651924 0.394847 0.149403
#
# Coordination Sequence:
#
# PCOD9058764 Si02
#       8
#     2   2   2   2   2   2   2   2
#     4  12  28  55  88 125 164 204 269 352 414 496
#     4  12  25  42  68 111 149 202 271 334 394 460
#     4  11  23  45  74 105 153 213 263 334 395 483
#     4  11  25  44  71 103 153 211 261 327 390 482
#     4  12  27  51  83 124 157 222 276 324 417 509
#     4  12  27  50  87 115 165 216 274 328 416 495
#     4  11  23  44  68 101 151 200 265 326 397 470
#     4  11  22  48  75 104 151 210 262 320 425 484
#
# _framework density 26.163817000000002
#
# number of rings (size 3 to 8) (size 9 to 14) (size 15 to 20)
#    0.000    0.500    5.000    3.000    1.750    2.500 
#    2.250    8.750    0.000    0.000    0.000    0.000 
#    0.000    0.000    0.000    0.000    0.000    0.000 
#
# Total GULP energy -89734.433854 kJ/mol
# GULP energy per Si atom -5608.402116 kJ/mol
# Density = 2.610427 g / cm^3
# Si number density = 26.163817 Si / 1000 Ang^3
#
#
#
# Elastic Constant Matrix: (Units=GPa)
#
#
# Indices 1 2 3 4 5 6 
#
# 1 166.8516 48.9502 64.4611 18.5221 8.3971 -6.7127
# 2 48.9502 166.8458 62.6081 17.6213 3.8702 -15.7934
# 3 64.4611 62.6081 161.3567 18.4076 7.2581 -1.3384
# 4 18.5221 17.6213 18.4076 25.2177 13.2208 9.6881
# 5 8.3971 3.8702 7.2581 13.2208 54.8339 -4.4344
# 6 -6.7127 -15.7934 -1.3384 9.6881 -4.4344 44.1104
#
#
#
# Elastic Compliance Matrix: (Units=1/GPa)
#
#
# Indices 1 2 3 4 5 6 
#
# 1 0.007623 -0.000775 -0.002256 -0.004290 0.000366 0.001793
# 2 -0.000775 0.008007 -0.002165 -0.005865 0.001588 0.004131
# 3 -0.002256 -0.002165 0.008252 -0.002788 0.000058 -0.000250
# 4 -0.004290 -0.005865 -0.002788 0.064188 -0.015532 -0.018497
# 5 0.000366 0.001588 0.000058 -0.015532 0.022314 0.006281
# 6 0.001793 0.004131 -0.000250 -0.018497 0.006281 0.029109
#
#
# Mechanical properties :
#
#
# Convention : Reuss Voigt Hill
#
# Bulk Modulus (GPa) = 74.13951 94.12143 84.13047
# Shear Modulus (GPa) = 32.38707 46.10137 39.24422
#
# Velocity S-wave (km/s) = 3.52214 4.20221 3.87711
# Velocity P-wave (km/s) = 6.70364 7.71989 7.22964
#
# Compressibility (1/GPa) = 0.01348808
#
# Stress axis : x y z
#
# Youngs Moduli (GPa) = 131.18941 124.88885 121.17712
#
# Poissons Ratio (x) = 0.09682 0.27344
# Poissons Ratio (y) = 0.10170 0.26238
# Poissons Ratio (z) = 0.29603 0.27042
#
# Static dielectric constant tensor:
#      x y z
#    x 1.997460 -0.013090 0.025990 
#    y -0.013090 2.140280 -0.023700 
#    z 0.025990 -0.023700 2.059740 
# 
# From -- ./inp_files/90931.got.cif
#   From: 2010.05.17/outbox.cif.g08.bks.cpg/sg2_46_cif.got.tgz:90931.got - 2010.06.03 11:33:40.
