data_PCOD9058114
_publ_section_title
;
Structure prediction by ZEFSAII (Michael W. Deem and Ramdas Pophale) SiO2 
 PCOD9058114
Probable space group: P -1
;
_chemical_formula_sum "Si O2"
_cell_formula_units_Z 16
_cell_length_a 5.760516
_cell_length_b 26.627289
_cell_length_c 10.322575
_cell_angle_alpha 148.902694
_cell_angle_beta 80.847656
_cell_angle_gamma 117.268891
_cell_volume 626.082099
_symmetry_space_group_name_H-M "P -1"
_symmetry_group_IT_number 2
_symmetry_cell_setting 'triclinic'
loop_
_space_group_symop_operation_xyz
x,y,z
-x,-y,-z
loop_
_atom_site_type_symbol
_atom_site_label
_atom_site_fract_x
_atom_site_fract_y
_atom_site_fract_z
Si Si1 0.527993 0.951661 0.205671
Si Si2 0.798712 0.266555 0.069612
Si Si3 0.605638 0.650331 0.637420
Si Si4 0.311764 0.017108 0.152354
Si Si5 0.267646 0.439390 0.006066
Si Si6 0.379546 0.692113 0.240221
Si Si7 0.349938 0.208340 0.299458
Si Si8 0.062696 0.234690 0.742573
O O1 0.326285 0.980297 0.217015
O O2 0.435069 0.881894 0.197412
O O3 0.480704 0.841641 0.882074
O O4 0.863241 0.085671 0.454091
O O5 0.628426 0.326808 0.234552
O O6 0.109506 0.316956 0.232856
O O7 0.903068 0.273456 0.929924
O O8 0.432437 0.514393 0.288863
O O9 0.713342 0.733581 0.681864
O O10 0.475427 0.162481 0.460167
O O11 0.500000 0.000000 0.000000
O O12 0.973055 0.918708 0.915187
O O13 0.500000 0.500000 0.000000
O O14 0.093853 0.291095 0.721760
O O15 0.969492 0.427594 0.999040
O O16 0.457736 0.694777 0.390428
O O17 0.582054 0.694771 0.116242
#
# Coordination Sequence:
#
# PCOD9058114 Si02
#       8
#     2   2   2   2   2   2   2   2
#     4  11  22  44  71 112 148 188 241 310 379 457
#     4  11  28  51  81 110 154 200 256 308 376 452
#     4  11  28  51  77 108 149 205 258 309 370 446
#     4  12  21  36  68 107 149 187 238 301 387 460
#     4  12  31  49  75 108 149 197 258 319 377 445
#     4  12  26  43  72 108 153 191 253 313 386 450
#     4  11  23  42  70 108 148 191 237 307 390 452
#     4  12  27  48  75 110 147 201 248 315 377 449
#
# _framework density 25.555752999999999
#
# number of rings (size 3 to 8) (size 9 to 14) (size 15 to 20)
#    0.000    0.500    5.000    2.250    8.750    2.000 
#    0.000    2.500    0.000    0.000    0.000    0.000 
#    0.000    0.000    0.000    0.000    0.000    0.000 
#
# Total GULP energy -89202.763814 kJ/mol
# GULP energy per Si atom -5575.172738 kJ/mol
# Density = 2.549759 g / cm^3
# Si number density = 25.555753 Si / 1000 Ang^3
#
#
#
# Elastic Constant Matrix: (Units=GPa)
#
#
# Indices 1 2 3 4 5 6 
#
# 1 85.8600 15.3220 41.0971 10.7976 2.1038 15.7302
# 2 15.3220 115.9282 27.0799 28.6835 -5.3338 21.2016
# 3 41.0971 27.0799 96.0917 22.4268 -2.2312 9.7943
# 4 10.7976 28.6835 22.4268 30.9213 1.8674 2.7354
# 5 2.1038 -5.3338 -2.2312 1.8674 54.1790 1.4132
# 6 15.7302 21.2016 9.7943 2.7354 1.4132 45.7262
#
#
#
# Elastic Compliance Matrix: (Units=1/GPa)
#
#
# Indices 1 2 3 4 5 6 
#
# 1 0.015359 0.000307 -0.006058 -0.000854 -0.000680 -0.004056
# 2 0.000307 0.012426 -0.000524 -0.010900 0.001700 -0.005155
# 3 -0.006058 -0.000524 0.015188 -0.008440 0.001112 -0.000455
# 4 -0.000854 -0.010900 -0.008440 0.048679 -0.003179 0.004342
# 5 -0.000680 0.001700 0.001112 -0.003179 0.018837 -0.001184
# 6 -0.004056 -0.005155 -0.000455 0.004342 -0.001184 0.025529
#
#
# Mechanical properties :
#
#
# Convention : Reuss Voigt Hill
#
# Bulk Modulus (GPa) = 32.87123 51.65311 42.26217
# Shear Modulus (GPa) = 31.50386 40.45737 35.98061
#
# Velocity S-wave (km/s) = 3.51486 3.98314 3.75630
# Velocity P-wave (km/s) = 5.41875 6.43503 5.94863
#
# Compressibility (1/GPa) = 0.03042174
#
# Stress axis : x y z
#
# Youngs Moduli (GPa) = 65.10764 80.47685 65.84269
#
# Poissons Ratio (x) = -0.02471 0.39890
# Poissons Ratio (y) = -0.01999 0.03451
# Poissons Ratio (z) = 0.39445 0.04218
#
# Static dielectric constant tensor:
#      x y z
#    x 2.319360 -0.027060 -0.006520 
#    y -0.027060 2.142590 0.010360 
#    z -0.006520 0.010360 2.041690 
# 
# From -- ./inp_files/371605.got.cif
#   From: 2010.05.17/outbox.cif.g08.bks.cpg/sg2_186_cif.got.tgz:371605.got - 2010.06.03 11:33:40.
