data_PCOD9058317
_publ_section_title
;
Structure prediction by ZEFSAII (Michael W. Deem and Ramdas Pophale) SiO2 
 PCOD9058317
Probable space group: P -1
;
_chemical_formula_sum "Si O2"
_cell_formula_units_Z 16
_cell_length_a 19.102426
_cell_length_b 7.847824
_cell_length_c 9.043703
_cell_angle_alpha 48.956881
_cell_angle_beta 119.908688
_cell_angle_gamma 137.373340
_cell_volume 692.163481
_symmetry_space_group_name_H-M "P -1"
_symmetry_group_IT_number 2
_symmetry_cell_setting 'triclinic'
loop_
_space_group_symop_operation_xyz
x,y,z
-x,-y,-z
loop_
_atom_site_type_symbol
_atom_site_label
_atom_site_fract_x
_atom_site_fract_y
_atom_site_fract_z
Si Si1 0.226363 0.660541 0.247548
Si Si2 0.212414 0.865738 0.692213
Si Si3 0.005226 0.772379 0.218086
Si Si4 0.767669 0.843299 0.177969
Si Si5 0.385336 0.809487 0.916481
Si Si6 0.607422 0.217846 0.409774
Si Si7 0.232118 0.244957 0.252557
Si Si8 0.073729 0.247441 0.551358
O O1 0.317206 0.762836 0.400466
O O2 0.216482 0.439185 0.238554
O O3 0.132434 0.506631 0.351202
O O4 0.232560 0.920389 0.038803
O O5 0.306745 0.873521 0.842141
O O6 0.102835 0.541909 0.758050
O O7 0.190615 0.026770 0.690650
O O8 0.256414 0.070976 0.478405
O O9 0.992714 0.752181 0.393551
O O10 0.129502 0.967772 0.222743
O O11 0.000000 0.000000 0.000000
O O12 0.653099 0.548982 0.248024
O O13 0.844431 0.769078 0.261842
O O14 0.395199 0.857834 0.722091
O O15 0.319296 0.476565 0.095216
O O16 0.500000 0.000000 0.000000
O O17 0.500000 0.000000 0.500000
O O18 0.000000 0.000000 0.500000
#
# Coordination Sequence:
#
# PCOD9058317 Si02
#       8
#     2   2   2   2   2   2   2   2
#     4  11  22  45  69 102 147 183 232 291 344 427
#     4  12  24  46  75 108 145 192 239 290 366 424
#     4  12  24  45  71 104 151 192 236 294 352 428
#     4  11  24  44  75 104 141 191 232 293 361 419
#     4  12  28  49  76 105 142 188 241 303 363 424
#     4  11  26  49  73 102 138 179 240 300 353 428
#     4  12  24  47  72 106 152 189 236 300 352 427
#     4  11  23  43  66 104 145 187 238 284 347 418
#
# _framework density 23.115928
#
# number of rings (size 3 to 8) (size 9 to 14) (size 15 to 20)
#    0.000    0.500    6.250    2.625    0.000    3.500 
#    2.250    0.000    0.000    0.000    0.000    0.000 
#    0.000    0.000    0.000    0.000    0.000    0.000 
#
# Total GULP energy -89108.648562 kJ/mol
# GULP energy per Si atom -5569.290535 kJ/mol
# Density = 2.306331 g / cm^3
# Si number density = 23.115928 Si / 1000 Ang^3
#
#
#
# Elastic Constant Matrix: (Units=GPa)
#
#
# Indices 1 2 3 4 5 6 
#
# 1 65.9077 64.2656 45.0434 -16.3207 -11.6272 11.0738
# 2 64.2656 121.4769 21.9464 -14.1546 1.2347 25.3204
# 3 45.0434 21.9464 132.6309 -29.1271 6.8371 19.1397
# 4 -16.3207 -14.1546 -29.1271 49.4070 1.0438 -13.3784
# 5 -11.6272 1.2347 6.8371 1.0438 44.2720 -0.8093
# 6 11.0738 25.3204 19.1397 -13.3784 -0.8093 36.6704
#
#
#
# Elastic Compliance Matrix: (Units=1/GPa)
#
#
# Indices 1 2 3 4 5 6 
#
# 1 0.058603 -0.030619 -0.016984 0.004015 0.019033 0.014194
# 2 -0.030619 0.025702 0.008349 -0.001282 -0.010265 -0.013552
# 3 -0.016984 0.008349 0.014016 0.003327 -0.007062 -0.006894
# 4 0.004015 -0.001282 0.003327 0.025077 0.000115 0.007087
# 5 0.019033 -0.010265 -0.007062 0.000115 0.029065 0.005710
# 6 0.014194 -0.013552 -0.006894 0.007087 0.005710 0.038651
#
#
# Mechanical properties :
#
#
# Convention : Reuss Voigt Hill
#
# Bulk Modulus (GPa) = 50.47002 64.72514 57.59758
# Shear Modulus (GPa) = 18.10122 38.65389 28.37755
#
# Velocity S-wave (km/s) = 2.80136 4.09366 3.50754
# Velocity P-wave (km/s) = 5.68721 7.09965 6.43232
#
# Compressibility (1/GPa) = 0.01981374
#
# Stress axis : x y z
#
# Youngs Moduli (GPa) = 17.06401 38.90767 71.34928
#
# Poissons Ratio (x) = 1.19131 1.21177
# Poissons Ratio (y) = 0.52248 -0.59570
# Poissons Ratio (z) = 0.28981 -0.32485
#
# Static dielectric constant tensor:
#      x y z
#    x 1.770150 -0.224870 -0.050060 
#    y -0.224870 1.738350 -0.101060 
#    z -0.050060 -0.101060 2.055540 
# 
# From -- ./inp_files/342457.got.cif
#   From: 2010.05.17/outbox.cif.g08.bks.cpg/sg2_172_cif.got.tgz:342457.got - 2010.06.03 11:33:40.
