data_PCOD9058902
_publ_section_title
;
Structure prediction by ZEFSAII (Michael W. Deem and Ramdas Pophale) SiO2 
 PCOD9058902
Probable space group: P -1
;
_chemical_formula_sum "Si O2"
_cell_formula_units_Z 16
_cell_length_a 11.887892
_cell_length_b 8.579094
_cell_length_c 20.438214
_cell_angle_alpha 58.957342
_cell_angle_beta 148.367030
_cell_angle_gamma 135.658052
_cell_volume 738.972472
_symmetry_space_group_name_H-M "P -1"
_symmetry_group_IT_number 2
_symmetry_cell_setting 'triclinic'
loop_
_space_group_symop_operation_xyz
x,y,z
-x,-y,-z
loop_
_atom_site_type_symbol
_atom_site_label
_atom_site_fract_x
_atom_site_fract_y
_atom_site_fract_z
Si Si1 0.533285 0.944589 0.313379
Si Si2 0.915224 0.708214 0.040943
Si Si3 0.589978 0.849515 0.602269
Si Si4 0.284587 0.134079 0.704861
Si Si5 0.075132 0.402511 0.502242
Si Si6 0.715900 0.772938 0.548139
Si Si7 0.982215 0.938605 0.890775
Si Si8 0.692087 0.202381 0.000115
O O1 0.577429 0.817226 0.307497
O O2 0.580676 0.872665 0.421638
O O3 0.241536 0.876337 0.174194
O O4 0.787421 0.207865 0.369119
O O5 0.855318 0.767572 0.927805
O O6 0.830545 0.450829 0.050417
O O7 0.833536 0.805162 0.038655
O O8 0.310139 0.595184 0.530010
O O9 0.765685 0.853186 0.630266
O O10 0.762424 0.921225 0.738664
O O11 0.500000 0.000000 0.500000
O O12 0.186563 0.288059 0.621711
O O13 0.499514 0.189732 0.852614
O O14 0.001130 0.879259 0.631317
O O15 0.000000 0.500000 0.500000
O O16 0.500000 0.500000 0.500000
O O17 0.126088 0.855400 0.935735
O O18 0.500000 0.000000 0.000000
#
# Coordination Sequence:
#
# PCOD9058902 Si02
#       8
#     2   2   2   2   2   2   2   2
#     4  11  23  43  66  99 134 180 236 281 350 423
#     4  11  25  46  75 103 139 190 244 290 349 434
#     4  12  24  43  67 102 140 178 229 295 363 415
#     4  11  23  44  64 101 136 179 241 279 345 432
#     4  11  23  41  67  97 136 182 229 286 348 420
#     4  11  23  38  67  98 134 178 220 292 347 405
#     4  11  25  48  72 103 141 188 243 288 355 430
#     4  12  27  45  72 105 145 189 233 299 361 421
#
# _framework density 21.651686999999999
#
# number of rings (size 3 to 8) (size 9 to 14) (size 15 to 20)
#    0.000    0.750    1.250    7.875    5.250    1.500 
#    2.250    0.000    0.000    0.000    0.000    0.000 
#    0.000    0.000    0.000    0.000    0.000    0.000 
#
# Total GULP energy -89341.916318 kJ/mol
# GULP energy per Si atom -5583.869770 kJ/mol
# Density = 2.160241 g / cm^3
# Si number density = 21.651687 Si / 1000 Ang^3
#
#
#
# Elastic Constant Matrix: (Units=GPa)
#
#
# Indices 1 2 3 4 5 6 
#
# 1 96.6139 43.9026 9.4971 -7.9551 -10.1002 -14.5655
# 2 43.9026 133.9554 44.7662 -6.0044 0.3030 -5.4746
# 3 9.4971 44.7662 115.7144 0.1972 -12.5070 0.2941
# 4 -7.9551 -6.0044 0.1972 15.0298 -0.6856 2.3527
# 5 -10.1002 0.3030 -12.5070 -0.6856 38.7392 -6.3317
# 6 -14.5655 -5.4746 0.2941 2.3527 -6.3317 39.8936
#
#
#
# Elastic Compliance Matrix: (Units=1/GPa)
#
#
# Indices 1 2 3 4 5 6 
#
# 1 0.013982 -0.004541 0.001122 0.005020 0.004943 0.004962
# 2 -0.004541 0.010312 -0.003900 0.001763 -0.002612 -0.000733
# 3 0.001122 -0.003900 0.010465 -0.001001 0.003758 0.000453
# 4 0.005020 0.001763 -0.001001 0.070272 0.001929 -0.001756
# 5 0.004943 -0.002612 0.003758 0.001929 0.029345 0.005962
# 6 0.004962 -0.000733 0.000453 -0.001756 0.005962 0.027824
#
#
# Mechanical properties :
#
#
# Convention : Reuss Voigt Hill
#
# Bulk Modulus (GPa) = 49.69767 60.29061 54.99414
# Shear Modulus (GPa) = 27.24139 35.27372 31.25755
#
# Velocity S-wave (km/s) = 3.55091 4.04064 3.80367
# Velocity P-wave (km/s) = 6.30992 7.04806 6.68918
#
# Compressibility (1/GPa) = 0.02012167
#
# Stress axis : x y z
#
# Youngs Moduli (GPa) = 71.52187 96.97704 95.55258
#
# Poissons Ratio (x) = 0.44035 -0.10723
# Poissons Ratio (y) = 0.32477 0.37266
# Poissons Ratio (z) = -0.08027 0.37822
#
# Static dielectric constant tensor:
#      x y z
#    x 1.913520 -0.026040 -0.079030 
#    y -0.026040 1.852930 -0.008290 
#    z -0.079030 -0.008290 1.843270 
# 
# From -- ./inp_files/594070.got.cif
#   From: 2010.05.17/outbox.cif.g08.bks.cpg/sg2_298_cif.got.tgz:594070.got - 2010.06.03 11:33:40.
