data_PCOD9058729
_publ_section_title
;
Structure prediction by ZEFSAII (Michael W. Deem and Ramdas Pophale) SiO2 
 PCOD9058729
Probable space group: P -1
;
_chemical_formula_sum "Si O2"
_cell_formula_units_Z 14
_cell_length_a 11.965356
_cell_length_b 7.615295
_cell_length_c 8.376158
_cell_angle_alpha 71.176255
_cell_angle_beta 103.777607
_cell_angle_gamma 56.163634
_cell_volume 508.308518
_symmetry_space_group_name_H-M "P -1"
_symmetry_group_IT_number 2
_symmetry_cell_setting 'triclinic'
loop_
_space_group_symop_operation_xyz
x,y,z
-x,-y,-z
loop_
_atom_site_type_symbol
_atom_site_label
_atom_site_fract_x
_atom_site_fract_y
_atom_site_fract_z
Si Si1 0.303844 0.575959 0.126309
Si Si2 0.499177 0.054215 0.171331
Si Si3 0.378235 0.607761 0.639696
Si Si4 0.769744 0.570371 0.535161
Si Si5 0.961767 0.554695 0.211197
Si Si6 0.753053 0.925352 0.765498
Si Si7 0.136027 0.763189 0.727405
O O1 0.407046 0.341982 0.102214
O O2 0.432661 0.586120 0.221585
O O3 0.267880 0.488691 0.292684
O O4 0.139521 0.789789 0.912547
O O5 0.402447 0.015602 0.258049
O O6 0.672270 0.861595 0.365803
O O7 0.500000 0.000000 0.000000
O O8 0.306281 0.492395 0.593625
O O9 0.286939 0.722371 0.740883
O O10 0.308009 0.831446 0.424249
O O11 0.954186 0.416774 0.632781
O O12 0.118206 0.321735 0.230053
O O13 0.876547 0.449531 0.234721
O O14 0.849250 0.817144 0.996187
O O15 0.000000 0.000000 0.500000
#
# Coordination Sequence:
#
# PCOD9058729 Si02
#       7
#     2   2   2   2   2   2   2
#     4  12  24  49  75 102 147 196 239 307 370 431
#     4  12  25  45  76 111 141 191 251 303 364 437
#     4  12  27  46  70 113 150 190 245 302 364 434
#     4  12  26  45  74 109 148 195 248 294 369 445
#     4  11  23  47  75 102 143 204 237 293 369 438
#     4  11  22  47  75 104 147 190 246 296 368 439
#     4  12  26  46  73 109 143 189 251 306 365 429
#
# _framework density 27.542327
#
# number of rings (size 3 to 8) (size 9 to 14) (size 15 to 20)
#    0.000    0.286    5.714    3.857    0.000    1.143 
#    0.000    0.000    0.000    0.000    0.000    0.000 
#    0.000    0.000    0.000    0.000    0.000    0.000 
#
# Total GULP energy -78294.899080 kJ/mol
# GULP energy per Si atom -5592.492791 kJ/mol
# Density = 2.747964 g / cm^3
# Si number density = 27.542327 Si / 1000 Ang^3
#
#
#
# Elastic Constant Matrix: (Units=GPa)
#
#
# Indices 1 2 3 4 5 6 
#
# 1 182.7892 10.6789 61.1855 7.3382 0.6727 12.1568
# 2 10.6789 43.2033 -0.1562 7.7227 -7.1942 8.5910
# 3 61.1855 -0.1562 213.2204 -14.9417 1.3766 14.3218
# 4 7.3382 7.7227 -14.9417 43.9358 1.5635 -1.0195
# 5 0.6727 -7.1942 1.3766 1.5635 56.5548 13.4929
# 6 12.1568 8.5910 14.3218 -1.0195 13.4929 38.5832
#
#
#
# Elastic Compliance Matrix: (Units=1/GPa)
#
#
# Indices 1 2 3 4 5 6 
#
# 1 0.006283 -0.001029 -0.001833 -0.001525 0.000159 -0.001166
# 2 -0.001029 0.026698 0.000473 -0.004733 0.005390 -0.007806
# 3 -0.001833 0.000473 0.005465 0.002035 0.000274 -0.001598
# 4 -0.001525 -0.004733 0.002035 0.024651 -0.001807 0.002062
# 5 0.000159 0.005390 0.000274 -0.001807 0.020449 -0.008551
# 6 -0.001166 -0.007806 -0.001598 0.002062 -0.008551 0.031662
#
#
# Mechanical properties :
#
#
# Convention : Reuss Voigt Hill
#
# Bulk Modulus (GPa) = 29.70272 64.73660 47.21966
# Shear Modulus (GPa) = 38.10740 52.31507 45.21123
#
# Velocity S-wave (km/s) = 3.72370 4.36299 4.05596
# Velocity P-wave (km/s) = 5.41256 6.99545 6.25428
#
# Compressibility (1/GPa) = 0.03366696
#
# Stress axis : x y z
#
# Youngs Moduli (GPa) = 159.16788 37.45572 182.99847
#
# Poissons Ratio (x) = 0.03853 0.33547
# Poissons Ratio (y) = 0.16372 -0.08648
# Poissons Ratio (z) = 0.29178 -0.01770
#
# Static dielectric constant tensor:
#      x y z
#    x 2.080190 0.009480 0.095730 
#    y 0.009480 2.429330 0.017300 
#    z 0.095730 0.017300 2.241000 
# 
# From -- ./inp_files/243074.got.cif
#   From: 2010.05.17/outbox.cif.g08.bks.cpg/sg2_122_cif.got.tgz:243074.got - 2010.06.03 11:33:40.
