data_PCOD9058120
_publ_section_title
;
Structure prediction by ZEFSAII (Michael W. Deem and Ramdas Pophale) SiO2 
 PCOD9058120
Probable space group: P -1
;
_chemical_formula_sum "Si O2"
_cell_formula_units_Z 16
_cell_length_a 19.616131
_cell_length_b 8.832502
_cell_length_c 11.011033
_cell_angle_alpha 110.292062
_cell_angle_beta 136.407828
_cell_angle_gamma 38.854333
_cell_volume 713.647606
_symmetry_space_group_name_H-M "P -1"
_symmetry_group_IT_number 2
_symmetry_cell_setting 'triclinic'
loop_
_space_group_symop_operation_xyz
x,y,z
-x,-y,-z
loop_
_atom_site_type_symbol
_atom_site_label
_atom_site_fract_x
_atom_site_fract_y
_atom_site_fract_z
Si Si1 0.108845 0.533158 0.999564
Si Si2 0.950632 0.705390 0.591556
Si Si3 0.732623 0.105132 0.768493
Si Si4 0.145375 0.930797 0.634786
Si Si5 0.746583 0.986023 0.000447
Si Si6 0.455319 0.276118 0.882823
Si Si7 0.391003 0.992347 0.733152
Si Si8 0.409699 0.369680 0.338615
O O1 0.087406 0.565092 0.832774
O O2 0.266719 0.434891 0.216846
O O3 0.928953 0.818669 0.905923
O O4 0.152240 0.290082 0.012430
O O5 0.000000 0.500000 0.500000
O O6 0.894123 0.938684 0.509673
O O7 0.784333 0.859039 0.488147
O O8 0.711673 0.163575 0.901723
O O9 0.594776 0.145522 0.577948
O O10 0.672377 0.343834 0.685555
O O11 0.322823 0.598653 0.787887
O O12 0.147261 0.074181 0.772496
O O13 0.000000 0.000000 0.500000
O O14 0.582495 0.125856 0.891754
O O15 0.368124 0.216108 0.759733
O O16 0.562873 0.131537 0.106744
O O17 0.540671 0.747617 0.766483
#
# Coordination Sequence:
#
# PCOD9058120 Si02
#       8
#     2   2   2   2   2   2   2   2
#     4  12  25  48  71  99 136 185 235 281 343 410
#     4  12  24  43  71 101 140 180 225 281 348 416
#     4  11  27  46  71  97 138 179 238 289 336 405
#     4  12  27  41  66 108 142 179 223 285 349 412
#     4  12  25  46  67 100 140 178 226 287 340 411
#     4  11  24  42  69 101 136 180 227 278 351 412
#     4  11  22  44  71  96 138 183 223 285 344 415
#     4  11  25  47  71 100 130 187 234 284 345 398
#
# _framework density 22.420029
#
# number of rings (size 3 to 8) (size 9 to 14) (size 15 to 20)
#    0.000    0.500    5.000    2.625    7.000    0.500 
#    2.250    0.000    0.000    0.000    0.000    0.000 
#    0.000    0.000    0.000    0.000    0.000    0.000 
#
# Total GULP energy -89463.856740 kJ/mol
# GULP energy per Si atom -5591.491046 kJ/mol
# Density = 2.236900 g / cm^3
# Si number density = 22.420029 Si / 1000 Ang^3
#
#
#
# Elastic Constant Matrix: (Units=GPa)
#
#
# Indices 1 2 3 4 5 6 
#
# 1 72.1058 15.6889 20.0237 -5.4851 10.6354 -5.2581
# 2 15.6889 71.5341 7.9874 -18.9013 14.0996 4.2528
# 3 20.0237 7.9874 63.8818 2.1142 20.5410 3.8002
# 4 -5.4851 -18.9013 2.1142 29.2536 -0.6189 4.9795
# 5 10.6354 14.0996 20.5410 -0.6189 47.1143 -0.5390
# 6 -5.2581 4.2528 3.8002 4.9795 -0.5390 37.4976
#
#
#
# Elastic Compliance Matrix: (Units=1/GPa)
#
#
# Indices 1 2 3 4 5 6 
#
# 1 0.016177 -0.002769 -0.004699 0.001074 -0.000727 0.002906
# 2 -0.002769 0.019118 -0.000092 0.012463 -0.004941 -0.004273
# 3 -0.004699 -0.000092 0.019800 -0.002109 -0.007600 -0.002484
# 4 0.001074 0.012463 -0.002109 0.043709 -0.002557 -0.006890
# 5 -0.000727 -0.004941 -0.007600 -0.002557 0.026170 0.001944
# 6 0.002906 -0.004273 -0.002484 -0.006890 0.001944 0.028755
#
#
# Mechanical properties :
#
#
# Convention : Reuss Voigt Hill
#
# Bulk Modulus (GPa) = 25.01577 32.76909 28.89243
# Shear Modulus (GPa) = 27.44648 33.69454 30.57051
#
# Velocity S-wave (km/s) = 3.50265 3.88090 3.69661
# Velocity P-wave (km/s) = 5.24786 5.89318 5.57986
#
# Compressibility (1/GPa) = 0.03997478
#
# Stress axis : x y z
#
# Youngs Moduli (GPa) = 61.81744 52.30699 50.50581
#
# Poissons Ratio (x) = 0.14483 0.23733
# Poissons Ratio (y) = 0.17117 0.00464
# Poissons Ratio (z) = 0.29048 0.00480
#
# Static dielectric constant tensor:
#      x y z
#    x 1.791830 -0.005720 -0.013070 
#    y -0.005720 1.851800 0.001700 
#    z -0.013070 0.001700 1.853310 
# 
# From -- ./inp_files/274057.got.cif
#   From: 2010.05.17/outbox.cif.g08.bks.cpg/sg2_138_cif.got.tgz:274057.got - 2010.06.03 11:33:40.
