data_PCOD9058239
_publ_section_title
;
Structure prediction by ZEFSAII (Michael W. Deem and Ramdas Pophale) SiO2 
 PCOD9058239
Probable space group: P -1
;
_chemical_formula_sum "Si O2"
_cell_formula_units_Z 14
_cell_length_a 15.385114
_cell_length_b 13.042570
_cell_length_c 20.436319
_cell_angle_alpha 151.665393
_cell_angle_beta 19.863706
_cell_angle_gamma 152.559346
_cell_volume 614.397663
_symmetry_space_group_name_H-M "P -1"
_symmetry_group_IT_number 2
_symmetry_cell_setting 'triclinic'
loop_
_space_group_symop_operation_xyz
x,y,z
-x,-y,-z
loop_
_atom_site_type_symbol
_atom_site_label
_atom_site_fract_x
_atom_site_fract_y
_atom_site_fract_z
Si Si1 0.222014 0.888904 0.968209
Si Si2 0.505620 0.540950 0.207394
Si Si3 0.345385 0.905066 0.124098
Si Si4 0.779197 0.588761 0.312720
Si Si5 0.793500 0.037766 0.219806
Si Si6 0.346927 0.239735 0.638410
Si Si7 0.279772 0.344451 0.121557
O O1 0.111422 0.621930 0.875582
O O2 0.485038 0.911727 0.839199
O O3 0.963779 0.913046 0.203343
O O4 0.318038 0.097325 0.965811
O O5 0.486396 0.583749 0.322902
O O6 0.304960 0.465653 0.242871
O O7 0.692101 0.803477 0.202225
O O8 0.603550 0.324085 0.016993
O O9 0.019429 0.823154 0.299492
O O10 0.500000 0.000000 0.000000
O O11 0.500000 0.500000 0.500000
O O12 0.708482 0.631046 0.312603
O O13 0.531584 0.087605 0.406713
O O14 0.976320 0.258069 0.257540
O O15 0.000000 0.000000 0.000000
O O16 0.500000 0.500000 0.000000
#
# Coordination Sequence:
#
# PCOD9058239 Si02
#       7
#     2   2   2   2   2   2   2
#     4  11  24  46  72 104 144 182 247 290 354 439
#     4  11  24  44  71 102 138 185 242 291 350 430
#     4  11  22  44  76 101 141 186 236 300 355 425
#     4  12  27  45  74 107 148 189 236 301 368 421
#     4  12  26  46  71 102 150 184 238 299 362 424
#     4  12  25  44  74 106 135 196 242 291 357 431
#     4  11  24  43  73 105 139 192 229 299 359 418
#
# _framework density 22.786543999999999
#
# number of rings (size 3 to 8) (size 9 to 14) (size 15 to 20)
#    0.000    0.571    5.714    1.714    4.000    1.143 
#    2.571    1.429    0.000    0.000    0.000    0.000 
#    0.000    0.000    0.000    0.000    0.000    0.000 
#
# Total GULP energy -78069.506616 kJ/mol
# GULP energy per Si atom -5576.393330 kJ/mol
# Density = 2.273468 g / cm^3
# Si number density = 22.786544 Si / 1000 Ang^3
#
#
#
# Elastic Constant Matrix: (Units=GPa)
#
#
# Indices 1 2 3 4 5 6 
#
# 1 109.5901 41.9988 21.6634 -15.4235 -10.8330 14.6589
# 2 41.9988 130.1624 27.0895 -15.0830 -17.1670 -4.5678
# 3 21.6634 27.0895 91.7070 -11.9523 -14.8228 -4.1923
# 4 -15.4235 -15.0830 -11.9523 34.7275 1.1150 -12.4788
# 5 -10.8330 -17.1670 -14.8228 1.1150 23.4679 3.3102
# 6 14.6589 -4.5678 -4.1923 -12.4788 3.3102 51.7691
#
#
#
# Elastic Compliance Matrix: (Units=1/GPa)
#
#
# Indices 1 2 3 4 5 6 
#
# 1 0.011520 -0.002963 -0.001283 0.002119 0.002703 -0.003289
# 2 -0.002963 0.009926 -0.000922 0.003284 0.004855 0.002121
# 3 -0.001283 -0.000922 0.013156 0.004028 0.006583 0.001897
# 4 0.002119 0.003284 0.004028 0.035458 0.003059 0.008367
# 5 0.002703 0.004855 0.006583 0.003059 0.051759 -0.002376
# 6 -0.003289 0.002121 0.001897 0.008367 -0.002376 0.022758
#
#
# Mechanical properties :
#
#
# Convention : Reuss Voigt Hill
#
# Bulk Modulus (GPa) = 41.21421 56.99587 49.10504
# Shear Modulus (GPa) = 30.67468 38.04009 34.35739
#
# Velocity S-wave (km/s) = 3.67301 4.09027 3.88724
# Velocity P-wave (km/s) = 6.00952 6.88290 6.46099
#
# Compressibility (1/GPa) = 0.02426348
#
# Stress axis : x y z
#
# Youngs Moduli (GPa) = 86.80881 100.74348 76.01325
#
# Poissons Ratio (x) = 0.29854 0.09754
# Poissons Ratio (y) = 0.25725 0.07011
# Poissons Ratio (z) = 0.11140 0.09292
#
# Static dielectric constant tensor:
#      x y z
#    x 2.064800 -0.178730 -0.245210 
#    y -0.178730 2.210600 0.420550 
#    z -0.245210 0.420550 2.361210 
# 
# From -- ./inp_files/598016.got.cif
#   From: 2010.05.17/outbox.cif.g08.bks.cpg/sg2_300_cif.got.tgz:598016.got - 2010.06.03 11:33:40.
