data_PCOD9058446
_publ_section_title
;
Structure prediction by ZEFSAII (Michael W. Deem and Ramdas Pophale) SiO2 
 PCOD9058446
Probable space group: P -1
;
_chemical_formula_sum "Si O2"
_cell_formula_units_Z 16
_cell_length_a 9.304257
_cell_length_b 12.342346
_cell_length_c 9.420442
_cell_angle_alpha 72.976630
_cell_angle_beta 127.831818
_cell_angle_gamma 122.538762
_cell_volume 719.185730
_symmetry_space_group_name_H-M "P -1"
_symmetry_group_IT_number 2
_symmetry_cell_setting 'triclinic'
loop_
_space_group_symop_operation_xyz
x,y,z
-x,-y,-z
loop_
_atom_site_type_symbol
_atom_site_label
_atom_site_fract_x
_atom_site_fract_y
_atom_site_fract_z
Si Si1 0.282450 0.745055 0.717101
Si Si2 0.871949 0.737944 0.365860
Si Si3 0.716951 0.450237 0.442342
Si Si4 0.775381 0.891438 0.454244
Si Si5 0.452288 0.980886 0.309099
Si Si6 0.982579 0.862626 0.081869
Si Si7 0.245096 0.287414 0.258648
Si Si8 0.995840 0.425901 0.168263
O O1 0.272546 0.649582 0.623109
O O2 0.093092 0.775795 0.558945
O O3 0.226842 0.669256 0.861143
O O4 0.488315 0.879705 0.775443
O O5 0.773908 0.584919 0.348441
O O6 0.731415 0.773297 0.368698
O O7 0.919213 0.819224 0.220791
O O8 0.484029 0.387763 0.380097
O O9 0.872957 0.481922 0.657085
O O10 0.597853 0.932050 0.340137
O O11 0.794067 0.843830 0.639411
O O12 0.000000 0.000000 0.500000
O O13 0.212408 0.882228 0.186593
O O14 0.500000 0.000000 0.500000
O O15 0.821793 0.749312 0.929002
O O16 0.000000 0.000000 0.000000
O O17 0.107538 0.341576 0.228773
O O18 0.000000 0.500000 0.000000
#
# Coordination Sequence:
#
# PCOD9058446 Si02
#       8
#     2   2   2   2   2   2   2   2
#     4  11  22  45  74 100 140 186 234 285 354 434
#     4  11  23  44  72  99 142 186 231 289 353 425
#     4  11  25  47  72 100 136 196 237 279 363 425
#     4  12  22  45  74  99 141 186 236 290 356 430
#     4  12  23  44  77 106 134 190 241 284 363 424
#     4  12  27  46  67 107 145 181 239 297 347 417
#     4  12  26  45  67 101 146 182 236 297 347 419
#     4  11  25  44  68 104 141 175 234 297 356 418
#
# _framework density 22.247382999999999
#
# number of rings (size 3 to 8) (size 9 to 14) (size 15 to 20)
#    0.000    0.500    5.000    4.875    3.500    0.500 
#    2.250    5.625    0.000    0.000    0.000    0.000 
#    0.000    0.000    0.000    0.000    0.000    0.000 
#
# Total GULP energy -89563.414754 kJ/mol
# GULP energy per Si atom -5597.713422 kJ/mol
# Density = 2.219675 g / cm^3
# Si number density = 22.247383 Si / 1000 Ang^3
#
#
#
# Elastic Constant Matrix: (Units=GPa)
#
#
# Indices 1 2 3 4 5 6 
#
# 1 94.6579 22.4519 18.5624 -3.1768 -9.7430 -15.6947
# 2 22.4519 85.3799 30.5542 -18.1627 -6.7603 2.5133
# 3 18.5624 30.5542 65.8776 -22.6057 -16.3594 12.9282
# 4 -3.1768 -18.1627 -22.6057 29.9694 11.5443 -7.7014
# 5 -9.7430 -6.7603 -16.3594 11.5443 31.7738 -2.1244
# 6 -15.6947 2.5133 12.9282 -7.7014 -2.1244 53.2425
#
#
#
# Elastic Compliance Matrix: (Units=1/GPa)
#
#
# Indices 1 2 3 4 5 6 
#
# 1 0.012821 -0.002616 -0.003539 -0.002863 0.002891 0.004463
# 2 -0.002616 0.015289 -0.004850 0.006356 -0.002321 0.000511
# 3 -0.003539 -0.004850 0.024998 0.011932 0.006089 -0.004915
# 4 -0.002863 0.006356 0.011932 0.051202 -0.011792 0.002894
# 5 0.002891 -0.002321 0.006089 -0.011792 0.039240 -0.000657
# 6 0.004463 0.000511 -0.004915 0.002894 -0.000657 0.021660
#
#
# Mechanical properties :
#
#
# Convention : Reuss Voigt Hill
#
# Bulk Modulus (GPa) = 32.15805 43.22805 37.69305
# Shear Modulus (GPa) = 25.30543 34.62028 29.96285
#
# Velocity S-wave (km/s) = 3.37628 3.94909 3.67386
# Velocity P-wave (km/s) = 5.44841 6.34559 5.91404
#
# Compressibility (1/GPa) = 0.03109641
#
# Stress axis : x y z
#
# Youngs Moduli (GPa) = 78.00006 65.40602 40.00371
#
# Poissons Ratio (x) = 0.17112 0.14159
# Poissons Ratio (y) = 0.20406 0.19401
# Poissons Ratio (z) = 0.27608 0.31720
#
# Static dielectric constant tensor:
#      x y z
#    x 1.813230 -0.003870 0.016890 
#    y -0.003870 1.849080 0.002680 
#    z 0.016890 0.002680 1.853760 
# 
# From -- ./inp_files/186952.got.cif
#   From: 2010.05.17/outbox.cif.g08.bks.cpg/sg2_94_cif.got.tgz:186952.got - 2010.06.03 11:33:40.
