data_PCOD9058960
_publ_section_title
;
Structure prediction by ZEFSAII (Michael W. Deem and Ramdas Pophale) SiO2 
 PCOD9058960
Probable space group: P -1
;
_chemical_formula_sum "Si O2"
_cell_formula_units_Z 16
_cell_length_a 15.252471
_cell_length_b 14.570164
_cell_length_c 10.733268
_cell_angle_alpha 137.480744
_cell_angle_beta 129.457053
_cell_angle_gamma 27.242963
_cell_volume 736.429152
_symmetry_space_group_name_H-M "P -1"
_symmetry_group_IT_number 2
_symmetry_cell_setting 'triclinic'
loop_
_space_group_symop_operation_xyz
x,y,z
-x,-y,-z
loop_
_atom_site_type_symbol
_atom_site_label
_atom_site_fract_x
_atom_site_fract_y
_atom_site_fract_z
Si Si1 0.950211 0.658472 0.917938
Si Si2 0.692383 0.540424 0.002015
Si Si3 0.584731 0.422860 0.179808
Si Si4 0.778189 0.855140 0.403019
Si Si5 0.716458 0.295931 0.443459
Si Si6 0.489954 0.960494 0.094523
Si Si7 0.423821 0.797232 0.231869
Si Si8 0.048856 0.167715 0.683466
O O1 0.081707 0.654148 0.979034
O O2 0.063687 0.415509 0.735164
O O3 0.728671 0.859771 0.886020
O O4 0.955936 0.687122 0.099581
O O5 0.609864 0.708648 0.981437
O O6 0.580562 0.707891 0.189637
O O7 0.615145 0.461701 0.848075
O O8 0.708169 0.316061 0.307355
O O9 0.535324 0.610020 0.254969
O O10 0.668874 0.234532 0.966803
O O11 0.589423 0.978662 0.287426
O O12 0.858784 0.898177 0.433395
O O13 0.721799 0.959915 0.593267
O O14 0.500000 0.500000 0.500000
O O15 0.843414 0.295822 0.611780
O O16 0.819053 0.059942 0.344780
O O17 0.500000 0.000000 0.000000
#
# Coordination Sequence:
#
# PCOD9058960 Si02
#       8
#     2   2   2   2   2   2   2   2
#     4  11  23  40  63  96 129 169 211 267 326 382
#     4   9  21  41  68  90 131 167 213 271 317 383
#     4   9  19  42  70  92 126 177 214 263 331 379
#     4  11  24  41  63  90 135 170 214 270 312 390
#     4  11  23  40  68  98 128 167 210 274 336 385
#     4  11  23  39  66  95 127 173 217 261 335 386
#     4   9  21  43  68  94 126 182 218 262 325 380
#     4  11  24  39  63 102 132 159 219 267 329 397
#
# _framework density 21.726462000000001
#
# number of rings (size 3 to 8) (size 9 to 14) (size 15 to 20)
#    0.750    1.000    1.250    2.625    1.750    6.000 
#    0.000    4.375    0.000    0.000    0.000    0.000 
#    0.000    0.000    0.000    0.000    0.000    0.000 
#
# Total GULP energy -89340.938818 kJ/mol
# GULP energy per Si atom -5583.808676 kJ/mol
# Density = 2.167701 g / cm^3
# Si number density = 21.726462 Si / 1000 Ang^3
#
#
#
# Elastic Constant Matrix: (Units=GPa)
#
#
# Indices 1 2 3 4 5 6 
#
# 1 84.0184 39.1037 0.7705 8.4379 1.1025 -4.7714
# 2 39.1037 113.9856 40.1150 -5.4630 5.0149 -25.6433
# 3 0.7705 40.1150 84.6073 14.0797 -7.1682 -10.3262
# 4 8.4379 -5.4630 14.0797 13.6005 -4.2489 -5.9389
# 5 1.1025 5.0149 -7.1682 -4.2489 29.2031 1.9684
# 6 -4.7714 -25.6433 -10.3262 -5.9389 1.9684 39.2087
#
#
#
# Elastic Compliance Matrix: (Units=1/GPa)
#
#
# Indices 1 2 3 4 5 6 
#
# 1 0.022724 -0.016496 0.012748 -0.038437 0.000219 -0.010499
# 2 -0.016496 0.027760 -0.019030 0.048255 -0.003048 0.018599
# 3 0.012748 -0.019030 0.027640 -0.047946 0.003340 -0.011046
# 4 -0.038437 0.048255 -0.047946 0.186615 0.005700 0.042235
# 5 0.000219 -0.003048 0.003340 0.005700 0.036546 -0.002059
# 6 -0.010499 0.018599 -0.011046 0.042235 -0.002059 0.039982
#
#
# Mechanical properties :
#
#
# Convention : Reuss Voigt Hill
#
# Bulk Modulus (GPa) = 30.70558 49.17664 39.94111
# Shear Modulus (GPa) = 12.57294 29.91060 21.24177
#
# Velocity S-wave (km/s) = 2.40821 3.71440 3.13020
# Velocity P-wave (km/s) = 4.67933 6.40931 5.61139
#
# Compressibility (1/GPa) = 0.03256737
#
# Stress axis : x y z
#
# Youngs Moduli (GPa) = 44.00702 36.02281 36.17980
#
# Poissons Ratio (x) = 0.59422 -0.46121
# Poissons Ratio (y) = 0.72592 0.68851
# Poissons Ratio (z) = -0.56099 0.68552
#
# Static dielectric constant tensor:
#      x y z
#    x 1.822260 -0.003190 -0.008390 
#    y -0.003190 1.757470 0.015110 
#    z -0.008390 0.015110 1.831750 
# 
# From -- ./inp_files/455966.got.cif
#   From: 2010.05.17/outbox.cif.g08.bks.cpg/sg2_228_cif.got.tgz:455966.got - 2010.06.03 11:33:40.
