data_PCOD9058322
_publ_section_title
;
Structure prediction by ZEFSAII (Michael W. Deem and Ramdas Pophale) SiO2 
 PCOD9058322
Probable space group: P -1
;
_chemical_formula_sum "Si O2"
_cell_formula_units_Z 12
_cell_length_a 10.452486
_cell_length_b 9.404192
_cell_length_c 12.002317
_cell_angle_alpha 140.136297
_cell_angle_beta 100.509565
_cell_angle_gamma 56.156993
_cell_volume 557.567500
_symmetry_space_group_name_H-M "P -1"
_symmetry_group_IT_number 2
_symmetry_cell_setting 'triclinic'
loop_
_space_group_symop_operation_xyz
x,y,z
-x,-y,-z
loop_
_atom_site_type_symbol
_atom_site_label
_atom_site_fract_x
_atom_site_fract_y
_atom_site_fract_z
Si Si1 0.102899 0.149332 0.855749
Si Si2 0.988371 0.274684 0.664114
Si Si3 0.554269 0.023123 0.289267
Si Si4 0.659409 0.910420 0.900347
Si Si5 0.697458 0.361487 0.278489
Si Si6 0.202651 0.409476 0.753906
O O1 0.001316 0.294360 0.811899
O O2 0.280714 0.090176 0.828455
O O3 0.183130 0.821357 0.704870
O O4 0.964847 0.336694 0.045939
O O5 0.823935 0.574249 0.759467
O O6 0.155584 0.207685 0.596924
O O7 0.000000 0.000000 0.500000
O O8 0.405869 0.066104 0.221286
O O9 0.478514 0.333161 0.518478
O O10 0.630945 0.784660 0.256461
O O11 0.500000 0.000000 0.000000
O O12 0.683196 0.143009 0.077929
O O13 0.775710 0.454867 0.264149
#
# Coordination Sequence:
#
# PCOD9058322 Si02
#       6
#     2   2   2   2   2   2
#     4  11  22  45  69  92 130 180 222 264 329 400
#     4  11  24  42  68  97 129 177 228 268 320 408
#     4  11  24  45  67  99 133 178 224 267 330 404
#     4  12  24  41  69 101 130 174 228 269 327 398
#     4  12  25  42  72  98 138 171 219 282 335 384
#     4  11  24  46  66  97 136 175 216 277 342 381
#
# _framework density 21.522055000000002
#
# number of rings (size 3 to 8) (size 9 to 14) (size 15 to 20)
#    0.000    0.667    3.333    5.500    4.667    0.667 
#    3.000    1.667    0.000    0.000    0.000    0.000 
#    0.000    0.000    0.000    0.000    0.000    0.000 
#
# Total GULP energy -66909.439947 kJ/mol
# GULP energy per Si atom -5575.786662 kJ/mol
# Density = 2.147307 g / cm^3
# Si number density = 21.522055 Si / 1000 Ang^3
#
#
#
# Elastic Constant Matrix: (Units=GPa)
#
#
# Indices 1 2 3 4 5 6 
#
# 1 103.3079 66.4114 45.9614 3.9248 17.4733 14.4050
# 2 66.4114 141.7576 23.7479 17.4683 -6.2993 -5.0797
# 3 45.9614 23.7479 100.1910 16.8923 12.6867 -11.1573
# 4 3.9248 17.4683 16.8923 28.7324 -2.3588 0.8111
# 5 17.4733 -6.2993 12.6867 -2.3588 32.9754 2.1411
# 6 14.4050 -5.0797 -11.1573 0.8111 2.1411 51.6735
#
#
#
# Elastic Compliance Matrix: (Units=1/GPa)
#
#
# Indices 1 2 3 4 5 6 
#
# 1 0.024083 -0.011552 -0.009604 0.008830 -0.010015 -0.009647
# 2 -0.011552 0.013393 0.003225 -0.008068 0.006532 0.005089
# 3 -0.009604 0.003225 0.016397 -0.010628 -0.001804 0.006777
# 4 0.008830 -0.008068 -0.010628 0.045053 0.001502 -0.006319
# 5 -0.010015 0.006532 -0.001804 0.001502 0.037586 0.001464
# 6 -0.009647 0.005089 0.006777 -0.006319 0.001464 0.024043
#
#
# Mechanical properties :
#
#
# Convention : Reuss Voigt Hill
#
# Bulk Modulus (GPa) = 55.52612 68.61087 62.06850
# Shear Modulus (GPa) = 24.70082 36.61863 30.65972
#
# Velocity S-wave (km/s) = 3.39144 4.12933 3.77845
# Velocity P-wave (km/s) = 6.41806 7.39485 6.92370
#
# Compressibility (1/GPa) = 0.01800954
#
# Stress axis : x y z
#
# Youngs Moduli (GPa) = 41.52369 74.66640 60.98532
#
# Poissons Ratio (x) = 0.86257 0.58572
# Poissons Ratio (y) = 0.47969 -0.19667
# Poissons Ratio (z) = 0.39881 -0.24079
#
# Static dielectric constant tensor:
#      x y z
#    x 1.804020 -0.033350 0.106220 
#    y -0.033350 1.828040 -0.001790 
#    z 0.106220 -0.001790 1.973000 
# 
# From -- ./inp_files/183359.got.cif
#   From: 2010.05.17/outbox.cif.g08.bks.cpg/sg2_92_cif.got.tgz:183359.got - 2010.06.03 11:33:40.
