data_PCOD9058519
_publ_section_title
;
Structure prediction by ZEFSAII (Michael W. Deem and Ramdas Pophale) SiO2 
 PCOD9058519
Probable space group: P -1
;
_chemical_formula_sum "Si O2"
_cell_formula_units_Z 14
_cell_length_a 9.429732
_cell_length_b 10.529149
_cell_length_c 9.865238
_cell_angle_alpha 95.704265
_cell_angle_beta 44.014336
_cell_angle_gamma 103.616710
_cell_volume 657.903175
_symmetry_space_group_name_H-M "P -1"
_symmetry_group_IT_number 2
_symmetry_cell_setting 'triclinic'
loop_
_space_group_symop_operation_xyz
x,y,z
-x,-y,-z
loop_
_atom_site_type_symbol
_atom_site_label
_atom_site_fract_x
_atom_site_fract_y
_atom_site_fract_z
Si Si1 0.994726 0.388651 0.384279
Si Si2 0.417681 0.310088 0.157647
Si Si3 0.786804 0.982469 0.727942
Si Si4 0.598839 0.215840 0.768518
Si Si5 0.634163 0.466349 0.277560
Si Si6 0.987606 0.349654 0.102176
Si Si7 0.869232 0.906561 0.966829
O O1 0.191338 0.328038 0.271586
O O2 0.013700 0.443486 0.225491
O O3 0.000000 0.500000 0.500000
O O4 0.774491 0.285796 0.550423
O O5 0.369822 0.156931 0.217977
O O6 0.501796 0.414725 0.228265
O O7 0.556467 0.314980 0.926337
O O8 0.680054 0.100509 0.776228
O O9 0.851468 0.973737 0.840457
O O10 0.000000 0.000000 0.500000
O O11 0.376949 0.157088 0.841764
O O12 0.500000 0.500000 0.500000
O O13 0.759323 0.352500 0.206233
O O14 0.824462 0.591345 0.123537
O O15 0.016169 0.213214 0.126163
O O16 0.000000 0.000000 0.000000
#
# Coordination Sequence:
#
# PCOD9058519 Si02
#       7
#     2   2   2   2   2   2   2
#     4  12  24  42  70 100 132 173 227 278 331 401
#     4  11  23  42  68  99 126 176 226 272 333 402
#     4  11  22  46  68 100 133 173 228 273 337 409
#     4  11  24  44  72  98 137 177 219 282 340 403
#     4  11  27  44  67  94 136 183 220 277 338 400
#     4  11  25  46  62  99 138 165 231 275 330 407
#     4  11  25  43  69  99 134 176 222 283 335 397
#
# _framework density 21.279724999999999
#
# number of rings (size 3 to 8) (size 9 to 14) (size 15 to 20)
#    0.000    0.857    4.286    3.429    8.000    3.429 
#    0.000    1.429    0.000    0.000    0.000    0.000 
#    0.000    0.000    0.000    0.000    0.000    0.000 
#
# Total GULP energy -78205.935704 kJ/mol
# GULP energy per Si atom -5586.138265 kJ/mol
# Density = 2.123129 g / cm^3
# Si number density = 21.279725 Si / 1000 Ang^3
#
#
#
# Elastic Constant Matrix: (Units=GPa)
#
#
# Indices 1 2 3 4 5 6 
#
# 1 124.0088 27.8917 45.2349 3.1707 -8.8215 11.2690
# 2 27.8917 43.1648 23.9856 8.1564 3.0775 -4.1992
# 3 45.2349 23.9856 151.8242 -0.2013 -17.6482 -0.3827
# 4 3.1707 8.1564 -0.2013 30.5239 2.3816 2.9928
# 5 -8.8215 3.0775 -17.6482 2.3816 32.6315 5.9618
# 6 11.2690 -4.1992 -0.3827 2.9928 5.9618 30.9432
#
#
#
# Elastic Compliance Matrix: (Units=1/GPa)
#
#
# Indices 1 2 3 4 5 6 
#
# 1 0.011100 -0.007241 -0.001742 0.001054 0.003737 -0.005869
# 2 -0.007241 0.033219 -0.004055 -0.008429 -0.008410 0.009530
# 3 -0.001742 -0.004055 0.008262 0.001048 0.004444 -0.000771
# 4 0.001054 -0.008429 0.001048 0.035397 -0.000036 -0.004932
# 5 0.003737 -0.008410 0.004444 -0.000036 0.036589 -0.009493
# 6 -0.005869 0.009530 -0.000771 -0.004932 -0.009493 0.038044
#
#
# Mechanical properties :
#
#
# Convention : Reuss Voigt Hill
#
# Bulk Modulus (GPa) = 37.72971 57.02469 47.37720
# Shear Modulus (GPa) = 25.31329 33.61207 29.46268
#
# Velocity S-wave (km/s) = 3.45273 3.97865 3.72498
# Velocity P-wave (km/s) = 5.80206 6.92546 6.38850
#
# Compressibility (1/GPa) = 0.02650431
#
# Stress axis : x y z
#
# Youngs Moduli (GPa) = 90.08786 30.10338 121.02992
#
# Poissons Ratio (x) = 0.21798 0.21087
# Poissons Ratio (y) = 0.65233 0.49081
# Poissons Ratio (z) = 0.15696 0.12208
#
# Static dielectric constant tensor:
#      x y z
#    x 1.858400 -0.055750 0.004980 
#    y -0.055750 1.852120 0.041030 
#    z 0.004980 0.041030 1.864290 
# 
# From -- ./inp_files/188198.got.cif
#   From: 2010.05.17/outbox.cif.g08.bks.cpg/sg2_95_cif.got.tgz:188198.got - 2010.06.03 11:33:40.
