data_PCOD9058958
_publ_section_title
;
Structure prediction by ZEFSAII (Michael W. Deem and Ramdas Pophale) SiO2 
 PCOD9058958
Probable space group: P -1
;
_chemical_formula_sum "Si O2"
_cell_formula_units_Z 15
_cell_length_a 13.741365
_cell_length_b 11.659771
_cell_length_c 11.383650
_cell_angle_alpha 95.715521
_cell_angle_beta 147.527079
_cell_angle_gamma 105.654837
_cell_volume 729.986975
_symmetry_space_group_name_H-M "P -1"
_symmetry_group_IT_number 2
_symmetry_cell_setting 'triclinic'
loop_
_space_group_symop_operation_xyz
x,y,z
-x,-y,-z
loop_
_atom_site_type_symbol
_atom_site_label
_atom_site_fract_x
_atom_site_fract_y
_atom_site_fract_z
Si Si1 0.848861 0.319134 0.341430
Si Si2 0.000000 0.000000 0.000000
Si Si3 0.583322 0.801745 0.948837
Si Si4 0.332347 0.520376 0.489864
Si Si5 0.789202 0.272283 0.004149
Si Si6 0.494610 0.336627 0.565913
Si Si7 0.742837 0.680024 0.272096
Si Si8 0.070116 0.905244 0.826430
O O1 0.649660 0.241024 0.230642
O O2 0.746486 0.258442 0.099423
O O3 0.000000 0.500000 0.500000
O O4 0.042836 0.303066 0.564912
O O5 0.755610 0.818788 0.754665
O O6 0.984721 0.960164 0.839972
O O7 0.498179 0.672248 0.753349
O O8 0.705820 0.781678 0.175667
O O9 0.757391 0.965944 0.081605
O O10 0.436657 0.433940 0.580160
O O11 0.335346 0.564511 0.362761
O O12 0.065188 0.417335 0.263187
O O13 0.781394 0.131667 0.955109
O O14 0.616693 0.289112 0.764921
O O15 0.845379 0.752848 0.512966
O O16 0.500000 0.500000 0.000000
#
# Coordination Sequence:
#
# PCOD9058958 Si02
#       8
#     2   1   2   2   2   2   2   2
#     4  11  23  39  66 104 130 174 228 272 335 408
#     4  12  24  46  70  98 138 180 224 276 346 402
#     4  12  24  44  69  99 144 175 222 287 339 399
#     4  11  23  45  67 104 133 170 238 276 330 412
#     4  11  24  44  70  94 137 178 225 279 336 401
#     4  11  26  44  71  96 135 182 225 281 341 397
#     4  11  24  43  73 100 137 183 223 278 342 402
#     4  11  26  48  65 105 139 177 231 279 336 415
#
# _framework density 20.548311000000002
#
# number of rings (size 3 to 8) (size 9 to 14) (size 15 to 20)
#    0.000    0.800    5.333    1.600    3.733    2.667 
#    2.400    0.000    0.000    0.000    0.000    0.000 
#    0.000    0.000    0.000    0.000    0.000    0.000 
#
# Total GULP energy -83534.404379 kJ/mol
# GULP energy per Si atom -5568.960292 kJ/mol
# Density = 2.050154 g / cm^3
# Si number density = 20.548311 Si / 1000 Ang^3
#
#
#
# Elastic Constant Matrix: (Units=GPa)
#
#
# Indices 1 2 3 4 5 6 
#
# 1 114.9050 18.6640 53.4774 5.7604 5.0408 13.7531
# 2 18.6640 95.3817 48.6128 -5.0065 11.2341 15.7600
# 3 53.4774 48.6128 81.8725 2.7135 0.9178 -10.8247
# 4 5.7604 -5.0065 2.7135 42.0779 -4.1617 6.2645
# 5 5.0408 11.2341 0.9178 -4.1617 20.6926 7.3691
# 6 13.7531 15.7600 -10.8247 6.2645 7.3691 29.6270
#
#
#
# Elastic Compliance Matrix: (Units=1/GPa)
#
#
# Indices 1 2 3 4 5 6 
#
# 1 0.022151 0.014512 -0.027008 0.004599 -0.000966 -0.028602
# 2 0.014512 0.031693 -0.033380 0.008944 -0.004435 -0.036580
# 3 -0.027008 -0.033380 0.057132 -0.011849 0.000735 0.053490
# 4 0.004599 0.008944 -0.011849 0.028489 0.007045 -0.018998
# 5 -0.000966 -0.004435 0.000735 0.007045 0.056822 -0.012546
# 6 -0.028602 -0.036580 0.053490 -0.018998 -0.012546 0.093170
#
#
# Mechanical properties :
#
#
# Convention : Reuss Voigt Hill
#
# Bulk Modulus (GPa) = 52.02140 59.29641 55.65891
# Shear Modulus (GPa) = 12.89932 29.90648 21.40290
#
# Velocity S-wave (km/s) = 2.50822 3.81914 3.23087
# Velocity P-wave (km/s) = 5.81032 6.95467 6.40809
#
# Compressibility (1/GPa) = 0.01922286
#
# Stress axis : x y z
#
# Youngs Moduli (GPa) = 45.14551 31.55254 17.50343
#
# Poissons Ratio (x) = -0.45788 0.47273
# Poissons Ratio (y) = -0.65514 0.58427
# Poissons Ratio (z) = 1.21929 1.05322
#
# Static dielectric constant tensor:
#      x y z
#    x 1.771780 -0.021480 0.018900 
#    y -0.021480 1.760900 0.008720 
#    z 0.018900 0.008720 1.752120 
# 
# From -- ./inp_files/450239.got.cif
#   From: 2010.05.17/outbox.cif.g08.bks.cpg/sg2_226_cif.got.tgz:450239.got - 2010.06.03 11:33:40.
