data_PCOD9058441
_publ_section_title
;
Structure prediction by ZEFSAII (Michael W. Deem and Ramdas Pophale) SiO2 
 PCOD9058441
Probable space group: P -1
;
_chemical_formula_sum "Si O2"
_cell_formula_units_Z 15
_cell_length_a 13.739094
_cell_length_b 16.024260
_cell_length_c 8.028088
_cell_angle_alpha 108.257825
_cell_angle_beta 97.415288
_cell_angle_gamma 23.234451
_cell_volume 599.699914
_symmetry_space_group_name_H-M "P -1"
_symmetry_group_IT_number 2
_symmetry_cell_setting 'triclinic'
loop_
_space_group_symop_operation_xyz
x,y,z
-x,-y,-z
loop_
_atom_site_type_symbol
_atom_site_label
_atom_site_fract_x
_atom_site_fract_y
_atom_site_fract_z
Si Si1 0.486619 0.812024 0.462095
Si Si2 0.624983 0.963737 0.724004
Si Si3 0.018307 0.709025 0.910265
Si Si4 0.081952 0.027692 0.095685
Si Si5 0.986367 0.112440 0.517159
Si Si6 0.711418 0.503968 0.825807
Si Si7 0.853920 0.544834 0.649890
Si Si8 0.000000 0.500000 0.000000
O O1 0.387459 0.953190 0.374850
O O2 0.594546 0.776483 0.619520
O O3 0.742209 0.541877 0.288103
O O4 0.251791 0.940501 0.537527
O O5 0.309835 0.205041 0.831035
O O6 0.743364 0.907115 0.885005
O O7 0.866318 0.699248 0.544903
O O8 0.045055 0.790270 0.932876
O O9 0.078897 0.640664 0.073657
O O10 0.991113 0.115374 0.320639
O O11 0.407594 0.767674 0.991930
O O12 0.000000 0.000000 0.000000
O O13 0.747492 0.372563 0.699543
O O14 0.000000 0.000000 0.500000
O O15 0.779651 0.511826 0.695127
O O16 0.899151 0.572397 0.828992
#
# Coordination Sequence:
#
# PCOD9058441 Si02
#       8
#     2   2   2   2   2   2   2   1
#     4  11  23  48  73  99 148 187 233 292 353 415
#     4  11  24  48  70 105 139 181 234 290 360 420
#     4  11  22  45  73  95 142 191 229 292 353 418
#     4  12  27  44  65 105 145 187 243 295 346 412
#     4  12  26  44  71 107 142 189 242 287 341 417
#     4  12  26  46  74 102 146 191 234 291 360 414
#     4  11  26  45  72 105 140 188 231 293 356 424
#     4  12  26  44  76 106 140 178 240 288 360 434
#
# _framework density 25.012509000000001
#
# number of rings (size 3 to 8) (size 9 to 14) (size 15 to 20)
#    0.000    0.533    4.000    3.600    7.467    2.133 
#    0.000    8.000    0.000    0.000    0.000    0.000 
#    0.000    0.000    0.000    0.000    0.000    0.000 
#
# Total GULP energy -83869.701744 kJ/mol
# GULP energy per Si atom -5591.313450 kJ/mol
# Density = 2.495558 g / cm^3
# Si number density = 25.012509 Si / 1000 Ang^3
#
#
#
# Elastic Constant Matrix: (Units=GPa)
#
#
# Indices 1 2 3 4 5 6 
#
# 1 82.0282 28.0543 -0.8151 -12.6316 -11.2304 1.5133
# 2 28.0543 122.9652 24.9719 -9.6912 -1.6365 -13.9754
# 3 -0.8151 24.9719 113.1647 -4.7886 9.9779 -12.2435
# 4 -12.6316 -9.6912 -4.7886 48.1975 -3.7875 9.4005
# 5 -11.2304 -1.6365 9.9779 -3.7875 27.5778 -6.6022
# 6 1.5133 -13.9754 -12.2435 9.4005 -6.6022 33.7389
#
#
#
# Elastic Compliance Matrix: (Units=1/GPa)
#
#
# Indices 1 2 3 4 5 6 
#
# 1 0.014762 -0.003241 0.000275 0.004073 0.005824 -0.001900
# 2 -0.003241 0.009683 -0.001833 0.000283 0.000812 0.003571
# 3 0.000275 -0.001833 0.009743 0.000012 -0.003000 0.002174
# 4 0.004073 0.000283 0.000012 0.023291 0.003464 -0.005873
# 5 0.005824 0.000812 -0.003000 0.003464 0.041723 0.006186
# 6 -0.001900 0.003571 0.002174 -0.005873 0.006186 0.034840
#
#
# Mechanical properties :
#
#
# Convention : Reuss Voigt Hill
#
# Bulk Modulus (GPa) = 40.66881 46.95337 43.81109
# Shear Modulus (GPa) = 32.92998 39.63265 36.28131
#
# Velocity S-wave (km/s) = 3.63235 3.98491 3.81271
# Velocity P-wave (km/s) = 5.82123 6.32340 6.07750
#
# Compressibility (1/GPa) = 0.02458887
#
# Stress axis : x y z
#
# Youngs Moduli (GPa) = 67.74289 103.27262 102.63342
#
# Poissons Ratio (x) = 0.33472 -0.02820
# Poissons Ratio (y) = 0.21956 0.18816
# Poissons Ratio (z) = -0.01862 0.18934
#
# Static dielectric constant tensor:
#      x y z
#    x 2.017120 0.023110 0.047740 
#    y 0.023110 1.966000 0.006270 
#    z 0.047740 0.006270 1.972310 
# 
# From -- ./inp_files/97932.got.cif
#   From: 2010.05.17/outbox.cif.g08.bks.cpg/sg2_49_cif.got.tgz:97932.got - 2010.06.03 11:33:40.
