data_PCOD9058287
_publ_section_title
;
Structure prediction by ZEFSAII (Michael W. Deem and Ramdas Pophale) SiO2 
 PCOD9058287
Probable space group: P -1
;
_chemical_formula_sum "Si O2"
_cell_formula_units_Z 10
_cell_length_a 13.966388
_cell_length_b 14.462597
_cell_length_c 7.413262
_cell_angle_alpha 62.283345
_cell_angle_beta 70.797998
_cell_angle_gamma 19.920662
_cell_volume 421.494968
_symmetry_space_group_name_H-M "P -1"
_symmetry_group_IT_number 2
_symmetry_cell_setting 'triclinic'
loop_
_space_group_symop_operation_xyz
x,y,z
-x,-y,-z
loop_
_atom_site_type_symbol
_atom_site_label
_atom_site_fract_x
_atom_site_fract_y
_atom_site_fract_z
Si Si1 0.531136 0.728990 0.592099
Si Si2 0.278282 0.798461 0.450137
Si Si3 0.704505 0.655866 0.158590
Si Si4 0.069463 0.203204 0.017868
Si Si5 0.171184 0.269594 0.449459
O O1 0.408693 0.736137 0.596808
O O2 0.627104 0.688855 0.378811
O O3 0.273244 0.048758 0.558758
O O4 0.823193 0.442394 0.796919
O O5 0.500000 0.500000 0.500000
O O6 0.198107 0.963697 0.199949
O O7 0.000000 0.000000 0.500000
O O8 0.886578 0.411067 0.123528
O O9 0.954478 0.498678 0.203219
O O10 0.362717 0.992123 0.989557
O O11 0.000000 0.500000 0.500000
O O12 0.500000 0.000000 0.500000
#
# Coordination Sequence:
#
# PCOD9058287 Si02
#       5
#     2   2   2   2   2
#     4  11  26  45  73  97 143 178 225 285 334 396
#     4  11  24  43  69  99 136 177 223 279 340 399
#     4  11  22  45  67  97 139 180 217 281 334 393
#     4  11  25  42  73  99 136 182 226 272 346 398
#     4  12  23  43  73  99 135 185 222 275 345 397
#
# _framework density 23.725076000000001
#
# number of rings (size 3 to 8) (size 9 to 14) (size 15 to 20)
#    0.000    0.800    6.000    2.400    2.800    1.600 
#    0.000    6.000    0.000    0.000    0.000    0.000 
#    0.000    0.000    0.000    0.000    0.000    0.000 
#
# Total GULP energy -55820.334231 kJ/mol
# GULP energy per Si atom -5582.033423 kJ/mol
# Density = 2.367108 g / cm^3
# Si number density = 23.725076 Si / 1000 Ang^3
#
#
#
# Elastic Constant Matrix: (Units=GPa)
#
#
# Indices 1 2 3 4 5 6 
#
# 1 150.6949 86.3933 75.6790 -27.1860 45.4661 32.1163
# 2 86.3933 239.4678 59.4990 -28.4907 17.9974 32.3571
# 3 75.6790 59.4990 144.3344 -17.7177 35.9397 11.9462
# 4 -27.1860 -28.4907 -17.7177 49.0444 -1.0537 8.6888
# 5 45.4661 17.9974 35.9397 -1.0537 53.7532 -13.6537
# 6 32.1163 32.3571 11.9462 8.6888 -13.6537 60.6635
#
#
#
# Elastic Compliance Matrix: (Units=1/GPa)
#
#
# Indices 1 2 3 4 5 6 
#
# 1 0.019007 -0.001779 -0.002478 0.010723 -0.017177 -0.014027
# 2 -0.001779 0.005653 -0.000808 0.002413 -0.000397 -0.002349
# 3 -0.002478 -0.000808 0.010129 0.002000 -0.004776 -0.001613
# 4 0.010723 0.002413 0.002000 0.030809 -0.014425 -0.015017
# 5 -0.017177 -0.000397 -0.004776 -0.014425 0.041687 0.021695
# 6 -0.014027 -0.002349 -0.001613 -0.015017 0.021695 0.032515
#
#
# Mechanical properties :
#
#
# Convention : Reuss Voigt Hill
#
# Bulk Modulus (GPa) = 40.55389 108.62663 74.59026
# Shear Modulus (GPa) = 31.61569 53.55392 42.58481
#
# Velocity S-wave (km/s) = 3.65442 4.75623 4.24126
# Velocity P-wave (km/s) = 5.91073 8.72051 7.44930
#
# Compressibility (1/GPa) = 0.02465855
#
# Stress axis : x y z
#
# Youngs Moduli (GPa) = 52.61222 176.89831 98.72653
#
# Poissons Ratio (x) = 0.31477 0.24464
# Poissons Ratio (y) = 0.09362 0.07975
# Poissons Ratio (z) = 0.13037 0.14290
#
# Static dielectric constant tensor:
#      x y z
#    x 1.990960 -0.100490 0.001180 
#    y -0.100490 1.905620 -0.001920 
#    z 0.001180 -0.001920 1.968950 
# 
# From -- ./inp_files/309702.got.cif
#   From: 2010.05.17/outbox.cif.g08.bks.cpg/sg2_155_cif.got.tgz:309702.got - 2010.06.03 11:33:40.
