data_PCOD9058769
_publ_section_title
;
Structure prediction by ZEFSAII (Michael W. Deem and Ramdas Pophale) SiO2 
 PCOD9058769
Probable space group: P -1
;
_chemical_formula_sum "Si O2"
_cell_formula_units_Z 12
_cell_length_a 9.504048
_cell_length_b 17.105893
_cell_length_c 15.236251
_cell_angle_alpha 29.359767
_cell_angle_beta 145.167151
_cell_angle_gamma 149.506511
_cell_volume 591.512922
_symmetry_space_group_name_H-M "P -1"
_symmetry_group_IT_number 2
_symmetry_cell_setting 'triclinic'
loop_
_space_group_symop_operation_xyz
x,y,z
-x,-y,-z
loop_
_atom_site_type_symbol
_atom_site_label
_atom_site_fract_x
_atom_site_fract_y
_atom_site_fract_z
Si Si1 0.372290 0.299264 0.083968
Si Si2 0.660864 0.490468 0.505731
Si Si3 0.687687 0.120930 0.897534
Si Si4 0.211692 0.921690 0.187118
Si Si5 0.666966 0.229758 0.451167
Si Si6 0.643843 0.541771 0.249223
O O1 0.465221 0.357615 0.972563
O O2 0.024713 0.190220 0.015288
O O3 0.500000 0.500000 0.000000
O O4 0.481633 0.193672 0.304374
O O5 0.500000 0.500000 0.500000
O O6 0.655407 0.298221 0.696564
O O7 0.542733 0.503514 0.335948
O O8 0.997426 0.654264 0.518825
O O9 0.595014 0.008995 0.867910
O O10 0.500000 0.000000 0.000000
O O11 0.371355 0.937504 0.343338
O O12 0.987268 0.696991 0.279939
O O13 0.000000 0.000000 0.000000
O O14 0.604532 0.361570 0.354352
#
# Coordination Sequence:
#
# PCOD9058769 Si02
#       6
#     2   2   2   2   2   2
#     4   9  17  35  65  79 101 151 193 226 274 327
#     4  11  20  33  56  84 111 146 189 230 272 328
#     4  11  22  36  53  85 118 141 181 237 282 321
#     4  10  19  33  56  82 109 147 186 225 272 334
#     4  10  17  37  63  77 102 149 200 224 263 334
#     4   9  17  35  57  79 101 146 197 223 259 334
#
# _framework density 20.286963
#
# number of rings (size 3 to 8) (size 9 to 14) (size 15 to 20)
#    0.000    2.000    6.667    1.000    4.667    0.000 
#    0.000    5.000    0.000    0.000    0.000    0.000 
#    0.000    0.000    0.000    0.000    0.000    0.000 
#
# Total GULP energy -66877.913744 kJ/mol
# GULP energy per Si atom -5573.159479 kJ/mol
# Density = 2.024079 g / cm^3
# Si number density = 20.286963 Si / 1000 Ang^3
#
#
#
# Elastic Constant Matrix: (Units=GPa)
#
#
# Indices 1 2 3 4 5 6 
#
# 1 176.8380 33.8864 71.0087 24.5121 -32.5764 -30.6481
# 2 33.8864 64.7349 39.0263 28.0139 -15.1388 -23.9200
# 3 71.0087 39.0263 158.9888 53.9267 -27.8907 -19.7355
# 4 24.5121 28.0139 53.9267 41.9772 -13.2423 -13.5840
# 5 -32.5764 -15.1388 -27.8907 -13.2423 41.4899 4.1417
# 6 -30.6481 -23.9200 -19.7355 -13.5840 4.1417 28.1816
#
#
#
# Elastic Compliance Matrix: (Units=1/GPa)
#
#
# Indices 1 2 3 4 5 6 
#
# 1 0.008801 0.000209 -0.003063 0.002921 0.005034 0.008272
# 2 0.000209 0.028042 0.000010 -0.011547 0.004946 0.017743
# 3 -0.003063 0.000010 0.012652 -0.014501 0.001645 -0.001694
# 4 0.002921 -0.011547 -0.014501 0.052322 0.004252 0.007816
# 5 0.005034 0.004946 0.001645 0.004252 0.031499 0.008245
# 6 0.008272 0.017743 -0.001694 0.007816 0.008245 0.060910
#
#
# Mechanical properties :
#
#
# Convention : Reuss Voigt Hill
#
# Bulk Modulus (GPa) = 22.82701 76.48940 49.65820
# Shear Modulus (GPa) = 23.30829 39.43908 31.37368
#
# Velocity S-wave (km/s) = 3.39326 4.41393 3.93682
# Velocity P-wave (km/s) = 5.16031 7.98515 6.72278
#
# Compressibility (1/GPa) = 0.04380776
#
# Stress axis : x y z
#
# Youngs Moduli (GPa) = 113.62671 35.66079 79.03835
#
# Poissons Ratio (x) = -0.00747 0.24208
# Poissons Ratio (y) = -0.02380 -0.00078
# Poissons Ratio (z) = 0.34802 -0.00035
#
# Static dielectric constant tensor:
#      x y z
#    x 1.732980 -0.085800 -0.019270 
#    y -0.085800 1.790780 0.016410 
#    z -0.019270 0.016410 1.812780 
# 
# From -- ./inp_files/375676.got.cif
#   From: 2010.05.17/outbox.cif.g08.bks.cpg/sg2_188_cif.got.tgz:375676.got - 2010.06.03 11:33:40.
