data_PCOD9058951
_publ_section_title
;
Structure prediction by ZEFSAII (Michael W. Deem and Ramdas Pophale) SiO2 
 PCOD9058951
Probable space group: P -1
;
_chemical_formula_sum "Si O2"
_cell_formula_units_Z 13
_cell_length_a 12.241598
_cell_length_b 9.304888
_cell_length_c 7.750449
_cell_angle_alpha 68.942068
_cell_angle_beta 104.260561
_cell_angle_gamma 142.585860
_cell_volume 499.371681
_symmetry_space_group_name_H-M "P -1"
_symmetry_group_IT_number 2
_symmetry_cell_setting 'triclinic'
loop_
_space_group_symop_operation_xyz
x,y,z
-x,-y,-z
loop_
_atom_site_type_symbol
_atom_site_label
_atom_site_fract_x
_atom_site_fract_y
_atom_site_fract_z
Si Si1 0.990550 0.235754 0.570152
Si Si2 0.991064 0.516133 0.234830
Si Si3 0.500000 0.500000 0.000000
Si Si4 0.379910 0.561482 0.579089
Si Si5 0.680649 0.659576 0.718376
Si Si6 0.318928 0.003413 0.015160
Si Si7 0.425654 0.973443 0.723215
O O1 0.025709 0.372557 0.351270
O O2 0.179394 0.369116 0.645730
O O3 0.928156 0.297407 0.654541
O O4 0.844854 0.947478 0.621947
O O5 0.776014 0.305464 0.253455
O O6 0.113714 0.720318 0.046091
O O7 0.665076 0.560062 0.936180
O O8 0.658520 0.803475 0.985585
O O9 0.501064 0.576001 0.735393
O O10 0.356868 0.462674 0.422651
O O11 0.491287 0.836751 0.480677
O O12 0.431509 0.000108 0.172732
O O13 0.398061 0.067512 0.826971
#
# Coordination Sequence:
#
# PCOD9058951 Si02
#       7
#     2   2   1   2   2   2   2
#     4  11  23  39  65  97 128 166 217 272 319 381
#     4  11  23  39  65  97 128 166 217 272 319 381
#     4  12  24  44  70  92 130 174 208 274 330 380
#     4  11  23  42  68  95 129 176 218 262 330 386
#     4  11  24  44  65  95 134 170 217 271 324 387
#     4  11  24  44  65  95 134 170 217 271 324 387
#     4  11  23  42  68  95 129 176 218 262 330 386
#
# _framework density 26.032712
#
# number of rings (size 3 to 8) (size 9 to 14) (size 15 to 20)
#    0.000    0.923    6.154    0.923    2.154    0.615 
#    0.000    3.077    0.000    0.000    0.000    0.000 
#    0.000    0.000    0.000    0.000    0.000    0.000 
#
# Total GULP energy -72585.463253 kJ/mol
# GULP energy per Si atom -5583.497173 kJ/mol
# Density = 2.597346 g / cm^3
# Si number density = 26.032712 Si / 1000 Ang^3
#
#
#
# Elastic Constant Matrix: (Units=GPa)
#
#
# Indices 1 2 3 4 5 6 
#
# 1 60.7445 43.6590 7.2911 -1.8254 -2.4257 16.5650
# 2 43.6590 213.1569 48.5274 -32.9681 0.4923 5.7588
# 3 7.2911 48.5274 87.5260 -20.0703 -3.3316 2.2717
# 4 -1.8254 -32.9681 -20.0703 57.6343 -7.1124 -16.1017
# 5 -2.4257 0.4923 -3.3316 -7.1124 33.2548 11.7650
# 6 16.5650 5.7588 2.2717 -16.1017 11.7650 47.0761
#
#
#
# Elastic Compliance Matrix: (Units=1/GPa)
#
#
# Indices 1 2 3 4 5 6 
#
# 1 0.022942 -0.005206 0.000400 -0.004376 0.004412 -0.010055
# 2 -0.005206 0.006826 -0.002671 0.003400 -0.000911 0.002516
# 3 0.000400 -0.002671 0.013776 0.003608 0.002143 0.000220
# 4 -0.004376 0.003400 0.003608 0.022980 0.001964 0.008319
# 5 0.004412 -0.000911 0.002143 0.001964 0.034390 -0.009467
# 6 -0.010055 0.002516 0.000220 0.008319 -0.009467 0.029673
#
#
# Mechanical properties :
#
#
# Convention : Reuss Voigt Hill
#
# Bulk Modulus (GPa) = 34.97559 62.26471 48.62015
# Shear Modulus (GPa) = 32.24337 45.05637 38.64987
#
# Velocity S-wave (km/s) = 3.52315 4.16475 3.85732
# Velocity P-wave (km/s) = 5.47855 6.86270 6.20932
#
# Compressibility (1/GPa) = 0.02859137
#
# Stress axis : x y z
#
# Youngs Moduli (GPa) = 43.58728 146.50509 72.59031
#
# Poissons Ratio (x) = 0.76266 -0.02907
# Poissons Ratio (y) = 0.22690 0.19390
# Poissons Ratio (z) = -0.01745 0.39134
#
# Static dielectric constant tensor:
#      x y z
#    x 2.104410 -0.006700 -0.071430 
#    y -0.006700 2.046680 0.039840 
#    z -0.071430 0.039840 2.231440 
# 
# From -- ./inp_files/62778.got.cif
#   From: 2010.05.17/outbox.cif.g08.bks.cpg/sg2_32_cif.got.tgz:62778.got - 2010.06.03 11:33:40.
