data_PCOD9058208
_publ_section_title
;
Structure prediction by ZEFSAII (Michael W. Deem and Ramdas Pophale) SiO2 
 PCOD9058208
Probable space group: P -1
;
_chemical_formula_sum "Si O2"
_cell_formula_units_Z 16
_cell_length_a 20.262104
_cell_length_b 11.112596
_cell_length_c 16.513262
_cell_angle_alpha 31.887189
_cell_angle_beta 19.055970
_cell_angle_gamma 32.848489
_cell_volume 625.891630
_symmetry_space_group_name_H-M "P -1"
_symmetry_group_IT_number 2
_symmetry_cell_setting 'triclinic'
loop_
_space_group_symop_operation_xyz
x,y,z
-x,-y,-z
loop_
_atom_site_type_symbol
_atom_site_label
_atom_site_fract_x
_atom_site_fract_y
_atom_site_fract_z
Si Si1 0.686812 0.357932 0.070186
Si Si2 0.625372 0.495579 0.774995
Si Si3 0.705647 0.117689 0.598102
Si Si4 0.986840 0.960001 0.867672
Si Si5 0.059765 0.302824 0.339884
Si Si6 0.392702 0.276222 0.746523
Si Si7 0.071096 0.546764 0.774495
Si Si8 0.354119 0.972121 0.552126
O O1 0.510737 0.542270 0.122758
O O2 0.607567 0.187452 0.321966
O O3 0.835630 0.489751 0.870565
O O4 0.814958 0.193859 0.945775
O O5 0.844324 0.318210 0.628327
O O6 0.662054 0.756104 0.568598
O O7 0.500000 0.500000 0.000000
O O8 0.481745 0.144841 0.801439
O O9 0.867283 0.047853 0.375431
O O10 0.745781 0.357575 0.451427
O O11 0.778004 0.929254 0.691155
O O12 0.138173 0.945739 0.777625
O O13 0.894831 0.730301 0.108996
O O14 0.984231 0.345886 0.311383
O O15 0.500000 0.500000 0.500000
O O16 0.480884 0.118858 0.657995
O O17 0.147422 0.357968 0.980872
#
# Coordination Sequence:
#
# PCOD9058208 Si02
#       8
#     2   2   2   2   2   2   2   2
#     4  12  25  46  76 103 143 185 232 296 352 409
#     4  12  29  45  71 106 143 186 231 290 353 431
#     4  11  27  43  69 105 140 189 228 287 354 418
#     4  11  22  44  74 102 136 185 235 290 345 410
#     4  12  27  48  69 106 146 183 234 288 358 415
#     4  11  24  43  71 102 135 181 239 285 342 413
#     4  12  25  47  72  99 143 187 236 292 337 418
#     4  11  23  46  69 106 140 182 237 291 348 413
#
# _framework density 25.563531000000001
#
# number of rings (size 3 to 8) (size 9 to 14) (size 15 to 20)
#    0.000    0.500    5.000    3.000    7.000    3.500 
#    0.000    0.000    0.000    0.000    0.000    0.000 
#    0.000    0.000    0.000    0.000    0.000    0.000 
#
# Total GULP energy -89815.491076 kJ/mol
# GULP energy per Si atom -5613.468192 kJ/mol
# Density = 2.550535 g / cm^3
# Si number density = 25.563531 Si / 1000 Ang^3
#
#
#
# Elastic Constant Matrix: (Units=GPa)
#
#
# Indices 1 2 3 4 5 6 
#
# 1 129.2259 -1.6215 20.0093 -1.3137 -11.3515 -21.7574
# 2 -1.6215 65.4253 2.8024 4.9917 -10.8866 -9.3719
# 3 20.0093 2.8024 53.4916 10.7172 -3.6251 -6.1841
# 4 -1.3137 4.9917 10.7172 28.2862 -8.8646 -1.2501
# 5 -11.3515 -10.8866 -3.6251 -8.8646 41.6887 1.4656
# 6 -21.7574 -9.3719 -6.1841 -1.2501 1.4656 47.3604
#
#
#
# Elastic Compliance Matrix: (Units=1/GPa)
#
#
# Indices 1 2 3 4 5 6 
#
# 1 0.009241 0.001245 -0.003375 0.002593 0.002958 0.004028
# 2 0.001245 0.016659 -0.000378 -0.001241 0.004264 0.003654
# 3 -0.003375 -0.000378 0.021750 -0.008596 -0.000990 0.001018
# 4 0.002593 -0.001241 -0.008596 0.041631 0.008464 0.000660
# 5 0.002958 0.004264 -0.000990 0.008464 0.027569 0.001444
# 6 0.004028 0.003654 0.001018 0.000660 0.001444 0.023794
#
#
# Mechanical properties :
#
#
# Convention : Reuss Voigt Hill
#
# Bulk Modulus (GPa) = 23.45639 32.28038 27.86839
# Shear Modulus (GPa) = 31.27489 38.59723 34.93606
#
# Velocity S-wave (km/s) = 3.50153 3.88990 3.70082
# Velocity P-wave (km/s) = 5.05404 5.72975 5.40247
#
# Compressibility (1/GPa) = 0.04263230
#
# Stress axis : x y z
#
# Youngs Moduli (GPa) = 108.21361 60.02632 45.97741
#
# Poissons Ratio (x) = -0.07472 0.15519
# Poissons Ratio (y) = -0.13471 0.01740
# Poissons Ratio (z) = 0.36527 0.02271
#
# Static dielectric constant tensor:
#      x y z
#    x 1.986150 -0.017600 0.039610 
#    y -0.017600 2.017690 0.001210 
#    z 0.039610 0.001210 2.031530 
# 
# From -- ./inp_files/282854.got.cif
#   From: 2010.05.17/outbox.cif.g08.bks.cpg/sg2_142_cif.got.tgz:282854.got - 2010.06.03 11:33:40.
