data_PCOD9058738
_publ_section_title
;
Structure prediction by ZEFSAII (Michael W. Deem and Ramdas Pophale) SiO2 
 PCOD9058738
Probable space group: P -1
;
_chemical_formula_sum "Si O2"
_cell_formula_units_Z 12
_cell_length_a 9.266736
_cell_length_b 11.587468
_cell_length_c 13.519098
_cell_angle_alpha 32.526434
_cell_angle_beta 55.275185
_cell_angle_gamma 79.937595
_cell_volume 463.458298
_symmetry_space_group_name_H-M "P -1"
_symmetry_group_IT_number 2
_symmetry_cell_setting 'triclinic'
loop_
_space_group_symop_operation_xyz
x,y,z
-x,-y,-z
loop_
_atom_site_type_symbol
_atom_site_label
_atom_site_fract_x
_atom_site_fract_y
_atom_site_fract_z
Si Si1 0.104051 0.249353 0.100517
Si Si2 0.425539 0.906141 0.437589
Si Si3 0.275049 0.468583 0.088600
Si Si4 0.796542 0.117061 0.651555
Si Si5 0.287809 0.478092 0.556440
Si Si6 0.164415 0.058557 0.752722
O O1 0.209104 0.570223 0.799896
O O2 0.117575 0.262920 0.203601
O O3 0.253047 0.156310 0.081733
O O4 0.862272 0.999775 0.312086
O O5 0.339513 0.982460 0.327452
O O6 0.612696 0.891789 0.333304
O O7 0.585074 0.193124 0.236877
O O8 0.083626 0.353606 0.335601
O O9 0.500000 0.500000 0.000000
O O10 0.707145 0.258204 0.637958
O O11 0.500000 0.500000 0.500000
O O12 0.201794 0.322226 0.594776
O O13 0.073514 0.243810 0.887208
#
# Coordination Sequence:
#
# PCOD9058738 Si02
#       6
#     2   2   2   2   2   2
#     4  12  27  44  73 112 140 189 252 287 361 435
#     4  12  24  48  71 108 143 194 237 297 362 423
#     4  12  27  47  73 105 150 197 235 297 360 426
#     4  12  26  48  74 107 145 189 244 297 359 431
#     4  11  22  47  77 102 145 189 239 297 367 422
#     4  11  24  44  77 105 140 191 241 299 360 424
#
# _framework density 25.892296999999999
#
# number of rings (size 3 to 8) (size 9 to 14) (size 15 to 20)
#    0.000    0.333    6.667    1.000    2.333    3.333 
#    0.000    3.333    0.000    0.000    0.000    0.000 
#    0.000    0.000    0.000    0.000    0.000    0.000 
#
# Total GULP energy -67031.759510 kJ/mol
# GULP energy per Si atom -5585.979959 kJ/mol
# Density = 2.583336 g / cm^3
# Si number density = 25.892297 Si / 1000 Ang^3
#
#
#
# Elastic Constant Matrix: (Units=GPa)
#
#
# Indices 1 2 3 4 5 6 
#
# 1 106.8564 34.0436 13.9447 -6.6185 -3.0866 -11.5841
# 2 34.0436 150.8011 34.6773 -43.7506 -5.5425 -5.0874
# 3 13.9447 34.6773 63.9707 -7.0334 6.4334 5.3737
# 4 -6.6185 -43.7506 -7.0334 53.8494 -21.4718 -8.2860
# 5 -3.0866 -5.5425 6.4334 -21.4718 35.7057 -7.1951
# 6 -11.5841 -5.0874 5.3737 -8.2860 -7.1951 50.7851
#
#
#
# Elastic Compliance Matrix: (Units=1/GPa)
#
#
# Indices 1 2 3 4 5 6 
#
# 1 0.010527 -0.001301 -0.001944 0.001483 0.002571 0.003083
# 2 -0.001301 0.015095 -0.008121 0.018766 0.016485 0.007472
# 3 -0.001944 -0.008121 0.021208 -0.010258 -0.012828 -0.006992
# 4 0.001483 0.018766 -0.010258 0.050794 0.038880 0.017099
# 5 0.002571 0.016485 -0.012828 0.038880 0.060202 0.018468
# 6 0.003083 0.007472 -0.006992 0.017099 0.018468 0.027289
#
#
# Mechanical properties :
#
#
# Convention : Reuss Voigt Hill
#
# Bulk Modulus (GPa) = 41.49854 54.10659 47.80257
# Shear Modulus (GPa) = 23.16114 43.99890 33.58002
#
# Velocity S-wave (km/s) = 2.99409 4.12673 3.60517
# Velocity P-wave (km/s) = 5.29292 6.60672 5.98597
#
# Compressibility (1/GPa) = 0.02409723
#
# Stress axis : x y z
#
# Youngs Moduli (GPa) = 94.99605 66.24740 47.15206
#
# Poissons Ratio (x) = 0.08617 0.09167
# Poissons Ratio (y) = 0.12356 0.38294
# Poissons Ratio (z) = 0.18468 0.53802
#
# Static dielectric constant tensor:
#      x y z
#    x 2.027260 0.024020 0.006180 
#    y 0.024020 2.122650 0.001830 
#    z 0.006180 0.001830 2.050920 
# 
# From -- ./inp_files/27364.got.cif
#   From: 2010.05.17/outbox.cif.g08.bks.cpg/sg2_14_cif.got.tgz:27364.got - 2010.06.03 11:33:40.
