data_PCOD9058424
_publ_section_title
;
Structure prediction by ZEFSAII (Michael W. Deem and Ramdas Pophale) SiO2 
 PCOD9058424
Probable space group: P -1
;
_chemical_formula_sum "Si O2"
_cell_formula_units_Z 16
_cell_length_a 8.841458
_cell_length_b 11.311767
_cell_length_c 9.303109
_cell_angle_alpha 123.382980
_cell_angle_beta 98.299274
_cell_angle_gamma 82.582462
_cell_volume 767.390506
_symmetry_space_group_name_H-M "P -1"
_symmetry_group_IT_number 2
_symmetry_cell_setting 'triclinic'
loop_
_space_group_symop_operation_xyz
x,y,z
-x,-y,-z
loop_
_atom_site_type_symbol
_atom_site_label
_atom_site_fract_x
_atom_site_fract_y
_atom_site_fract_z
Si Si1 0.396773 0.393638 0.825876
Si Si2 0.128966 0.552211 0.356304
Si Si3 0.395593 0.874849 0.366274
Si Si4 0.364507 0.837174 0.001961
Si Si5 0.140750 0.022946 0.925871
Si Si6 0.289195 0.299852 0.038714
Si Si7 0.900052 0.121161 0.481373
Si Si8 0.809968 0.424214 0.292119
O O1 0.510676 0.272743 0.699102
O O2 0.302308 0.464516 0.731968
O O3 0.500000 0.500000 0.000000
O O4 0.288910 0.325762 0.884663
O O5 0.242637 0.451832 0.206808
O O6 0.071144 0.709987 0.399138
O O7 0.205356 0.573162 0.536526
O O8 0.980879 0.462383 0.302740
O O9 0.259910 0.883290 0.464039
O O10 0.500000 0.000000 0.500000
O O11 0.351756 0.880034 0.195730
O O12 0.535466 0.764425 0.950253
O O13 0.240312 0.723131 0.875264
O O14 0.302413 0.966443 0.981172
O O15 0.108817 0.931933 0.718894
O O16 0.170900 0.184163 0.992776
O O17 0.000000 0.000000 0.000000
O O18 0.000000 0.000000 0.500000
#
# Coordination Sequence:
#
# PCOD9058424 Si02
#       8
#     2   2   2   2   2   2   2   2
#     4  11  22  45  73 103 141 181 231 293 353 415
#     4  11  27  44  70 104 139 186 240 286 348 420
#     4  11  25  44  71 103 137 178 233 286 355 412
#     4  11  23  47  71 102 146 184 229 294 357 422
#     4  12  26  47  71 100 147 190 232 288 358 420
#     4  11  25  43  73 107 133 186 242 282 358 417
#     4  12  27  46  68 103 139 182 236 291 347 418
#     4  11  24  45  70  97 147 181 233 286 356 406
#
# _framework density 20.849879999999999
#
# number of rings (size 3 to 8) (size 9 to 14) (size 15 to 20)
#    0.000    0.750    3.750    4.125    5.250    3.000 
#    0.000    0.000    0.000    0.000    0.000    0.000 
#    0.000    0.000    0.000    0.000    0.000    0.000 
#
# Total GULP energy -89397.029244 kJ/mol
# GULP energy per Si atom -5587.314328 kJ/mol
# Density = 2.080242 g / cm^3
# Si number density = 20.849880 Si / 1000 Ang^3
#
#
#
# Elastic Constant Matrix: (Units=GPa)
#
#
# Indices 1 2 3 4 5 6 
#
# 1 79.1496 32.4850 63.5260 4.1957 -20.2439 16.6070
# 2 32.4850 127.4811 34.7560 7.6724 -12.3783 -4.0543
# 3 63.5260 34.7560 123.8576 11.7622 -17.4433 1.6702
# 4 4.1957 7.6724 11.7622 39.0783 1.8662 10.7600
# 5 -20.2439 -12.3783 -17.4433 1.8662 41.4507 6.0993
# 6 16.6070 -4.0543 1.6702 10.7600 6.0993 41.8264
#
#
#
# Elastic Compliance Matrix: (Units=1/GPa)
#
#
# Indices 1 2 3 4 5 6 
#
# 1 0.030247 -0.003884 -0.013309 0.005069 0.009933 -0.014607
# 2 -0.003884 0.009191 -0.000378 -0.002099 0.000351 0.002937
# 3 -0.013309 -0.000378 0.015249 -0.004690 -0.000863 0.005971
# 4 0.005069 -0.002099 -0.004690 0.029519 -0.000039 -0.009617
# 5 0.009933 0.000351 -0.000863 -0.000039 0.029930 -0.008230
# 6 -0.014607 0.002937 0.005971 -0.009617 -0.008230 0.033428
#
#
# Mechanical properties :
#
#
# Convention : Reuss Voigt Hill
#
# Bulk Modulus (GPa) = 51.16364 65.78024 58.47194
# Shear Modulus (GPa) = 26.42402 37.78585 32.10493
#
# Velocity S-wave (km/s) = 3.56384 4.26171 3.92830
# Velocity P-wave (km/s) = 6.44414 7.47223 6.97715
#
# Compressibility (1/GPa) = 0.01954513
#
# Stress axis : x y z
#
# Youngs Moduli (GPa) = 33.06112 108.80349 65.57704
#
# Poissons Ratio (x) = 0.42261 0.87277
# Poissons Ratio (y) = 0.12842 0.02477
# Poissons Ratio (z) = 0.44001 0.04110
#
# Static dielectric constant tensor:
#      x y z
#    x 1.735740 -0.037190 -0.011070 
#    y -0.037190 1.963220 0.064290 
#    z -0.011070 0.064290 1.731590 
# 
# From -- ./inp_files/190899.got.cif
#   From: 2010.05.17/outbox.cif.g08.bks.cpg/sg2_96_cif.got.tgz:190899.got - 2010.06.03 11:33:40.
