data_PCOD9058264
_publ_section_title
;
Structure prediction by ZEFSAII (Michael W. Deem and Ramdas Pophale) SiO2 
 PCOD9058264
Probable space group: P -1
;
_chemical_formula_sum "Si O2"
_cell_formula_units_Z 14
_cell_length_a 8.693531
_cell_length_b 11.883511
_cell_length_c 8.652854
_cell_angle_alpha 47.914240
_cell_angle_beta 63.097366
_cell_angle_gamma 58.001159
_cell_volume 555.852191
_symmetry_space_group_name_H-M "P -1"
_symmetry_group_IT_number 2
_symmetry_cell_setting 'triclinic'
loop_
_space_group_symop_operation_xyz
x,y,z
-x,-y,-z
loop_
_atom_site_type_symbol
_atom_site_label
_atom_site_fract_x
_atom_site_fract_y
_atom_site_fract_z
Si Si1 0.460480 0.636631 0.765663
Si Si2 0.052719 0.508283 0.788977
Si Si3 0.731374 0.801355 0.531334
Si Si4 0.074041 0.205692 0.862808
Si Si5 0.346081 0.918320 0.156413
Si Si6 0.289456 0.618939 0.341217
Si Si7 0.199927 0.925502 0.546461
O O1 0.538977 0.775497 0.657099
O O2 0.573946 0.541140 0.654739
O O3 0.245604 0.743426 0.756028
O O4 0.500000 0.500000 0.000000
O O5 0.097644 0.333412 0.855471
O O6 0.205142 0.576435 0.579209
O O7 0.870614 0.630882 0.682149
O O8 0.000000 0.500000 0.000000
O O9 0.777967 0.821775 0.315488
O O10 0.767487 0.940952 0.482553
O O11 0.879829 0.288957 0.784812
O O12 0.145561 0.033253 0.075564
O O13 0.389790 0.747481 0.209907
O O14 0.327848 0.895149 0.366637
O O15 0.500000 0.000000 0.000000
O O16 0.000000 0.000000 0.500000
#
# Coordination Sequence:
#
# PCOD9058264 Si02
#       7
#     2   2   2   2   2   2   2
#     4  12  28  46  79 113 152 204 265 320 384 461
#     4  11  22  44  81 117 153 199 255 331 397 453
#     4  11  23  48  76 109 151 199 262 315 375 473
#     4  11  22  47  80 108 149 202 262 311 392 465
#     4  12  29  47  74 112 159 207 251 327 395 455
#     4  11  25  50  76 113 154 204 270 317 379 478
#     4  12  29  51  73 113 159 201 259 320 395 464
#
# _framework density 25.186551999999999
#
# number of rings (size 3 to 8) (size 9 to 14) (size 15 to 20)
#    0.000    0.571    2.857    5.143    6.000    2.857 
#    2.571    0.000    0.000    0.000    0.000    0.000 
#    0.000    0.000    0.000    0.000    0.000    0.000 
#
# Total GULP energy -78380.875325 kJ/mol
# GULP energy per Si atom -5598.633952 kJ/mol
# Density = 2.512923 g / cm^3
# Si number density = 25.186552 Si / 1000 Ang^3
#
#
#
# Elastic Constant Matrix: (Units=GPa)
#
#
# Indices 1 2 3 4 5 6 
#
# 1 108.6922 62.4487 36.3127 -12.1220 -8.0393 6.0407
# 2 62.4487 150.8971 26.6626 -23.8140 0.9473 21.3907
# 3 36.3127 26.6626 100.8667 -3.9834 15.2551 20.3830
# 4 -12.1220 -23.8140 -3.9834 40.0288 -0.2935 13.7576
# 5 -8.0393 0.9473 15.2551 -0.2935 46.6585 -13.1618
# 6 6.0407 21.3907 20.3830 13.7576 -13.1618 56.1306
#
#
#
# Elastic Compliance Matrix: (Units=1/GPa)
#
#
# Indices 1 2 3 4 5 6 
#
# 1 0.014378 -0.005783 -0.005356 -0.001001 0.005507 0.004138
# 2 -0.005783 0.010846 0.001336 0.007055 -0.003453 -0.006535
# 3 -0.005356 0.001336 0.014370 0.003217 -0.007821 -0.007774
# 4 -0.001001 0.007055 0.003217 0.033678 -0.004864 -0.013144
# 5 0.005507 -0.003453 -0.007821 -0.004864 0.028183 0.011364
# 6 0.004138 -0.006535 -0.007774 -0.013144 0.011364 0.028570
#
#
# Mechanical properties :
#
#
# Convention : Reuss Voigt Hill
#
# Bulk Modulus (GPa) = 50.03126 67.92268 58.97697
# Shear Modulus (GPa) = 31.99127 44.23238 38.11183
#
# Velocity S-wave (km/s) = 3.56781 4.19524 3.89418
# Velocity P-wave (km/s) = 6.07287 7.10585 6.60957
#
# Compressibility (1/GPa) = 0.01998751
#
# Stress axis : x y z
#
# Youngs Moduli (GPa) = 69.55016 92.20321 69.59019
#
# Poissons Ratio (x) = 0.53323 0.37274
# Poissons Ratio (y) = 0.40222 -0.09300
# Poissons Ratio (z) = 0.37253 -0.12322
#
# Static dielectric constant tensor:
#      x y z
#    x 2.182950 -0.099190 0.070810 
#    y -0.099190 1.966390 0.045410 
#    z 0.070810 0.045410 2.188050 
# 
# From -- ./inp_files/183929.got.cif
#   From: 2010.05.17/outbox.cif.g08.bks.cpg/sg2_92_cif.got.tgz:183929.got - 2010.06.03 11:33:40.
