data_PCOD9058471
_publ_section_title
;
Structure prediction by ZEFSAII (Michael W. Deem and Ramdas Pophale) SiO2 
 PCOD9058471
Probable space group: P -1
;
_chemical_formula_sum "Si O2"
_cell_formula_units_Z 12
_cell_length_a 12.345703
_cell_length_b 13.766976
_cell_length_c 20.150193
_cell_angle_alpha 158.213065
_cell_angle_beta 21.225322
_cell_angle_gamma 148.036998
_cell_volume 456.414663
_symmetry_space_group_name_H-M "P -1"
_symmetry_group_IT_number 2
_symmetry_cell_setting 'triclinic'
loop_
_space_group_symop_operation_xyz
x,y,z
-x,-y,-z
loop_
_atom_site_type_symbol
_atom_site_label
_atom_site_fract_x
_atom_site_fract_y
_atom_site_fract_z
Si Si1 0.258140 0.613597 0.380387
Si Si2 0.081986 0.789531 0.880319
Si Si3 0.199344 0.479525 0.808383
Si Si4 0.594347 0.774465 0.692418
Si Si5 0.213944 0.783308 0.198804
Si Si6 0.529860 0.975940 0.562144
O O1 0.453741 0.755145 0.412542
O O2 0.000000 0.500000 0.500000
O O3 0.218649 0.853080 0.501483
O O4 0.455904 0.374330 0.076619
O O5 0.372947 0.813452 0.777869
O O6 0.160698 0.485585 0.618824
O O7 0.000000 0.000000 0.000000
O O8 0.778360 0.842980 0.130720
O O9 0.395261 0.707464 0.825415
O O10 0.390728 0.193653 0.525189
O O11 0.991088 0.441792 0.841553
O O12 0.000000 0.500000 0.000000
O O13 0.727633 0.047041 0.792203
O O14 0.000000 0.000000 0.500000
#
# Coordination Sequence:
#
# PCOD9058471 Si02
#       6
#     2   2   2   2   2   2
#     4  11  25  44  72 102 143 189 241 303 356 424
#     4  11  22  45  75 105 143 194 238 291 368 429
#     4  12  26  46  71 103 147 194 236 295 365 429
#     4  11  25  45  74 103 149 189 236 304 358 427
#     4  12  26  46  72 105 142 189 241 298 366 422
#     4  11  24  45  70 103 143 190 244 292 359 435
#
# _framework density 26.291881
#
# number of rings (size 3 to 8) (size 9 to 14) (size 15 to 20)
#    0.000    0.667    3.333    5.000    4.667    2.000 
#    3.000    1.667    0.000    0.000    0.000    0.000 
#    0.000    0.000    0.000    0.000    0.000    0.000 
#
# Total GULP energy -66993.388793 kJ/mol
# GULP energy per Si atom -5582.782399 kJ/mol
# Density = 2.623204 g / cm^3
# Si number density = 26.291881 Si / 1000 Ang^3
#
#
#
# Elastic Constant Matrix: (Units=GPa)
#
#
# Indices 1 2 3 4 5 6 
#
# 1 63.0764 18.7335 29.1469 5.9672 -18.5818 -25.6174
# 2 18.7335 192.7653 47.2510 15.6620 -6.7611 -33.0303
# 3 29.1469 47.2510 162.3693 -13.1698 -11.0216 -19.4608
# 4 5.9672 15.6620 -13.1698 46.1883 -18.8673 -4.3257
# 5 -18.5818 -6.7611 -11.0216 -18.8673 52.1119 11.9058
# 6 -25.6174 -33.0303 -19.4608 -4.3257 11.9058 37.4554
#
#
#
# Elastic Compliance Matrix: (Units=1/GPa)
#
#
# Indices 1 2 3 4 5 6 
#
# 1 0.024060 0.001031 -0.002670 -0.001040 0.004474 0.014436
# 2 0.001031 0.006719 -0.001790 -0.003014 -0.001567 0.005850
# 3 -0.002670 -0.001790 0.007648 0.003884 0.001733 0.000467
# 4 -0.001040 -0.003014 0.003884 0.028093 0.010566 -0.001465
# 5 0.004474 -0.001567 0.001733 0.010566 0.025777 -0.004395
# 6 0.014436 0.005850 0.000467 -0.001465 -0.004395 0.043201
#
#
# Mechanical properties :
#
#
# Convention : Reuss Voigt Hill
#
# Bulk Modulus (GPa) = 31.67588 67.60820 49.64204
# Shear Modulus (GPa) = 32.70580 48.68976 40.69778
#
# Velocity S-wave (km/s) = 3.53079 4.30803 3.93863
# Velocity P-wave (km/s) = 5.35686 7.10745 6.29332
#
# Compressibility (1/GPa) = 0.03156976
#
# Stress axis : x y z
#
# Youngs Moduli (GPa) = 41.56197 148.84233 130.76153
#
# Poissons Ratio (x) = -0.15348 0.34908
# Poissons Ratio (y) = -0.04286 0.23405
# Poissons Ratio (z) = 0.11095 0.26642
#
# Static dielectric constant tensor:
#      x y z
#    x 2.209710 0.036960 -0.067990 
#    y 0.036960 2.113450 -0.056310 
#    z -0.067990 -0.056310 2.179210 
# 
# From -- ./inp_files/612130.got.cif
#   From: 2010.05.17/outbox.cif.g08.bks.cpg/sg2_307_cif.got.tgz:612130.got - 2010.06.03 11:33:40.
