data_PCOD9058051
_publ_section_title
;
Structure prediction by ZEFSAII (Michael W. Deem and Ramdas Pophale) SiO2 
 PCOD9058051
Probable space group: P -1
;
_chemical_formula_sum "Si O2"
_cell_formula_units_Z 14
_cell_length_a 9.128547
_cell_length_b 7.596012
_cell_length_c 12.713572
_cell_angle_alpha 133.458136
_cell_angle_beta 123.260483
_cell_angle_gamma 74.603907
_cell_volume 525.936434
_symmetry_space_group_name_H-M "P -1"
_symmetry_group_IT_number 2
_symmetry_cell_setting 'triclinic'
loop_
_space_group_symop_operation_xyz
x,y,z
-x,-y,-z
loop_
_atom_site_type_symbol
_atom_site_label
_atom_site_fract_x
_atom_site_fract_y
_atom_site_fract_z
Si Si1 0.336377 0.859153 0.948548
Si Si2 0.379659 0.405712 0.044861
Si Si3 0.325164 0.621834 0.477012
Si Si4 0.196370 0.934746 0.381238
Si Si5 0.153186 0.900051 0.693418
Si Si6 0.258490 0.916724 0.171679
Si Si7 0.876236 0.618897 0.875033
O O1 0.168074 0.833326 0.795038
O O2 0.412403 0.606428 0.887661
O O3 0.322183 0.989407 0.108019
O O4 0.500000 0.000000 0.000000
O O5 0.268947 0.177439 0.841422
O O6 0.344934 0.672349 0.115135
O O7 0.290051 0.362841 0.108154
O O8 0.500000 0.500000 0.500000
O O9 0.321930 0.853544 0.488781
O O10 0.252319 0.715608 0.593172
O O11 0.178845 0.410066 0.279810
O O12 0.285115 0.038025 0.348391
O O13 0.085924 0.656447 0.196721
O O14 0.047326 0.091852 0.418186
O O15 0.047191 0.823207 0.040389
#
# Coordination Sequence:
#
# PCOD9058051 Si02
#       7
#     2   2   2   2   2   2   2
#     4  10  24  34  55  93 130 157 201 267 313 355
#     4  10  17  37  58  90 118 159 202 255 303 365
#     4  10  21  35  59  92 131 169 195 244 321 370
#     4   9  19  34  62  88 121 162 207 243 308 362
#     4  11  19  36  57  91 128 155 206 250 305 369
#     4  11  18  37  62  91 121 163 211 253 304 372
#     4   9  18  34  63  88 118 160 207 240 307 364
#
# _framework density 26.619185999999999
#
# number of rings (size 3 to 8) (size 9 to 14) (size 15 to 20)
#    0.857    1.143    2.857    2.571    0.000    0.571 
#    0.000    0.714    0.000    3.429    0.000    0.000 
#    0.000    0.000    0.000    0.000    0.000    0.000 
#
# Total GULP energy -78171.150033 kJ/mol
# GULP energy per Si atom -5583.653574 kJ/mol
# Density = 2.655860 g / cm^3
# Si number density = 26.619186 Si / 1000 Ang^3
#
#
#
# Elastic Constant Matrix: (Units=GPa)
#
#
# Indices 1 2 3 4 5 6 
#
# 1 120.2428 63.3294 31.7108 -8.1481 -26.3784 -25.8442
# 2 63.3294 110.5772 38.6037 -29.8635 -21.1215 -27.0448
# 3 31.7108 38.6037 68.6641 -4.6195 -36.1662 -10.0133
# 4 -8.1481 -29.8635 -4.6195 47.2042 -0.1640 -11.9216
# 5 -26.3784 -21.1215 -36.1662 -0.1640 53.0240 -0.9127
# 6 -25.8442 -27.0448 -10.0133 -11.9216 -0.9127 61.5778
#
#
#
# Elastic Compliance Matrix: (Units=1/GPa)
#
#
# Indices 1 2 3 4 5 6 
#
# 1 0.013013 -0.006387 -0.000071 -0.001162 0.003920 0.002478
# 2 -0.006387 0.020542 -0.005946 0.013329 0.001128 0.007972
# 3 -0.000071 -0.005946 0.026368 -0.000699 0.015609 0.001743
# 4 -0.001162 0.013329 -0.000699 0.032286 0.004553 0.011571
# 5 0.003920 0.001128 0.015609 0.004553 0.032023 0.006035
# 6 0.002478 0.007972 0.001743 0.011571 0.006035 0.023394
#
#
# Mechanical properties :
#
#
# Convention : Reuss Voigt Hill
#
# Bulk Modulus (GPa) = 28.47760 62.97465 45.72612
# Shear Modulus (GPa) = 27.15365 43.41721 35.28543
#
# Velocity S-wave (km/s) = 3.19733 4.04301 3.64478
# Velocity P-wave (km/s) = 4.93477 6.74563 5.90997
#
# Compressibility (1/GPa) = 0.03511532
#
# Stress axis : x y z
#
# Youngs Moduli (GPa) = 76.84663 48.68099 37.92544
#
# Poissons Ratio (x) = 0.31092 0.00269
# Poissons Ratio (y) = 0.49081 0.22550
# Poissons Ratio (z) = 0.00545 0.28945
#
# Static dielectric constant tensor:
#      x y z
#    x 2.090800 -0.025530 0.041520 
#    y -0.025530 2.417930 -0.051200 
#    z 0.041520 -0.051200 2.118410 
# 
# From -- ./inp_files/380383.got.cif
#   From: 2010.05.17/outbox.cif.g08.bks.cpg/sg2_191_cif.got.tgz:380383.got - 2010.06.03 11:33:40.
