data_PCOD9058000
_publ_section_title
;
Structure prediction by ZEFSAII (Michael W. Deem and Ramdas Pophale) SiO2 
 PCOD9058000
Probable space group: P -1
;
_chemical_formula_sum "Si O2"
_cell_formula_units_Z 16
_cell_length_a 11.707067
_cell_length_b 17.885413
_cell_length_c 10.896203
_cell_angle_alpha 140.407014
_cell_angle_beta 49.097932
_cell_angle_gamma 148.251472
_cell_volume 765.121107
_symmetry_space_group_name_H-M "P -1"
_symmetry_group_IT_number 2
_symmetry_cell_setting 'triclinic'
loop_
_space_group_symop_operation_xyz
x,y,z
-x,-y,-z
loop_
_atom_site_type_symbol
_atom_site_label
_atom_site_fract_x
_atom_site_fract_y
_atom_site_fract_z
Si Si1 0.035480 0.657437 0.179091
Si Si2 0.933944 0.923129 0.310133
Si Si3 0.982139 0.688437 0.980138
Si Si4 0.608682 0.534215 0.672773
Si Si5 0.053508 0.489129 0.585694
Si Si6 0.211940 0.276782 0.455577
Si Si7 0.511585 0.651275 0.112339
Si Si8 0.638486 0.189784 0.669348
O O1 0.275272 0.792568 0.233773
O O2 0.985303 0.687700 0.123940
O O3 0.884708 0.646496 0.362902
O O4 0.000000 0.500000 0.000000
O O5 0.035438 0.851809 0.116245
O O6 0.679635 0.764088 0.249471
O O7 0.000000 0.000000 0.500000
O O8 0.029257 0.078396 0.354277
O O9 0.124553 0.654024 0.802676
O O10 0.737005 0.520811 0.896397
O O11 0.388962 0.362403 0.547536
O O12 0.689293 0.669184 0.680844
O O13 0.772442 0.517343 0.549924
O O14 0.581053 0.590883 0.889187
O O15 0.845176 0.326525 0.605242
O O16 0.000000 0.500000 0.500000
O O17 0.492872 0.763402 0.194036
O O18 0.500000 0.000000 0.500000
#
# Coordination Sequence:
#
# PCOD9058000 Si02
#       8
#     2   2   2   2   2   2   2   2
#     4  12  18  41  68  93 125 168 224 262 313 394
#     4  12  24  40  63  96 135 164 221 277 320 382
#     4  11  23  43  69  96 126 179 216 264 330 396
#     4  11  22  44  68  93 131 171 221 263 331 391
#     4  11  24  43  67  94 135 172 216 268 331 393
#     4  11  23  39  66  96 129 172 211 275 324 381
#     4  11  23  41  69  96 126 177 224 259 329 398
#     4  11  24  42  68  98 129 173 219 270 321 388
#
# _framework density 20.911724
#
# number of rings (size 3 to 8) (size 9 to 14) (size 15 to 20)
#    0.000    0.750    6.250    1.875    0.000    4.500 
#    2.250    0.625    0.000    0.000    0.000    0.000 
#    0.000    0.000    0.000    0.000    0.000    0.000 
#
# Total GULP energy -89241.736551 kJ/mol
# GULP energy per Si atom -5577.608534 kJ/mol
# Density = 2.086413 g / cm^3
# Si number density = 20.911724 Si / 1000 Ang^3
#
#
#
# Elastic Constant Matrix: (Units=GPa)
#
#
# Indices 1 2 3 4 5 6 
#
# 1 120.9337 35.5210 35.4926 4.2587 0.1175 22.8794
# 2 35.5210 43.0757 42.6232 21.4073 -13.5234 0.1187
# 3 35.4926 42.6232 118.0202 6.7171 -22.3844 15.5074
# 4 4.2587 21.4073 6.7171 35.3840 4.4894 3.8379
# 5 0.1175 -13.5234 -22.3844 4.4894 53.4070 0.9798
# 6 22.8794 0.1187 15.5074 3.8379 0.9798 29.1931
#
#
#
# Elastic Compliance Matrix: (Units=1/GPa)
#
#
# Indices 1 2 3 4 5 6 
#
# 1 0.021262 -0.040018 0.008257 0.023708 -0.008277 -0.023726
# 2 -0.040018 0.145276 -0.038564 -0.085841 0.026796 0.061644
# 3 0.008257 -0.038564 0.020914 0.020850 -0.002401 -0.020085
# 4 0.023708 -0.085841 0.020850 0.080052 -0.019059 -0.039192
# 5 -0.008277 0.026796 -0.002401 -0.019059 0.025953 0.009288
# 6 -0.023726 0.061644 -0.020085 -0.039192 0.009288 0.068108
#
#
# Mechanical properties :
#
#
# Convention : Reuss Voigt Hill
#
# Bulk Modulus (GPa) = 21.36680 56.58925 38.97802
# Shear Modulus (GPa) = 9.65593 34.82301 22.23947
#
# Velocity S-wave (km/s) = 2.15116 4.08516 3.26466
# Velocity P-wave (km/s) = 4.05090 7.02646 5.73502
#
# Compressibility (1/GPa) = 0.04680158
#
# Stress axis : x y z
#
# Youngs Moduli (GPa) = 47.03275 6.88344 47.81405
#
# Poissons Ratio (x) = 0.27546 -0.39479
# Poissons Ratio (y) = 1.88217 1.84390
# Poissons Ratio (z) = -0.38834 0.26545
#
# Static dielectric constant tensor:
#      x y z
#    x 2.410680 0.158270 -0.763270 
#    y 0.158270 1.809920 -0.244640 
#    z -0.763270 -0.244640 2.730710 
# 
# From -- ./inp_files/333137.got.cif
#   From: 2010.05.17/outbox.cif.g08.bks.cpg/sg2_167_cif.got.tgz:333137.got - 2010.06.03 11:33:40.
