data_PCOD9058355
_publ_section_title
;
Structure prediction by ZEFSAII (Michael W. Deem and Ramdas Pophale) SiO2 
 PCOD9058355
Probable space group: P -1
;
_chemical_formula_sum "Si O2"
_cell_formula_units_Z 16
_cell_length_a 15.466978
_cell_length_b 15.076605
_cell_length_c 15.745565
_cell_angle_alpha 153.360905
_cell_angle_beta 153.750516
_cell_angle_gamma 36.297417
_cell_volume 727.946612
_symmetry_space_group_name_H-M "P -1"
_symmetry_group_IT_number 2
_symmetry_cell_setting 'triclinic'
loop_
_space_group_symop_operation_xyz
x,y,z
-x,-y,-z
loop_
_atom_site_type_symbol
_atom_site_label
_atom_site_fract_x
_atom_site_fract_y
_atom_site_fract_z
Si Si1 0.411759 0.308032 0.454279
Si Si2 0.171870 0.802410 0.216635
Si Si3 0.351886 0.849478 0.054152
Si Si4 0.139465 0.822739 0.003671
Si Si5 0.920902 0.779219 0.242512
Si Si6 0.083006 0.548699 0.473509
Si Si7 0.238932 0.225730 0.721874
Si Si8 0.814745 0.597356 0.818181
O O1 0.633986 0.320749 0.691361
O O2 0.264530 0.440204 0.493953
O O3 0.378750 0.374524 0.384723
O O4 0.356973 0.077032 0.222720
O O5 0.184788 0.008871 0.454415
O O6 0.171684 0.836671 0.144811
O O7 0.980326 0.698059 0.991963
O O8 0.547304 0.742772 0.100575
O O9 0.332064 0.836175 0.126980
O O10 0.167475 0.735146 0.756846
O O11 0.028484 0.618150 0.715418
O O12 0.000000 0.000000 0.000000
O O13 0.104061 0.624877 0.284608
O O14 0.776374 0.767746 0.185190
O O15 0.000000 0.000000 0.500000
O O16 0.816701 0.713057 0.007694
O O17 0.923221 0.626736 0.332597
#
# Coordination Sequence:
#
# PCOD9058355 Si02
#       8
#     2   2   2   2   2   2   2   2
#     4  11  24  44  70  99 137 185 219 281 343 402
#     4  11  24  44  73  98 142 177 229 281 339 407
#     4  11  27  44  67 103 138 176 233 275 340 404
#     4  12  23  46  71 102 138 186 229 280 338 401
#     4  11  23  41  73 101 131 180 227 281 343 406
#     4  12  24  43  72  95 140 184 221 278 342 403
#     4  11  24  46  69 102 137 179 223 286 339 403
#     4  11  22  45  70  97 138 179 225 276 346 408
#
# _framework density 21.979633
#
# number of rings (size 3 to 8) (size 9 to 14) (size 15 to 20)
#    0.000    0.750    5.000    1.875    3.500    2.500 
#    2.250    6.250    0.000    0.000    0.000    0.000 
#    0.000    0.000    0.000    0.000    0.000    0.000 
#
# Total GULP energy -89571.198411 kJ/mol
# GULP energy per Si atom -5598.199901 kJ/mol
# Density = 2.192961 g / cm^3
# Si number density = 21.979633 Si / 1000 Ang^3
#
#
#
# Elastic Constant Matrix: (Units=GPa)
#
#
# Indices 1 2 3 4 5 6 
#
# 1 145.7766 47.6389 34.3727 -12.5618 -30.5805 -2.7310
# 2 47.6389 102.8013 26.8481 -15.4431 -11.1312 0.1611
# 3 34.3727 26.8481 73.4276 4.9809 -15.3171 11.5155
# 4 -12.5618 -15.4431 4.9809 45.8417 1.6078 -3.0290
# 5 -30.5805 -11.1312 -15.3171 1.6078 35.0093 -5.0218
# 6 -2.7310 0.1611 11.5155 -3.0290 -5.0218 35.0401
#
#
#
# Elastic Compliance Matrix: (Units=1/GPa)
#
#
# Indices 1 2 3 4 5 6 
#
# 1 0.010195 -0.002914 -0.002833 0.002066 0.007065 0.002930
# 2 -0.002914 0.012633 -0.003758 0.003955 -0.000173 0.001267
# 3 -0.002833 -0.003758 0.018357 -0.004570 0.003697 -0.006102
# 4 0.002066 0.003955 -0.004570 0.024445 0.000489 0.003828
# 5 0.007065 -0.000173 0.003697 0.000489 0.036945 0.004674
# 6 0.002930 0.001267 -0.006102 0.003828 0.004674 0.031767
#
#
# Mechanical properties :
#
#
# Convention : Reuss Voigt Hill
#
# Bulk Modulus (GPa) = 45.09558 59.96942 52.53250
# Shear Modulus (GPa) = 31.10541 37.38793 34.24667
#
# Velocity S-wave (km/s) = 3.76599 4.12882 3.95157
# Velocity P-wave (km/s) = 6.28265 7.07622 6.69121
#
# Compressibility (1/GPa) = 0.02217512
#
# Stress axis : x y z
#
# Youngs Moduli (GPa) = 98.08785 79.15911 54.47479
#
# Poissons Ratio (x) = 0.23066 0.15432
# Poissons Ratio (y) = 0.28582 0.20472
# Poissons Ratio (z) = 0.27787 0.29749
#
# Static dielectric constant tensor:
#      x y z
#    x 1.809490 -0.000510 -0.008110 
#    y -0.000510 1.796880 -0.001270 
#    z -0.008110 -0.001270 1.828860 
# 
# From -- ./inp_files/534650.got.cif
#   From: 2010.05.17/outbox.cif.g08.bks.cpg/sg2_268_cif.got.tgz:534650.got - 2010.06.03 11:33:40.
