data_PCOD9058768
_publ_section_title
;
Structure prediction by ZEFSAII (Michael W. Deem and Ramdas Pophale) SiO2 
 PCOD9058768
Probable space group: P -1
;
_chemical_formula_sum "Si O2"
_cell_formula_units_Z 16
_cell_length_a 9.168205
_cell_length_b 11.313645
_cell_length_c 8.912340
_cell_angle_alpha 54.181702
_cell_angle_beta 84.429313
_cell_angle_gamma 72.990331
_cell_volume 713.533150
_symmetry_space_group_name_H-M "P -1"
_symmetry_group_IT_number 2
_symmetry_cell_setting 'triclinic'
loop_
_space_group_symop_operation_xyz
x,y,z
-x,-y,-z
loop_
_atom_site_type_symbol
_atom_site_label
_atom_site_fract_x
_atom_site_fract_y
_atom_site_fract_z
Si Si1 0.149723 0.382908 0.641423
Si Si2 0.760420 0.346251 0.060927
Si Si3 0.385821 0.132881 0.322876
Si Si4 0.415159 0.836189 0.966242
Si Si5 0.641329 0.606136 0.650919
Si Si6 0.375292 0.489734 0.740664
Si Si7 0.140019 0.057628 0.004758
Si Si8 0.064825 0.109774 0.308843
O O1 0.265941 0.332319 0.527645
O O2 0.228753 0.479118 0.671619
O O3 0.122324 0.234547 0.832988
O O4 0.000000 0.500000 0.500000
O O5 0.684963 0.214527 0.116644
O O6 0.674025 0.450888 0.129408
O O7 0.930198 0.261190 0.165226
O O8 0.743263 0.448679 0.835695
O O9 0.450640 0.111212 0.164540
O O10 0.401112 0.284880 0.283832
O O11 0.209594 0.141670 0.348697
O O12 0.500000 0.000000 0.500000
O O13 0.509596 0.680113 0.149939
O O14 0.702262 0.044045 0.008048
O O15 0.485362 0.589492 0.605925
O O16 0.131204 0.035497 0.199503
O O17 0.000000 0.000000 0.000000
O O18 0.000000 0.000000 0.500000
#
# Coordination Sequence:
#
# PCOD9058768 Si02
#       8
#     2   2   2   2   2   2   2   2
#     4  12  29  47  71 116 153 199 254 307 376 454
#     4  11  22  48  76 108 147 197 250 308 379 448
#     4  12  25  43  71 111 149 194 257 308 371 452
#     4  11  22  48  77 106 148 192 256 306 378 443
#     4  11  24  45  75 107 149 199 247 314 373 448
#     4  11  24  47  77 108 148 200 249 311 376 443
#     4  12  28  51  78 108 156 202 245 318 384 443
#     4  12  29  47  74 110 146 200 251 312 380 447
#
# _framework density 22.423625999999999
#
# number of rings (size 3 to 8) (size 9 to 14) (size 15 to 20)
#    0.000    0.500    3.750    4.125    5.250    3.500 
#    0.000    0.000    0.000    0.000    0.000    0.000 
#    0.000    0.000    0.000    0.000    0.000    0.000 
#
# Total GULP energy -89460.283325 kJ/mol
# GULP energy per Si atom -5591.267708 kJ/mol
# Density = 2.237259 g / cm^3
# Si number density = 22.423626 Si / 1000 Ang^3
#
#
#
# Elastic Constant Matrix: (Units=GPa)
#
#
# Indices 1 2 3 4 5 6 
#
# 1 143.3945 52.7934 53.0324 -8.7842 3.9071 21.4537
# 2 52.7934 98.0496 39.5348 7.6039 1.0135 -5.2196
# 3 53.0324 39.5348 94.3388 5.2785 -15.6464 7.4405
# 4 -8.7842 7.6039 5.2785 28.9494 -3.6274 -1.8839
# 5 3.9071 1.0135 -15.6464 -3.6274 51.9021 13.4459
# 6 21.4537 -5.2196 7.4405 -1.8839 13.4459 34.8394
#
#
#
# Elastic Compliance Matrix: (Units=1/GPa)
#
#
# Indices 1 2 3 4 5 6 
#
# 1 0.011916 -0.005570 -0.004074 0.005385 0.000196 -0.007087
# 2 -0.005570 0.015835 -0.004448 -0.004979 -0.003620 0.007880
# 3 -0.004074 -0.004448 0.016250 -0.002525 0.006192 -0.004154
# 4 0.005385 -0.004979 -0.002525 0.038069 0.002189 -0.002309
# 5 0.000196 -0.003620 0.006192 0.002189 0.024251 -0.011226
# 6 -0.007087 0.007880 -0.004154 -0.002309 -0.011226 0.039343
#
#
# Mechanical properties :
#
#
# Convention : Reuss Voigt Hill
#
# Bulk Modulus (GPa) = 63.22552 69.61157 66.41855
# Shear Modulus (GPa) = 27.91410 35.83300 31.87355
#
# Velocity S-wave (km/s) = 3.53207 4.00184 3.77427
# Velocity P-wave (km/s) = 6.70009 7.24322 6.97694
#
# Compressibility (1/GPa) = 0.01581640
#
# Stress axis : x y z
#
# Youngs Moduli (GPa) = 83.91998 63.15283 61.53701
#
# Poissons Ratio (x) = 0.35177 0.25072
# Poissons Ratio (y) = 0.46745 0.27371
# Poissons Ratio (z) = 0.34191 0.28090
#
# Static dielectric constant tensor:
#      x y z
#    x 1.874700 0.036210 0.008720 
#    y 0.036210 1.848170 -0.003710 
#    z 0.008720 -0.003710 1.904450 
# 
# From -- ./inp_files/175324.got.cif
#   From: 2010.05.17/outbox.cif.g08.bks.cpg/sg2_88_cif.got.tgz:175324.got - 2010.06.03 11:33:40.
