data_PCOD9058758
_publ_section_title
;
Structure prediction by ZEFSAII (Michael W. Deem and Ramdas Pophale) SiO2 
 PCOD9058758
Probable space group: P -1
;
_chemical_formula_sum "Si O2"
_cell_formula_units_Z 15
_cell_length_a 11.501306
_cell_length_b 11.875997
_cell_length_c 8.875622
_cell_angle_alpha 92.815660
_cell_angle_beta 128.511237
_cell_angle_gamma 52.330819
_cell_volume 634.367429
_symmetry_space_group_name_H-M "P -1"
_symmetry_group_IT_number 2
_symmetry_cell_setting 'triclinic'
loop_
_space_group_symop_operation_xyz
x,y,z
-x,-y,-z
loop_
_atom_site_type_symbol
_atom_site_label
_atom_site_fract_x
_atom_site_fract_y
_atom_site_fract_z
Si Si1 0.955405 0.619347 0.098635
Si Si2 0.105395 0.262293 0.485928
Si Si3 0.351900 0.543371 0.521883
Si Si4 0.678901 0.263781 0.016824
Si Si5 0.748290 0.907569 0.724455
Si Si6 0.000000 0.000000 0.000000
Si Si7 0.940790 0.161673 0.490590
Si Si8 0.705230 0.658745 0.184608
O O1 0.797626 0.659843 0.104856
O O2 0.189471 0.532205 0.347452
O O3 0.843833 0.788169 0.937851
O O4 0.000000 0.500000 0.000000
O O5 0.122590 0.210181 0.327115
O O6 0.289374 0.251416 0.673896
O O7 0.132423 0.144855 0.618546
O O8 0.882545 0.459966 0.350072
O O9 0.500000 0.500000 0.500000
O O10 0.517753 0.416336 0.780095
O O11 0.193445 0.734392 0.461171
O O12 0.864965 0.103267 0.052526
O O13 0.535763 0.258420 0.000904
O O14 0.788833 0.280138 0.231572
O O15 0.500000 0.000000 0.500000
O O16 0.811041 0.003451 0.803894
O O17 0.000000 0.000000 0.500000
#
# Coordination Sequence:
#
# PCOD9058758 Si02
#       8
#     2   2   2   2   2   1   2   2
#     4  12  27  47  76 118 154 198 279 332 385 488
#     4  11  22  48  73 105 149 202 257 324 390 474
#     4  12  28  48  81 113 154 210 273 327 402 484
#     4  12  27  48  81 108 157 209 265 325 415 474
#     4  12  28  49  79 112 165 213 255 331 422 467
#     4  12  28  48  78 120 156 206 270 334 408 490
#     4  12  28  48  73 113 159 200 255 332 397 476
#     4  11  23  46  79 106 146 203 268 323 394 472
#
# _framework density 23.645600999999999
#
# number of rings (size 3 to 8) (size 9 to 14) (size 15 to 20)
#    0.000    0.267    5.333    2.800    7.467    1.067 
#    0.000    2.000    0.000    0.000    0.000    0.000 
#    0.000    0.000    0.000    0.000    0.000    0.000 
#
# Total GULP energy -83668.520489 kJ/mol
# GULP energy per Si atom -5577.901366 kJ/mol
# Density = 2.359178 g / cm^3
# Si number density = 23.645601 Si / 1000 Ang^3
#
#
#
# Elastic Constant Matrix: (Units=GPa)
#
#
# Indices 1 2 3 4 5 6 
#
# 1 161.5489 46.6229 9.9053 -0.2833 9.7051 -12.6449
# 2 46.6229 110.0653 24.5559 36.7384 0.7627 5.0483
# 3 9.9053 24.5559 71.3197 6.2028 7.9914 8.7473
# 4 -0.2833 36.7384 6.2028 43.3599 5.0515 -4.2321
# 5 9.7051 0.7627 7.9914 5.0515 42.8096 7.5597
# 6 -12.6449 5.0483 8.7473 -4.2321 7.5597 41.2330
#
#
#
# Elastic Compliance Matrix: (Units=1/GPa)
#
#
# Indices 1 2 3 4 5 6 
#
# 1 0.008352 -0.005611 0.000110 0.005601 -0.003251 0.004396
# 2 -0.005611 0.017729 -0.003797 -0.015574 0.004475 -0.005505
# 3 0.000110 -0.003797 0.015795 0.001044 -0.002629 -0.002263
# 4 0.005601 -0.015574 0.001044 0.037820 -0.007168 0.008599
# 5 -0.003251 0.004475 -0.002629 -0.007168 0.026516 -0.006584
# 6 0.004396 -0.005505 -0.002263 0.008599 -0.006584 0.028844
#
#
# Mechanical properties :
#
#
# Convention : Reuss Voigt Hill
#
# Bulk Modulus (GPa) = 42.95454 56.12246 49.53850
# Shear Modulus (GPa) = 30.97681 42.93717 36.95699
#
# Velocity S-wave (km/s) = 3.62338 4.26592 3.95771
# Velocity P-wave (km/s) = 5.97583 6.93184 6.47152
#
# Compressibility (1/GPa) = 0.02328043
#
# Stress axis : x y z
#
# Youngs Moduli (GPa) = 119.73465 56.40459 63.31213
#
# Poissons Ratio (x) = 0.31647 -0.00696
# Poissons Ratio (y) = 0.67181 0.24038
# Poissons Ratio (z) = -0.01316 0.21415
#
# Static dielectric constant tensor:
#      x y z
#    x 1.911130 0.043880 0.004610 
#    y 0.043880 1.884280 -0.043650 
#    z 0.004610 -0.043650 1.939480 
# 
# From -- ./inp_files/259176.got.cif
#   From: 2010.05.17/outbox.cif.g08.bks.cpg/sg2_130_cif.got.tgz:259176.got - 2010.06.03 11:33:40.
