data_PCOD9058641
_publ_section_title
;
Structure prediction by ZEFSAII (Michael W. Deem and Ramdas Pophale) SiO2 
 PCOD9058641
Probable space group: P -1
;
_chemical_formula_sum "Si O2"
_cell_formula_units_Z 14
_cell_length_a 17.079340
_cell_length_b 9.057212
_cell_length_c 8.366802
_cell_angle_alpha 114.056173
_cell_angle_beta 60.041267
_cell_angle_gamma 147.893430
_cell_volume 595.653769
_symmetry_space_group_name_H-M "P -1"
_symmetry_group_IT_number 2
_symmetry_cell_setting 'triclinic'
loop_
_space_group_symop_operation_xyz
x,y,z
-x,-y,-z
loop_
_atom_site_type_symbol
_atom_site_label
_atom_site_fract_x
_atom_site_fract_y
_atom_site_fract_z
Si Si1 0.761920 0.462184 0.825664
Si Si2 0.363918 0.422127 0.163034
Si Si3 0.480605 0.158446 0.543227
Si Si4 0.851492 0.335046 0.410313
Si Si5 0.719980 0.503145 0.209551
Si Si6 0.913746 0.087407 0.200681
Si Si7 0.017416 0.789724 0.185274
O O1 0.647189 0.432927 0.869861
O O2 0.786939 0.362560 0.623487
O O3 0.936359 0.785790 0.823268
O O4 0.717453 0.364144 0.011056
O O5 0.415388 0.566189 0.343702
O O6 0.185397 0.101196 0.208045
O O7 0.500000 0.500000 0.000000
O O8 0.547797 0.267198 0.346013
O O9 0.500000 0.000000 0.500000
O O10 0.302339 0.938269 0.652185
O O11 0.903437 0.236680 0.378830
O O12 0.970888 0.590138 0.278336
O O13 0.851115 0.643955 0.269879
O O14 0.774560 0.758773 0.205543
O O15 0.948002 0.192943 0.030631
#
# Coordination Sequence:
#
# PCOD9058641 Si02
#       7
#     2   2   2   2   2   2   2
#     4  11  23  45  68 103 136 182 227 287 340 406
#     4  12  25  46  72 102 137 181 237 278 342 418
#     4  12  26  46  69 104 143 183 227 285 345 410
#     4  12  26  45  72 105 143 180 232 280 345 412
#     4  11  23  45  74  98 141 184 229 284 346 402
#     4  11  23  44  71 107 134 180 233 286 343 402
#     4  11  22  46  76  99 138 186 231 281 337 419
#
# _framework density 23.503589000000002
#
# number of rings (size 3 to 8) (size 9 to 14) (size 15 to 20)
#    0.000    0.571    5.714    2.571    2.000    2.286 
#    0.000    0.000    0.000    0.000    0.000    0.000 
#    0.000    0.000    0.000    0.000    0.000    0.000 
#
# Total GULP energy -78081.925864 kJ/mol
# GULP energy per Si atom -5577.280419 kJ/mol
# Density = 2.345009 g / cm^3
# Si number density = 23.503589 Si / 1000 Ang^3
#
#
#
# Elastic Constant Matrix: (Units=GPa)
#
#
# Indices 1 2 3 4 5 6 
#
# 1 92.8984 20.7134 24.3781 -2.1322 -23.3296 -2.0075
# 2 20.7134 100.9917 52.0130 -7.5730 -3.0028 5.3099
# 3 24.3781 52.0130 89.2570 -3.1016 -6.3381 -21.6860
# 4 -2.1322 -7.5730 -3.1016 35.5688 3.5034 -4.1433
# 5 -23.3296 -3.0028 -6.3381 3.5034 30.9201 5.1591
# 6 -2.0075 5.3099 -21.6860 -4.1433 5.1591 37.6727
#
#
#
# Elastic Compliance Matrix: (Units=1/GPa)
#
#
# Indices 1 2 3 4 5 6 
#
# 1 0.014435 -0.000849 -0.003358 -0.000963 0.010665 -0.002611
# 2 -0.000849 0.016595 -0.011547 0.001451 -0.000082 -0.008860
# 3 -0.003358 -0.011547 0.022334 0.001158 -0.001654 0.014659
# 4 -0.000963 0.001451 0.001158 0.029393 -0.004387 0.004244
# 5 0.010665 -0.000082 -0.001654 -0.004387 0.041632 -0.006556
# 6 -0.002611 -0.008860 0.014659 0.004244 -0.006556 0.037457
#
#
# Mechanical properties :
#
#
# Convention : Reuss Voigt Hill
#
# Bulk Modulus (GPa) = 45.75410 53.03957 49.39683
# Shear Modulus (GPa) = 24.92045 33.23516 29.07780
#
# Velocity S-wave (km/s) = 3.25973 3.76446 3.52115
# Velocity P-wave (km/s) = 5.80318 6.44286 6.13137
#
# Compressibility (1/GPa) = 0.02185597
#
# Stress axis : x y z
#
# Youngs Moduli (GPa) = 69.27716 60.25942 44.77543
#
# Poissons Ratio (x) = 0.05115 0.15037
# Poissons Ratio (y) = 0.05880 0.51700
# Poissons Ratio (z) = 0.23265 0.69579
#
# Static dielectric constant tensor:
#      x y z
#    x 2.070780 0.085460 -0.037220 
#    y 0.085460 1.917270 0.021930 
#    z -0.037220 0.021930 1.968790 
# 
# From -- ./inp_files/329286.got.cif
#   From: 2010.05.17/outbox.cif.g08.bks.cpg/sg2_165_cif.got.tgz:329286.got - 2010.06.03 11:33:40.
