data_PCOD9058437
_publ_section_title
;
Structure prediction by ZEFSAII (Michael W. Deem and Ramdas Pophale) SiO2 
 PCOD9058437
Probable space group: P -1
;
_chemical_formula_sum "Si O2"
_cell_formula_units_Z 14
_cell_length_a 8.935571
_cell_length_b 9.442407
_cell_length_c 10.812561
_cell_angle_alpha 72.103585
_cell_angle_beta 42.048826
_cell_angle_gamma 73.485457
_cell_volume 579.200430
_symmetry_space_group_name_H-M "P -1"
_symmetry_group_IT_number 2
_symmetry_cell_setting 'triclinic'
loop_
_space_group_symop_operation_xyz
x,y,z
-x,-y,-z
loop_
_atom_site_type_symbol
_atom_site_label
_atom_site_fract_x
_atom_site_fract_y
_atom_site_fract_z
Si Si1 0.107488 0.943145 0.316841
Si Si2 0.758723 0.568682 0.959635
Si Si3 0.525240 0.240865 0.733402
Si Si4 0.515480 0.285263 0.128271
Si Si5 0.812829 0.975363 0.020309
Si Si6 0.240102 0.549021 0.621262
Si Si7 0.873555 0.646759 0.472659
O O1 0.361280 0.883022 0.210325
O O2 0.099864 0.045561 0.170324
O O3 0.001961 0.792398 0.376491
O O4 0.000000 0.000000 0.500000
O O5 0.670525 0.681668 0.873684
O O6 0.018080 0.579268 0.832702
O O7 0.594114 0.617993 0.159380
O O8 0.691683 0.410767 0.990110
O O9 0.725597 0.298696 0.515237
O O10 0.327364 0.160243 0.813978
O O11 0.370882 0.309678 0.333527
O O12 0.645570 0.125293 0.081386
O O13 0.000000 0.000000 0.000000
O O14 0.500000 0.500000 0.500000
O O15 0.160856 0.413875 0.625294
O O16 0.000000 0.500000 0.500000
#
# Coordination Sequence:
#
# PCOD9058437 Si02
#       7
#     2   2   2   2   2   2   2
#     4  12  26  48  78 109 152 208 263 313 373 477
#     4  11  23  44  80 104 141 195 259 310 381 453
#     4  12  26  48  73 109 148 206 261 307 387 475
#     4  11  22  45  73 108 145 194 249 315 376 458
#     4  12  30  48  72 111 160 204 251 320 399 453
#     4  12  28  44  73 115 155 192 252 332 391 450
#     4  12  22  45  76 110 143 190 262 319 377 452
#
# _framework density 24.171253
#
# number of rings (size 3 to 8) (size 9 to 14) (size 15 to 20)
#    0.000    0.286    5.714    2.143    8.000    1.714 
#    0.000    1.429    0.000    0.000    0.000    0.000 
#    0.000    0.000    0.000    0.000    0.000    0.000 
#
# Total GULP energy -78256.229414 kJ/mol
# GULP energy per Si atom -5589.730672 kJ/mol
# Density = 2.411624 g / cm^3
# Si number density = 24.171253 Si / 1000 Ang^3
#
#
#
# Elastic Constant Matrix: (Units=GPa)
#
#
# Indices 1 2 3 4 5 6 
#
# 1 90.4628 26.6319 28.2051 -10.0080 -27.3851 8.6467
# 2 26.6319 111.6740 22.1229 2.5709 -3.0101 16.6873
# 3 28.2051 22.1229 131.7114 7.2115 -8.8592 6.2022
# 4 -10.0080 2.5709 7.2115 39.6097 6.5762 -7.5558
# 5 -27.3851 -3.0101 -8.8592 6.5762 41.8276 -6.0417
# 6 8.6467 16.6873 6.2022 -7.5558 -6.0417 40.1776
#
#
#
# Elastic Compliance Matrix: (Units=1/GPa)
#
#
# Indices 1 2 3 4 5 6 
#
# 1 0.015846 -0.003161 -0.002432 0.003178 0.009169 0.000255
# 2 -0.003161 0.010503 -0.000916 -0.001803 -0.001824 -0.004154
# 3 -0.002432 -0.000916 0.008456 -0.002306 0.000383 -0.000778
# 4 0.003178 -0.001803 -0.002306 0.027967 -0.002161 0.005356
# 5 0.009169 -0.001824 0.000383 -0.002161 0.030623 0.002924
# 6 0.000255 -0.004154 -0.000778 0.005356 0.002924 0.028127
#
#
# Mechanical properties :
#
#
# Convention : Reuss Voigt Hill
#
# Bulk Modulus (GPa) = 45.89730 54.19644 50.04687
# Shear Modulus (GPa) = 35.26087 41.44889 38.35488
#
# Velocity S-wave (km/s) = 3.82356 4.14551 3.98778
# Velocity P-wave (km/s) = 6.20664 6.73678 6.47714
#
# Compressibility (1/GPa) = 0.02178778
#
# Stress axis : x y z
#
# Youngs Moduli (GPa) = 63.10724 95.21109 118.26581
#
# Poissons Ratio (x) = 0.30099 0.28757
# Poissons Ratio (y) = 0.19950 0.10827
# Poissons Ratio (z) = 0.15345 0.08717
#
# Static dielectric constant tensor:
#      x y z
#    x 2.010760 -0.106650 0.352010 
#    y -0.106650 1.655830 0.973380 
#    z 0.352010 0.973380 -1.343070 
# 
# From -- ./inp_files/188615.got.cif
#   From: 2010.05.17/outbox.cif.g08.bks.cpg/sg2_95_cif.got.tgz:188615.got - 2010.06.03 11:33:40.
