data_PCOD9058610
_publ_section_title
;
Structure prediction by ZEFSAII (Michael W. Deem and Ramdas Pophale) SiO2 
 PCOD9058610
Probable space group: P -1
;
_chemical_formula_sum "Si O2"
_cell_formula_units_Z 16
_cell_length_a 10.875656
_cell_length_b 10.897131
_cell_length_c 9.143873
_cell_angle_alpha 103.169199
_cell_angle_beta 70.044746
_cell_angle_gamma 52.632826
_cell_volume 658.177335
_symmetry_space_group_name_H-M "P -1"
_symmetry_group_IT_number 2
_symmetry_cell_setting 'triclinic'
loop_
_space_group_symop_operation_xyz
x,y,z
-x,-y,-z
loop_
_atom_site_type_symbol
_atom_site_label
_atom_site_fract_x
_atom_site_fract_y
_atom_site_fract_z
Si Si1 0.211585 0.617102 0.166683
Si Si2 0.320095 0.337090 0.544463
Si Si3 0.300788 0.996911 0.132102
Si Si4 0.485389 0.634449 0.775330
Si Si5 0.916454 0.684848 0.501422
Si Si6 0.891192 0.719047 0.950935
Si Si7 0.095652 0.817891 0.001160
Si Si8 0.391880 0.273141 0.812591
O O1 0.364158 0.532536 0.212712
O O2 0.122233 0.798443 0.162245
O O3 0.054904 0.632868 0.302190
O O4 0.317986 0.460197 0.954288
O O5 0.400250 0.377606 0.404011
O O6 0.289089 0.223331 0.450674
O O7 0.451358 0.236607 0.609574
O O8 0.098458 0.528955 0.742833
O O9 0.102204 0.178037 0.350949
O O10 0.276723 0.127324 0.060216
O O11 0.449392 0.880887 0.174469
O O12 0.360749 0.833312 0.966386
O O13 0.317867 0.657522 0.801288
O O14 0.000000 0.500000 0.500000
O O15 0.790855 0.691363 0.089235
O O16 0.953894 0.802307 0.025914
O O17 0.000000 0.000000 0.000000
#
# Coordination Sequence:
#
# PCOD9058610 Si02
#       8
#     2   2   2   2   2   2   2   2
#     4  11  22  46  74 101 134 180 227 286 341 406
#     4  12  24  42  69 106 136 175 223 283 348 408
#     4  11  25  42  68 100 140 179 220 285 339 407
#     4  11  26  45  67  97 139 185 230 271 336 403
#     4  12  22  40  74 107 135 173 225 282 354 404
#     4  12  22  44  71  99 139 180 225 282 345 409
#     4  12  26  44  70  99 139 187 232 276 330 404
#     4  11  24  42  72 108 135 168 225 294 357 394
#
# _framework density 24.309557999999999
#
# number of rings (size 3 to 8) (size 9 to 14) (size 15 to 20)
#    0.000    0.500    6.250    1.875    3.500    2.000 
#    0.000    0.625    0.000    0.000    0.000    0.000 
#    0.000    0.000    0.000    0.000    0.000    0.000 
#
# Total GULP energy -89282.913316 kJ/mol
# GULP energy per Si atom -5580.182082 kJ/mol
# Density = 2.425423 g / cm^3
# Si number density = 24.309558 Si / 1000 Ang^3
#
#
#
# Elastic Constant Matrix: (Units=GPa)
#
#
# Indices 1 2 3 4 5 6 
#
# 1 59.0355 36.9983 30.0010 -25.6262 -15.8350 -16.0196
# 2 36.9983 153.1390 54.2579 -37.9581 -8.3259 -23.3005
# 3 30.0010 54.2579 99.5418 -29.5865 -5.1382 7.3337
# 4 -25.6262 -37.9581 -29.5865 41.8561 7.9467 10.6028
# 5 -15.8350 -8.3259 -5.1382 7.9467 39.5811 -7.9939
# 6 -16.0196 -23.3005 7.3337 10.6028 -7.9939 39.2287
#
#
#
# Elastic Compliance Matrix: (Units=1/GPa)
#
#
# Indices 1 2 3 4 5 6 
#
# 1 0.031855 -0.000051 -0.007715 0.007683 0.013227 0.015039
# 2 -0.000051 0.010284 -0.004786 0.003926 0.002012 0.006331
# 3 -0.007715 -0.004786 0.017990 0.008005 -0.005936 -0.012729
# 4 0.007683 0.003926 0.008005 0.040776 -0.004872 -0.008041
# 5 0.013227 0.002012 -0.005936 -0.004872 0.034426 0.016038
# 6 0.015039 0.006331 -0.012729 -0.008041 0.016038 0.043214
#
#
# Mechanical properties :
#
#
# Convention : Reuss Voigt Hill
#
# Bulk Modulus (GPa) = 28.54989 61.58120 45.06554
# Shear Modulus (GPa) = 23.22081 36.83047 30.02564
#
# Velocity S-wave (km/s) = 3.09401 3.89660 3.51826
# Velocity P-wave (km/s) = 4.95314 6.75513 5.92306
#
# Compressibility (1/GPa) = 0.03502641
#
# Stress axis : x y z
#
# Youngs Moduli (GPa) = 31.39203 97.24086 55.58526
#
# Poissons Ratio (x) = 0.00498 0.42883
# Poissons Ratio (y) = 0.00161 0.26600
# Poissons Ratio (z) = 0.24218 0.46535
#
# Static dielectric constant tensor:
#      x y z
#    x 2.045440 -0.020950 0.069410 
#    y -0.020950 2.051370 0.044110 
#    z 0.069410 0.044110 1.942450 
# 
# From -- ./inp_files/262502.got.cif
#   From: 2010.05.17/outbox.cif.g08.bks.cpg/sg2_132_cif.got.tgz:262502.got - 2010.06.03 11:33:40.
