data_PCOD9058186
_publ_section_title
;
Structure prediction by ZEFSAII (Michael W. Deem and Ramdas Pophale) SiO2 
 PCOD9058186
Probable space group: P -1
;
_chemical_formula_sum "Si O2"
_cell_formula_units_Z 16
_cell_length_a 9.494353
_cell_length_b 11.154709
_cell_length_c 9.757478
_cell_angle_alpha 69.448894
_cell_angle_beta 63.380007
_cell_angle_gamma 105.213542
_cell_volume 748.461779
_symmetry_space_group_name_H-M "P -1"
_symmetry_group_IT_number 2
_symmetry_cell_setting 'triclinic'
loop_
_space_group_symop_operation_xyz
x,y,z
-x,-y,-z
loop_
_atom_site_type_symbol
_atom_site_label
_atom_site_fract_x
_atom_site_fract_y
_atom_site_fract_z
Si Si1 0.292341 0.179075 0.389309
Si Si2 0.982103 0.148731 0.938615
Si Si3 0.294713 0.879428 0.167075
Si Si4 0.202688 0.560070 0.332955
Si Si5 0.665745 0.618810 0.468658
Si Si6 0.078866 0.849318 0.550557
Si Si7 0.970122 0.637114 0.923191
Si Si8 0.375742 0.564837 0.977507
O O1 0.353496 0.266834 0.470009
O O2 0.480527 0.264380 0.188275
O O3 0.128717 0.192770 0.380200
O O4 0.192430 0.003590 0.520037
O O5 0.825541 0.125079 0.908597
O O6 0.168266 0.277616 0.742150
O O7 0.963638 0.228177 0.051751
O O8 0.000000 0.000000 0.000000
O O9 0.303583 0.732116 0.248070
O O10 0.187719 0.885223 0.345903
O O11 0.500000 0.000000 0.000000
O O12 0.279772 0.471710 0.415335
O O13 0.000000 0.500000 0.500000
O O14 0.236476 0.551704 0.161004
O O15 0.500000 0.500000 0.500000
O O16 0.062337 0.719175 0.706686
O O17 0.750297 0.546864 0.040532
O O18 0.000000 0.500000 0.000000
O O19 0.500000 0.500000 0.000000
#
# Coordination Sequence:
#
# PCOD9058186 Si02
#       8
#     2   2   2   2   2   2   2   2
#     4  11  22  44  73 106 135 188 252 298 355 438
#     4  12  28  47  70 108 151 187 247 317 377 441
#     4  12  27  48  74 102 144 202 246 298 376 458
#     4  12  24  46  73 103 145 194 250 299 367 449
#     4  12  25  43  73 107 144 190 246 309 368 439
#     4  11  24  46  76 100 146 196 243 299 365 447
#     4  12  27  46  72 109 152 193 238 319 388 431
#     4  12  23  43  73 107 141 189 258 300 352 456
#
# _framework density 21.377177
#
# number of rings (size 3 to 8) (size 9 to 14) (size 15 to 20)
#    0.000    0.250    5.000    3.750    5.250    0.000 
#    0.000    1.250    0.000    0.000    0.000    0.000 
#    0.000    0.000    0.000    0.000    0.000    0.000 
#
# Total GULP energy -89337.855931 kJ/mol
# GULP energy per Si atom -5583.615996 kJ/mol
# Density = 2.132852 g / cm^3
# Si number density = 21.377177 Si / 1000 Ang^3
#
#
#
# Elastic Constant Matrix: (Units=GPa)
#
#
# Indices 1 2 3 4 5 6 
#
# 1 74.5782 49.8957 45.3506 -6.8851 -4.1723 24.5786
# 2 49.8957 144.6540 57.0965 -16.7372 -7.6645 21.9331
# 3 45.3506 57.0965 158.6587 -15.5301 -19.2835 19.3058
# 4 -6.8851 -16.7372 -15.5301 49.1024 -1.7483 -1.6453
# 5 -4.1723 -7.6645 -19.2835 -1.7483 31.8250 -10.2651
# 6 24.5786 21.9331 19.3058 -1.6453 -10.2651 38.6345
#
#
#
# Elastic Compliance Matrix: (Units=1/GPa)
#
#
# Indices 1 2 3 4 5 6 
#
# 1 0.022167 -0.004768 -0.003844 -0.000228 -0.003984 -0.010543
# 2 -0.004768 0.009710 -0.001714 0.002062 0.000320 -0.001450
# 3 -0.003844 -0.001714 0.008707 0.001806 0.004575 0.000360
# 4 -0.000228 0.002062 0.001806 0.021692 0.002656 -0.000298
# 5 -0.003984 0.000320 0.004575 0.002656 0.037135 0.010047
# 6 -0.010543 -0.001450 0.000360 -0.000298 0.010047 0.035891
#
#
# Mechanical properties :
#
#
# Convention : Reuss Voigt Hill
#
# Bulk Modulus (GPa) = 50.17114 75.84183 63.00648
# Shear Modulus (GPa) = 30.75087 38.94892 34.84989
#
# Velocity S-wave (km/s) = 3.79686 4.27310 4.04200
# Velocity P-wave (km/s) = 6.53773 7.73956 7.16390
#
# Compressibility (1/GPa) = 0.01993178
#
# Stress axis : x y z
#
# Youngs Moduli (GPa) = 45.11281 102.99186 114.84411
#
# Poissons Ratio (x) = 0.49102 0.44146
# Poissons Ratio (y) = 0.21508 0.19687
# Poissons Ratio (z) = 0.17342 0.17656
#
# Static dielectric constant tensor:
#      x y z
#    x 1.748630 0.004470 -0.022020 
#    y 0.004470 1.851840 0.060200 
#    z -0.022020 0.060200 1.745020 
# 
# From -- ./inp_files/185814.got.cif
#   From: 2010.05.17/outbox.cif.g08.bks.cpg/sg2_93_cif.got.tgz:185814.got - 2010.06.03 11:33:40.
