data_PCOD9058230
_publ_section_title
;
Structure prediction by ZEFSAII (Michael W. Deem and Ramdas Pophale) SiO2 
 PCOD9058230
Probable space group: P -1
;
_chemical_formula_sum "Si O2"
_cell_formula_units_Z 15
_cell_length_a 17.256238
_cell_length_b 20.461126
_cell_length_c 9.563661
_cell_angle_alpha 41.814251
_cell_angle_beta 147.708407
_cell_angle_gamma 159.389461
_cell_volume 615.792786
_symmetry_space_group_name_H-M "P -1"
_symmetry_group_IT_number 2
_symmetry_cell_setting 'triclinic'
loop_
_space_group_symop_operation_xyz
x,y,z
-x,-y,-z
loop_
_atom_site_type_symbol
_atom_site_label
_atom_site_fract_x
_atom_site_fract_y
_atom_site_fract_z
Si Si1 0.585427 0.981544 0.790078
Si Si2 0.164107 0.678049 0.054177
Si Si3 0.702234 0.752571 0.213927
Si Si4 0.762922 0.725942 0.045755
Si Si5 0.295360 0.934681 0.654341
Si Si6 0.827308 0.440626 0.199448
Si Si7 0.500000 0.500000 0.500000
Si Si8 0.880449 0.838859 0.733419
O O1 0.519071 0.004252 0.790439
O O2 0.381820 0.768914 0.827015
O O3 0.500000 0.000000 0.500000
O O4 0.900732 0.124412 0.019444
O O5 0.020938 0.587222 0.133391
O O6 0.507585 0.866623 0.293745
O O7 0.158955 0.777362 0.802904
O O8 0.000000 0.500000 0.000000
O O9 0.729876 0.775103 0.053114
O O10 0.716438 0.652696 0.456245
O O11 0.929710 0.953937 0.312912
O O12 0.375687 0.589557 0.011850
O O13 0.054941 0.838559 0.342301
O O14 0.500000 0.500000 0.000000
O O15 0.776854 0.779058 0.829920
O O16 0.000000 0.500000 0.500000
O O17 0.628639 0.669261 0.515128
#
# Coordination Sequence:
#
# PCOD9058230 Si02
#       8
#     2   2   2   2   2   2   1   2
#     4  11  22  44  75 105 145 180 246 305 358 423
#     4  11  25  48  72 110 148 188 239 305 377 430
#     4  11  28  48  71 108 148 194 245 297 370 438
#     4  12  26  49  74 105 149 200 250 300 364 445
#     4  11  26  45  73 108 146 193 240 308 365 435
#     4  11  26  44  77 109 140 190 242 302 360 435
#     4  12  26  48  74 104 152 194 240 298 368 456
#     4  11  26  49  75 108 144 198 247 308 364 434
#
# _framework density 24.358844999999999
#
# number of rings (size 3 to 8) (size 9 to 14) (size 15 to 20)
#    0.000    0.800    4.000    1.600    9.333    1.067 
#    4.800    0.000    0.000    0.000    0.000    0.000 
#    0.000    0.000    0.000    0.000    0.000    0.000 
#
# Total GULP energy -83714.572994 kJ/mol
# GULP energy per Si atom -5580.971533 kJ/mol
# Density = 2.430340 g / cm^3
# Si number density = 24.358845 Si / 1000 Ang^3
#
#
#
# Elastic Constant Matrix: (Units=GPa)
#
#
# Indices 1 2 3 4 5 6 
#
# 1 127.9470 51.7819 44.3104 -1.2131 -25.0302 15.4694
# 2 51.7819 203.6309 23.0222 4.8025 -21.6549 2.1685
# 3 44.3104 23.0222 52.8041 5.3845 -24.5057 3.2715
# 4 -1.2131 4.8025 5.3845 38.8728 4.8076 -26.9279
# 5 -25.0302 -21.6549 -24.5057 4.8076 42.8533 -1.6998
# 6 15.4694 2.1685 3.2715 -26.9279 -1.6998 38.5630
#
#
#
# Elastic Compliance Matrix: (Units=1/GPa)
#
#
# Indices 1 2 3 4 5 6 
#
# 1 0.012456 -0.001942 -0.008231 -0.002490 0.001635 -0.005856
# 2 -0.001942 0.005621 0.000254 -0.001296 0.001982 -0.000376
# 3 -0.008231 0.000254 0.035169 -0.012570 0.016536 -0.007744
# 4 -0.002490 -0.001296 -0.012570 0.058790 -0.014204 0.042564
# 5 0.001635 0.001982 0.016536 -0.014204 0.035924 -0.010505
# 6 -0.005856 -0.000376 -0.007744 0.042564 -0.010505 0.058217
#
#
# Mechanical properties :
#
#
# Convention : Reuss Voigt Hill
#
# Bulk Modulus (GPa) = 29.93133 69.17901 49.55517
# Shear Modulus (GPa) = 21.08350 41.74233 31.41292
#
# Velocity S-wave (km/s) = 2.94519 4.14411 3.59498
# Velocity P-wave (km/s) = 4.88671 7.16657 6.13350
#
# Compressibility (1/GPa) = 0.03340981
#
# Stress axis : x y z
#
# Youngs Moduli (GPa) = 80.28049 177.89398 28.43388
#
# Poissons Ratio (x) = 0.34549 0.23403
# Poissons Ratio (y) = 0.15591 -0.00723
# Poissons Ratio (z) = 0.66076 -0.04522
#
# Static dielectric constant tensor:
#      x y z
#    x 2.036440 -0.031820 0.084360 
#    y -0.031820 1.963820 -0.056270 
#    z 0.084360 -0.056270 2.089790 
# 
# From -- ./inp_files/337634.got.cif
#   From: 2010.05.17/outbox.cif.g08.bks.cpg/sg2_169_cif.got.tgz:337634.got - 2010.06.03 11:33:40.
