data_PCOD9058518
_publ_section_title
;
Structure prediction by ZEFSAII (Michael W. Deem and Ramdas Pophale) SiO2 
 PCOD9058518
Probable space group: P -1
;
_chemical_formula_sum "Si O2"
_cell_formula_units_Z 16
_cell_length_a 15.341590
_cell_length_b 11.747399
_cell_length_c 8.437514
_cell_angle_alpha 83.490826
_cell_angle_beta 74.419838
_cell_angle_gamma 31.119887
_cell_volume 735.989634
_symmetry_space_group_name_H-M "P -1"
_symmetry_group_IT_number 2
_symmetry_cell_setting 'triclinic'
loop_
_space_group_symop_operation_xyz
x,y,z
-x,-y,-z
loop_
_atom_site_type_symbol
_atom_site_label
_atom_site_fract_x
_atom_site_fract_y
_atom_site_fract_z
Si Si1 0.821417 0.127467 0.602927
Si Si2 0.538232 0.462997 0.174373
Si Si3 0.510733 0.762141 0.168761
Si Si4 0.854196 0.885915 0.846613
Si Si5 0.897514 0.426564 0.922641
Si Si6 0.008454 0.514518 0.677153
Si Si7 0.387362 0.008017 0.526295
Si Si8 0.221234 0.958913 0.687668
O O1 0.639890 0.395565 0.680487
O O2 0.777764 0.096738 0.477740
O O3 0.850999 0.018185 0.762954
O O4 0.000000 0.000000 0.500000
O O5 0.545535 0.587873 0.207704
O O6 0.711890 0.205407 0.189015
O O7 0.500000 0.500000 0.000000
O O8 0.434722 0.915894 0.334756
O O9 0.349926 0.935620 0.090517
O O10 0.699847 0.602783 0.038895
O O11 0.962125 0.695738 0.693873
O O12 0.967146 0.734204 0.970107
O O13 0.886190 0.567221 0.836970
O O14 0.016026 0.224768 0.770980
O O15 0.000000 0.500000 0.500000
O O16 0.206212 0.257848 0.652689
O O17 0.364715 0.906364 0.631020
O O18 0.500000 0.000000 0.500000
#
# Coordination Sequence:
#
# PCOD9058518 Si02
#       8
#     2   2   2   2   2   2   2   2
#     4  11  25  42  72 103 136 184 236 284 354 414
#     4  11  25  45  69 101 143 181 230 292 353 418
#     4  11  24  45  68 104 141 181 234 289 349 414
#     4  11  22  46  67  98 148 173 234 293 340 417
#     4  11  26  41  71 101 133 188 228 279 361 410
#     4  11  22  46  68  94 137 178 229 289 339 411
#     4  11  23  43  69 101 135 185 237 284 348 415
#     4  11  23  47  67 100 142 181 231 293 343 417
#
# _framework density 21.739433999999999
#
# number of rings (size 3 to 8) (size 9 to 14) (size 15 to 20)
#    0.000    1.000    3.750    3.750    3.500    3.000 
#    6.750    0.000    0.000    0.000    0.000    0.000 
#    0.000    0.000    0.000    0.000    0.000    0.000 
#
# Total GULP energy -89093.252747 kJ/mol
# GULP energy per Si atom -5568.328297 kJ/mol
# Density = 2.168995 g / cm^3
# Si number density = 21.739434 Si / 1000 Ang^3
#
#
#
# Elastic Constant Matrix: (Units=GPa)
#
#
# Indices 1 2 3 4 5 6 
#
# 1 104.9344 25.2763 30.6980 5.2050 -21.1193 -10.3160
# 2 25.2763 75.6955 14.4092 6.6290 -21.4548 2.2086
# 3 30.6980 14.4092 82.1605 16.0596 -15.5540 -19.8771
# 4 5.2050 6.6290 16.0596 45.4034 -3.4894 2.2899
# 5 -21.1193 -21.4548 -15.5540 -3.4894 37.2396 8.6059
# 6 -10.3160 2.2086 -19.8771 2.2899 8.6059 25.5786
#
#
#
# Elastic Compliance Matrix: (Units=1/GPa)
#
#
# Indices 1 2 3 4 5 6 
#
# 1 0.011873 -0.002367 -0.003032 0.000284 0.003823 0.001325
# 2 -0.002367 0.017291 -0.002003 -0.000464 0.009385 -0.007120
# 3 -0.003032 -0.002003 0.018375 -0.006453 0.001090 0.013440
# 4 0.000284 -0.000464 -0.006453 0.024818 0.001258 -0.007505
# 5 0.003823 0.009385 0.001090 0.001258 0.037585 -0.011179
# 6 0.001325 -0.007120 0.013440 -0.007505 -0.011179 0.055122
#
#
# Mechanical properties :
#
#
# Convention : Reuss Voigt Hill
#
# Bulk Modulus (GPa) = 30.54980 44.83972 37.69476
# Shear Modulus (GPa) = 26.20831 34.47146 30.33989
#
# Velocity S-wave (km/s) = 3.47589 3.98636 3.73985
# Velocity P-wave (km/s) = 5.49475 6.46984 6.00213
#
# Compressibility (1/GPa) = 0.03273344
#
# Stress axis : x y z
#
# Youngs Moduli (GPa) = 84.22738 57.83385 54.42191
#
# Poissons Ratio (x) = 0.13690 0.16501
# Poissons Ratio (y) = 0.19938 0.10902
# Poissons Ratio (z) = 0.25539 0.11586
#
# Static dielectric constant tensor:
#      x y z
#    x 1.826140 0.061690 0.163790 
#    y 0.061690 1.790530 -0.056160 
#    z 0.163790 -0.056160 1.557360 
# 
# From -- ./inp_files/307295.got.cif
#   From: 2010.05.17/outbox.cif.g08.bks.cpg/sg2_154_cif.got.tgz:307295.got - 2010.06.03 11:33:40.
