data_PCOD9058919
_publ_section_title
;
Structure prediction by ZEFSAII (Michael W. Deem and Ramdas Pophale) SiO2 
 PCOD9058919
Probable space group: P -1
;
_chemical_formula_sum "Si O2"
_cell_formula_units_Z 16
_cell_length_a 21.015096
_cell_length_b 8.917835
_cell_length_c 20.852659
_cell_angle_alpha 50.012136
_cell_angle_beta 19.808714
_cell_angle_gamma 40.711969
_cell_volume 818.665915
_symmetry_space_group_name_H-M "P -1"
_symmetry_group_IT_number 2
_symmetry_cell_setting 'triclinic'
loop_
_space_group_symop_operation_xyz
x,y,z
-x,-y,-z
loop_
_atom_site_type_symbol
_atom_site_label
_atom_site_fract_x
_atom_site_fract_y
_atom_site_fract_z
Si Si1 0.491665 0.306695 0.752296
Si Si2 0.777591 0.866713 0.504702
Si Si3 0.946175 0.646243 0.789618
Si Si4 0.173517 0.863119 0.179657
Si Si5 0.841775 0.243079 0.543954
Si Si6 0.723288 0.147030 0.230014
Si Si7 0.635435 0.888389 0.487065
Si Si8 0.691278 0.514353 0.734629
O O1 0.696497 0.234343 0.627455
O O2 0.393039 0.569521 0.745347
O O3 0.594032 0.105159 0.655116
O O4 0.285690 0.327884 0.980903
O O5 0.687902 0.877934 0.515280
O O6 0.821038 0.638251 0.564832
O O7 0.013936 0.845943 0.285693
O O8 0.986930 0.699613 0.664216
O O9 0.168730 0.368896 0.662579
O O10 0.930344 0.857872 0.786359
O O11 0.184820 0.719308 0.272324
O O12 0.439315 0.717004 0.946203
O O13 0.666063 0.439829 0.708267
O O14 0.000000 0.000000 0.500000
O O15 0.606165 0.073995 0.308485
O O16 0.656282 0.082638 0.377948
O O17 0.000000 0.000000 0.000000
#
# Coordination Sequence:
#
# PCOD9058919 Si02
#       8
#     2   2   2   2   2   2   2   2
#     4  12  25  42  68  94 133 174 212 268 328 378
#     4  12  23  42  64  94 130 168 212 268 326 374
#     4  12  22  43  63  96 127 175 214 260 319 384
#     4  11  24  40  61  91 134 172 213 270 315 379
#     4  12  24  43  65  95 134 175 218 266 312 385
#     4  11  23  46  70  96 124 166 215 269 327 384
#     4  11  25  41  72  96 123 165 219 266 322 395
#     4  11  23  39  60  94 129 172 224 260 316 379
#
# _framework density 19.543993
#
# number of rings (size 3 to 8) (size 9 to 14) (size 15 to 20)
#    0.000    0.500    7.500    0.375    1.750    2.000 
#    0.000    0.625    0.000    0.000    0.000    0.000 
#    0.000    0.000    0.000    0.000    0.000    0.000 
#
# Total GULP energy -89335.884896 kJ/mol
# GULP energy per Si atom -5583.492806 kJ/mol
# Density = 1.949951 g / cm^3
# Si number density = 19.543993 Si / 1000 Ang^3
#
#
#
# Elastic Constant Matrix: (Units=GPa)
#
#
# Indices 1 2 3 4 5 6 
#
# 1 103.2813 45.9011 31.0418 1.9469 -1.1453 5.8027
# 2 45.9011 125.3910 35.5571 -13.5704 -4.6195 -7.2140
# 3 31.0418 35.5571 79.9312 -8.2997 -19.4198 3.5633
# 4 1.9469 -13.5704 -8.2997 37.4792 -2.3984 6.7811
# 5 -1.1453 -4.6195 -19.4198 -2.3984 24.6254 2.0652
# 6 5.8027 -7.2140 3.5633 6.7811 2.0652 29.8644
#
#
#
# Elastic Compliance Matrix: (Units=1/GPa)
#
#
# Indices 1 2 3 4 5 6 
#
# 1 0.012924 -0.004083 -0.004315 -0.002969 -0.003685 -0.002053
# 2 -0.004083 0.010859 -0.003279 0.002787 -0.000738 0.003226
# 3 -0.004315 -0.003279 0.020345 0.005432 0.016154 -0.004732
# 4 -0.002969 0.002787 0.005432 0.030837 0.008257 -0.006971
# 5 -0.003685 -0.000738 0.016154 0.008257 0.054432 -0.007029
# 6 -0.002053 0.003226 -0.004732 -0.006971 -0.007029 0.037296
#
#
# Mechanical properties :
#
#
# Convention : Reuss Voigt Hill
#
# Bulk Modulus (GPa) = 48.13393 59.28928 53.71161
# Shear Modulus (GPa) = 25.38431 31.46736 28.42584
#
# Velocity S-wave (km/s) = 3.60784 4.01693 3.81787
# Velocity P-wave (km/s) = 6.48362 7.20531 6.85397
#
# Compressibility (1/GPa) = 0.02077537
#
# Stress axis : x y z
#
# Youngs Moduli (GPa) = 77.37451 92.08607 49.15252
#
# Poissons Ratio (x) = 0.37596 0.21209
# Poissons Ratio (y) = 0.31590 0.16116
# Poissons Ratio (z) = 0.33387 0.30193
#
# Static dielectric constant tensor:
#      x y z
#    x 1.668450 0.012240 0.007760 
#    y 0.012240 1.720060 0.005940 
#    z 0.007760 0.005940 1.683660 
# 
# From -- ./inp_files/218493.got.cif
#   From: 2010.05.17/outbox.cif.g08.bks.cpg/sg2_110_cif.got.tgz:218493.got - 2010.06.03 11:33:40.
