data_PCOD9058045
_publ_section_title
;
Structure prediction by ZEFSAII (Michael W. Deem and Ramdas Pophale) SiO2 
 PCOD9058045
Probable space group: P -1
;
_chemical_formula_sum "Si O2"
_cell_formula_units_Z 16
_cell_length_a 15.914110
_cell_length_b 6.520944
_cell_length_c 9.834085
_cell_angle_alpha 135.974427
_cell_angle_beta 83.224699
_cell_angle_gamma 86.982310
_cell_volume 690.181104
_symmetry_space_group_name_H-M "P -1"
_symmetry_group_IT_number 2
_symmetry_cell_setting 'triclinic'
loop_
_space_group_symop_operation_xyz
x,y,z
-x,-y,-z
loop_
_atom_site_type_symbol
_atom_site_label
_atom_site_fract_x
_atom_site_fract_y
_atom_site_fract_z
Si Si1 0.461313 0.275560 0.795964
Si Si2 0.313978 0.890414 0.643320
Si Si3 0.429653 0.293507 0.407152
Si Si4 0.064148 0.144135 0.463262
Si Si5 0.780774 0.793923 0.970381
Si Si6 0.960431 0.813134 0.809889
Si Si7 0.632693 0.117810 0.956424
Si Si8 0.741843 0.135835 0.666374
O O1 0.383425 0.103267 0.767219
O O2 0.538561 0.982799 0.623962
O O3 0.500000 0.500000 0.000000
O O4 0.415344 0.544638 0.834129
O O5 0.343272 0.551256 0.535136
O O6 0.303497 0.882236 0.479193
O O7 0.225101 0.045314 0.805895
O O8 0.500000 0.500000 0.500000
O O9 0.430470 0.109479 0.176996
O O10 0.056862 0.027060 0.255760
O O11 0.026442 0.497998 0.633580
O O12 0.164407 0.081600 0.454944
O O13 0.000000 0.000000 0.500000
O O14 0.869195 0.767057 0.861862
O O15 0.761774 0.465704 0.832094
O O16 0.702993 0.988772 0.991916
O O17 0.000000 0.000000 0.000000
O O18 0.684598 0.105082 0.795793
#
# Coordination Sequence:
#
# PCOD9058045 Si02
#       8
#     2   2   2   2   2   2   2   2
#     4   9  20  42  67 100 139 178 232 289 347 408
#     4  11  24  42  70 102 134 186 233 280 349 409
#     4   9  20  42  67 101 138 175 233 287 342 410
#     4  11  25  46  72 101 144 183 220 282 344 406
#     4  12  25  45  68 101 143 176 229 292 338 405
#     4  11  27  45  71 107 139 180 229 278 344 411
#     4  11  22  44  69  96 139 183 225 284 348 405
#     4  12  25  45  70 102 139 182 233 280 344 411
#
# _framework density 23.182317999999999
#
# number of rings (size 3 to 8) (size 9 to 14) (size 15 to 20)
#    0.000    1.250    5.000    0.000    1.750    4.500 
#    0.000   25.000    0.000    0.000    0.000    0.000 
#    0.000    0.000    0.000    0.000    0.000    0.000 
#
# Total GULP energy -89341.716816 kJ/mol
# GULP energy per Si atom -5583.857301 kJ/mol
# Density = 2.312955 g / cm^3
# Si number density = 23.182318 Si / 1000 Ang^3
#
#
#
# Elastic Constant Matrix: (Units=GPa)
#
#
# Indices 1 2 3 4 5 6 
#
# 1 81.1407 39.7906 32.0785 5.0178 -11.0338 -6.5821
# 2 39.7906 96.9401 45.4440 9.8163 -8.7381 -8.4495
# 3 32.0785 45.4440 117.4502 9.5932 -7.5910 4.8356
# 4 5.0178 9.8163 9.5932 55.6262 1.2912 -11.9278
# 5 -11.0338 -8.7381 -7.5910 1.2912 37.7938 1.2913
# 6 -6.5821 -8.4495 4.8356 -11.9278 1.2913 39.1632
#
#
#
# Elastic Compliance Matrix: (Units=1/GPa)
#
#
# Indices 1 2 3 4 5 6 
#
# 1 0.016353 -0.005191 -0.002354 0.000178 0.003031 0.001874
# 2 -0.005191 0.014867 -0.004303 -0.000887 0.001000 0.002563
# 3 -0.002354 -0.004303 0.011137 -0.001658 0.000722 -0.003228
# 4 0.000178 -0.000887 -0.001658 0.019744 -0.001369 0.006102
# 5 0.003031 0.001000 0.000722 -0.001369 0.027791 -0.000697
# 6 0.001874 0.002563 -0.003228 0.006102 -0.000697 0.028682
#
#
# Mechanical properties :
#
#
# Convention : Reuss Voigt Hill
#
# Bulk Modulus (GPa) = 53.58427 58.90637 56.24532
# Shear Modulus (GPa) = 33.67226 38.39782 36.03504
#
# Velocity S-wave (km/s) = 3.81530 4.07423 3.94689
# Velocity P-wave (km/s) = 6.52481 6.89911 6.71457
#
# Compressibility (1/GPa) = 0.01866219
#
# Stress axis : x y z
#
# Youngs Moduli (GPa) = 61.14906 67.26400 89.79012
#
# Poissons Ratio (x) = 0.34914 0.21136
# Poissons Ratio (y) = 0.31740 0.38637
# Poissons Ratio (z) = 0.14394 0.28944
#
# Static dielectric constant tensor:
#      x y z
#    x 1.875910 -0.027090 0.012110 
#    y -0.027090 1.974310 -0.112870 
#    z 0.012110 -0.112870 1.994770 
# 
# From -- ./inp_files/324241.got.cif
#   From: 2010.05.17/outbox.cif.g08.bks.cpg/sg2_163_cif.got.tgz:324241.got - 2010.06.03 11:33:40.
