data_PCOD9058115
_publ_section_title
;
Structure prediction by ZEFSAII (Michael W. Deem and Ramdas Pophale) SiO2 
 PCOD9058115
Probable space group: P -1
;
_chemical_formula_sum "Si O2"
_cell_formula_units_Z 14
_cell_length_a 22.489669
_cell_length_b 17.812330
_cell_length_c 5.522953
_cell_angle_alpha 72.194989
_cell_angle_beta 65.610538
_cell_angle_gamma 18.138118
_cell_volume 597.287900
_symmetry_space_group_name_H-M "P -1"
_symmetry_group_IT_number 2
_symmetry_cell_setting 'triclinic'
loop_
_space_group_symop_operation_xyz
x,y,z
-x,-y,-z
loop_
_atom_site_type_symbol
_atom_site_label
_atom_site_fract_x
_atom_site_fract_y
_atom_site_fract_z
Si Si1 0.344388 0.472688 0.930542
Si Si2 0.074739 0.704120 0.533321
Si Si3 0.398068 0.262951 0.766381
Si Si4 0.420284 0.552508 0.832676
Si Si5 0.809076 0.722266 0.412766
Si Si6 0.000795 0.928113 0.755232
Si Si7 0.038648 0.585963 0.878248
O O1 0.451383 0.269398 0.863102
O O2 0.460414 0.411817 0.921705
O O3 0.238430 0.640660 0.720378
O O4 0.137197 0.678281 0.214943
O O5 0.306055 0.416387 0.538332
O O6 0.951829 0.903301 0.720256
O O7 0.968869 0.740236 0.680794
O O8 0.189244 0.449083 0.972606
O O9 0.592523 0.985347 0.652645
O O10 0.500000 0.500000 0.500000
O O11 0.500000 0.500000 0.000000
O O12 0.170328 0.855168 0.970365
O O13 0.821947 0.631361 0.309367
O O14 0.000000 0.500000 0.500000
O O15 0.856331 0.743443 0.142326
O O16 0.000000 0.000000 0.500000
#
# Coordination Sequence:
#
# PCOD9058115 Si02
#       7
#     2   2   2   2   2   2   2
#     4  11  23  44  70  94 130 190 237 279 356 427
#     4   9  22  41  68  90 131 180 236 277 346 414
#     4   9  23  43  65  95 134 177 225 285 349 421
#     4  12  28  43  66 106 144 180 235 305 365 416
#     4  11  23  41  68  99 136 170 228 285 354 430
#     4  11  22  44  71  94 135 185 242 284 343 433
#     4   9  23  42  62  97 132 176 227 280 355 421
#
# _framework density 23.439281999999999
#
# number of rings (size 3 to 8) (size 9 to 14) (size 15 to 20)
#    0.857    0.857    1.429    1.714    6.000    4.000 
#    2.571    0.000    0.000    0.000    0.000    0.000 
#    0.000    0.000    0.000    0.000    0.000    0.000 
#
# Total GULP energy -78075.764864 kJ/mol
# GULP energy per Si atom -5576.840347 kJ/mol
# Density = 2.338593 g / cm^3
# Si number density = 23.439282 Si / 1000 Ang^3
#
#
#
# Elastic Constant Matrix: (Units=GPa)
#
#
# Indices 1 2 3 4 5 6 
#
# 1 152.3913 3.5101 18.3979 -8.5928 -10.0399 26.7362
# 2 3.5101 41.8846 -3.3759 0.5575 -5.0770 -0.4059
# 3 18.3979 -3.3759 80.5347 -3.8578 -7.6040 14.8544
# 4 -8.5928 0.5575 -3.8578 30.1303 6.0681 -0.0405
# 5 -10.0399 -5.0770 -7.6040 6.0681 26.4970 -8.2744
# 6 26.7362 -0.4059 14.8544 -0.0405 -8.2744 34.6130
#
#
#
# Elastic Compliance Matrix: (Units=1/GPa)
#
#
# Indices 1 2 3 4 5 6 
#
# 1 0.007791 -0.000739 -0.000631 0.002069 0.000388 -0.005660
# 2 -0.000739 0.024783 0.001368 -0.001651 0.005754 0.001648
# 3 -0.000631 0.001368 0.013780 0.001110 0.002198 -0.004884
# 4 0.002069 -0.001651 0.001110 0.035694 -0.008677 -0.004126
# 5 0.000388 0.005754 0.002198 -0.008677 0.044564 0.009468
# 6 -0.005660 0.001648 -0.004884 -0.004126 0.009468 0.037637
#
#
# Mechanical properties :
#
#
# Convention : Reuss Voigt Hill
#
# Bulk Modulus (GPa) = 21.57544 34.65273 28.11409
# Shear Modulus (GPa) = 27.82391 35.33330 31.57861
#
# Velocity S-wave (km/s) = 3.44912 3.88679 3.67447
# Velocity P-wave (km/s) = 5.00866 5.91261 5.47931
#
# Compressibility (1/GPa) = 0.04634900
#
# Stress axis : x y z
#
# Youngs Moduli (GPa) = 128.36062 40.35069 72.56906
#
# Poissons Ratio (x) = 0.02982 0.04579
# Poissons Ratio (y) = 0.09487 -0.09927
# Poissons Ratio (z) = 0.08099 -0.05520
#
# Static dielectric constant tensor:
#      x y z
#    x 2.024070 -0.075440 0.005450 
#    y -0.075440 1.948240 -0.054650 
#    z 0.005450 -0.054650 1.919980 
# 
# From -- ./inp_files/124540.got.cif
#   From: 2010.05.17/outbox.cif.g08.bks.cpg/sg2_63_cif.got.tgz:124540.got - 2010.06.03 11:33:40.
