data_PCOD9058135
_publ_section_title
;
Structure prediction by ZEFSAII (Michael W. Deem and Ramdas Pophale) SiO2 
 PCOD9058135
Probable space group: P -1
;
_chemical_formula_sum "Si O2"
_cell_formula_units_Z 14
_cell_length_a 11.613148
_cell_length_b 10.733859
_cell_length_c 16.513938
_cell_angle_alpha 147.889135
_cell_angle_beta 33.303592
_cell_angle_gamma 137.179705
_cell_volume 598.503441
_symmetry_space_group_name_H-M "P -1"
_symmetry_group_IT_number 2
_symmetry_cell_setting 'triclinic'
loop_
_space_group_symop_operation_xyz
x,y,z
-x,-y,-z
loop_
_atom_site_type_symbol
_atom_site_label
_atom_site_fract_x
_atom_site_fract_y
_atom_site_fract_z
Si Si1 0.330353 0.582072 0.705153
Si Si2 0.726628 0.958967 0.307861
Si Si3 0.324342 0.602580 0.218312
Si Si4 0.123417 0.093999 0.632951
Si Si5 0.648741 0.896610 0.790408
Si Si6 0.229871 0.540262 0.421554
Si Si7 0.939153 0.739799 0.924237
O O1 0.500000 0.500000 0.500000
O O2 0.239602 0.350482 0.683272
O O3 0.469960 0.810722 0.783602
O O4 0.129866 0.657541 0.818028
O O5 0.772742 0.222909 0.395309
O O6 0.500000 0.000000 0.500000
O O7 0.872009 0.917521 0.277619
O O8 0.757435 0.779034 0.119569
O O9 0.355825 0.550791 0.267284
O O10 0.127362 0.444832 0.208144
O O11 0.258722 0.875583 0.404102
O O12 0.500000 0.500000 0.000000
O O13 0.876571 0.045943 0.722286
O O14 0.713570 0.659964 0.663096
O O15 0.500000 0.000000 0.000000
O O16 0.000000 0.500000 0.500000
O O17 0.000000 0.000000 0.000000
#
# Coordination Sequence:
#
# PCOD9058135 Si02
#       7
#     2   2   2   2   2   2   2
#     4  12  31  49  75 111 157 200 244 316 385 444
#     4  11  23  42  76 106 145 193 249 310 364 446
#     4  11  25  43  77 109 145 197 249 310 372 445
#     4  11  26  51  73 110 154 199 254 307 374 452
#     4  12  27  47  78 110 148 202 252 305 376 449
#     4  11  22  44  72 100 145 194 246 297 369 434
#     4  12  28  45  74 111 150 189 251 311 374 445
#
# _framework density 23.391677999999999
#
# number of rings (size 3 to 8) (size 9 to 14) (size 15 to 20)
#    0.000    0.571    2.857    5.143    8.000    6.857 
#    0.000    0.000    0.000    0.000    0.000    0.000 
#    0.000    0.000    0.000    0.000    0.000    0.000 
#
# Total GULP energy -78047.329248 kJ/mol
# GULP energy per Si atom -5574.809232 kJ/mol
# Density = 2.333844 g / cm^3
# Si number density = 23.391678 Si / 1000 Ang^3
#
#
#
# Elastic Constant Matrix: (Units=GPa)
#
#
# Indices 1 2 3 4 5 6 
#
# 1 31.5659 -3.6212 -15.7492 3.5866 17.1787 9.9010
# 2 -3.6212 74.9207 2.9398 -24.1643 -4.3517 7.7092
# 3 -15.7492 2.9398 87.9464 -19.4811 23.0222 -0.8754
# 4 3.5866 -24.1643 -19.4811 45.8319 5.5921 -1.6633
# 5 17.1787 -4.3517 23.0222 5.5921 50.3878 11.5174
# 6 9.9010 7.7092 -0.8754 -1.6633 11.5174 37.6729
#
#
#
# Elastic Compliance Matrix: (Units=1/GPa)
#
#
# Indices 1 2 3 4 5 6 
#
# 1 0.058084 0.004025 0.019475 0.009004 -0.027813 -0.006736
# 2 0.004025 0.016870 0.002640 0.009739 -0.001380 -0.003597
# 3 0.019475 0.002640 0.022005 0.011439 -0.017927 0.000838
# 4 0.009004 0.009739 0.011439 0.032511 -0.011241 0.000779
# 5 -0.027813 -0.001380 -0.017927 -0.011241 0.039909 -0.005522
# 6 -0.006736 -0.003597 0.000838 0.000779 -0.005522 0.030793
#
#
# Mechanical properties :
#
#
# Convention : Reuss Voigt Hill
#
# Bulk Modulus (GPa) = 6.70073 17.95243 12.32658
# Shear Modulus (GPa) = 25.29874 40.83608 33.06741
#
# Velocity S-wave (km/s) = 3.29223 4.18275 3.76392
# Velocity P-wave (km/s) = 4.16203 5.56943 4.91635
#
# Compressibility (1/GPa) = 0.14923746
#
# Stress axis : x y z
#
# Youngs Moduli (GPa) = 17.21642 59.27852 45.44469
#
# Poissons Ratio (x) = -0.23859 -0.88504
# Poissons Ratio (y) = -0.06929 -0.11996
# Poissons Ratio (z) = -0.33529 -0.15647
#
# Static dielectric constant tensor:
#      x y z
#    x 1.881830 0.049000 -0.038590 
#    y 0.049000 2.105430 -0.058740 
#    z -0.038590 -0.058740 1.641810 
# 
# From -- ./inp_files/569229.got.cif
#   From: 2010.05.17/outbox.cif.g08.bks.cpg/sg2_285_cif.got.tgz:569229.got - 2010.06.03 11:33:40.
