data_PCOD9058969
_publ_section_title
;
Structure prediction by ZEFSAII (Michael W. Deem and Ramdas Pophale) SiO2 
 PCOD9058969
Probable space group: P -1
;
_chemical_formula_sum "Si O2"
_cell_formula_units_Z 10
_cell_length_a 7.527594
_cell_length_b 9.634565
_cell_length_c 10.814856
_cell_angle_alpha 37.226851
_cell_angle_beta 74.186171
_cell_angle_gamma 90.683803
_cell_volume 419.759700
_symmetry_space_group_name_H-M "P -1"
_symmetry_group_IT_number 2
_symmetry_cell_setting 'triclinic'
loop_
_space_group_symop_operation_xyz
x,y,z
-x,-y,-z
loop_
_atom_site_type_symbol
_atom_site_label
_atom_site_fract_x
_atom_site_fract_y
_atom_site_fract_z
Si Si1 0.687821 0.458929 0.848880
Si Si2 0.621827 0.922724 0.636561
Si Si3 0.126724 0.520665 0.725313
Si Si4 0.217242 0.111321 0.948159
Si Si5 0.656609 0.319331 0.674146
O O1 0.705133 0.727918 0.701458
O O2 0.662824 0.445117 0.715912
O O3 0.893461 0.425734 0.858923
O O4 0.517721 0.236777 0.112322
O O5 0.500000 0.000000 0.500000
O O6 0.776555 0.192361 0.459102
O O7 0.209200 0.318083 0.902026
O O8 0.192643 0.516016 0.573660
O O9 0.422204 0.219289 0.749167
O O10 0.265059 0.898996 0.160310
O O11 0.000000 0.000000 0.000000
#
# Coordination Sequence:
#
# PCOD9058969 Si02
#       5
#     2   2   2   2   2
#     4  11  25  46  70 102 140 180 235 287 345 415
#     4  11  26  46  69  98 140 188 233 285 342 416
#     4  12  25  44  74 103 138 188 229 285 359 407
#     4  11  23  39  67 104 142 182 224 276 346 414
#     4  11  24  45  71 106 145 175 229 297 343 415
#
# _framework density 23.823153999999999
#
# number of rings (size 3 to 8) (size 9 to 14) (size 15 to 20)
#    0.000    0.800    2.000    5.400    0.000    5.600 
#    0.000    0.000    0.000    0.000    0.000    0.000 
#    0.000    0.000    0.000    0.000    0.000    0.000 
#
# Total GULP energy -55919.243842 kJ/mol
# GULP energy per Si atom -5591.924384 kJ/mol
# Density = 2.376893 g / cm^3
# Si number density = 23.823154 Si / 1000 Ang^3
#
#
#
# Elastic Constant Matrix: (Units=GPa)
#
#
# Indices 1 2 3 4 5 6 
#
# 1 146.8973 46.3807 31.8181 -19.2735 -1.5497 -37.7651
# 2 46.3807 139.3289 41.4981 -20.6165 1.6289 -19.3658
# 3 31.8181 41.4981 69.9411 -23.5885 -6.1404 -3.4185
# 4 -19.2735 -20.6165 -23.5885 44.6362 -1.4876 9.5859
# 5 -1.5497 1.6289 -6.1404 -1.4876 29.6106 -8.0854
# 6 -37.7651 -19.3658 -3.4185 9.5859 -8.0854 39.7460
#
#
#
# Elastic Compliance Matrix: (Units=1/GPa)
#
#
# Indices 1 2 3 4 5 6 
#
# 1 0.010373 -0.001157 -0.003254 0.000277 0.002529 0.009459
# 2 -0.001157 0.009493 -0.004793 0.000729 -0.000781 0.002779
# 3 -0.003254 -0.004793 0.021765 0.009078 0.003700 -0.004992
# 4 0.000277 0.000729 0.009078 0.028831 0.001894 -0.005168
# 5 0.002529 -0.000781 0.003700 0.001894 0.037401 0.009492
# 6 0.009459 0.002779 -0.004992 -0.005168 0.009492 0.038250
#
#
# Mechanical properties :
#
#
# Convention : Reuss Voigt Hill
#
# Bulk Modulus (GPa) = 43.06368 66.17346 54.61857
# Shear Modulus (GPa) = 29.02565 38.56327 33.79446
#
# Velocity S-wave (km/s) = 3.49432 4.02771 3.77046
# Velocity P-wave (km/s) = 5.86481 7.03329 6.47546
#
# Compressibility (1/GPa) = 0.02322142
#
# Stress axis : x y z
#
# Youngs Moduli (GPa) = 96.40674 105.33655 45.94633
#
# Poissons Ratio (x) = 0.12192 0.14952
# Poissons Ratio (y) = 0.11158 0.22022
# Poissons Ratio (z) = 0.31373 0.50487
#
# Static dielectric constant tensor:
#      x y z
#    x 1.911380 0.039320 0.026180 
#    y 0.039320 1.956330 -0.075870 
#    z 0.026180 -0.075870 2.014510 
# 
# From -- ./inp_files/375324.got.cif
#   From: 2010.05.17/outbox.cif.g08.bks.cpg/sg2_188_cif.got.tgz:375324.got - 2010.06.03 11:33:40.
