data_PCOD9058164
_publ_section_title
;
Structure prediction by ZEFSAII (Michael W. Deem and Ramdas Pophale) SiO2 
 PCOD9058164
Probable space group: P -1
;
_chemical_formula_sum "Si O2"
_cell_formula_units_Z 16
_cell_length_a 9.177256
_cell_length_b 15.087031
_cell_length_c 7.325801
_cell_angle_alpha 48.612599
_cell_angle_beta 85.887756
_cell_angle_gamma 101.966018
_cell_volume 713.701474
_symmetry_space_group_name_H-M "P -1"
_symmetry_group_IT_number 2
_symmetry_cell_setting 'triclinic'
loop_
_space_group_symop_operation_xyz
x,y,z
-x,-y,-z
loop_
_atom_site_type_symbol
_atom_site_label
_atom_site_fract_x
_atom_site_fract_y
_atom_site_fract_z
Si Si1 0.863828 0.908217 0.376043
Si Si2 0.099623 0.359950 0.169471
Si Si3 0.210945 0.085438 0.056033
Si Si4 0.408638 0.576967 0.792833
Si Si5 0.866360 0.526833 0.585602
Si Si6 0.618963 0.638277 0.354099
Si Si7 0.768172 0.302526 0.099544
Si Si8 0.324103 0.978078 0.503254
O O1 0.884011 0.776199 0.611866
O O2 0.804826 0.906720 0.173339
O O3 0.745750 0.936238 0.487520
O O4 0.030261 0.022276 0.219699
O O5 0.090038 0.413967 0.298644
O O6 0.943573 0.352571 0.090985
O O7 0.248227 0.462117 0.919014
O O8 0.320421 0.223598 0.928054
O O9 0.289088 0.993967 0.271488
O O10 0.530161 0.650701 0.530125
O O11 0.350311 0.676552 0.770370
O O12 0.500000 0.500000 0.000000
O O13 0.781344 0.613869 0.389493
O O14 0.000000 0.500000 0.500000
O O15 0.745209 0.387321 0.821022
O O16 0.500000 0.500000 0.500000
O O17 0.753059 0.164615 0.234694
O O18 0.500000 0.000000 0.500000
#
# Coordination Sequence:
#
# PCOD9058164 Si02
#       8
#     2   2   2   2   2   2   2   2
#     4  11  25  49  80 102 143 198 244 302 356 445
#     4  11  23  46  74 102 137 192 241 291 367 432
#     4  11  26  51  72 106 143 191 254 284 369 436
#     4  11  22  44  72  96 143 185 231 293 350 429
#     4  11  25  42  68 103 142 178 234 298 349 425
#     4  12  28  42  68 105 139 191 231 296 359 422
#     4  11  26  46  68 106 139 188 240 290 368 429
#     4  12  30  45  73 109 147 189 237 308 365 437
#
# _framework density 22.418337000000001
#
# number of rings (size 3 to 8) (size 9 to 14) (size 15 to 20)
#    0.000    0.750    5.000    1.875   12.250    0.500 
#    0.000    0.000    0.000    0.000    0.000    0.000 
#    0.000    0.000    0.000    0.000    0.000    0.000 
#
# Total GULP energy -89247.986092 kJ/mol
# GULP energy per Si atom -5577.999131 kJ/mol
# Density = 2.236731 g / cm^3
# Si number density = 22.418337 Si / 1000 Ang^3
#
#
#
# Elastic Constant Matrix: (Units=GPa)
#
#
# Indices 1 2 3 4 5 6 
#
# 1 111.8961 34.2050 -1.3133 8.5688 -11.2911 -22.3707
# 2 34.2050 66.1457 34.3566 -12.5557 -6.5459 -27.5565
# 3 -1.3133 34.3566 76.6361 -6.2544 -8.7743 -28.1770
# 4 8.5688 -12.5557 -6.2544 33.6508 0.9100 1.0251
# 5 -11.2911 -6.5459 -8.7743 0.9100 41.0638 -7.7083
# 6 -22.3707 -27.5565 -28.1770 1.0251 -7.7083 47.0184
#
#
#
# Elastic Compliance Matrix: (Units=1/GPa)
#
#
# Indices 1 2 3 4 5 6 
#
# 1 0.013878 -0.008425 0.006562 -0.005800 0.005239 0.006583
# 2 -0.008425 0.030051 -0.009615 0.011287 0.001646 0.007866
# 3 0.006562 -0.009615 0.022752 -0.001610 0.007494 0.012385
# 4 -0.005800 0.011287 -0.001610 0.035058 -0.000534 0.002039
# 5 0.005239 0.001646 0.007494 -0.000534 0.030088 0.012892
# 6 0.006583 0.007866 0.012385 0.002039 0.012892 0.038502
#
#
# Mechanical properties :
#
#
# Convention : Reuss Voigt Hill
#
# Bulk Modulus (GPa) = 22.87026 43.24162 33.05594
# Shear Modulus (GPa) = 24.05469 36.84192 30.44831
#
# Velocity S-wave (km/s) = 3.27921 4.05826 3.68936
# Velocity P-wave (km/s) = 4.95594 6.42571 5.73808
#
# Compressibility (1/GPa) = 0.04372490
#
# Stress axis : x y z
#
# Youngs Moduli (GPa) = 72.05586 33.27696 43.95260
#
# Poissons Ratio (x) = 0.28035 -0.28840
# Poissons Ratio (y) = 0.60705 0.42260
# Poissons Ratio (z) = -0.47280 0.31995
#
# Static dielectric constant tensor:
#      x y z
#    x 1.784030 0.047860 0.038410 
#    y 0.047860 1.943310 0.048760 
#    z 0.038410 0.048760 1.664400 
# 
# From -- ./inp_files/205176.got.cif
#   From: 2010.05.17/outbox.cif.g08.bks.cpg/sg2_103_cif.got.tgz:205176.got - 2010.06.03 11:33:40.
