data_PCOD9058908
_publ_section_title
;
Structure prediction by ZEFSAII (Michael W. Deem and Ramdas Pophale) SiO2 
 PCOD9058908
Probable space group: P -1
;
_chemical_formula_sum "Si O2"
_cell_formula_units_Z 14
_cell_length_a 11.811427
_cell_length_b 9.968100
_cell_length_c 9.317281
_cell_angle_alpha 119.462079
_cell_angle_beta 79.649852
_cell_angle_gamma 55.657682
_cell_volume 608.664026
_symmetry_space_group_name_H-M "P -1"
_symmetry_group_IT_number 2
_symmetry_cell_setting 'triclinic'
loop_
_space_group_symop_operation_xyz
x,y,z
-x,-y,-z
loop_
_atom_site_type_symbol
_atom_site_label
_atom_site_fract_x
_atom_site_fract_y
_atom_site_fract_z
Si Si1 0.300192 0.661606 0.099707
Si Si2 0.567533 0.721966 0.753414
Si Si3 0.855001 0.942150 0.441012
Si Si4 0.135283 0.822657 0.668453
Si Si5 0.786898 0.089676 0.012723
Si Si6 0.207783 0.422298 0.116822
Si Si7 0.406121 0.996166 0.642553
O O1 0.270146 0.524585 0.097784
O O2 0.203555 0.903726 0.326531
O O3 0.500000 0.500000 0.000000
O O4 0.270375 0.704195 0.959426
O O5 0.694550 0.442611 0.565558
O O6 0.373353 0.868684 0.934319
O O7 0.677721 0.716637 0.836597
O O8 0.536944 0.812728 0.645830
O O9 0.691747 0.039120 0.440158
O O10 0.997178 0.666347 0.306286
O O11 0.933435 0.993018 0.343121
O O12 0.188529 0.880395 0.815761
O O13 0.984397 0.859614 0.782625
O O14 0.257618 0.244851 0.894670
O O15 0.500000 0.000000 0.500000
#
# Coordination Sequence:
#
# PCOD9058908 Si02
#       7
#     2   2   2   2   2   2   2
#     4  12  22  38  73 104 136 176 230 289 348 410
#     4  12  25  46  72 101 144 183 238 287 353 414
#     4  12  24  47  72 105 140 182 236 295 347 415
#     4  11  23  41  72 111 136 180 231 301 345 417
#     4  11  23  38  69 110 142 172 230 293 359 402
#     4  12  25  46  70 102 146 184 226 290 352 420
#     4  12  30  48  69  97 143 195 236 282 355 423
#
# _framework density 23.001192
#
# number of rings (size 3 to 8) (size 9 to 14) (size 15 to 20)
#    0.000    0.286    5.714    3.429    4.000    0.000 
#    2.571    0.714    0.000    0.000    0.000    0.000 
#    0.000    0.000    0.000    0.000    0.000    0.000 
#
# Total GULP energy -78249.633830 kJ/mol
# GULP energy per Si atom -5589.259559 kJ/mol
# Density = 2.294884 g / cm^3
# Si number density = 23.001192 Si / 1000 Ang^3
#
#
#
# Elastic Constant Matrix: (Units=GPa)
#
#
# Indices 1 2 3 4 5 6 
#
# 1 76.2103 24.5169 28.7361 -9.1624 4.7347 -13.6671
# 2 24.5169 108.1928 9.2914 -17.0976 1.9329 -20.3429
# 3 28.7361 9.2914 60.4438 -1.2610 6.2177 -4.9381
# 4 -9.1624 -17.0976 -1.2610 35.4918 3.6854 4.8063
# 5 4.7347 1.9329 6.2177 3.6854 37.4526 -4.4487
# 6 -13.6671 -20.3429 -4.9381 4.8063 -4.4487 35.6841
#
#
#
# Elastic Compliance Matrix: (Units=1/GPa)
#
#
# Indices 1 2 3 4 5 6 
#
# 1 0.017821 -0.002158 -0.007682 0.002805 -0.000659 0.004072
# 2 -0.002158 0.011370 -0.000211 0.004240 -0.000097 0.005043
# 3 -0.007682 -0.000211 0.020417 -0.001063 -0.002349 -0.000387
# 4 0.002805 0.004240 -0.001063 0.031466 -0.003654 -0.001349
# 5 -0.000659 -0.000097 -0.002349 -0.003654 0.027935 0.003342
# 6 0.004072 0.005043 -0.000387 -0.001349 0.003342 0.033003
#
#
# Mechanical properties :
#
#
# Convention : Reuss Voigt Hill
#
# Bulk Modulus (GPa) = 33.89224 41.10397 37.49811
# Shear Modulus (GPa) = 29.07845 33.87920 31.47882
#
# Velocity S-wave (km/s) = 3.55944 3.84204 3.70344
# Velocity P-wave (km/s) = 5.62670 6.13114 5.88433
#
# Compressibility (1/GPa) = 0.02950527
#
# Stress axis : x y z
#
# Youngs Moduli (GPa) = 56.11467 87.95209 48.97975
#
# Poissons Ratio (x) = 0.18978 0.37624
# Poissons Ratio (y) = 0.12109 0.01036
# Poissons Ratio (z) = 0.43105 0.01860
#
# Static dielectric constant tensor:
#      x y z
#    x 1.880240 -0.013410 -0.071400 
#    y -0.013410 1.873610 0.021470 
#    z -0.071400 0.021470 1.883810 
# 
# From -- ./inp_files/180033.got.cif
#   From: 2010.05.17/outbox.cif.g08.bks.cpg/sg2_91_cif.got.tgz:180033.got - 2010.06.03 11:33:40.
