data_PCOD9058304
_publ_section_title
;
Structure prediction by ZEFSAII (Michael W. Deem and Ramdas Pophale) SiO2 
 PCOD9058304
Probable space group: P -1
;
_chemical_formula_sum "Si O2"
_cell_formula_units_Z 16
_cell_length_a 12.203070
_cell_length_b 17.640221
_cell_length_c 9.679127
_cell_angle_alpha 117.601447
_cell_angle_beta 129.120341
_cell_angle_gamma 31.194847
_cell_volume 821.984858
_symmetry_space_group_name_H-M "P -1"
_symmetry_group_IT_number 2
_symmetry_cell_setting 'triclinic'
loop_
_space_group_symop_operation_xyz
x,y,z
-x,-y,-z
loop_
_atom_site_type_symbol
_atom_site_label
_atom_site_fract_x
_atom_site_fract_y
_atom_site_fract_z
Si Si1 0.454066 0.946015 0.522799
Si Si2 0.307094 0.854181 0.740677
Si Si3 0.907780 0.018238 0.792793
Si Si4 0.135436 0.403856 0.389301
Si Si5 0.806917 0.549337 0.988032
Si Si6 0.729223 0.395328 0.699061
Si Si7 0.578296 0.296161 0.583422
Si Si8 0.282113 0.061477 0.792443
O O1 0.230364 0.002746 0.329504
O O2 0.682570 0.766922 0.580262
O O3 0.500000 0.000000 0.500000
O O4 0.368794 0.019181 0.667432
O O5 0.326702 0.786698 0.560288
O O6 0.262902 0.972758 0.754666
O O7 0.559658 0.725639 0.918777
O O8 0.106779 0.919987 0.744898
O O9 0.708154 0.183617 0.716809
O O10 0.000000 0.000000 0.000000
O O11 0.298390 0.402288 0.458798
O O12 0.000000 0.500000 0.500000
O O13 0.931871 0.483503 0.180611
O O14 0.740087 0.486214 0.837804
O O15 0.000000 0.500000 0.000000
O O16 0.500000 0.500000 0.500000
O O17 0.651667 0.358082 0.709538
O O18 0.008056 0.236853 0.736619
O O19 0.500000 0.000000 0.000000
#
# Coordination Sequence:
#
# PCOD9058304 Si02
#       8
#     2   2   2   2   2   2   2   2
#     4  11  26  45  67  98 139 179 232 283 341 416
#     4  12  22  44  74  94 136 181 233 283 339 408
#     4  11  25  41  68  99 133 176 228 277 345 402
#     4  11  25  46  67  96 142 185 224 280 356 414
#     4  12  24  43  68 102 138 174 229 281 347 418
#     4  12  24  40  70 108 136 173 234 298 347 404
#     4  11  22  45  68  96 134 180 229 285 338 408
#     4  12  25  43  74 104 135 185 238 288 344 412
#
# _framework density 19.465078999999999
#
# number of rings (size 3 to 8) (size 9 to 14) (size 15 to 20)
#    0.000    0.500    6.250    2.625    5.250    3.000 
#    0.000    0.625    0.000    0.000    0.000    0.000 
#    0.000    0.000    0.000    0.000    0.000    0.000 
#
# Total GULP energy -89367.316293 kJ/mol
# GULP energy per Si atom -5585.457268 kJ/mol
# Density = 1.942078 g / cm^3
# Si number density = 19.465079 Si / 1000 Ang^3
#
#
#
# Elastic Constant Matrix: (Units=GPa)
#
#
# Indices 1 2 3 4 5 6 
#
# 1 152.5747 25.8922 64.8087 6.1055 6.1795 2.2841
# 2 25.8922 69.5682 33.2980 -17.3741 -6.5990 -9.2016
# 3 64.8087 33.2980 179.5294 -10.5697 -3.9319 -8.9775
# 4 6.1055 -17.3741 -10.5697 32.8476 -2.6311 1.9187
# 5 6.1795 -6.5990 -3.9319 -2.6311 34.7113 0.4758
# 6 2.2841 -9.2016 -8.9775 1.9187 0.4758 22.9488
#
#
#
# Elastic Compliance Matrix: (Units=1/GPa)
#
#
# Indices 1 2 3 4 5 6 
#
# 1 0.008790 -0.003673 -0.002979 -0.004589 -0.002906 -0.003069
# 2 -0.003673 0.020604 -0.001374 0.011140 0.005163 0.007051
# 3 -0.002979 -0.001374 0.007168 0.002093 0.001208 0.002350
# 4 -0.004589 0.011140 0.002093 0.038204 0.006035 0.002423
# 5 -0.002906 0.005163 0.001208 0.006035 0.030879 0.001687
# 6 -0.003069 0.007051 0.002350 0.002423 0.001687 0.047390
#
#
# Mechanical properties :
#
#
# Convention : Reuss Voigt Hill
#
# Bulk Modulus (GPa) = 48.75983 72.18558 60.47270
# Shear Modulus (GPa) = 28.42138 36.61309 32.51724
#
# Velocity S-wave (km/s) = 3.82530 4.34171 4.09166
# Velocity P-wave (km/s) = 6.67943 7.89298 7.31143
#
# Compressibility (1/GPa) = 0.02050869
#
# Stress axis : x y z
#
# Youngs Moduli (GPa) = 113.76130 48.53491 139.51719
#
# Poissons Ratio (x) = 0.17829 0.41566
# Poissons Ratio (y) = 0.41789 0.19167
# Poissons Ratio (z) = 0.33892 0.06668
#
# Static dielectric constant tensor:
#      x y z
#    x 1.780890 -0.045150 0.058570 
#    y -0.045150 1.794760 -0.040190 
#    z 0.058570 -0.040190 1.693440 
# 
# From -- ./inp_files/263372.got.cif
#   From: 2010.05.17/outbox.cif.g08.bks.cpg/sg2_132_cif.got.tgz:263372.got - 2010.06.03 11:33:40.
