data_PCOD9058741
_publ_section_title
;
Structure prediction by ZEFSAII (Michael W. Deem and Ramdas Pophale) SiO2 
 PCOD9058741
Probable space group: P -1
;
_chemical_formula_sum "Si O2"
_cell_formula_units_Z 14
_cell_length_a 14.585388
_cell_length_b 8.895961
_cell_length_c 8.479645
_cell_angle_alpha 105.804139
_cell_angle_beta 140.721359
_cell_angle_gamma 56.539460
_cell_volume 555.711718
_symmetry_space_group_name_H-M "P -1"
_symmetry_group_IT_number 2
_symmetry_cell_setting 'triclinic'
loop_
_space_group_symop_operation_xyz
x,y,z
-x,-y,-z
loop_
_atom_site_type_symbol
_atom_site_label
_atom_site_fract_x
_atom_site_fract_y
_atom_site_fract_z
Si Si1 0.268507 0.246003 0.005949
Si Si2 0.653133 0.057390 0.341884
Si Si3 0.163827 0.772619 0.241360
Si Si4 0.564426 0.292548 0.975120
Si Si5 0.109123 0.004133 0.790377
Si Si6 0.016546 0.345020 0.265980
Si Si7 0.732746 0.618059 0.608705
O O1 0.457255 0.120822 0.139531
O O2 0.302751 0.284422 0.241810
O O3 0.173315 0.138729 0.870107
O O4 0.133751 0.451551 0.803961
O O5 0.713374 0.150010 0.579525
O O6 0.812131 0.836438 0.477818
O O7 0.635807 0.164708 0.188832
O O8 0.252036 0.575749 0.396049
O O9 0.002868 0.917067 0.179660
O O10 0.089106 0.732489 0.977322
O O11 0.418027 0.278264 0.691459
O O12 0.500000 0.500000 0.000000
O O13 0.721216 0.206633 0.034732
O O14 0.000000 0.000000 0.500000
O O15 0.099841 0.402513 0.254554
#
# Coordination Sequence:
#
# PCOD9058741 Si02
#       7
#     2   2   2   2   2   2   2
#     4  11  26  47  78 114 141 194 246 303 370 428
#     4  12  27  47  71 115 152 185 244 309 370 422
#     4  11  22  48  72 109 142 196 243 297 362 438
#     4  12  27  47  71 104 149 198 243 299 365 441
#     4  12  23  45  78 100 141 198 250 283 368 449
#     4  11  24  45  78 108 151 185 246 309 356 433
#     4  11  22  47  79 100 150 196 246 294 358 448
#
# _framework density 25.192920999999998
#
# number of rings (size 3 to 8) (size 9 to 14) (size 15 to 20)
#    0.000    0.571    5.714    2.143    2.000    6.857 
#    2.571    1.429    0.000    0.000    0.000    0.000 
#    0.000    0.000    0.000    0.000    0.000    0.000 
#
# Total GULP energy -78428.453436 kJ/mol
# GULP energy per Si atom -5602.032388 kJ/mol
# Density = 2.513558 g / cm^3
# Si number density = 25.192921 Si / 1000 Ang^3
#
#
#
# Elastic Constant Matrix: (Units=GPa)
#
#
# Indices 1 2 3 4 5 6 
#
# 1 72.4869 40.8206 24.1235 -9.2175 26.4283 -2.7330
# 2 40.8206 180.8945 61.4455 -15.0374 9.9728 -9.6136
# 3 24.1235 61.4455 147.5766 -11.5261 15.3613 5.3555
# 4 -9.2175 -15.0374 -11.5261 56.2743 9.7784 0.6865
# 5 26.4283 9.9728 15.3613 9.7784 39.7064 -0.8092
# 6 -2.7330 -9.6136 5.3555 0.6865 -0.8092 39.5970
#
#
#
# Elastic Compliance Matrix: (Units=1/GPa)
#
#
# Indices 1 2 3 4 5 6 
#
# 1 0.022025 -0.003657 -0.000122 0.005204 -0.014970 0.000253
# 2 -0.003657 0.007308 -0.002632 0.000526 0.001526 0.001900
# 3 -0.000122 -0.002632 0.008382 0.001523 -0.002914 -0.001867
# 4 0.005204 0.000526 0.001523 0.020692 -0.009286 -0.000268
# 5 -0.014970 0.001526 -0.002914 -0.009286 0.038193 0.000673
# 6 0.000253 0.001900 -0.001867 -0.000268 0.000673 0.026004
#
#
# Mechanical properties :
#
#
# Convention : Reuss Voigt Hill
#
# Bulk Modulus (GPa) = 40.17232 72.63749 56.40491
# Shear Modulus (GPa) = 34.78901 45.42009 40.10455
#
# Velocity S-wave (km/s) = 3.72008 4.25065 3.99419
# Velocity P-wave (km/s) = 5.86792 7.27914 6.61129
#
# Compressibility (1/GPa) = 0.02489276
#
# Stress axis : x y z
#
# Youngs Moduli (GPa) = 45.40253 136.83842 119.30748
#
# Poissons Ratio (x) = 0.50048 0.01455
# Poissons Ratio (y) = 0.16606 0.31396
# Poissons Ratio (z) = 0.00554 0.36010
#
# Static dielectric constant tensor:
#      x y z
#    x 2.006880 0.031500 0.038480 
#    y 0.031500 2.011200 -0.026190 
#    z 0.038480 -0.026190 2.082870 
# 
# From -- ./inp_files/298975.got.cif
#   From: 2010.05.17/outbox.cif.g08.bks.cpg/sg2_150_cif.got.tgz:298975.got - 2010.06.03 11:33:40.
