data_PCOD9058066
_publ_section_title
;
Structure prediction by ZEFSAII (Michael W. Deem and Ramdas Pophale) SiO2 
 PCOD9058066
Probable space group: P -1
;
_chemical_formula_sum "Si O2"
_cell_formula_units_Z 16
_cell_length_a 14.186831
_cell_length_b 15.131452
_cell_length_c 11.071111
_cell_angle_alpha 59.275292
_cell_angle_beta 31.137364
_cell_angle_gamma 39.259934
_cell_volume 688.947770
_symmetry_space_group_name_H-M "P -1"
_symmetry_group_IT_number 2
_symmetry_cell_setting 'triclinic'
loop_
_space_group_symop_operation_xyz
x,y,z
-x,-y,-z
loop_
_atom_site_type_symbol
_atom_site_label
_atom_site_fract_x
_atom_site_fract_y
_atom_site_fract_z
Si Si1 0.358453 0.564644 0.797587
Si Si2 0.717351 0.811025 0.389229
Si Si3 0.664244 0.358849 0.827485
Si Si4 0.865032 0.859409 0.830420
Si Si5 0.251219 0.146040 0.310957
Si Si6 0.596969 0.289115 0.562171
Si Si7 0.804330 0.679077 0.125464
Si Si8 0.290059 0.322851 0.273905
O O1 0.607920 0.443992 0.704740
O O2 0.402641 0.441527 0.756456
O O3 0.385949 0.652523 0.621530
O O4 0.049964 0.698772 0.102465
O O5 0.711607 0.744659 0.318263
O O6 0.649985 0.772293 0.608145
O O7 0.500000 0.000000 0.500000
O O8 0.981219 0.218483 0.623138
O O9 0.500000 0.500000 0.000000
O O10 0.524492 0.307620 0.005550
O O11 0.797799 0.878763 0.750278
O O12 0.094012 0.844526 0.625184
O O13 0.968069 0.707809 0.875974
O O14 0.558362 0.996648 0.129104
O O15 0.237595 0.275162 0.246992
O O16 0.472353 0.231229 0.710872
O O17 0.000000 0.500000 0.000000
O O18 0.000000 0.500000 0.500000
#
# Coordination Sequence:
#
# PCOD9058066 Si02
#       8
#     2   2   2   2   2   2   2   2
#     4  11  22  44  70 103 143 182 236 301 355 422
#     4  12  26  48  72 106 156 188 236 307 366 426
#     4  12  25  43  72 104 143 188 245 293 351 438
#     4  11  25  46  71 104 144 181 229 312 363 413
#     4  11  26  46  71 101 145 186 233 297 369 425
#     4  11  23  42  73 105 139 183 240 298 352 433
#     4  12  25  41  77 106 136 189 247 288 357 438
#     4  12  26  43  73 104 140 197 243 286 354 446
#
# _framework density 23.223821000000001
#
# number of rings (size 3 to 8) (size 9 to 14) (size 15 to 20)
#    0.000    0.500    6.250    1.500    5.250    1.000 
#    0.000    3.125    0.000    0.000    0.000    0.000 
#    0.000    0.000    0.000    0.000    0.000    0.000 
#
# Total GULP energy -89387.149875 kJ/mol
# GULP energy per Si atom -5586.696867 kJ/mol
# Density = 2.317096 g / cm^3
# Si number density = 23.223821 Si / 1000 Ang^3
#
#
#
# Elastic Constant Matrix: (Units=GPa)
#
#
# Indices 1 2 3 4 5 6 
#
# 1 117.6482 13.4991 29.5923 3.1699 -6.1102 6.7657
# 2 13.4991 67.3886 21.8577 18.1652 0.4486 -7.8918
# 3 29.5923 21.8577 118.4100 22.5636 -23.4021 1.7773
# 4 3.1699 18.1652 22.5636 39.1467 -7.5132 -6.4715
# 5 -6.1102 0.4486 -23.4021 -7.5132 54.7382 -6.4416
# 6 6.7657 -7.8918 1.7773 -6.4715 -6.4416 31.7960
#
#
#
# Elastic Compliance Matrix: (Units=1/GPa)
#
#
# Indices 1 2 3 4 5 6 
#
# 1 0.009331 -0.001659 -0.002168 0.000920 0.000009 -0.002087
# 2 -0.001659 0.018067 -0.002000 -0.006908 -0.001762 0.003186
# 3 -0.002168 -0.002000 0.010995 -0.004655 0.003737 -0.000840
# 4 0.000920 -0.006908 -0.004655 0.032954 0.003368 0.005739
# 5 0.000009 -0.001762 0.003737 0.003368 0.020846 0.004261
# 6 -0.002087 0.003186 -0.000840 0.005739 0.004261 0.034764
#
#
# Mechanical properties :
#
#
# Convention : Reuss Voigt Hill
#
# Bulk Modulus (GPa) = 37.39828 48.14945 42.77387
# Shear Modulus (GPa) = 33.89295 41.03601 37.46448
#
# Velocity S-wave (km/s) = 3.82436 4.20811 4.02081
# Velocity P-wave (km/s) = 5.96987 6.66248 6.32566
#
# Compressibility (1/GPa) = 0.02673920
#
# Stress axis : x y z
#
# Youngs Moduli (GPa) = 107.16670 55.34871 90.95425
#
# Poissons Ratio (x) = 0.09180 0.19720
# Poissons Ratio (y) = 0.17774 0.18193
# Poissons Ratio (z) = 0.23235 0.11071
#
# Static dielectric constant tensor:
#      x y z
#    x 1.943100 -0.079320 -0.063520 
#    y -0.079320 1.769360 -0.131600 
#    z -0.063520 -0.131600 1.677020 
# 
# From -- ./inp_files/455590.got.cif
#   From: 2010.05.17/outbox.cif.g08.bks.cpg/sg2_228_cif.got.tgz:455590.got - 2010.06.03 11:33:40.
