data_PCOD9058513
_publ_section_title
;
Structure prediction by ZEFSAII (Michael W. Deem and Ramdas Pophale) SiO2 
 PCOD9058513
Probable space group: P -1
;
_chemical_formula_sum "Si O2"
_cell_formula_units_Z 16
_cell_length_a 11.210542
_cell_length_b 20.627542
_cell_length_c 9.449875
_cell_angle_alpha 29.780135
_cell_angle_beta 52.082495
_cell_angle_gamma 43.292484
_cell_volume 743.299802
_symmetry_space_group_name_H-M "P -1"
_symmetry_group_IT_number 2
_symmetry_cell_setting 'triclinic'
loop_
_space_group_symop_operation_xyz
x,y,z
-x,-y,-z
loop_
_atom_site_type_symbol
_atom_site_label
_atom_site_fract_x
_atom_site_fract_y
_atom_site_fract_z
Si Si1 0.559553 0.794230 0.428698
Si Si2 0.944149 0.305959 0.466759
Si Si3 0.669017 0.334460 0.164384
Si Si4 0.025689 0.153071 0.404904
Si Si5 0.497282 0.847094 0.824240
Si Si6 0.192073 0.816313 0.952148
Si Si7 0.231162 0.397639 0.107859
Si Si8 0.363430 0.127826 0.056328
O O1 0.396878 0.780133 0.521724
O O2 0.661351 0.661667 0.715506
O O3 0.484503 0.951384 0.267471
O O4 0.673862 0.790071 0.221764
O O5 0.028705 0.181250 0.518033
O O6 0.062681 0.378387 0.289143
O O7 0.888476 0.247530 0.753516
O O8 0.794255 0.445587 0.225029
O O9 0.722800 0.293492 0.036745
O O10 0.848378 0.281213 0.219325
O O11 0.500000 0.500000 0.000000
O O12 0.189674 0.155216 0.209090
O O13 0.054938 0.985207 0.680308
O O14 0.337529 0.839392 0.885669
O O15 0.665461 0.716622 0.875287
O O16 0.524247 0.826562 0.010895
O O17 0.500000 0.000000 0.500000
#
# Coordination Sequence:
#
# PCOD9058513 Si02
#       8
#     2   2   2   2   2   2   2   2
#     4  11  24  44  69  99 140 185 234 285 353 411
#     4  11  27  42  69 105 135 189 233 295 357 403
#     4  12  27  47  67 102 149 184 227 294 355 422
#     4  12  24  46  70 103 142 181 240 288 348 423
#     4  12  20  43  72  97 140 180 236 288 347 410
#     4  12  26  45  73 103 140 187 237 294 347 421
#     4  11  22  46  66  92 147 177 236 292 344 418
#     4  11  24  41  73 104 130 189 235 289 342 419
#
# _framework density 21.525635000000001
#
# number of rings (size 3 to 8) (size 9 to 14) (size 15 to 20)
#    0.000    0.500    6.250    1.500    3.500    2.500 
#    0.000    1.250    0.000    0.000    0.000    0.000 
#    0.000    0.000    0.000    0.000    0.000    0.000 
#
# Total GULP energy -89372.668948 kJ/mol
# GULP energy per Si atom -5585.791809 kJ/mol
# Density = 2.147664 g / cm^3
# Si number density = 21.525635 Si / 1000 Ang^3
#
#
#
# Elastic Constant Matrix: (Units=GPa)
#
#
# Indices 1 2 3 4 5 6 
#
# 1 85.8253 29.7622 12.3993 6.3513 11.1224 6.2341
# 2 29.7622 139.0259 62.4585 14.5353 10.7961 18.0329
# 3 12.3993 62.4585 74.0280 19.8152 6.4762 7.0977
# 4 6.3513 14.5353 19.8152 39.3020 -6.2923 -0.2348
# 5 11.1224 10.7961 6.4762 -6.2923 28.3524 -2.2003
# 6 6.2341 18.0329 7.0977 -0.2348 -2.2003 29.2955
#
#
#
# Elastic Compliance Matrix: (Units=1/GPa)
#
#
# Indices 1 2 3 4 5 6 
#
# 1 0.013369 -0.002439 0.001221 -0.002745 -0.005364 -0.002064
# 2 -0.002439 0.012992 -0.009933 0.000234 -0.002075 -0.005226
# 3 0.001221 -0.009933 0.024741 -0.009729 -0.004550 -0.000559
# 4 -0.002745 0.000234 -0.009729 0.032444 0.010710 0.003862
# 5 -0.005364 -0.002075 -0.004550 0.010710 0.042106 0.006770
# 6 -0.002064 -0.005226 -0.000559 0.003862 0.006770 0.038466
#
#
# Mechanical properties :
#
#
# Convention : Reuss Voigt Hill
#
# Bulk Modulus (GPa) = 34.72391 56.45767 45.59079
# Shear Modulus (GPa) = 25.50748 32.34061 28.92404
#
# Velocity S-wave (km/s) = 3.44609 3.88032 3.66963
# Velocity P-wave (km/s) = 5.65690 6.80888 6.25945
#
# Compressibility (1/GPa) = 0.02879860
#
# Stress axis : x y z
#
# Youngs Moduli (GPa) = 74.79837 76.96999 40.41949
#
# Poissons Ratio (x) = 0.18774 -0.04933
# Poissons Ratio (y) = 0.18244 0.40149
# Poissons Ratio (z) = -0.09130 0.76455
#
# Static dielectric constant tensor:
#      x y z
#    x 1.864460 -0.003500 0.021000 
#    y -0.003500 1.790030 -0.037740 
#    z 0.021000 -0.037740 1.777310 
# 
# From -- ./inp_files/282608.got.cif
#   From: 2010.05.17/outbox.cif.g08.bks.cpg/sg2_142_cif.got.tgz:282608.got - 2010.06.03 11:33:40.
