data_PCOD9058199
_publ_section_title
;
Structure prediction by ZEFSAII (Michael W. Deem and Ramdas Pophale) SiO2 
 PCOD9058199
Probable space group: P -1
;
_chemical_formula_sum "Si O2"
_cell_formula_units_Z 16
_cell_length_a 10.067437
_cell_length_b 17.928596
_cell_length_c 13.618173
_cell_angle_alpha 32.873539
_cell_angle_beta 124.211737
_cell_angle_gamma 145.503920
_cell_volume 684.789002
_symmetry_space_group_name_H-M "P -1"
_symmetry_group_IT_number 2
_symmetry_cell_setting 'triclinic'
loop_
_space_group_symop_operation_xyz
x,y,z
-x,-y,-z
loop_
_atom_site_type_symbol
_atom_site_label
_atom_site_fract_x
_atom_site_fract_y
_atom_site_fract_z
Si Si1 0.367738 0.400126 0.947754
Si Si2 0.196073 0.275720 0.512018
Si Si3 0.413467 0.852087 0.470637
Si Si4 0.738696 0.855520 0.493143
Si Si5 0.617961 0.906085 0.701665
Si Si6 0.824412 0.439790 0.607113
Si Si7 0.402928 0.253267 0.795670
Si Si8 0.049944 0.765524 0.175165
O O1 0.553505 0.613493 0.722744
O O2 0.090221 0.277309 0.935771
O O3 0.500000 0.500000 0.000000
O O4 0.365066 0.238744 0.099285
O O5 0.212358 0.149032 0.593848
O O6 0.237050 0.253677 0.665082
O O7 0.416235 0.535211 0.291775
O O8 0.910093 0.144691 0.528407
O O9 0.607284 0.909634 0.411069
O O10 0.452469 0.806445 0.643553
O O11 0.117762 0.637151 0.552549
O O12 0.472167 0.049938 0.300805
O O13 0.000000 0.000000 0.500000
O O14 0.613447 0.334316 0.716635
O O15 0.780323 0.256034 0.752596
O O16 0.843387 0.564862 0.389399
O O17 0.215718 0.003292 0.024413
#
# Coordination Sequence:
#
# PCOD9058199 Si02
#       8
#     2   2   2   2   2   2   2   2
#     4  12  22  43  70 105 132 180 239 287 352 429
#     4  11  23  43  68 103 140 180 241 289 350 420
#     4  11  23  43  72  98 141 186 221 291 362 415
#     4  12  24  43  71 104 137 181 229 297 357 413
#     4  11  22  44  73  98 137 186 233 284 355 420
#     4  11  23  44  67 105 144 186 235 292 359 423
#     4  11  24  43  68 102 142 193 232 293 352 422
#     4  11  24  41  71 102 144 184 240 292 353 426
#
# _framework density 23.36486
#
# number of rings (size 3 to 8) (size 9 to 14) (size 15 to 20)
#    0.000    0.750    6.250    1.125    1.750    1.000 
#    0.000    3.125    0.000    0.000    0.000    0.000 
#    0.000    0.000    0.000    0.000    0.000    0.000 
#
# Total GULP energy -89454.980963 kJ/mol
# GULP energy per Si atom -5590.936310 kJ/mol
# Density = 2.331168 g / cm^3
# Si number density = 23.364860 Si / 1000 Ang^3
#
#
#
# Elastic Constant Matrix: (Units=GPa)
#
#
# Indices 1 2 3 4 5 6 
#
# 1 121.3249 21.8373 28.5395 4.3670 24.6072 -13.9041
# 2 21.8373 143.3329 29.4667 2.8453 7.1045 7.9233
# 3 28.5395 29.4667 104.5155 -6.9209 30.0039 -2.5919
# 4 4.3670 2.8453 -6.9209 30.6438 -3.9725 6.4162
# 5 24.6072 7.1045 30.0039 -3.9725 37.2726 -5.0071
# 6 -13.9041 7.9233 -2.5919 6.4162 -5.0071 33.9990
#
#
#
# Elastic Compliance Matrix: (Units=1/GPa)
#
#
# Indices 1 2 3 4 5 6 
#
# 1 0.010453 -0.001284 -0.000982 -0.003218 -0.005634 0.004277
# 2 -0.001284 0.007707 -0.002117 -0.000436 0.000728 -0.002293
# 3 -0.000982 -0.002117 0.013293 0.002257 -0.009505 -0.000721
# 4 -0.003218 -0.000436 0.002257 0.035583 0.003204 -0.007285
# 5 -0.005634 0.000728 -0.009505 0.003204 0.038657 0.001890
# 6 0.004277 -0.002293 -0.000721 -0.007285 0.001890 0.033294
#
#
# Mechanical properties :
#
#
# Convention : Reuss Voigt Hill
#
# Bulk Modulus (GPa) = 44.07728 58.76226 51.41977
# Shear Modulus (GPa) = 32.19236 39.67173 35.93205
#
# Velocity S-wave (km/s) = 3.71591 4.12506 3.92582
# Velocity P-wave (km/s) = 6.10872 6.92044 6.52721
#
# Compressibility (1/GPa) = 0.02268742
#
# Stress axis : x y z
#
# Youngs Moduli (GPa) = 95.66505 129.75335 75.22551
#
# Poissons Ratio (x) = 0.16660 0.07387
# Poissons Ratio (y) = 0.12283 0.15926
# Poissons Ratio (z) = 0.09394 0.27470
#
# Static dielectric constant tensor:
#      x y z
#    x 2.194500 0.148320 -0.070800 
#    y 0.148320 2.048290 -0.059580 
#    z -0.070800 -0.059580 1.869300 
# 
# From -- ./inp_files/524054.got.cif
#   From: 2010.05.17/outbox.cif.g08.bks.cpg/sg2_263_cif.got.tgz:524054.got - 2010.06.03 11:33:40.
