data_PCOD9058460
_publ_section_title
;
Structure prediction by ZEFSAII (Michael W. Deem and Ramdas Pophale) SiO2 
 PCOD9058460
Probable space group: P -1
;
_chemical_formula_sum "Si O2"
_cell_formula_units_Z 16
_cell_length_a 24.241525
_cell_length_b 13.993296
_cell_length_c 8.291271
_cell_angle_alpha 146.237623
_cell_angle_beta 129.509139
_cell_angle_gamma 28.593226
_cell_volume 700.052502
_symmetry_space_group_name_H-M "P -1"
_symmetry_group_IT_number 2
_symmetry_cell_setting 'triclinic'
loop_
_space_group_symop_operation_xyz
x,y,z
-x,-y,-z
loop_
_atom_site_type_symbol
_atom_site_label
_atom_site_fract_x
_atom_site_fract_y
_atom_site_fract_z
Si Si1 0.599713 0.125055 0.584256
Si Si2 0.951256 0.275793 0.730541
Si Si3 0.665648 0.769592 0.904524
Si Si4 0.289730 0.746247 0.158035
Si Si5 0.462399 0.890889 0.201877
Si Si6 0.924810 0.668315 0.763594
Si Si7 0.323480 0.629357 0.719678
Si Si8 0.022780 0.143489 0.318069
O O1 0.690071 0.101107 0.660381
O O2 0.605020 0.059967 0.692828
O O3 0.457244 0.453584 0.739805
O O4 0.622101 0.931266 0.222169
O O5 0.805488 0.553727 0.838971
O O6 0.012993 0.158117 0.508684
O O7 0.000000 0.000000 0.500000
O O8 0.990528 0.367458 0.028271
O O9 0.665613 0.562634 0.633818
O O10 0.598388 0.962733 0.883338
O O11 0.155855 0.966932 0.283086
O O12 0.410499 0.464803 0.089759
O O13 0.297509 0.609437 0.823243
O O14 0.500000 0.000000 0.500000
O O15 0.000000 0.500000 0.500000
O O16 0.919751 0.481800 0.547626
O O17 0.792016 0.020383 0.031551
O O18 0.000000 0.000000 0.000000
#
# Coordination Sequence:
#
# PCOD9058460 Si02
#       8
#     2   2   2   2   2   2   2   2
#     4  11  26  46  78 112 156 211 255 323 399 451
#     4  12  27  49  74 115 159 199 258 330 393 475
#     4  12  25  48  76 115 161 198 264 318 389 473
#     4  11  24  49  71 112 157 193 265 320 389 476
#     4  11  24  43  78 113 154 206 260 316 384 466
#     4  12  25  48  78 109 154 208 255 323 396 458
#     4  11  22  45  74 113 157 198 258 312 385 476
#     4  12  27  49  79 112 149 205 263 324 402 475
#
# _framework density 22.855429999999998
#
# number of rings (size 3 to 8) (size 9 to 14) (size 15 to 20)
#    0.000    0.500    5.000    4.500    0.000    4.500 
#    0.000    0.000    0.000    0.000    0.000    0.000 
#    0.000    0.000    0.000    0.000    0.000    0.000 
#
# Total GULP energy -89285.238895 kJ/mol
# GULP energy per Si atom -5580.327431 kJ/mol
# Density = 2.280341 g / cm^3
# Si number density = 22.855430 Si / 1000 Ang^3
#
#
#
# Elastic Constant Matrix: (Units=GPa)
#
#
# Indices 1 2 3 4 5 6 
#
# 1 128.7592 44.5928 57.5223 8.5991 -1.6256 -9.3846
# 2 44.5928 127.8947 47.5329 12.9444 6.7476 -11.1762
# 3 57.5223 47.5329 152.7306 -7.6092 9.8268 4.8789
# 4 8.5991 12.9444 -7.6092 46.9658 -0.5706 0.9543
# 5 -1.6256 6.7476 9.8268 -0.5706 47.5657 5.2950
# 6 -9.3846 -11.1762 4.8789 0.9543 5.2950 47.3209
#
#
#
# Elastic Compliance Matrix: (Units=1/GPa)
#
#
# Indices 1 2 3 4 5 6 
#
# 1 0.010290 -0.001998 -0.003480 -0.001921 0.001126 0.001840
# 2 -0.001998 0.010015 -0.002502 -0.002865 -0.001277 0.002428
# 3 -0.003480 -0.002502 0.008930 0.002800 -0.001341 -0.002108
# 4 -0.001921 -0.002865 0.002800 0.022927 0.000242 -0.001836
# 5 0.001126 -0.001277 -0.001341 0.000242 0.021788 -0.002383
# 6 0.001840 0.002428 -0.002108 -0.001836 -0.002383 0.022592
#
#
# Mechanical properties :
#
#
# Convention : Reuss Voigt Hill
#
# Bulk Modulus (GPa) = 75.34202 78.74227 77.04215
# Shear Modulus (GPa) = 42.76073 45.68625 44.22349
#
# Velocity S-wave (km/s) = 4.33011 4.47578 4.40355
# Velocity P-wave (km/s) = 7.61813 7.82543 7.72247
#
# Compressibility (1/GPa) = 0.01327281
#
# Stress axis : x y z
#
# Youngs Moduli (GPa) = 97.18100 99.84820 111.97908
#
# Poissons Ratio (x) = 0.19954 0.38974
# Poissons Ratio (y) = 0.19421 0.28022
# Poissons Ratio (z) = 0.33824 0.24986
#
# Static dielectric constant tensor:
#      x y z
#    x 1.849290 0.000570 0.024560 
#    y 0.000570 1.938570 0.055660 
#    z 0.024560 0.055660 1.930630 
# 
# From -- ./inp_files/354616.got.cif
#   From: 2010.05.17/outbox.cif.g08.bks.cpg/sg2_178_cif.got.tgz:354616.got - 2010.06.03 11:33:40.
