data_PCOD9058158
_publ_section_title
;
Structure prediction by ZEFSAII (Michael W. Deem and Ramdas Pophale) SiO2 
 PCOD9058158
Probable space group: P -1
;
_chemical_formula_sum "Si O2"
_cell_formula_units_Z 16
_cell_length_a 15.369837
_cell_length_b 9.048118
_cell_length_c 8.970835
_cell_angle_alpha 64.930132
_cell_angle_beta 95.615747
_cell_angle_gamma 47.859147
_cell_volume 689.054218
_symmetry_space_group_name_H-M "P -1"
_symmetry_group_IT_number 2
_symmetry_cell_setting 'triclinic'
loop_
_space_group_symop_operation_xyz
x,y,z
-x,-y,-z
loop_
_atom_site_type_symbol
_atom_site_label
_atom_site_fract_x
_atom_site_fract_y
_atom_site_fract_z
Si Si1 0.641536 0.737741 0.049511
Si Si2 0.529655 0.434250 0.703060
Si Si3 0.885056 0.623505 0.708012
Si Si4 0.108932 0.081830 0.617509
Si Si5 0.604052 0.484436 0.960261
Si Si6 0.228836 0.708936 0.544274
Si Si7 0.097948 0.749502 0.237682
Si Si8 0.791961 0.832734 0.924499
O O1 0.747831 0.500135 0.287455
O O2 0.592647 0.675809 0.949047
O O3 0.731640 0.742714 0.982342
O O4 0.500000 0.000000 0.000000
O O5 0.500000 0.500000 0.500000
O O6 0.563346 0.544731 0.754906
O O7 0.381620 0.566922 0.668441
O O8 0.673629 0.115902 0.866749
O O9 0.874660 0.755641 0.504493
O O10 0.837368 0.505539 0.725115
O O11 0.806068 0.825370 0.750050
O O12 0.052090 0.369584 0.893021
O O13 0.985779 0.215181 0.654375
O O14 0.111283 0.980355 0.503378
O O15 0.242725 0.813712 0.846145
O O16 0.500000 0.500000 0.000000
O O17 0.195935 0.732477 0.354711
O O18 0.000000 0.000000 0.000000
#
# Coordination Sequence:
#
# PCOD9058158 Si02
#       8
#     2   2   2   2   2   2   2   2
#     4  11  22  44  72 107 146 187 233 301 362 428
#     4  12  25  45  69 104 145 188 232 297 359 429
#     4  11  27  47  73 103 143 196 242 301 354 433
#     4  11  24  48  75  99 142 192 237 298 361 433
#     4  11  23  43  74 106 137 187 239 290 360 434
#     4  11  25  45  70 103 143 187 234 294 365 427
#     4  12  29  44  71 108 141 186 245 299 359 429
#     4  11  25  46  71 105 146 186 245 299 363 422
#
# _framework density 23.220234000000001
#
# number of rings (size 3 to 8) (size 9 to 14) (size 15 to 20)
#    0.000    0.750    3.750    3.000   10.500    2.000 
#    0.000    1.250    0.000    0.000    0.000    0.000 
#    0.000    0.000    0.000    0.000    0.000    0.000 
#
# Total GULP energy -89388.528241 kJ/mol
# GULP energy per Si atom -5586.783015 kJ/mol
# Density = 2.316738 g / cm^3
# Si number density = 23.220234 Si / 1000 Ang^3
#
#
#
# Elastic Constant Matrix: (Units=GPa)
#
#
# Indices 1 2 3 4 5 6 
#
# 1 63.8043 15.9077 29.1798 13.4606 8.3250 12.0780
# 2 15.9077 88.8664 39.1339 12.6749 20.0653 18.0895
# 3 29.1798 39.1339 81.5275 32.4072 4.5235 24.4519
# 4 13.4606 12.6749 32.4072 37.1117 6.2187 3.9291
# 5 8.3250 20.0653 4.5235 6.2187 49.4955 9.6789
# 6 12.0780 18.0895 24.4519 3.9291 9.6789 45.9213
#
#
#
# Elastic Compliance Matrix: (Units=1/GPa)
#
#
# Indices 1 2 3 4 5 6 
#
# 1 0.019159 0.000137 -0.005838 -0.001366 -0.002303 -0.001383
# 2 0.000137 0.015973 -0.008190 0.002738 -0.005907 -0.000957
# 3 -0.005838 -0.008190 0.029209 -0.020542 0.006237 -0.010349
# 4 -0.001366 0.002738 -0.020542 0.044655 -0.006116 0.007687
# 5 -0.002303 -0.005907 0.006237 -0.006116 0.024153 -0.004956
# 6 -0.001383 -0.000957 -0.010349 0.007687 -0.004956 0.028414
#
#
# Mechanical properties :
#
#
# Convention : Reuss Voigt Hill
#
# Bulk Modulus (GPa) = 27.35178 44.73788 36.04483
# Shear Modulus (GPa) = 24.81014 36.50415 30.65715
#
# Velocity S-wave (km/s) = 3.27229 3.96925 3.63750
# Velocity P-wave (km/s) = 5.10706 6.34943 5.76183
#
# Compressibility (1/GPa) = 0.03656070
#
# Stress axis : x y z
#
# Youngs Moduli (GPa) = 52.19538 62.60662 34.23552
#
# Poissons Ratio (x) = -0.00860 0.19986
# Poissons Ratio (y) = -0.00717 0.28038
# Poissons Ratio (z) = 0.30470 0.51273
#
# Static dielectric constant tensor:
#      x y z
#    x 2.049000 -0.119320 -0.027960 
#    y -0.119320 2.010770 0.047930 
#    z -0.027960 0.047930 1.894060 
# 
# From -- ./inp_files/297913.got.cif
#   From: 2010.05.17/outbox.cif.g08.bks.cpg/sg2_149_cif.got.tgz:297913.got - 2010.06.03 11:33:40.
