data_PCOD9058543
_publ_section_title
;
Structure prediction by ZEFSAII (Michael W. Deem and Ramdas Pophale) SiO2 
 PCOD9058543
Probable space group: P -1
;
_chemical_formula_sum "Si O2"
_cell_formula_units_Z 16
_cell_length_a 12.895805
_cell_length_b 14.541031
_cell_length_c 8.400699
_cell_angle_alpha 148.332561
_cell_angle_beta 70.365756
_cell_angle_gamma 112.897449
_cell_volume 761.801402
_symmetry_space_group_name_H-M "P -1"
_symmetry_group_IT_number 2
_symmetry_cell_setting 'triclinic'
loop_
_space_group_symop_operation_xyz
x,y,z
-x,-y,-z
loop_
_atom_site_type_symbol
_atom_site_label
_atom_site_fract_x
_atom_site_fract_y
_atom_site_fract_z
Si Si1 0.271145 0.499737 0.460193
Si Si2 0.223021 0.842934 0.160850
Si Si3 0.125969 0.025765 0.203220
Si Si4 0.484492 0.979808 0.291512
Si Si5 0.954179 0.673543 0.830583
Si Si6 0.008427 0.694746 0.209749
Si Si7 0.349268 0.235859 0.272436
Si Si8 0.488277 0.649713 0.355004
O O1 0.174796 0.363656 0.213791
O O2 0.315499 0.397031 0.430900
O O3 0.376813 0.579493 0.412516
O O4 0.218579 0.662261 0.794263
O O5 0.175528 0.985778 0.290638
O O6 0.352409 0.912062 0.231797
O O7 0.139400 0.793257 0.278622
O O8 0.065067 0.191775 0.487904
O O9 0.236818 0.080898 0.120207
O O10 0.031091 0.846736 0.961162
O O11 0.500000 0.000000 0.500000
O O12 0.521429 0.167567 0.458430
O O13 0.555744 0.842379 0.983611
O O14 0.000000 0.500000 0.500000
O O15 0.967409 0.690964 0.040754
O O16 0.000000 0.500000 0.000000
O O17 0.404514 0.304224 0.513990
O O18 0.500000 0.500000 0.000000
#
# Coordination Sequence:
#
# PCOD9058543 Si02
#       8
#     2   2   2   2   2   2   2   2
#     4  12  25  44  72 102 143 183 232 298 349 420
#     4  11  22  46  70  96 144 183 228 291 352 410
#     4  11  24  44  73  99 138 188 229 287 351 420
#     4  12  27  46  72 105 138 187 240 286 354 423
#     4  11  24  44  69 100 137 181 235 281 354 417
#     4  11  25  45  70 102 136 185 237 291 350 415
#     4  12  26  47  72 102 145 186 233 289 359 416
#     4  12  27  44  71 103 140 185 235 290 354 420
#
# _framework density 21.002849999999999
#
# number of rings (size 3 to 8) (size 9 to 14) (size 15 to 20)
#    0.000    0.500    5.000    4.500    3.500    4.500 
#    0.000    0.000    0.000    0.000    0.000    0.000 
#    0.000    0.000    0.000    0.000    0.000    0.000 
#
# Total GULP energy -89532.176414 kJ/mol
# GULP energy per Si atom -5595.761026 kJ/mol
# Density = 2.095505 g / cm^3
# Si number density = 21.002850 Si / 1000 Ang^3
#
#
#
# Elastic Constant Matrix: (Units=GPa)
#
#
# Indices 1 2 3 4 5 6 
#
# 1 105.7242 55.0849 38.2530 18.1265 2.6114 22.0182
# 2 55.0849 109.1679 5.7713 19.7923 2.6134 4.1882
# 3 38.2530 5.7713 79.3264 8.6327 -4.5045 -12.1584
# 4 18.1265 19.7923 8.6327 31.8477 -1.9883 -1.1639
# 5 2.6114 2.6134 -4.5045 -1.9883 41.9992 4.2723
# 6 22.0182 4.1882 -12.1584 -1.1639 4.2723 40.4650
#
#
#
# Elastic Compliance Matrix: (Units=1/GPa)
#
#
# Indices 1 2 3 4 5 6 
#
# 1 0.022622 -0.009390 -0.012098 -0.004359 -0.000799 -0.015013
# 2 -0.009390 0.014320 0.004728 -0.004688 -0.000528 0.004968
# 3 -0.012098 0.004728 0.020114 -0.000983 0.001351 0.011966
# 4 -0.004359 -0.004688 -0.000983 0.037303 0.001874 0.003437
# 5 -0.000799 -0.000528 0.001351 0.001874 0.024290 -0.001615
# 6 -0.015013 0.004968 0.011966 0.003437 -0.001615 0.036232
#
#
# Mechanical properties :
#
#
# Convention : Reuss Voigt Hill
#
# Bulk Modulus (GPa) = 42.48697 54.71521 48.60109
# Shear Modulus (GPa) = 25.47814 35.86965 30.67390
#
# Velocity S-wave (km/s) = 3.48671 4.13709 3.82575
# Velocity P-wave (km/s) = 6.04008 6.99490 6.53495
#
# Compressibility (1/GPa) = 0.02353663
#
# Stress axis : x y z
#
# Youngs Moduli (GPa) = 44.20504 69.83151 49.71732
#
# Poissons Ratio (x) = 0.65570 0.60147
# Poissons Ratio (y) = 0.41507 -0.23505
# Poissons Ratio (z) = 0.53478 -0.33015
#
# Static dielectric constant tensor:
#      x y z
#    x 1.808380 0.018410 0.010230 
#    y 0.018410 1.734860 0.003890 
#    z 0.010230 0.003890 1.742200 
# 
# From -- ./inp_files/274440.got.cif
#   From: 2010.05.17/outbox.cif.g08.bks.cpg/sg2_138_cif.got.tgz:274440.got - 2010.06.03 11:33:40.
