data_PCOD9058922
_publ_section_title
;
Structure prediction by ZEFSAII (Michael W. Deem and Ramdas Pophale) SiO2 
 PCOD9058922
Probable space group: P -1
;
_chemical_formula_sum "Si O2"
_cell_formula_units_Z 14
_cell_length_a 13.974361
_cell_length_b 14.173016
_cell_length_c 8.787068
_cell_angle_alpha 64.642903
_cell_angle_beta 96.380364
_cell_angle_gamma 150.219916
_cell_volume 635.984676
_symmetry_space_group_name_H-M "P -1"
_symmetry_group_IT_number 2
_symmetry_cell_setting 'triclinic'
loop_
_space_group_symop_operation_xyz
x,y,z
-x,-y,-z
loop_
_atom_site_type_symbol
_atom_site_label
_atom_site_fract_x
_atom_site_fract_y
_atom_site_fract_z
Si Si1 0.761489 0.290953 0.409839
Si Si2 0.718450 0.279595 0.769586
Si Si3 0.673759 0.675003 0.552852
Si Si4 0.761414 0.499619 0.086991
Si Si5 0.697159 0.848766 0.717299
Si Si6 0.101279 0.130660 0.090287
Si Si7 0.190362 0.418134 0.300180
O O1 0.726380 0.262414 0.604368
O O2 0.818268 0.460577 0.231624
O O3 0.008556 0.472475 0.296938
O O4 0.500000 0.000000 0.500000
O O5 0.673848 0.357916 0.739467
O O6 0.500000 0.000000 0.000000
O O7 0.500000 0.500000 0.500000
O O8 0.630044 0.721386 0.636918
O O9 0.680052 0.565321 0.699964
O O10 0.924603 0.946533 0.330018
O O11 0.479339 0.234738 0.210561
O O12 0.834948 0.685447 0.033375
O O13 0.858226 0.586637 0.873646
O O14 0.710210 0.771209 0.899643
O O15 0.950280 0.151839 0.528029
O O16 0.000000 0.000000 0.000000
#
# Coordination Sequence:
#
# PCOD9058922 Si02
#       7
#     2   2   2   2   2   2   2
#     4  11  27  50  73 105 138 179 238 296 360 421
#     4  11  27  50  75 103 138 180 239 301 352 425
#     4  11  23  40  63  97 141 179 223 274 334 419
#     4  12  24  41  71  95 132 182 222 278 350 405
#     4  11  23  43  64  97 144 180 222 277 340 422
#     4  11  23  39  61  99 137 177 225 273 332 413
#     4  11  24  44  66  98 134 177 227 281 347 407
#
# _framework density 22.013109
#
# number of rings (size 3 to 8) (size 9 to 14) (size 15 to 20)
#    0.000    0.857    2.857    3.857    8.000    5.714 
#    0.000    0.000    0.000    0.000    0.000    0.000 
#    0.000    0.000    0.000    0.000    0.000    0.000 
#
# Total GULP energy -78216.279898 kJ/mol
# GULP energy per Si atom -5586.877136 kJ/mol
# Density = 2.196301 g / cm^3
# Si number density = 22.013109 Si / 1000 Ang^3
#
#
#
# Elastic Constant Matrix: (Units=GPa)
#
#
# Indices 1 2 3 4 5 6 
#
# 1 69.0914 6.9812 37.8959 -5.3278 9.7058 -0.1806
# 2 6.9812 89.4115 23.4711 0.1636 3.3448 -6.4051
# 3 37.8959 23.4711 129.9825 -7.0736 10.3740 -6.3684
# 4 -5.3278 0.1636 -7.0736 39.5641 1.3713 6.0109
# 5 9.7058 3.3448 10.3740 1.3713 28.5890 2.4954
# 6 -0.1806 -6.4051 -6.3684 6.0109 2.4954 35.7762
#
#
#
# Elastic Compliance Matrix: (Units=1/GPa)
#
#
# Indices 1 2 3 4 5 6 
#
# 1 0.017852 -0.000032 -0.004792 0.001815 -0.004338 -0.000771
# 2 -0.000032 0.011885 -0.002016 -0.000681 -0.000784 0.001938
# 3 -0.004792 -0.002016 0.009717 0.000965 -0.001824 0.001310
# 4 0.001815 -0.000681 0.000965 0.026403 -0.001782 -0.004253
# 5 -0.004338 -0.000784 -0.001824 -0.001782 0.037535 -0.002806
# 6 -0.000771 0.001938 0.001310 -0.004253 -0.002806 0.029438
#
#
# Mechanical properties :
#
#
# Convention : Reuss Voigt Hill
#
# Bulk Modulus (GPa) = 38.79900 47.24241 43.02071
# Shear Modulus (GPa) = 32.23673 35.46167 33.84920
#
# Velocity S-wave (km/s) = 3.83094 4.01800 3.92559
# Velocity P-wave (km/s) = 6.10179 6.55998 6.33503
#
# Compressibility (1/GPa) = 0.02577386
#
# Stress axis : x y z
#
# Youngs Moduli (GPa) = 56.01488 84.13637 102.91614
#
# Poissons Ratio (x) = 0.00272 0.49315
# Poissons Ratio (y) = 0.00181 0.20751
# Poissons Ratio (z) = 0.26841 0.16964
#
# Static dielectric constant tensor:
#      x y z
#    x 1.828790 0.079080 -0.046030 
#    y 0.079080 1.443620 -0.003980 
#    z -0.046030 -0.003980 1.805950 
# 
# From -- ./inp_files/312802.got.cif
#   From: 2010.05.17/outbox.cif.g08.bks.cpg/sg2_157_cif.got.tgz:312802.got - 2010.06.03 11:33:40.
