data_PCOD9058044
_publ_section_title
;
Structure prediction by ZEFSAII (Michael W. Deem and Ramdas Pophale) SiO2 
 PCOD9058044
Probable space group: P -1
;
_chemical_formula_sum "Si O2"
_cell_formula_units_Z 14
_cell_length_a 8.491432
_cell_length_b 12.226579
_cell_length_c 14.117736
_cell_angle_alpha 43.818793
_cell_angle_beta 85.799444
_cell_angle_gamma 119.549318
_cell_volume 619.561642
_symmetry_space_group_name_H-M "P -1"
_symmetry_group_IT_number 2
_symmetry_cell_setting 'triclinic'
loop_
_space_group_symop_operation_xyz
x,y,z
-x,-y,-z
loop_
_atom_site_type_symbol
_atom_site_label
_atom_site_fract_x
_atom_site_fract_y
_atom_site_fract_z
Si Si1 0.043794 0.426174 0.299503
Si Si2 0.132883 0.987476 0.094760
Si Si3 0.200022 0.008175 0.860888
Si Si4 0.739315 0.259044 0.718191
Si Si5 0.309811 0.140442 0.280549
Si Si6 0.548796 0.448500 0.889070
Si Si7 0.871647 0.485754 0.103664
O O1 0.860588 0.386962 0.267026
O O2 0.200223 0.641626 0.238772
O O3 0.245733 0.524449 0.152285
O O4 0.900543 0.162591 0.516126
O O5 0.877326 0.866358 0.227465
O O6 0.259653 0.930487 0.169635
O O7 0.099634 0.914845 0.032283
O O8 0.360680 0.298255 0.901097
O O9 0.489468 0.160878 0.754930
O O10 0.035908 0.772682 0.942611
O O11 0.000000 0.500000 0.500000
O O12 0.285885 0.265801 0.276316
O O13 0.357510 0.258822 0.102811
O O14 0.583956 0.288059 0.206414
O O15 0.000000 0.500000 0.000000
#
# Coordination Sequence:
#
# PCOD9058044 Si02
#       7
#     2   2   2   2   2   2   2
#     4  12  24  44  68  99 139 179 227 290 349 408
#     4  11  22  44  73  97 131 184 232 280 350 412
#     4  11  24  44  71  98 134 182 232 285 345 411
#     4  12  26  43  70 104 139 178 232 292 349 417
#     4  11  25  42  67 102 134 184 227 279 351 415
#     4  11  22  44  69  96 138 180 233 282 343 421
#     4  12  24  43  68  98 135 182 230 279 346 417
#
# _framework density 22.596620000000001
#
# number of rings (size 3 to 8) (size 9 to 14) (size 15 to 20)
#    0.000    0.571    5.714    3.000    2.000    0.571 
#    0.000    0.000    0.000    0.000    0.000    0.000 
#    0.000    0.000    0.000    0.000    0.000    0.000 
#
# Total GULP energy -78083.763055 kJ/mol
# GULP energy per Si atom -5577.411647 kJ/mol
# Density = 2.254519 g / cm^3
# Si number density = 22.596620 Si / 1000 Ang^3
#
#
#
# Elastic Constant Matrix: (Units=GPa)
#
#
# Indices 1 2 3 4 5 6 
#
# 1 141.1246 29.0953 32.7034 -12.4682 -19.1740 -12.7579
# 2 29.0953 89.8730 13.2472 -23.8111 -2.6405 -26.2416
# 3 32.7034 13.2472 70.4808 -13.0300 1.1340 -8.1455
# 4 -12.4682 -23.8111 -13.0300 29.1874 -4.3180 -1.4860
# 5 -19.1740 -2.6405 1.1340 -4.3180 27.4325 -3.8292
# 6 -12.7579 -26.2416 -8.1455 -1.4860 -3.8292 42.9895
#
#
#
# Elastic Compliance Matrix: (Units=1/GPa)
#
#
# Indices 1 2 3 4 5 6 
#
# 1 0.009614 -0.000826 -0.003573 0.003090 0.007618 0.002458
# 2 -0.000826 0.020159 0.001445 0.018324 0.006073 0.013508
# 3 -0.003573 0.001445 0.017327 0.007335 -0.001470 0.003228
# 4 0.003090 0.018324 0.007335 0.056866 0.014915 0.016786
# 5 0.007618 0.006073 -0.001470 0.014915 0.046211 0.010321
# 6 0.002458 0.013508 0.003228 0.016786 0.010321 0.034348
#
#
# Mechanical properties :
#
#
# Convention : Reuss Voigt Hill
#
# Bulk Modulus (GPa) = 24.27590 50.17449 37.22519
# Shear Modulus (GPa) = 24.49021 35.01738 29.75380
#
# Velocity S-wave (km/s) = 3.29568 3.94086 3.63262
# Velocity P-wave (km/s) = 5.02479 6.55437 5.83988
#
# Compressibility (1/GPa) = 0.04119311
#
# Stress axis : x y z
#
# Youngs Moduli (GPa) = 104.01094 49.60673 57.71253
#
# Poissons Ratio (x) = 0.04096 0.20621
# Poissons Ratio (y) = 0.08588 -0.08341
# Poissons Ratio (z) = 0.37165 -0.07170
#
# Static dielectric constant tensor:
#      x y z
#    x 2.027040 -0.016170 0.043490 
#    y -0.016170 1.925910 0.032220 
#    z 0.043490 0.032220 1.856590 
# 
# From -- ./inp_files/498847.got.cif
#   From: 2010.05.17/outbox.cif.g08.bks.cpg/sg2_250_cif.got.tgz:498847.got - 2010.06.03 11:33:40.
