data_PCOD9058106
_publ_section_title
;
Structure prediction by ZEFSAII (Michael W. Deem and Ramdas Pophale) SiO2 
 PCOD9058106
Probable space group: P -1
;
_chemical_formula_sum "Si O2"
_cell_formula_units_Z 16
_cell_length_a 12.130275
_cell_length_b 8.425679
_cell_length_c 15.825466
_cell_angle_alpha 66.129077
_cell_angle_beta 151.612643
_cell_angle_gamma 120.879652
_cell_volume 655.616908
_symmetry_space_group_name_H-M "P -1"
_symmetry_group_IT_number 2
_symmetry_cell_setting 'triclinic'
loop_
_space_group_symop_operation_xyz
x,y,z
-x,-y,-z
loop_
_atom_site_type_symbol
_atom_site_label
_atom_site_fract_x
_atom_site_fract_y
_atom_site_fract_z
Si Si1 0.801292 0.794787 0.547320
Si Si2 0.504510 0.100947 0.123662
Si Si3 0.023601 0.040973 0.107562
Si Si4 0.450106 0.297758 0.767694
Si Si5 0.060760 0.789523 0.483785
Si Si6 0.590785 0.670940 0.594289
Si Si7 0.233044 0.624094 0.890728
Si Si8 0.129829 0.735837 0.346831
O O1 0.586136 0.680587 0.360895
O O2 0.690048 0.825321 0.554020
O O3 0.016833 0.712245 0.725750
O O4 0.922146 0.996871 0.544618
O O5 0.729147 0.223434 0.308959
O O6 0.532796 0.226774 0.032470
O O7 0.548822 0.910699 0.173746
O O8 0.246658 0.032250 0.014543
O O9 0.180243 0.252699 0.200273
O O10 0.154236 0.909468 0.266007
O O11 0.000000 0.000000 0.000000
O O12 0.213312 0.327684 0.643476
O O13 0.693658 0.415199 0.957587
O O14 0.119819 0.758358 0.434971
O O15 0.500000 0.500000 0.500000
O O16 0.354775 0.673981 0.484336
O O17 0.125649 0.430087 0.812953
#
# Coordination Sequence:
#
# PCOD9058106 Si02
#       8
#     2   2   2   2   2   2   2   2
#     4  11  22  45  69 102 139 187 242 297 360 433
#     4  11  23  43  74 105 142 188 241 301 368 434
#     4  12  28  48  73 108 147 194 246 306 374 437
#     4  11  23  39  74 107 138 189 243 297 365 433
#     4  11  22  44  71 104 140 187 239 297 370 432
#     4  12  26  48  75  99 145 196 247 298 368 444
#     4  12  24  44  70 109 146 182 244 301 365 439
#     4  12  28  45  69 105 145 194 240 303 371 433
#
# _framework density 24.404494
#
# number of rings (size 3 to 8) (size 9 to 14) (size 15 to 20)
#    0.000    0.500    5.000    3.750    3.500    3.500 
#    2.250    1.250    0.000    0.000    0.000    0.000 
#    0.000    0.000    0.000    0.000    0.000    0.000 
#
# Total GULP energy -89425.464546 kJ/mol
# GULP energy per Si atom -5589.091534 kJ/mol
# Density = 2.434895 g / cm^3
# Si number density = 24.404494 Si / 1000 Ang^3
#
#
#
# Elastic Constant Matrix: (Units=GPa)
#
#
# Indices 1 2 3 4 5 6 
#
# 1 152.9416 13.6092 52.5142 10.1070 -24.3207 -19.8823
# 2 13.6092 60.1724 23.6349 12.8962 -8.0886 -12.1212
# 3 52.5142 23.6349 141.8899 16.5977 -31.6715 -16.9174
# 4 10.1070 12.8962 16.5977 26.8639 -3.5997 -5.2628
# 5 -24.3207 -8.0886 -31.6715 -3.5997 55.9336 5.6092
# 6 -19.8823 -12.1212 -16.9174 -5.2628 5.6092 25.7175
#
#
#
# Elastic Compliance Matrix: (Units=1/GPa)
#
#
# Indices 1 2 3 4 5 6 
#
# 1 0.008151 0.000292 -0.001993 -0.000826 0.001950 0.004534
# 2 0.000292 0.020300 -0.001565 -0.007376 0.000996 0.007037
# 3 -0.001993 -0.001565 0.009610 -0.003428 0.003878 0.002496
# 4 -0.000826 -0.007376 -0.003428 0.043619 -0.000834 0.002738
# 5 0.001950 0.000996 0.003878 -0.000834 0.021035 -0.000231
# 6 0.004534 0.007037 0.002496 0.002738 -0.000231 0.047959
#
#
# Mechanical properties :
#
#
# Convention : Reuss Voigt Hill
#
# Bulk Modulus (GPa) = 31.71778 59.39117 45.55448
# Shear Modulus (GPa) = 29.81235 39.38603 34.59919
#
# Velocity S-wave (km/s) = 3.49892 4.02168 3.76937
# Velocity P-wave (km/s) = 5.41739 6.77895 6.13605
#
# Compressibility (1/GPa) = 0.03152806
#
# Stress axis : x y z
#
# Youngs Moduli (GPa) = 122.68745 49.26121 104.05674
#
# Poissons Ratio (x) = -0.01437 0.20736
# Poissons Ratio (y) = -0.03579 0.16288
# Poissons Ratio (z) = 0.24449 0.07711
#
# Static dielectric constant tensor:
#      x y z
#    x 1.929510 0.065860 0.001680 
#    y 0.065860 2.064250 0.038830 
#    z 0.001680 0.038830 1.969760 
# 
# From -- ./inp_files/272975.got.cif
#   From: 2010.05.17/outbox.cif.g08.bks.cpg/sg2_137_cif.got.tgz:272975.got - 2010.06.03 11:33:40.
