data_PCOD9058888
_publ_section_title
;
Structure prediction by ZEFSAII (Michael W. Deem and Ramdas Pophale) SiO2 
 PCOD9058888
Probable space group: P -1
;
_chemical_formula_sum "Si O2"
_cell_formula_units_Z 16
_cell_length_a 14.717104
_cell_length_b 11.350284
_cell_length_c 8.848371
_cell_angle_alpha 71.956216
_cell_angle_beta 132.641096
_cell_angle_gamma 131.959305
_cell_volume 780.337902
_symmetry_space_group_name_H-M "P -1"
_symmetry_group_IT_number 2
_symmetry_cell_setting 'triclinic'
loop_
_space_group_symop_operation_xyz
x,y,z
-x,-y,-z
loop_
_atom_site_type_symbol
_atom_site_label
_atom_site_fract_x
_atom_site_fract_y
_atom_site_fract_z
Si Si1 0.308639 0.867595 0.820536
Si Si2 0.676852 0.644238 0.568422
Si Si3 0.869436 0.266088 0.037807
Si Si4 0.025410 0.233550 0.942028
Si Si5 0.427695 0.822419 0.434949
Si Si6 0.215045 0.498942 0.480527
Si Si7 0.736018 0.950766 0.542716
Si Si8 0.856868 0.493524 0.279664
O O1 0.270699 0.696291 0.834484
O O2 0.261104 0.922629 0.604456
O O3 0.213672 0.856168 0.865002
O O4 0.500000 0.000000 0.000000
O O5 0.500000 0.500000 0.500000
O O6 0.720957 0.573820 0.517043
O O7 0.703102 0.801537 0.476934
O O8 0.812681 0.718001 0.823151
O O9 0.724591 0.260782 0.819319
O O10 0.919961 0.219292 0.968323
O O11 0.041225 0.426922 0.237966
O O12 0.084686 0.383177 0.839928
O O13 0.905540 0.065978 0.779633
O O14 0.347022 0.694484 0.531472
O O15 0.579653 0.855300 0.515299
O O16 0.500000 0.000000 0.500000
O O17 0.193342 0.459999 0.648693
O O18 0.000000 0.500000 0.500000
#
# Coordination Sequence:
#
# PCOD9058888 Si02
#       8
#     2   2   2   2   2   2   2   2
#     4  12  26  39  66 106 142 166 213 283 345 399
#     4  11  26  47  68  94 133 186 235 269 318 399
#     4  11  23  38  65 104 131 176 211 273 347 400
#     4  11  25  43  71  97 134 180 226 274 331 401
#     4  12  22  36  67 100 136 165 217 279 337 397
#     4  11  24  43  66  97 132 180 224 268 336 399
#     4  12  23  45  66  97 140 176 221 275 329 397
#     4  12  23  43  69 102 138 166 215 284 348 395
#
# _framework density 20.503937000000001
#
# number of rings (size 3 to 8) (size 9 to 14) (size 15 to 20)
#    0.000    0.500    6.250    2.250    5.250    0.000 
#    0.000    7.500    0.000    0.000    0.000    0.000 
#    0.000    0.000    0.000    0.000    0.000    0.000 
#
# Total GULP energy -89375.028811 kJ/mol
# GULP energy per Si atom -5585.939301 kJ/mol
# Density = 2.045727 g / cm^3
# Si number density = 20.503937 Si / 1000 Ang^3
#
#
#
# Elastic Constant Matrix: (Units=GPa)
#
#
# Indices 1 2 3 4 5 6 
#
# 1 97.8494 45.8780 34.0436 16.3743 -7.9069 9.1544
# 2 45.8780 116.7742 24.2003 25.8684 -3.8306 3.7873
# 3 34.0436 24.2003 66.8684 16.8535 4.4223 10.1311
# 4 16.3743 25.8684 16.8535 32.6034 6.1940 -1.4984
# 5 -7.9069 -3.8306 4.4223 6.1940 34.2001 2.1973
# 6 9.1544 3.7873 10.1311 -1.4984 2.1973 39.9757
#
#
#
# Elastic Compliance Matrix: (Units=1/GPa)
#
#
# Indices 1 2 3 4 5 6 
#
# 1 0.014951 -0.003993 -0.005555 -0.002374 0.004284 -0.001962
# 2 -0.003993 0.012000 -0.000423 -0.007682 0.001899 -0.000508
# 3 -0.005555 -0.000423 0.020523 -0.007209 -0.002421 -0.004026
# 4 -0.002374 -0.007682 -0.007209 0.043578 -0.008704 0.005210
# 5 0.004284 0.001899 -0.002421 -0.008704 0.032503 -0.002660
# 6 -0.001962 -0.000508 -0.004026 0.005210 -0.002660 0.026874
#
#
# Mechanical properties :
#
#
# Convention : Reuss Voigt Hill
#
# Bulk Modulus (GPa) = 36.31919 54.41508 45.36714
# Shear Modulus (GPa) = 27.84757 33.18050 30.51403
#
# Velocity S-wave (km/s) = 3.68932 4.02711 3.86191
# Velocity P-wave (km/s) = 5.99164 6.94406 6.48536
#
# Compressibility (1/GPa) = 0.02753365
#
# Stress axis : x y z
#
# Youngs Moduli (GPa) = 66.88313 83.33084 48.72654
#
# Poissons Ratio (x) = 0.33274 0.27066
# Poissons Ratio (y) = 0.26706 0.02060
# Poissons Ratio (z) = 0.37151 0.03523
#
# Static dielectric constant tensor:
#      x y z
#    x 1.809030 -0.108150 -0.052190 
#    y -0.108150 1.880460 0.068890 
#    z -0.052190 0.068890 1.780290 
# 
# From -- ./inp_files/178812.got.cif
#   From: 2010.05.17/outbox.cif.g08.bks.cpg/sg2_90_cif.got.tgz:178812.got - 2010.06.03 11:33:40.
