data_PCOD9058496
_publ_section_title
;
Structure prediction by ZEFSAII (Michael W. Deem and Ramdas Pophale) SiO2 
 PCOD9058496
Probable space group: P -1
;
_chemical_formula_sum "Si O2"
_cell_formula_units_Z 14
_cell_length_a 14.323099
_cell_length_b 11.909399
_cell_length_c 21.150369
_cell_angle_alpha 28.085284
_cell_angle_beta 20.238745
_cell_angle_gamma 38.763490
_cell_volume 561.425193
_symmetry_space_group_name_H-M "P -1"
_symmetry_group_IT_number 2
_symmetry_cell_setting 'triclinic'
loop_
_space_group_symop_operation_xyz
x,y,z
-x,-y,-z
loop_
_atom_site_type_symbol
_atom_site_label
_atom_site_fract_x
_atom_site_fract_y
_atom_site_fract_z
Si Si1 0.330943 0.252953 0.049934
Si Si2 0.168804 0.726440 0.447413
Si Si3 0.859375 0.868622 0.089941
Si Si4 0.168865 0.342386 0.431312
Si Si5 0.115345 0.880767 0.787545
Si Si6 0.793234 0.282565 0.432919
Si Si7 0.584097 0.490368 0.261856
O O1 0.998496 0.214567 0.286002
O O2 0.390997 0.999425 0.157920
O O3 0.507842 0.488429 0.860729
O O4 0.421642 0.334876 0.881096
O O5 0.075777 0.746489 0.567676
O O6 0.309945 0.502080 0.468059
O O7 0.953104 0.691875 0.544410
O O8 0.823873 0.573428 0.261813
O O9 0.535168 0.876176 0.284481
O O10 0.045314 0.958024 0.863861
O O11 0.000000 0.000000 0.000000
O O12 0.000000 0.500000 0.500000
O O13 0.134889 0.093656 0.617243
O O14 0.369512 0.759243 0.672539
O O15 0.845695 0.639468 0.064145
#
# Coordination Sequence:
#
# PCOD9058496 Si02
#       7
#     2   2   2   2   2   2   2
#     4  12  25  47  71 112 151 193 249 305 377 446
#     4  12  25  48  76 106 150 201 243 308 375 440
#     4  11  26  47  76 107 153 197 251 304 374 447
#     4  12  27  43  75 111 148 190 251 308 370 439
#     4  11  24  47  75 115 145 195 252 313 370 441
#     4  11  27  49  71 108 152 199 246 304 378 447
#     4  11  22  45  78 104 152 193 252 309 371 437
#
# _framework density 24.936536
#
# number of rings (size 3 to 8) (size 9 to 14) (size 15 to 20)
#    0.000    0.571    5.714    1.714    2.000    2.286 
#    2.571    0.000    0.000    0.000    0.000    0.000 
#    0.000    0.000    0.000    0.000    0.000    0.000 
#
# Total GULP energy -78384.603334 kJ/mol
# GULP energy per Si atom -5598.900238 kJ/mol
# Density = 2.487978 g / cm^3
# Si number density = 24.936536 Si / 1000 Ang^3
#
#
#
# Elastic Constant Matrix: (Units=GPa)
#
#
# Indices 1 2 3 4 5 6 
#
# 1 126.4235 2.1725 38.9943 -1.8479 -10.7741 11.3853
# 2 2.1725 119.3405 35.3944 -4.1571 -9.4106 -2.7819
# 3 38.9943 35.3944 97.9367 8.6604 -15.3486 0.9529
# 4 -1.8479 -4.1571 8.6604 40.0701 -6.7809 -0.3159
# 5 -10.7741 -9.4106 -15.3486 -6.7809 26.8809 -13.4217
# 6 11.3853 -2.7819 0.9529 -0.3159 -13.4217 33.3329
#
#
#
# Elastic Compliance Matrix: (Units=1/GPa)
#
#
# Indices 1 2 3 4 5 6 
#
# 1 0.009516 0.001128 -0.004170 0.001589 0.000901 -0.002659
# 2 0.001128 0.009858 -0.003722 0.002462 0.003357 0.001919
# 3 -0.004170 -0.003722 0.014381 -0.002621 0.006151 0.003154
# 4 0.001589 0.002462 -0.002621 0.027340 0.008633 0.003473
# 5 0.000901 0.003357 0.006151 0.008633 0.055531 0.022238
# 6 -0.002659 0.001919 0.003154 0.003473 0.022238 0.039966
#
#
# Mechanical properties :
#
#
# Convention : Reuss Voigt Hill
#
# Bulk Modulus (GPa) = 49.43843 55.20258 52.32050
# Shear Modulus (GPa) = 28.27050 37.86608 33.06829
#
# Velocity S-wave (km/s) = 3.37070 3.90102 3.64551
# Velocity P-wave (km/s) = 5.91756 6.51735 6.22469
#
# Compressibility (1/GPa) = 0.02022718
#
# Stress axis : x y z
#
# Youngs Moduli (GPa) = 105.08363 101.44039 69.53530
#
# Poissons Ratio (x) = -0.11442 0.28996
# Poissons Ratio (y) = -0.11853 0.25881
# Poissons Ratio (z) = 0.43820 0.37757
#
# Static dielectric constant tensor:
#      x y z
#    x 1.975660 -0.008280 -0.076520 
#    y -0.008280 1.953450 0.006390 
#    z -0.076520 0.006390 2.009300 
# 
# From -- ./inp_files/597925.got.cif
#   From: 2010.05.17/outbox.cif.g08.bks.cpg/sg2_299_cif.got.tgz:597925.got - 2010.06.03 11:33:40.
