data_PCOD9058706
_publ_section_title
;
Structure prediction by ZEFSAII (Michael W. Deem and Ramdas Pophale) SiO2 
 PCOD9058706
Probable space group: P -1
;
_chemical_formula_sum "Si O2"
_cell_formula_units_Z 16
_cell_length_a 11.537636
_cell_length_b 9.296854
_cell_length_c 11.291179
_cell_angle_alpha 126.550035
_cell_angle_beta 86.707361
_cell_angle_gamma 128.412653
_cell_volume 661.722442
_symmetry_space_group_name_H-M "P -1"
_symmetry_group_IT_number 2
_symmetry_cell_setting 'triclinic'
loop_
_space_group_symop_operation_xyz
x,y,z
-x,-y,-z
loop_
_atom_site_type_symbol
_atom_site_label
_atom_site_fract_x
_atom_site_fract_y
_atom_site_fract_z
Si Si1 0.415677 0.717640 0.825151
Si Si2 0.702951 0.862412 0.714259
Si Si3 0.488464 0.901819 0.324113
Si Si4 0.524805 0.552968 0.162110
Si Si5 0.132624 0.645350 0.177746
Si Si6 0.006483 0.400213 0.326699
Si Si7 0.282558 0.537931 0.523133
Si Si8 0.162812 0.061769 0.025406
O O1 0.552257 0.787464 0.759279
O O2 0.391633 0.533129 0.832409
O O3 0.247075 0.538506 0.664904
O O4 0.500000 0.000000 0.000000
O O5 0.671177 0.619568 0.568215
O O6 0.765437 0.050636 0.693735
O O7 0.847435 0.030419 0.888606
O O8 0.588871 0.828356 0.297755
O O9 0.291082 0.679839 0.180427
O O10 0.500000 0.000000 0.500000
O O11 0.590243 0.155562 0.362375
O O12 0.500000 0.500000 0.000000
O O13 0.342206 0.360355 0.144311
O O14 0.060991 0.546341 0.268030
O O15 0.000000 0.500000 0.000000
O O16 0.142775 0.406309 0.365240
O O17 0.000000 0.500000 0.500000
O O18 0.840883 0.099549 0.151427
O O19 0.000000 0.000000 0.000000
#
# Coordination Sequence:
#
# PCOD9058706 Si02
#       8
#     2   2   2   2   2   2   2   2
#     4  11  25  43  69 107 148 190 240 311 387 442
#     4  11  24  43  74 105 138 191 253 308 362 453
#     4  12  24  43  74 108 142 187 251 308 367 447
#     4  11  27  44  71 104 147 191 247 309 378 449
#     4  12  26  45  77 109 147 197 262 304 373 459
#     4  12  28  46  71 106 151 195 243 316 389 449
#     4  12  25  44  73 105 147 190 251 310 378 445
#     4  11  22  47  72 101 143 194 251 297 378 456
#
# _framework density 24.179321999999999
#
# number of rings (size 3 to 8) (size 9 to 14) (size 15 to 20)
#    0.000    0.500    5.000    3.375    7.000    0.000 
#    0.000    0.625    0.000    0.000    0.000    0.000 
#    0.000    0.000    0.000    0.000    0.000    0.000 
#
# Total GULP energy -89143.259462 kJ/mol
# GULP energy per Si atom -5571.453716 kJ/mol
# Density = 2.412429 g / cm^3
# Si number density = 24.179322 Si / 1000 Ang^3
#
#
#
# Elastic Constant Matrix: (Units=GPa)
#
#
# Indices 1 2 3 4 5 6 
#
# 1 64.0039 34.6737 34.1541 -2.2230 -2.2826 -28.6888
# 2 34.6737 139.0073 35.9742 -13.0986 -9.8012 -52.3894
# 3 34.1541 35.9742 154.0642 -20.9079 -20.0549 -31.9875
# 4 -2.2230 -13.0986 -20.9079 40.8902 -12.7531 6.7856
# 5 -2.2826 -9.8012 -20.0549 -12.7531 52.4772 -0.9454
# 6 -28.6888 -52.3894 -31.9875 6.7856 -0.9454 43.5638
#
#
#
# Elastic Compliance Matrix: (Units=1/GPa)
#
#
# Indices 1 2 3 4 5 6 
#
# 1 0.023053 -0.000381 -0.002713 -0.002589 -0.000498 0.013123
# 2 -0.000381 0.014081 0.001461 0.003741 0.004392 0.017268
# 3 -0.002713 0.001461 0.009513 0.005819 0.005316 0.006165
# 4 -0.002589 0.003741 0.005819 0.031356 0.010474 0.002411
# 5 -0.000498 0.004392 0.005316 0.010474 0.024571 0.007759
# 6 0.013123 0.017268 0.006165 0.002411 0.007759 0.056683
#
#
# Mechanical properties :
#
#
# Convention : Reuss Voigt Hill
#
# Bulk Modulus (GPa) = 23.05159 62.96437 43.00798
# Shear Modulus (GPa) = 28.25129 44.20447 36.22788
#
# Velocity S-wave (km/s) = 3.42191 4.28038 3.87499
# Velocity P-wave (km/s) = 5.01666 7.10816 6.15194
#
# Compressibility (1/GPa) = 0.04338095
#
# Stress axis : x y z
#
# Youngs Moduli (GPa) = 43.37827 71.01683 105.12353
#
# Poissons Ratio (x) = 0.02708 0.28520
# Poissons Ratio (y) = 0.01654 -0.15363
# Poissons Ratio (z) = 0.11769 -0.10378
#
# Static dielectric constant tensor:
#      x y z
#    x 2.289150 -0.064330 0.139830 
#    y -0.064330 1.976970 -0.030580 
#    z 0.139830 -0.030580 2.063160 
# 
# From -- ./inp_files/420037.got.cif
#   From: 2010.05.17/outbox.cif.g08.bks.cpg/sg2_211_cif.got.tgz:420037.got - 2010.06.03 11:33:40.
