data_PCOD9058645
_publ_section_title
;
Structure prediction by ZEFSAII (Michael W. Deem and Ramdas Pophale) SiO2 
 PCOD9058645
Probable space group: P -1
;
_chemical_formula_sum "Si O2"
_cell_formula_units_Z 14
_cell_length_a 19.536398
_cell_length_b 7.506827
_cell_length_c 11.551210
_cell_angle_alpha 117.616940
_cell_angle_beta 152.353607
_cell_angle_gamma 78.551691
_cell_volume 596.622531
_symmetry_space_group_name_H-M "P -1"
_symmetry_group_IT_number 2
_symmetry_cell_setting 'triclinic'
loop_
_space_group_symop_operation_xyz
x,y,z
-x,-y,-z
loop_
_atom_site_type_symbol
_atom_site_label
_atom_site_fract_x
_atom_site_fract_y
_atom_site_fract_z
Si Si1 0.726577 0.101515 0.603040
Si Si2 0.873551 0.565709 0.670502
Si Si3 0.310385 0.956444 0.709089
Si Si4 0.727786 0.571885 0.694827
Si Si5 0.499559 0.782193 0.372120
Si Si6 0.868294 0.553092 0.387535
Si Si7 0.038398 0.972180 0.418641
O O1 0.711460 0.956336 0.420700
O O2 0.673906 0.300985 0.560200
O O3 0.607152 0.914906 0.460042
O O4 0.926073 0.244984 0.977536
O O5 0.829791 0.318695 0.584682
O O6 0.783652 0.629236 0.658833
O O7 0.821236 0.499214 0.437209
O O8 0.236631 0.034620 0.725513
O O9 0.500000 0.000000 0.000000
O O10 0.590320 0.655002 0.531680
O O11 0.889267 0.728773 0.068421
O O12 0.500000 0.000000 0.500000
O O13 0.307841 0.584454 0.989529
O O14 0.000000 0.500000 0.500000
O O15 0.960991 0.831230 0.599860
O O16 0.000000 0.000000 0.500000
#
# Coordination Sequence:
#
# PCOD9058645 Si02
#       7
#     2   2   2   2   2   2   2
#     4  11  23  46  76 103 147 186 243 301 358 438
#     4  11  22  46  77 102 147 186 242 300 358 439
#     4  11  23  41  70 111 142 191 241 301 369 429
#     4  11  25  47  75 109 138 196 242 294 371 425
#     4  12  29  48  71 107 147 191 245 304 363 437
#     4  12  28  48  70 106 145 190 240 302 370 437
#     4  12  26  45  74 103 148 192 244 299 371 442
#
# _framework density 23.465420999999999
#
# number of rings (size 3 to 8) (size 9 to 14) (size 15 to 20)
#    0.000    0.571    2.857    5.143    8.000    3.429 
#    0.000    0.000    0.000    0.000    0.000    0.000 
#    0.000    0.000    0.000    0.000    0.000    0.000 
#
# Total GULP energy -78092.373805 kJ/mol
# GULP energy per Si atom -5578.026700 kJ/mol
# Density = 2.341201 g / cm^3
# Si number density = 23.465421 Si / 1000 Ang^3
#
#
#
# Elastic Constant Matrix: (Units=GPa)
#
#
# Indices 1 2 3 4 5 6 
#
# 1 116.4089 9.0456 -1.9413 -17.2782 -4.4277 -18.9536
# 2 9.0456 68.4707 -2.9324 -15.9455 11.4976 -20.4166
# 3 -1.9413 -2.9324 91.2223 -25.5711 5.5821 -20.9547
# 4 -17.2782 -15.9455 -25.5711 35.1916 -0.7453 12.8382
# 5 -4.4277 11.4976 5.5821 -0.7453 40.7736 1.3801
# 6 -18.9536 -20.4166 -20.9547 12.8382 1.3801 41.1881
#
#
#
# Elastic Compliance Matrix: (Units=1/GPa)
#
#
# Indices 1 2 3 4 5 6 
#
# 1 0.010315 0.001828 0.003273 0.006323 0.000091 0.005344
# 2 0.001828 0.022237 0.007261 0.011656 -0.007265 0.012168
# 3 0.003273 0.007261 0.017743 0.014096 -0.004198 0.009879
# 4 0.006323 0.011656 0.014096 0.046412 -0.003733 0.001518
# 5 0.000091 -0.007265 -0.004198 -0.003733 0.027275 -0.005445
# 6 0.005344 0.012168 0.009879 0.001518 -0.005445 0.037505
#
#
# Mechanical properties :
#
#
# Convention : Reuss Voigt Hill
#
# Bulk Modulus (GPa) = 13.33003 31.60509 22.46756
# Shear Modulus (GPa) = 30.90821 41.55932 36.23377
#
# Velocity S-wave (km/s) = 3.63324 4.21300 3.93381
# Velocity P-wave (km/s) = 4.82634 6.09621 5.49806
#
# Compressibility (1/GPa) = 0.07501860
#
# Stress axis : x y z
#
# Youngs Moduli (GPa) = 96.94588 44.97006 56.36052
#
# Poissons Ratio (x) = -0.08221 -0.18445
# Poissons Ratio (y) = -0.17723 -0.40923
# Poissons Ratio (z) = -0.31728 -0.32652
#
# Static dielectric constant tensor:
#      x y z
#    x 1.896030 -0.063520 -0.066340 
#    y -0.063520 1.982230 -0.021930 
#    z -0.066340 -0.021930 1.840750 
# 
# From -- ./inp_files/175277.got.cif
#   From: 2010.05.17/outbox.cif.g08.bks.cpg/sg2_88_cif.got.tgz:175277.got - 2010.06.03 11:33:40.
