data_PCOD9058520
_publ_section_title
;
Structure prediction by ZEFSAII (Michael W. Deem and Ramdas Pophale) SiO2 
 PCOD9058520
Probable space group: P -1
;
_chemical_formula_sum "Si O2"
_cell_formula_units_Z 16
_cell_length_a 12.401158
_cell_length_b 9.481924
_cell_length_c 10.708645
_cell_angle_alpha 126.878754
_cell_angle_beta 118.691680
_cell_angle_gamma 48.109116
_cell_volume 743.114102
_symmetry_space_group_name_H-M "P -1"
_symmetry_group_IT_number 2
_symmetry_cell_setting 'triclinic'
loop_
_space_group_symop_operation_xyz
x,y,z
-x,-y,-z
loop_
_atom_site_type_symbol
_atom_site_label
_atom_site_fract_x
_atom_site_fract_y
_atom_site_fract_z
Si Si1 0.643182 0.647871 0.726111
Si Si2 0.603681 0.766703 0.484885
Si Si3 0.662896 0.151377 0.206359
Si Si4 0.138747 0.764524 0.466704
Si Si5 0.919579 0.566238 0.619735
Si Si6 0.874163 0.731960 0.014126
Si Si7 0.939799 0.229167 0.039053
Si Si8 0.356645 0.577133 0.881981
O O1 0.575959 0.711613 0.581024
O O2 0.504376 0.748383 0.793238
O O3 0.752844 0.394757 0.665894
O O4 0.754320 0.724858 0.855694
O O5 0.756873 0.741876 0.583606
O O6 0.623169 0.597134 0.301429
O O7 0.500000 0.000000 0.500000
O O8 0.745068 0.229700 0.377591
O O9 0.671837 0.224427 0.110506
O O10 0.762882 0.899957 0.141703
O O11 0.083060 0.626063 0.424375
O O12 0.000000 0.000000 0.500000
O O13 0.000000 0.500000 0.500000
O O14 0.993706 0.651579 0.792975
O O15 0.979456 0.810136 0.069247
O O16 0.000000 0.500000 0.000000
O O17 0.771066 0.362407 0.056339
O O18 0.000000 0.000000 0.000000
O O19 0.500000 0.500000 0.000000
#
# Coordination Sequence:
#
# PCOD9058520 Si02
#       8
#     2   2   2   2   2   2   2   2
#     4  11  25  48  71 105 151 191 245 305 365 437
#     4  11  25  44  70 101 140 188 240 294 363 434
#     4  12  25  47  70 107 151 190 241 307 369 438
#     4  11  23  44  73 107 140 185 247 299 362 439
#     4  11  22  46  68 100 139 182 244 300 352 423
#     4  12  27  46  72 109 144 196 248 302 371 436
#     4  12  25  47  74  98 146 194 243 302 362 432
#     4  12  28  46  69 109 145 190 244 300 373 440
#
# _framework density 21.531015
#
# number of rings (size 3 to 8) (size 9 to 14) (size 15 to 20)
#    0.000    0.500    7.500    1.500    5.250    2.000 
#    0.000    0.000    0.000    0.000    0.000    0.000 
#    0.000    0.000    0.000    0.000    0.000    0.000 
#
# Total GULP energy -89174.704613 kJ/mol
# GULP energy per Si atom -5573.419038 kJ/mol
# Density = 2.148201 g / cm^3
# Si number density = 21.531015 Si / 1000 Ang^3
#
#
#
# Elastic Constant Matrix: (Units=GPa)
#
#
# Indices 1 2 3 4 5 6 
#
# 1 161.0607 62.1091 22.7172 3.9750 8.3438 -37.1640
# 2 62.1091 143.0118 11.7776 20.5520 7.7525 -27.1781
# 3 22.7172 11.7776 70.8253 4.1981 14.1649 -20.9404
# 4 3.9750 20.5520 4.1981 39.0356 -9.4962 2.6470
# 5 8.3438 7.7525 14.1649 -9.4962 35.6007 2.1862
# 6 -37.1640 -27.1781 -20.9404 2.6470 2.1862 34.8782
#
#
#
# Elastic Compliance Matrix: (Units=1/GPa)
#
#
# Indices 1 2 3 4 5 6 
#
# 1 0.009094 -0.002004 0.000651 -0.001223 -0.002820 0.008789
# 2 -0.002004 0.010775 0.003170 -0.007837 -0.005789 0.009122
# 3 0.000651 0.003170 0.021629 -0.008358 -0.012758 0.017584
# 4 -0.001223 -0.007837 -0.008358 0.035713 0.015835 -0.016130
# 5 -0.002820 -0.005789 -0.012758 0.015835 0.040473 -0.018914
# 6 0.008789 0.009122 0.017584 -0.016130 -0.018914 0.058111
#
#
# Mechanical properties :
#
#
# Convention : Reuss Voigt Hill
#
# Bulk Modulus (GPa) = 22.15654 63.12284 42.63969
# Shear Modulus (GPa) = 26.70864 40.45581 33.58223
#
# Velocity S-wave (km/s) = 3.52586 4.33939 3.95361
# Velocity P-wave (km/s) = 5.18540 7.38159 6.37873
#
# Compressibility (1/GPa) = 0.04513340
#
# Stress axis : x y z
#
# Youngs Moduli (GPa) = 109.96062 92.80474 46.23396
#
# Poissons Ratio (x) = 0.18601 -0.03012
# Poissons Ratio (y) = 0.22039 -0.14657
# Poissons Ratio (z) = -0.07163 -0.29421
#
# Static dielectric constant tensor:
#      x y z
#    x -3.284580 1.151480 4.488140 
#    y 1.151480 1.551370 -0.988630 
#    z 4.488140 -0.988630 -2.218220 
# 
# From -- ./inp_files/420093.got.cif
#   From: 2010.05.17/outbox.cif.g08.bks.cpg/sg2_211_cif.got.tgz:420093.got - 2010.06.03 11:33:40.
