data_PCOD9058179
_publ_section_title
;
Structure prediction by ZEFSAII (Michael W. Deem and Ramdas Pophale) SiO2 
 PCOD9058179
Probable space group: P -1
;
_chemical_formula_sum "Si O2"
_cell_formula_units_Z 12
_cell_length_a 8.657957
_cell_length_b 17.371316
_cell_length_c 12.142459
_cell_angle_alpha 30.574669
_cell_angle_beta 146.159430
_cell_angle_gamma 142.742536
_cell_volume 495.807875
_symmetry_space_group_name_H-M "P -1"
_symmetry_group_IT_number 2
_symmetry_cell_setting 'triclinic'
loop_
_space_group_symop_operation_xyz
x,y,z
-x,-y,-z
loop_
_atom_site_type_symbol
_atom_site_label
_atom_site_fract_x
_atom_site_fract_y
_atom_site_fract_z
Si Si1 0.696122 0.909155 0.492707
Si Si2 0.024872 0.064628 0.812394
Si Si3 0.794776 0.441815 0.738553
Si Si4 0.302481 0.845466 0.133653
Si Si5 0.378790 0.724458 0.729637
Si Si6 0.433818 0.763375 0.961468
O O1 0.478735 0.824937 0.371050
O O2 0.611959 0.778111 0.702218
O O3 0.619659 0.066760 0.292396
O O4 0.000000 0.000000 0.500000
O O5 0.782116 0.137489 0.536717
O O6 0.319340 0.202957 0.838599
O O7 0.053637 0.920831 0.933231
O O8 0.000000 0.000000 0.000000
O O9 0.500000 0.500000 0.500000
O O10 0.762411 0.305620 0.795300
O O11 0.098899 0.572928 0.731200
O O12 0.820561 0.364009 0.969300
O O13 0.500000 0.000000 0.000000
O O14 0.489751 0.710257 0.937476
#
# Coordination Sequence:
#
# PCOD9058179 Si02
#       6
#     2   2   2   2   2   2
#     4  11  26  44  73 107 139 190 247 294 352 429
#     4  11  22  44  74 106 136 188 246 288 352 427
#     4  12  25  45  74 109 148 191 233 300 368 424
#     4  11  22  44  73 103 139 189 243 287 354 438
#     4  12  25  46  74 108 147 187 236 303 364 418
#     4  11  24  44  73 106 140 191 240 289 361 436
#
# _framework density 24.202923999999999
#
# number of rings (size 3 to 8) (size 9 to 14) (size 15 to 20)
#    0.000    0.667    8.333    1.000    4.667    0.667 
#    0.000    0.833    0.000    0.000    0.000    0.000 
#    0.000    0.000    0.000    0.000    0.000    0.000 
#
# Total GULP energy -66886.432768 kJ/mol
# GULP energy per Si atom -5573.869397 kJ/mol
# Density = 2.414784 g / cm^3
# Si number density = 24.202924 Si / 1000 Ang^3
#
#
#
# Elastic Constant Matrix: (Units=GPa)
#
#
# Indices 1 2 3 4 5 6 
#
# 1 129.6749 87.2308 35.8159 -25.3511 -37.7252 -4.5737
# 2 87.2308 177.5874 51.9409 -16.1821 -18.6937 -7.6413
# 3 35.8159 51.9409 60.7930 -15.7859 -25.5994 -6.5907
# 4 -25.3511 -16.1821 -15.7859 41.8920 0.6553 -9.9785
# 5 -37.7252 -18.6937 -25.5994 0.6553 52.1184 -6.3400
# 6 -4.5737 -7.6413 -6.5907 -9.9785 -6.3400 49.5939
#
#
#
# Elastic Compliance Matrix: (Units=1/GPa)
#
#
# Indices 1 2 3 4 5 6 
#
# 1 0.017172 -0.007320 0.004558 0.010208 0.012487 0.004712
# 2 -0.007320 0.010655 -0.008360 -0.003764 -0.005735 -0.001635
# 3 0.004558 -0.008360 0.032536 0.013513 0.017129 0.008365
# 4 0.010208 -0.003764 0.013513 0.036133 0.013580 0.011163
# 5 0.012487 -0.005735 0.017129 0.013580 0.035607 0.009829
# 6 0.004712 -0.001635 0.008365 0.011163 0.009829 0.024961
#
#
# Mechanical properties :
#
#
# Convention : Reuss Voigt Hill
#
# Bulk Modulus (GPa) = 26.23560 79.78118 53.00839
# Shear Modulus (GPa) = 26.03961 41.59206 33.81583
#
# Velocity S-wave (km/s) = 3.28363 4.14994 3.74194
# Velocity P-wave (km/s) = 5.02391 7.48316 6.37328
#
# Compressibility (1/GPa) = 0.03811615
#
# Stress axis : x y z
#
# Youngs Moduli (GPa) = 58.23485 93.85252 30.73539
#
# Poissons Ratio (x) = 0.68704 -0.14008
# Poissons Ratio (y) = 0.42630 0.25696
# Poissons Ratio (z) = -0.26541 0.78465
#
# Static dielectric constant tensor:
#      x y z
#    x 2.107460 0.209330 0.022020 
#    y 0.209330 2.134470 0.035520 
#    z 0.022020 0.035520 1.963180 
# 
# From -- ./inp_files/401745.got.cif
#   From: 2010.05.17/outbox.cif.g08.bks.cpg/sg2_201_cif.got.tgz:401745.got - 2010.06.03 11:33:40.
