data_PCOD9058435
_publ_section_title
;
Structure prediction by ZEFSAII (Michael W. Deem and Ramdas Pophale) SiO2 
 PCOD9058435
Probable space group: P -1
;
_chemical_formula_sum "Si O2"
_cell_formula_units_Z 16
_cell_length_a 18.147100
_cell_length_b 16.257896
_cell_length_c 10.883503
_cell_angle_alpha 146.589507
_cell_angle_beta 46.411778
_cell_angle_gamma 157.154315
_cell_volume 636.851221
_symmetry_space_group_name_H-M "P -1"
_symmetry_group_IT_number 2
_symmetry_cell_setting 'triclinic'
loop_
_space_group_symop_operation_xyz
x,y,z
-x,-y,-z
loop_
_atom_site_type_symbol
_atom_site_label
_atom_site_fract_x
_atom_site_fract_y
_atom_site_fract_z
Si Si1 0.658076 0.895309 0.975925
Si Si2 0.237034 0.241576 0.655988
Si Si3 0.870895 0.651492 0.470880
Si Si4 0.469223 0.136038 0.177427
Si Si5 0.164135 0.767372 0.292020
Si Si6 0.975969 0.738645 0.123264
Si Si7 0.239554 0.313693 0.131882
Si Si8 0.374490 0.141553 0.770208
O O1 0.480555 0.542352 0.749546
O O2 0.613207 0.927756 0.941928
O O3 0.882148 0.113894 0.972253
O O4 0.660464 0.980715 0.210955
O O5 0.196969 0.365652 0.842194
O O6 0.129238 0.013669 0.386056
O O7 0.093089 0.011019 0.647454
O O8 0.706812 0.492089 0.358410
O O9 0.749213 0.549441 0.602492
O O10 0.948540 0.580199 0.291960
O O11 0.317214 0.997983 0.289706
O O12 0.500000 0.000000 0.000000
O O13 0.259402 0.935953 0.524476
O O14 0.115733 0.530924 0.056711
O O15 0.385967 0.556796 0.159575
O O16 0.312750 0.237424 0.978261
O O17 0.000000 0.000000 0.000000
#
# Coordination Sequence:
#
# PCOD9058435 Si02
#       8
#     2   2   2   2   2   2   2   2
#     4  12  26  45  73 109 145 192 245 312 367 436
#     4  11  24  44  69 108 144 192 248 304 366 441
#     4  12  24  43  79 107 142 196 251 303 371 439
#     4  12  26  47  73 107 147 193 246 307 374 440
#     4  12  26  48  76 110 149 195 251 306 372 455
#     4  11  25  46  71 102 150 194 243 306 374 434
#     4  11  22  45  73 107 147 199 244 299 368 445
#     4  11  26  45  74 110 151 193 248 304 371 449
#
# _framework density 25.123607
#
# number of rings (size 3 to 8) (size 9 to 14) (size 15 to 20)
#    0.000    0.500    2.500    6.375    1.750    4.000 
#    0.000    2.500    0.000    0.000    0.000    0.000 
#    0.000    0.000    0.000    0.000    0.000    0.000 
#
# Total GULP energy -89559.399414 kJ/mol
# GULP energy per Si atom -5597.462463 kJ/mol
# Density = 2.506642 g / cm^3
# Si number density = 25.123607 Si / 1000 Ang^3
#
#
#
# Elastic Constant Matrix: (Units=GPa)
#
#
# Indices 1 2 3 4 5 6 
#
# 1 106.6908 51.6899 55.6757 -17.6789 13.4533 -10.8428
# 2 51.6899 182.6383 37.9446 -14.7421 10.6694 -13.8373
# 3 55.6757 37.9446 76.5474 -12.6616 -0.5083 -10.4403
# 4 -17.6789 -14.7421 -12.6616 46.4018 -4.6549 5.1993
# 5 13.4533 10.6694 -0.5083 -4.6549 53.3358 -5.7263
# 6 -10.8428 -13.8373 -10.4403 5.1993 -5.7263 42.2019
#
#
#
# Elastic Compliance Matrix: (Units=1/GPa)
#
#
# Indices 1 2 3 4 5 6 
#
# 1 0.016974 -0.002113 -0.010899 0.002429 -0.003733 0.000166
# 2 -0.002113 0.006549 -0.001451 0.000697 -0.000614 0.001076
# 3 -0.010899 -0.001451 0.022342 0.001564 0.003663 0.002555
# 4 0.002429 0.000697 0.001564 0.023406 0.001146 -0.001489
# 5 -0.003733 -0.000614 0.003663 0.001146 0.020200 0.002345
# 6 0.000166 0.001076 0.002555 -0.001489 0.002345 0.025225
#
#
# Mechanical properties :
#
#
# Convention : Reuss Voigt Hill
#
# Bulk Modulus (GPa) = 59.03763 72.94409 65.99086
# Shear Modulus (GPa) = 33.49673 43.09232 38.29453
#
# Velocity S-wave (km/s) = 3.65537 4.14601 3.90839
# Velocity P-wave (km/s) = 6.43160 7.21223 6.83307
#
# Compressibility (1/GPa) = 0.01693835
#
# Stress axis : x y z
#
# Youngs Moduli (GPa) = 58.91343 152.70638 44.75898
#
# Poissons Ratio (x) = 0.32266 0.48782
# Poissons Ratio (y) = 0.12448 0.06496
# Poissons Ratio (z) = 0.64209 0.22162
#
# Static dielectric constant tensor:
#      x y z
#    x 2.026950 -0.036260 0.042950 
#    y -0.036260 1.979180 -0.028240 
#    z 0.042950 -0.028240 2.099390 
# 
# From -- ./inp_files/472495.got.cif
#   From: 2010.05.17/outbox.cif.g08.bks.cpg/sg2_237_cif.got.tgz:472495.got - 2010.06.03 11:33:40.
