data_PCOD9058030
_publ_section_title
;
Structure prediction by ZEFSAII (Michael W. Deem and Ramdas Pophale) SiO2 
 PCOD9058030
Probable space group: P -1
;
_chemical_formula_sum "Si O2"
_cell_formula_units_Z 16
_cell_length_a 5.421573
_cell_length_b 10.735625
_cell_length_c 17.372989
_cell_angle_alpha 73.346626
_cell_angle_beta 125.637323
_cell_angle_gamma 87.252512
_cell_volume 756.750868
_symmetry_space_group_name_H-M "P -1"
_symmetry_group_IT_number 2
_symmetry_cell_setting 'triclinic'
loop_
_space_group_symop_operation_xyz
x,y,z
-x,-y,-z
loop_
_atom_site_type_symbol
_atom_site_label
_atom_site_fract_x
_atom_site_fract_y
_atom_site_fract_z
Si Si1 0.499267 0.357872 0.766928
Si Si2 0.175810 0.090784 0.063847
Si Si3 0.128457 0.685132 0.780302
Si Si4 0.163654 0.466186 0.117603
Si Si5 0.757302 0.129350 0.110365
Si Si6 0.139742 0.415369 0.392432
Si Si7 0.386510 0.676741 0.377237
Si Si8 0.238998 0.131451 0.783332
O O1 0.766628 0.406832 0.848521
O O2 0.580471 0.288153 0.711571
O O3 0.374757 0.253276 0.814214
O O4 0.212401 0.490578 0.673614
O O5 0.377745 0.170274 0.037233
O O6 0.928962 0.177864 0.062933
O O7 0.468817 0.983019 0.180104
O O8 0.000000 0.000000 0.000000
O O9 0.483979 0.629657 0.821583
O O10 0.113477 0.825099 0.795310
O O11 0.041157 0.594814 0.848996
O O12 0.892190 0.676946 0.669357
O O13 0.000000 0.500000 0.000000
O O14 0.842441 0.966001 0.149759
O O15 0.323617 0.528463 0.387874
O O16 0.313686 0.336286 0.512014
O O17 0.075861 0.787838 0.332322
#
# Coordination Sequence:
#
# PCOD9058030 Si02
#       8
#     2   2   2   2   2   2   2   2
#     4  10  19  36  59  87 125 154 200 257 302 357
#     4  10  21  40  58  87 114 156 210 249 294 351
#     4  11  22  43  61  88 123 161 199 248 297 373
#     4  11  24  41  60  90 122 161 200 244 304 362
#     4  10  22  39  62  83 122 159 197 248 301 353
#     4   9  20  33  61  88 118 158 204 248 307 363
#     4  10  17  37  58  89 118 157 202 258 305 350
#     4   9  22  34  58  85 122 150 200 252 303 346
#
# _framework density 21.14302
#
# number of rings (size 3 to 8) (size 9 to 14) (size 15 to 20)
#    0.750    1.250    1.250    2.625    0.000    2.000 
#    2.250    0.625    0.000    1.500    0.000    0.000 
#    0.000    0.000    0.000    0.000    0.000    0.000 
#
# Total GULP energy -89105.952084 kJ/mol
# GULP energy per Si atom -5569.122005 kJ/mol
# Density = 2.109490 g / cm^3
# Si number density = 21.143020 Si / 1000 Ang^3
#
#
#
# Elastic Constant Matrix: (Units=GPa)
#
#
# Indices 1 2 3 4 5 6 
#
# 1 96.0944 21.9585 18.0463 5.8347 2.3869 -8.3431
# 2 21.9585 51.0338 38.6902 8.1090 2.9656 2.6746
# 3 18.0463 38.6902 111.7592 22.8779 6.6902 -8.8870
# 4 5.8347 8.1090 22.8779 33.0339 -2.7385 -2.9044
# 5 2.3869 2.9656 6.6902 -2.7385 25.0136 2.8617
# 6 -8.3431 2.6746 -8.8870 -2.9044 2.8617 26.3172
#
#
#
# Elastic Compliance Matrix: (Units=1/GPa)
#
#
# Indices 1 2 3 4 5 6 
#
# 1 0.012083 -0.005732 0.000662 -0.000881 -0.001282 0.004679
# 2 -0.005732 0.030236 -0.010253 0.000006 0.000669 -0.008425
# 3 0.000662 -0.010253 0.014665 -0.007598 -0.004269 0.005830
# 4 -0.000881 0.000006 -0.007598 0.036231 0.006025 0.000498
# 5 -0.001282 0.000669 -0.004269 0.006025 0.042494 -0.005872
# 6 0.004679 -0.008425 0.005830 0.000498 -0.005872 0.043000
#
#
# Mechanical properties :
#
#
# Convention : Reuss Voigt Hill
#
# Bulk Modulus (GPa) = 37.96681 46.25302 42.10991
# Shear Modulus (GPa) = 22.92158 28.88576 25.90367
#
# Velocity S-wave (km/s) = 3.29617 3.70023 3.50403
# Velocity P-wave (km/s) = 5.69934 6.33872 6.02751
#
# Compressibility (1/GPa) = 0.02633879
#
# Stress axis : x y z
#
# Youngs Moduli (GPa) = 82.75754 33.07300 68.19048
#
# Poissons Ratio (x) = 0.18958 -0.04517
# Poissons Ratio (y) = 0.47438 0.69916
# Poissons Ratio (z) = -0.05482 0.33910
#
# Static dielectric constant tensor:
#      x y z
#    x 1.890330 0.009020 -0.015400 
#    y 0.009020 1.773150 -0.011240 
#    z -0.015400 -0.011240 1.756680 
# 
# From -- ./inp_files/548888.got.cif
#   From: 2010.05.17/outbox.cif.g08.bks.cpg/sg2_275_cif.got.tgz:548888.got - 2010.06.03 11:33:40.
