data_PCOD9058791
_publ_section_title
;
Structure prediction by ZEFSAII (Michael W. Deem and Ramdas Pophale) SiO2 
 PCOD9058791
Probable space group: P -1
;
_chemical_formula_sum "Si O2"
_cell_formula_units_Z 12
_cell_length_a 8.076326
_cell_length_b 11.871899
_cell_length_c 9.542093
_cell_angle_alpha 46.345014
_cell_angle_beta 63.329220
_cell_angle_gamma 40.097854
_cell_volume 420.154645
_symmetry_space_group_name_H-M "P -1"
_symmetry_group_IT_number 2
_symmetry_cell_setting 'triclinic'
loop_
_space_group_symop_operation_xyz
x,y,z
-x,-y,-z
loop_
_atom_site_type_symbol
_atom_site_label
_atom_site_fract_x
_atom_site_fract_y
_atom_site_fract_z
Si Si1 0.124116 0.368230 0.786550
Si Si2 0.550184 0.581965 0.776450
Si Si3 0.302262 0.064255 0.740201
Si Si4 0.966990 0.904475 0.435767
Si Si5 0.393688 0.726800 0.205179
Si Si6 0.128465 0.253702 0.163398
O O1 0.812007 0.529360 0.749594
O O2 0.318698 0.388564 0.752090
O O3 0.239148 0.249057 0.698464
O O4 0.181637 0.198990 0.027050
O O5 0.597778 0.439515 0.745839
O O6 0.296096 0.841650 0.655351
O O7 0.500000 0.500000 0.000000
O O8 0.119669 0.166475 0.589440
O O9 0.601596 0.892543 0.733810
O O10 0.285361 0.919548 0.969326
O O11 0.212500 0.830437 0.323504
O O12 0.977992 0.210278 0.338924
O O13 0.000000 0.500000 0.000000
#
# Coordination Sequence:
#
# PCOD9058791 Si02
#       6
#     2   2   2   2   2   2
#     4  11  26  51  82 120 170 226 271 351 430 494
#     4  12  25  48  87 124 171 223 278 345 425 508
#     4  11  22  50  81 114 167 222 276 347 424 499
#     4  12  25  50  85 124 165 222 285 343 422 510
#     4  11  24  49  82 123 175 215 277 354 422 499
#     4  11  26  49  80 119 169 223 282 349 418 500
#
# _framework density 28.560912999999999
#
# number of rings (size 3 to 8) (size 9 to 14) (size 15 to 20)
#    0.000    0.667    3.333    5.000    2.333    0.000 
#    9.000   12.500    0.000    8.000    0.000    0.000 
#    0.000    0.000    0.000    0.000    0.000    0.000 
#
# Total GULP energy -67261.304983 kJ/mol
# GULP energy per Si atom -5605.108749 kJ/mol
# Density = 2.849591 g / cm^3
# Si number density = 28.560913 Si / 1000 Ang^3
#
#
#
# Elastic Constant Matrix: (Units=GPa)
#
#
# Indices 1 2 3 4 5 6 
#
# 1 226.9400 72.7940 26.7925 4.0506 -9.4936 -14.4073
# 2 72.7940 144.3776 27.5900 9.3064 -10.6089 -23.3279
# 3 26.7925 27.5900 140.8202 27.2083 -3.0758 -18.8158
# 4 4.0506 9.3064 27.2083 47.0809 1.2668 -3.2173
# 5 -9.4936 -10.6089 -3.0758 1.2668 37.2664 6.2495
# 6 -14.4073 -23.3279 -18.8158 -3.2173 6.2495 69.0673
#
#
#
# Elastic Compliance Matrix: (Units=1/GPa)
#
#
# Indices 1 2 3 4 5 6 
#
# 1 0.005309 -0.002541 -0.000561 0.000359 0.000560 0.000062
# 2 -0.002541 0.008861 -0.000749 -0.000998 0.001499 0.002076
# 3 -0.000561 -0.000749 0.008474 -0.004590 0.000213 0.001705
# 4 0.000359 -0.000998 -0.004590 0.024077 -0.001345 -0.000269
# 5 0.000560 0.001499 0.000213 -0.001345 0.027784 -0.001896
# 6 0.000062 0.002076 0.001705 -0.000269 -0.001896 0.015816
#
#
# Mechanical properties :
#
#
# Convention : Reuss Voigt Hill
#
# Bulk Modulus (GPa) = 66.93350 85.16565 76.04957
# Shear Modulus (GPa) = 48.54117 56.34699 52.44408
#
# Velocity S-wave (km/s) = 4.12705 4.44652 4.28976
# Velocity P-wave (km/s) = 6.79679 7.49972 7.15689
#
# Compressibility (1/GPa) = 0.01494020
#
# Stress axis : x y z
#
# Youngs Moduli (GPa) = 188.36508 112.85611 118.00523
#
# Poissons Ratio (x) = 0.28681 0.06619
# Poissons Ratio (y) = 0.47871 0.08844
# Poissons Ratio (z) = 0.10566 0.08458
#
# Static dielectric constant tensor:
#      x y z
#    x 2.221120 0.062940 -0.032840 
#    y 0.062940 2.308700 -0.004130 
#    z -0.032840 -0.004130 2.257530 
# 
# From -- ./inp_files/237942.got.cif
#   From: 2010.05.17/outbox.cif.g08.bks.cpg/sg2_119_cif.got.tgz:237942.got - 2010.06.03 11:33:40.
