data_PCOD9058107
_publ_section_title
;
Structure prediction by ZEFSAII (Michael W. Deem and Ramdas Pophale) SiO2 
 PCOD9058107
Probable space group: P -1
;
_chemical_formula_sum "Si O2"
_cell_formula_units_Z 14
_cell_length_a 17.826724
_cell_length_b 11.702328
_cell_length_c 11.441137
_cell_angle_alpha 37.014961
_cell_angle_beta 151.093379
_cell_angle_gamma 146.929758
_cell_volume 610.208434
_symmetry_space_group_name_H-M "P -1"
_symmetry_group_IT_number 2
_symmetry_cell_setting 'triclinic'
loop_
_space_group_symop_operation_xyz
x,y,z
-x,-y,-z
loop_
_atom_site_type_symbol
_atom_site_label
_atom_site_fract_x
_atom_site_fract_y
_atom_site_fract_z
Si Si1 0.664240 0.834902 0.524682
Si Si2 0.953523 0.969993 0.097427
Si Si3 0.164416 0.364581 0.409080
Si Si4 0.509898 0.362714 0.778571
Si Si5 0.833767 0.177867 0.953297
Si Si6 0.560617 0.139235 0.257029
Si Si7 0.704676 0.560874 0.220558
O O1 0.645648 0.609683 0.730433
O O2 0.529823 0.772617 0.284319
O O3 0.617294 0.958264 0.458723
O O4 0.862119 0.988056 0.627626
O O5 0.800094 0.730957 0.109890
O O6 0.900806 0.132908 0.958301
O O7 0.000000 0.000000 0.000000
O O8 0.328130 0.364623 0.564490
O O9 0.179527 0.602608 0.233978
O O10 0.191104 0.329839 0.609097
O O11 0.979192 0.204438 0.227368
O O12 0.563982 0.258123 0.042898
O O13 0.639839 0.981560 0.872509
O O14 0.689830 0.329030 0.363505
O O15 0.500000 0.500000 0.000000
#
# Coordination Sequence:
#
# PCOD9058107 Si02
#       7
#     2   2   2   2   2   2   2
#     4  11  26  44  69 105 146 190 232 298 372 411
#     4  12  27  46  69 105 148 189 236 302 366 422
#     4  11  24  45  74 106 142 184 253 293 352 439
#     4  11  22  44  71 104 142 184 241 301 346 441
#     4  11  25  46  75 105 139 197 241 298 359 430
#     4  12  25  45  75 105 139 193 245 289 365 432
#     4  12  26  46  73 105 143 191 244 296 357 435
#
# _framework density 22.942979999999999
#
# number of rings (size 3 to 8) (size 9 to 14) (size 15 to 20)
#    0.000    0.571    5.714    1.286    4.000    2.286 
#    2.571    0.000    0.000    0.000    0.000    0.000 
#    0.000    0.000    0.000    0.000    0.000    0.000 
#
# Total GULP energy -78379.082168 kJ/mol
# GULP energy per Si atom -5598.505869 kJ/mol
# Density = 2.289076 g / cm^3
# Si number density = 22.942980 Si / 1000 Ang^3
#
#
#
# Elastic Constant Matrix: (Units=GPa)
#
#
# Indices 1 2 3 4 5 6 
#
# 1 105.6726 47.1386 8.2792 9.3287 -10.5132 -5.6115
# 2 47.1386 124.5916 20.0551 14.9197 7.6951 -5.5560
# 3 8.2792 20.0551 56.6409 5.0386 -7.5997 2.6345
# 4 9.3287 14.9197 5.0386 22.6779 -1.2010 5.6240
# 5 -10.5132 7.6951 -7.5997 -1.2010 35.0320 -0.7114
# 6 -5.6115 -5.5560 2.6345 5.6240 -0.7114 52.2413
#
#
#
# Elastic Compliance Matrix: (Units=1/GPa)
#
#
# Indices 1 2 3 4 5 6 
#
# 1 0.012244 -0.004741 0.000670 -0.002076 0.004812 0.001066
# 2 -0.004741 0.011401 -0.003584 -0.005357 -0.004860 0.001394
# 3 0.000670 -0.003584 0.019728 -0.001767 0.005186 -0.001043
# 4 -0.002076 -0.005357 -0.001767 0.050477 0.001777 -0.006113
# 5 0.004812 -0.004860 0.005186 0.001777 0.032243 -0.000014
# 6 0.001066 0.001394 -0.001043 -0.006113 -0.000014 0.020115
#
#
# Mechanical properties :
#
#
# Convention : Reuss Voigt Hill
#
# Bulk Modulus (GPa) = 35.63606 48.65007 42.14307
# Shear Modulus (GPa) = 29.26139 36.08571 32.67355
#
# Velocity S-wave (km/s) = 3.57514 3.97021 3.77784
# Velocity P-wave (km/s) = 5.71037 6.50135 6.11866
#
# Compressibility (1/GPa) = 0.02806146
#
# Stress axis : x y z
#
# Youngs Moduli (GPa) = 81.67002 87.71215 50.68979
#
# Poissons Ratio (x) = 0.41589 -0.03395
# Poissons Ratio (y) = 0.38724 0.18168
# Poissons Ratio (z) = -0.05470 0.31437
#
# Static dielectric constant tensor:
#      x y z
#    x 1.855890 -0.032540 -0.039600 
#    y -0.032540 1.847900 -0.013150 
#    z -0.039600 -0.013150 1.894850 
# 
# From -- ./inp_files/261900.got.cif
#   From: 2010.05.17/outbox.cif.g08.bks.cpg/sg2_131_cif.got.tgz:261900.got - 2010.06.03 11:33:40.
