data_PCOD9058584
_publ_section_title
;
Structure prediction by ZEFSAII (Michael W. Deem and Ramdas Pophale) SiO2 
 PCOD9058584
Probable space group: P -1
;
_chemical_formula_sum "Si O2"
_cell_formula_units_Z 14
_cell_length_a 9.232729
_cell_length_b 10.831848
_cell_length_c 9.526018
_cell_angle_alpha 120.512675
_cell_angle_beta 71.037537
_cell_angle_gamma 134.830475
_cell_volume 581.218439
_symmetry_space_group_name_H-M "P -1"
_symmetry_group_IT_number 2
_symmetry_cell_setting 'triclinic'
loop_
_space_group_symop_operation_xyz
x,y,z
-x,-y,-z
loop_
_atom_site_type_symbol
_atom_site_label
_atom_site_fract_x
_atom_site_fract_y
_atom_site_fract_z
Si Si1 0.456262 0.993101 0.346420
Si Si2 0.020415 0.833223 0.979072
Si Si3 0.509089 0.796902 0.005238
Si Si4 0.800123 0.438080 0.452268
Si Si5 0.890941 0.415991 0.133691
Si Si6 0.878623 0.999826 0.663532
Si Si7 0.697427 0.671439 0.748408
O O1 0.641537 0.208788 0.360178
O O2 0.256900 0.955688 0.333446
O O3 0.500000 0.000000 0.500000
O O4 0.455333 0.832175 0.190945
O O5 0.981865 0.859251 0.167190
O O6 0.995108 0.647656 0.873108
O O7 0.887431 0.805716 0.875126
O O8 0.260441 0.011183 0.984723
O O9 0.343163 0.762173 0.935325
O O10 0.513461 0.630249 0.871180
O O11 0.874259 0.525346 0.321863
O O12 0.696782 0.507942 0.603398
O O13 0.000000 0.500000 0.500000
O O14 0.000000 0.500000 0.000000
O O15 0.735422 0.793266 0.669008
O O16 0.000000 0.000000 0.500000
#
# Coordination Sequence:
#
# PCOD9058584 Si02
#       7
#     2   2   2   2   2   2   2
#     4  12  28  45  77 106 141 192 240 293 358 424
#     4  11  22  46  72  99 139 193 232 283 357 419
#     4  11  23  47  71  99 139 185 245 277 348 430
#     4  12  26  47  71 104 149 185 238 296 360 422
#     4  12  26  42  72 102 142 188 232 291 358 420
#     4  11  26  42  72 109 142 179 247 297 344 423
#     4  11  26  44  75 104 143 193 231 294 365 414
#
# _framework density 24.087330000000001
#
# number of rings (size 3 to 8) (size 9 to 14) (size 15 to 20)
#    0.000    0.571    4.286    3.857   10.000    2.286 
#    0.000    1.429    0.000    0.000    0.000    0.000 
#    0.000    0.000    0.000    0.000    0.000    0.000 
#
# Total GULP energy -78193.470116 kJ/mol
# GULP energy per Si atom -5585.247865 kJ/mol
# Density = 2.403251 g / cm^3
# Si number density = 24.087330 Si / 1000 Ang^3
#
#
#
# Elastic Constant Matrix: (Units=GPa)
#
#
# Indices 1 2 3 4 5 6 
#
# 1 134.6134 28.0821 71.4273 -18.2974 -5.2336 -10.4063
# 2 28.0821 46.7714 15.8636 -4.6601 3.3394 2.8561
# 3 71.4273 15.8636 225.4961 -16.5938 -14.8382 -5.9900
# 4 -18.2974 -4.6601 -16.5938 30.1884 -11.5138 -0.0099
# 5 -5.2336 3.3394 -14.8382 -11.5138 57.9202 4.6889
# 6 -10.4063 2.8561 -5.9900 -0.0099 4.6889 25.2836
#
#
#
# Elastic Compliance Matrix: (Units=1/GPa)
#
#
# Indices 1 2 3 4 5 6 
#
# 1 0.010990 -0.005609 -0.002526 0.004902 0.001294 0.004320
# 2 -0.005609 0.025228 -0.000261 -0.000295 -0.001690 -0.004907
# 3 -0.002526 -0.000261 0.005512 0.002073 0.001611 -0.000002
# 4 0.004902 -0.000295 0.002073 0.040620 0.008994 0.000890
# 5 0.001294 -0.001690 0.001611 0.008994 0.019889 -0.002580
# 6 0.004320 -0.004907 -0.000002 0.000890 -0.002580 0.042362
#
#
# Mechanical properties :
#
#
# Convention : Reuss Voigt Hill
#
# Bulk Modulus (GPa) = 40.10218 70.84744 55.47481
# Shear Modulus (GPa) = 29.46277 42.11231 35.78754
#
# Velocity S-wave (km/s) = 3.50117 4.18583 3.85871
# Velocity P-wave (km/s) = 5.74709 7.26898 6.55237
#
# Compressibility (1/GPa) = 0.02493630
#
# Stress axis : x y z
#
# Youngs Moduli (GPa) = 90.99466 39.63842 181.43581
#
# Poissons Ratio (x) = 0.22235 0.45827
# Poissons Ratio (y) = 0.51043 0.04739
# Poissons Ratio (z) = 0.22984 0.01035
#
# Static dielectric constant tensor:
#      x y z
#    x 1.967140 -0.090050 -0.012620 
#    y -0.090050 2.070120 -0.014210 
#    z -0.012620 -0.014210 1.999090 
# 
# From -- ./inp_files/189946.got.cif
#   From: 2010.05.17/outbox.cif.g08.bks.cpg/sg2_95_cif.got.tgz:189946.got - 2010.06.03 11:33:40.
