data_PCOD9058387
_publ_section_title
;
Structure prediction by ZEFSAII (Michael W. Deem and Ramdas Pophale) SiO2 
 PCOD9058387
Probable space group: P -1
;
_chemical_formula_sum "Si O2"
_cell_formula_units_Z 16
_cell_length_a 11.951390
_cell_length_b 8.965168
_cell_length_c 17.446957
_cell_angle_alpha 132.012888
_cell_angle_beta 133.009316
_cell_angle_gamma 33.413163
_cell_volume 729.208433
_symmetry_space_group_name_H-M "P -1"
_symmetry_group_IT_number 2
_symmetry_cell_setting 'triclinic'
loop_
_space_group_symop_operation_xyz
x,y,z
-x,-y,-z
loop_
_atom_site_type_symbol
_atom_site_label
_atom_site_fract_x
_atom_site_fract_y
_atom_site_fract_z
Si Si1 0.614613 0.000174 0.285329
Si Si2 0.040888 0.734251 0.946795
Si Si3 0.576696 0.866307 0.596741
Si Si4 0.798574 0.255281 0.440322
Si Si5 0.285964 0.507198 0.672481
Si Si6 0.972620 0.399402 0.278147
Si Si7 0.670608 0.900598 0.938332
Si Si8 0.444986 0.363030 0.112556
O O1 0.452820 0.127001 0.323376
O O2 0.653707 0.188881 0.340808
O O3 0.527837 0.929419 0.155462
O O4 0.841431 0.725486 0.330916
O O5 0.872667 0.788759 0.945820
O O6 0.028168 0.647496 0.827856
O O7 0.268849 0.534968 0.024205
O O8 0.000000 0.000000 0.000000
O O9 0.638880 0.581143 0.504725
O O10 0.788009 0.795750 0.650737
O O11 0.384464 0.193494 0.594457
O O12 0.857817 0.281530 0.392131
O O13 0.000000 0.000000 0.500000
O O14 0.156715 0.620508 0.730696
O O15 0.472808 0.499770 0.771195
O O16 0.665058 0.677379 0.889181
O O17 0.633243 0.069587 0.054972
#
# Coordination Sequence:
#
# PCOD9058387 Si02
#       8
#     2   2   2   2   2   2   2   2
#     4  11  22  45  71  97 134 179 231 281 339 409
#     4  12  24  39  66 102 137 183 230 265 334 409
#     4  11  24  46  70  99 137 182 227 286 344 408
#     4  12  25  48  73 102 131 180 234 289 349 405
#     4  11  26  45  69 100 142 178 229 284 346 406
#     4  11  23  42  67  99 138 181 224 282 337 408
#     4  11  23  42  69  97 142 180 221 281 335 404
#     4  11  24  42  66 100 139 181 225 276 336 400
#
# _framework density 21.941599
#
# number of rings (size 3 to 8) (size 9 to 14) (size 15 to 20)
#    0.000    0.750    5.000    2.625    1.750    1.500 
#    4.500    1.250    0.000    0.000    0.000    0.000 
#    0.000    0.000    0.000    0.000    0.000    0.000 
#
# Total GULP energy -89183.481746 kJ/mol
# GULP energy per Si atom -5573.967609 kJ/mol
# Density = 2.189166 g / cm^3
# Si number density = 21.941599 Si / 1000 Ang^3
#
#
#
# Elastic Constant Matrix: (Units=GPa)
#
#
# Indices 1 2 3 4 5 6 
#
# 1 133.7002 33.8701 24.4446 15.1649 -8.4303 15.1866
# 2 33.8701 55.1754 17.4977 0.5737 -2.6268 5.9674
# 3 24.4446 17.4977 65.5724 5.4853 -2.6007 3.7060
# 4 15.1649 0.5737 5.4853 32.2759 8.5078 -2.5809
# 5 -8.4303 -2.6268 -2.6007 8.5078 27.4139 -4.1131
# 6 15.1866 5.9674 3.7060 -2.5809 -4.1131 27.5400
#
#
#
# Elastic Compliance Matrix: (Units=1/GPa)
#
#
# Indices 1 2 3 4 5 6 
#
# 1 0.010510 -0.005214 -0.001633 -0.005910 0.003745 -0.004440
# 2 -0.005214 0.022770 -0.004339 0.002923 -0.000942 -0.001342
# 3 -0.001633 -0.004339 0.017313 -0.002516 0.001429 -0.000512
# 4 -0.005910 0.002923 -0.002516 0.037889 -0.012845 0.004597
# 5 0.003745 -0.000942 0.001429 -0.012845 0.042116 0.003033
# 6 -0.004440 -0.001342 -0.000512 0.004597 0.003033 0.040003
#
#
# Mechanical properties :
#
#
# Convention : Reuss Voigt Hill
#
# Bulk Modulus (GPa) = 35.43249 45.11919 40.27584
# Shear Modulus (GPa) = 24.70628 29.35503 27.03065
#
# Velocity S-wave (km/s) = 3.35924 3.66166 3.51370
# Velocity P-wave (km/s) = 5.58834 6.20362 5.90400
#
# Compressibility (1/GPa) = 0.02822269
#
# Stress axis : x y z
#
# Youngs Moduli (GPa) = 95.15124 43.91696 57.76098
#
# Poissons Ratio (x) = 0.22897 0.09431
# Poissons Ratio (y) = 0.49608 0.25060
# Poissons Ratio (z) = 0.15535 0.19054
#
# Static dielectric constant tensor:
#      x y z
#    x 1.792840 -0.006130 -0.020160 
#    y -0.006130 1.980780 0.043600 
#    z -0.020160 0.043600 1.796070 
# 
# From -- ./inp_files/48949.got.cif
#   From: 2010.05.17/outbox.cif.g08.bks.cpg/sg2_25_cif.got.tgz:48949.got - 2010.06.03 11:33:40.
