data_PCOD9058606
_publ_section_title
;
Structure prediction by ZEFSAII (Michael W. Deem and Ramdas Pophale) SiO2 
 PCOD9058606
Probable space group: P -1
;
_chemical_formula_sum "Si O2"
_cell_formula_units_Z 16
_cell_length_a 14.217082
_cell_length_b 10.775190
_cell_length_c 10.012240
_cell_angle_alpha 87.091528
_cell_angle_beta 76.809029
_cell_angle_gamma 30.435046
_cell_volume 722.548737
_symmetry_space_group_name_H-M "P -1"
_symmetry_group_IT_number 2
_symmetry_cell_setting 'triclinic'
loop_
_space_group_symop_operation_xyz
x,y,z
-x,-y,-z
loop_
_atom_site_type_symbol
_atom_site_label
_atom_site_fract_x
_atom_site_fract_y
_atom_site_fract_z
Si Si1 0.525799 0.438874 0.150739
Si Si2 0.022324 0.633777 0.346742
Si Si3 0.877600 0.175966 0.161319
Si Si4 0.969543 0.725132 0.813700
Si Si5 0.729536 0.896810 0.658901
Si Si6 0.215267 0.101615 0.860615
Si Si7 0.100428 0.819742 0.353145
Si Si8 0.380382 0.150215 0.668011
O O1 0.647517 0.409931 0.188729
O O2 0.310497 0.648048 0.266004
O O3 0.663122 0.161771 0.139491
O O4 0.500000 0.500000 0.000000
O O5 0.828595 0.830196 0.492403
O O6 0.946331 0.731978 0.214259
O O7 0.166853 0.353233 0.329590
O O8 0.123952 0.645132 0.366657
O O9 0.946896 0.234971 0.176497
O O10 0.951635 0.007559 0.267341
O O11 0.000000 0.000000 0.000000
O O12 0.153519 0.446181 0.702021
O O13 0.792290 0.920463 0.753543
O O14 0.893235 0.747441 0.972765
O O15 0.498338 0.125461 0.708454
O O16 0.361321 0.046664 0.766495
O O17 0.000000 0.000000 0.500000
O O18 0.500000 0.000000 0.500000
#
# Coordination Sequence:
#
# PCOD9058606 Si02
#       8
#     2   2   2   2   2   2   2   2
#     4  12  26  47  76 104 140 197 243 294 371 427
#     4  11  22  46  73  98 147 190 228 299 362 424
#     4  12  24  49  73 102 148 193 237 304 363 428
#     4  12  26  44  72 106 144 185 241 301 353 428
#     4  11  24  45  71 104 144 187 236 290 366 430
#     4  12  24  47  74 102 144 187 241 294 360 429
#     4  12  26  45  73 110 141 186 249 299 358 432
#     4  12  25  46  73 107 145 189 236 292 366 430
#
# _framework density 22.143834999999999
#
# number of rings (size 3 to 8) (size 9 to 14) (size 15 to 20)
#    0.000    0.250    6.250    2.625    0.000    5.000 
#    0.000    0.000    0.000    0.000    0.000    0.000 
#    0.000    0.000    0.000    0.000    0.000    0.000 
#
# Total GULP energy -89596.125511 kJ/mol
# GULP energy per Si atom -5599.757844 kJ/mol
# Density = 2.209343 g / cm^3
# Si number density = 22.143835 Si / 1000 Ang^3
#
#
#
# Elastic Constant Matrix: (Units=GPa)
#
#
# Indices 1 2 3 4 5 6 
#
# 1 163.1781 22.2224 24.8897 9.2284 -3.0755 -23.1299
# 2 22.2224 60.8109 17.2788 -1.0593 -1.8932 -15.8166
# 3 24.8897 17.2788 105.4929 11.2201 -1.6804 -8.0272
# 4 9.2284 -1.0593 11.2201 31.9121 -6.5080 -1.4917
# 5 -3.0755 -1.8932 -1.6804 -6.5080 39.7383 -1.7224
# 6 -23.1299 -15.8166 -8.0272 -1.4917 -1.7224 47.5804
#
#
#
# Elastic Compliance Matrix: (Units=1/GPa)
#
#
# Indices 1 2 3 4 5 6 
#
# 1 0.006967 -0.001586 -0.001015 -0.001528 0.000285 0.002651
# 2 -0.001586 0.019235 -0.002621 0.002538 0.001329 0.005309
# 3 -0.001015 -0.002621 0.010543 -0.003553 -0.000327 0.000291
# 4 -0.001528 0.002538 -0.003553 0.034269 0.005498 0.000775
# 5 0.000285 0.001329 -0.000327 0.005498 0.026208 0.001646
# 6 0.002651 0.005309 0.000291 0.000775 0.001646 0.024203
#
#
# Mechanical properties :
#
#
# Convention : Reuss Voigt Hill
#
# Bulk Modulus (GPa) = 38.02216 50.91818 44.47017
# Shear Modulus (GPa) = 35.55280 41.51888 38.53584
#
# Velocity S-wave (km/s) = 4.01127 4.33478 4.17616
# Velocity P-wave (km/s) = 6.21784 6.93527 6.58633
#
# Compressibility (1/GPa) = 0.02630046
#
# Stress axis : x y z
#
# Youngs Moduli (GPa) = 143.54222 51.98860 94.84969
#
# Poissons Ratio (x) = 0.08244 0.09629
# Poissons Ratio (y) = 0.22762 0.24862
# Poissons Ratio (z) = 0.14572 0.13627
#
# Static dielectric constant tensor:
#      x y z
#    x 1.860120 0.035730 0.018400 
#    y 0.035730 1.819440 0.006230 
#    z 0.018400 0.006230 1.776740 
# 
# From -- ./inp_files/307520.got.cif
#   From: 2010.05.17/outbox.cif.g08.bks.cpg/sg2_154_cif.got.tgz:307520.got - 2010.06.03 11:33:40.
