data_PCOD9058391
_publ_section_title
;
Structure prediction by ZEFSAII (Michael W. Deem and Ramdas Pophale) SiO2 
 PCOD9058391
Probable space group: P -1
;
_chemical_formula_sum "Si O2"
_cell_formula_units_Z 14
_cell_length_a 8.036878
_cell_length_b 19.033464
_cell_length_c 17.186099
_cell_angle_alpha 158.620984
_cell_angle_beta 39.749650
_cell_angle_gamma 137.668024
_cell_volume 609.726837
_symmetry_space_group_name_H-M "P -1"
_symmetry_group_IT_number 2
_symmetry_cell_setting 'triclinic'
loop_
_space_group_symop_operation_xyz
x,y,z
-x,-y,-z
loop_
_atom_site_type_symbol
_atom_site_label
_atom_site_fract_x
_atom_site_fract_y
_atom_site_fract_z
Si Si1 0.977194 0.949947 0.047139
Si Si2 0.155377 0.307734 0.429963
Si Si3 0.499585 0.627806 0.898727
Si Si4 0.085885 0.876408 0.228762
Si Si5 0.740507 0.254192 0.138859
Si Si6 0.311234 0.451620 0.946069
Si Si7 0.186796 0.308078 0.600479
O O1 0.761242 0.769274 0.945942
O O2 0.937022 0.155124 0.313873
O O3 0.215938 0.880724 0.941726
O O4 0.000000 0.000000 0.000000
O O5 0.436363 0.282762 0.264137
O O6 0.118256 0.533289 0.673036
O O7 0.185191 0.263030 0.463726
O O8 0.446370 0.447628 0.672490
O O9 0.281196 0.771346 0.104519
O O10 0.448860 0.528498 0.897543
O O11 0.140170 0.105911 0.453374
O O12 0.144953 0.821186 0.060360
O O13 0.798526 0.774438 0.246530
O O14 0.055577 0.568158 0.167604
O O15 0.500000 0.500000 0.000000
#
# Coordination Sequence:
#
# PCOD9058391 Si02
#       7
#     2   2   2   2   2   2   2
#     4  12  27  43  66 104 139 175 226 280 340 400
#     4  11  24  43  73  95 133 187 230 268 343 400
#     4  11  26  45  67 102 139 173 226 287 331 397
#     4  11  22  45  72 100 134 179 228 274 336 404
#     4  11  23  44  71  98 138 179 226 283 330 401
#     4  11  25  46  69 100 143 171 222 285 338 400
#     4  11  24  44  75  99 130 186 228 270 342 401
#
# _framework density 22.961100999999999
#
# number of rings (size 3 to 8) (size 9 to 14) (size 15 to 20)
#    0.000    0.857    4.286    3.857    4.000    4.571 
#    0.000    0.000    0.000    0.000    0.000    0.000 
#    0.000    0.000    0.000    0.000    0.000    0.000 
#
# Total GULP energy -78316.050277 kJ/mol
# GULP energy per Si atom -5594.003591 kJ/mol
# Density = 2.290884 g / cm^3
# Si number density = 22.961101 Si / 1000 Ang^3
#
#
#
# Elastic Constant Matrix: (Units=GPa)
#
#
# Indices 1 2 3 4 5 6 
#
# 1 96.4249 34.7466 22.2223 8.6819 19.0401 -15.0894
# 2 34.7466 139.8864 48.2572 28.5101 20.4116 -8.0275
# 3 22.2223 48.2572 88.4684 40.2881 22.5725 5.5489
# 4 8.6819 28.5101 40.2881 53.1966 -2.3342 8.3741
# 5 19.0401 20.4116 22.5725 -2.3342 43.8657 4.8930
# 6 -15.0894 -8.0275 5.5489 8.3741 4.8930 48.4284
#
#
#
# Elastic Compliance Matrix: (Units=1/GPa)
#
#
# Indices 1 2 3 4 5 6 
#
# 1 0.013014 -0.001657 -0.000482 -0.001838 -0.005250 0.004684
# 2 -0.001657 0.009745 -0.002836 -0.003285 -0.002784 0.002273
# 3 -0.000482 -0.002836 0.023563 -0.016876 -0.011580 0.000768
# 4 -0.001838 -0.003285 -0.016876 0.035286 0.013631 -0.006663
# 5 -0.005250 -0.002784 -0.011580 0.013631 0.033785 -0.006541
# 6 0.004684 0.002273 0.000768 -0.006663 -0.006541 0.024210
#
#
# Mechanical properties :
#
#
# Convention : Reuss Voigt Hill
#
# Bulk Modulus (GPa) = 27.49335 59.47021 43.48178
# Shear Modulus (GPa) = 30.92593 43.73505 37.33049
#
# Velocity S-wave (km/s) = 3.67397 4.36907 4.03651
# Velocity P-wave (km/s) = 5.47698 7.16996 6.37988
#
# Compressibility (1/GPa) = 0.03637244
#
# Stress axis : x y z
#
# Youngs Moduli (GPa) = 76.83971 102.62152 42.43948
#
# Poissons Ratio (x) = 0.17001 0.02047
# Poissons Ratio (y) = 0.12730 0.12034
# Poissons Ratio (z) = 0.03706 0.29099
#
# Static dielectric constant tensor:
#      x y z
#    x 1.862130 0.027730 -0.008340 
#    y 0.027730 1.874660 0.012180 
#    z -0.008340 0.012180 1.885040 
# 
# From -- ./inp_files/357628.got.cif
#   From: 2010.05.17/outbox.cif.g08.bks.cpg/sg2_179_cif.got.tgz:357628.got - 2010.06.03 11:33:40.
