data_PCOD9058246
_publ_section_title
;
Structure prediction by ZEFSAII (Michael W. Deem and Ramdas Pophale) SiO2 
 PCOD9058246
Probable space group: P -1
;
_chemical_formula_sum "Si O2"
_cell_formula_units_Z 14
_cell_length_a 20.136063
_cell_length_b 14.308402
_cell_length_c 12.258818
_cell_angle_alpha 138.906517
_cell_angle_beta 152.130218
_cell_angle_gamma 23.306863
_cell_volume 620.020821
_symmetry_space_group_name_H-M "P -1"
_symmetry_group_IT_number 2
_symmetry_cell_setting 'triclinic'
loop_
_space_group_symop_operation_xyz
x,y,z
-x,-y,-z
loop_
_atom_site_type_symbol
_atom_site_label
_atom_site_fract_x
_atom_site_fract_y
_atom_site_fract_z
Si Si1 0.753458 0.704047 0.124885
Si Si2 0.427868 0.876436 0.395807
Si Si3 0.879183 0.145125 0.564986
Si Si4 0.157507 0.491590 0.156085
Si Si5 0.610791 0.592927 0.998108
Si Si6 0.285413 0.312655 0.576723
Si Si7 0.753689 0.256513 0.081159
O O1 0.997611 0.593028 0.415638
O O2 0.818196 0.581614 0.995446
O O3 0.722121 0.608188 0.085425
O O4 0.500000 0.000000 0.000000
O O5 0.580148 0.717539 0.585060
O O6 0.619722 0.733770 0.447503
O O7 0.297462 0.133605 0.449043
O O8 0.262824 0.883016 0.122224
O O9 0.927193 0.274183 0.762265
O O10 0.595981 0.329289 0.296805
O O11 0.000000 0.000000 0.500000
O O12 0.015522 0.942263 0.677464
O O13 0.000000 0.500000 0.000000
O O14 0.538495 0.758958 0.140081
O O15 0.768846 0.352498 0.087352
O O16 0.500000 0.500000 0.000000
#
# Coordination Sequence:
#
# PCOD9058246 Si02
#       7
#     2   2   2   2   2   2   2
#     4  12  29  47  75 111 154 203 251 309 384 447
#     4  11  22  44  76 107 143 187 257 316 364 438
#     4  12  26  45  77 112 150 194 254 313 375 445
#     4  12  26  47  77 109 148 194 258 310 367 449
#     4  12  27  46  71 105 152 195 247 303 382 446
#     4  11  24  45  73 107 147 194 251 310 373 445
#     4  12  23  44  70 106 147 192 244 308 376 442
#
# _framework density 22.579886999999999
#
# number of rings (size 3 to 8) (size 9 to 14) (size 15 to 20)
#    0.000    0.286    5.714    2.143    8.000    0.571 
#    0.000    1.429    0.000    0.000    0.000    0.000 
#    0.000    0.000    0.000    0.000    0.000    0.000 
#
# Total GULP energy -78251.857577 kJ/mol
# GULP energy per Si atom -5589.418398 kJ/mol
# Density = 2.252849 g / cm^3
# Si number density = 22.579887 Si / 1000 Ang^3
#
#
#
# Elastic Constant Matrix: (Units=GPa)
#
#
# Indices 1 2 3 4 5 6 
#
# 1 111.5146 47.9855 38.5661 -14.5984 -27.9968 36.0807
# 2 47.9855 99.1302 51.2350 11.2273 6.9928 28.4564
# 3 38.5661 51.2350 139.5767 -1.1070 -21.9113 18.5381
# 4 -14.5984 11.2273 -1.1070 47.8909 6.8585 -5.2690
# 5 -27.9968 6.9928 -21.9113 6.8585 38.4047 -4.1678
# 6 36.0807 28.4564 18.5381 -5.2690 -4.1678 33.9634
#
#
#
# Elastic Compliance Matrix: (Units=1/GPa)
#
#
# Indices 1 2 3 4 5 6 
#
# 1 0.021039 -0.008967 0.001714 0.004872 0.015657 -0.013096
# 2 -0.008967 0.022019 -0.006804 -0.006920 -0.014061 -0.008008
# 3 0.001714 -0.006804 0.010588 0.001101 0.008255 -0.000716
# 4 0.004872 -0.006920 0.001101 0.024229 0.001544 0.003970
# 5 0.015657 -0.014061 0.008255 0.001544 0.044044 -0.003713
# 6 -0.013096 -0.008008 -0.000716 0.003970 -0.003713 0.050617
#
#
# Mechanical properties :
#
#
# Convention : Reuss Voigt Hill
#
# Bulk Modulus (GPa) = 39.16461 69.53274 54.34867
# Shear Modulus (GPa) = 23.90508 38.21413 31.05961
#
# Velocity S-wave (km/s) = 3.25728 4.11834 3.71285
# Velocity P-wave (km/s) = 5.61507 7.31268 6.51937
#
# Compressibility (1/GPa) = 0.02553326
#
# Stress axis : x y z
#
# Youngs Moduli (GPa) = 47.53074 45.41436 94.44607
#
# Poissons Ratio (x) = 0.40724 -0.16190
# Poissons Ratio (y) = 0.42622 0.64258
# Poissons Ratio (z) = -0.08148 0.30899
#
# Static dielectric constant tensor:
#      x y z
#    x 1.874700 0.005330 0.132400 
#    y 0.005330 1.876590 -0.025300 
#    z 0.132400 -0.025300 1.955800 
# 
# From -- ./inp_files/244949.got.cif
#   From: 2010.05.17/outbox.cif.g08.bks.cpg/sg2_123_cif.got.tgz:244949.got - 2010.06.03 11:33:40.
