data_PCOD9058971
_publ_section_title
;
Structure prediction by ZEFSAII (Michael W. Deem and Ramdas Pophale) SiO2 
 PCOD9058971
Probable space group: P -1
;
_chemical_formula_sum "Si O2"
_cell_formula_units_Z 14
_cell_length_a 20.094723
_cell_length_b 8.811355
_cell_length_c 9.651939
_cell_angle_alpha 86.979804
_cell_angle_beta 50.521866
_cell_angle_gamma 47.235348
_cell_volume 719.943753
_symmetry_space_group_name_H-M "P -1"
_symmetry_group_IT_number 2
_symmetry_cell_setting 'triclinic'
loop_
_space_group_symop_operation_xyz
x,y,z
-x,-y,-z
loop_
_atom_site_type_symbol
_atom_site_label
_atom_site_fract_x
_atom_site_fract_y
_atom_site_fract_z
Si Si1 0.897672 0.810335 0.024025
Si Si2 0.937056 0.980585 0.204409
Si Si3 0.425397 0.446545 0.260529
Si Si4 0.408518 0.260229 0.521083
Si Si5 0.214488 0.716143 0.984725
Si Si6 0.524901 0.649262 0.120787
Si Si7 0.760164 0.765598 0.375664
O O1 0.068280 0.497317 0.767830
O O2 0.837747 0.034268 0.994700
O O3 0.780554 0.844524 0.210124
O O4 0.923760 0.844282 0.142595
O O5 0.762759 0.273732 0.475243
O O6 0.065788 0.821273 0.161026
O O7 0.000000 0.000000 0.000000
O O8 0.497024 0.224446 0.287902
O O9 0.485927 0.528268 0.198808
O O10 0.458924 0.349028 0.064165
O O11 0.279591 0.346726 0.610550
O O12 0.500000 0.000000 0.500000
O O13 0.332573 0.490938 0.716501
O O14 0.313467 0.556795 0.001358
O O15 0.381702 0.957861 0.359472
#
# Coordination Sequence:
#
# PCOD9058971 Si02
#       7
#     2   2   2   2   2   2   2
#     4  10  20  35  65  88 127 161 207 259 301 373
#     4  10  17  37  64  86 116 165 204 256 294 362
#     4  11  24  44  63  86 133 171 203 245 324 380
#     4  12  22  35  62  94 122 154 208 266 300 350
#     4  11  21  39  63  96 119 162 215 257 304 362
#     4  11  25  41  65  93 126 169 203 255 313 376
#     4  11  21  36  59  99 120 162 205 252 321 354
#
# _framework density 19.445962999999999
#
# number of rings (size 3 to 8) (size 9 to 14) (size 15 to 20)
#    0.000    1.143    7.143    0.857    2.000    2.286 
#    0.000    0.000    0.000    1.714    0.000    0.000 
#    0.000    0.000    0.000    0.000    0.000    0.000 
#
# Total GULP energy -78104.075690 kJ/mol
# GULP energy per Si atom -5578.862549 kJ/mol
# Density = 1.940170 g / cm^3
# Si number density = 19.445963 Si / 1000 Ang^3
#
#
#
# Elastic Constant Matrix: (Units=GPa)
#
#
# Indices 1 2 3 4 5 6 
#
# 1 65.4093 11.1945 10.5113 -3.9730 3.6762 -7.9122
# 2 11.1945 103.1165 23.7225 3.7746 8.4047 -4.9500
# 3 10.5113 23.7225 55.8171 6.2098 -4.5740 -14.3365
# 4 -3.9730 3.7746 6.2098 31.7135 1.1645 -6.9428
# 5 3.6762 8.4047 -4.5740 1.1645 18.3120 1.2589
# 6 -7.9122 -4.9500 -14.3365 -6.9428 1.2589 25.9088
#
#
#
# Elastic Compliance Matrix: (Units=1/GPa)
#
#
# Indices 1 2 3 4 5 6 
#
# 1 0.016879 -0.000867 -0.002312 0.003909 -0.004158 0.004959
# 2 -0.000867 0.011538 -0.005445 -0.000369 -0.006399 -0.000861
# 3 -0.002312 -0.005445 0.024370 -0.002384 0.008467 0.010688
# 4 0.003909 -0.000369 -0.002384 0.034719 -0.004058 0.009305
# 5 -0.004158 -0.006399 0.008467 -0.004058 0.060881 -0.001853
# 6 0.004959 -0.000861 0.010688 0.009305 -0.001853 0.048444
#
#
# Mechanical properties :
#
#
# Convention : Reuss Voigt Hill
#
# Bulk Modulus (GPa) = 28.13792 35.02217 31.58005
# Shear Modulus (GPa) = 22.13116 27.11451 24.62283
#
# Velocity S-wave (km/s) = 3.37721 3.73815 3.56226
# Velocity P-wave (km/s) = 5.45056 6.05647 5.76149
#
# Compressibility (1/GPa) = 0.03553923
#
# Stress axis : x y z
#
# Youngs Moduli (GPa) = 59.24447 86.66805 41.03474
#
# Poissons Ratio (x) = 0.07511 0.09488
# Poissons Ratio (y) = 0.05134 0.22344
# Poissons Ratio (z) = 0.13698 0.47192
#
# Static dielectric constant tensor:
#      x y z
#    x 1.738820 -0.018390 -0.033930 
#    y -0.018390 1.718540 0.017180 
#    z -0.033930 0.017180 1.662770 
# 
# From -- ./inp_files/207860.got.cif
#   From: 2010.05.17/outbox.cif.g08.bks.cpg/sg2_104_cif.got.tgz:207860.got - 2010.06.03 11:33:40.
