data_PCOD9058739
_publ_section_title
;
Structure prediction by ZEFSAII (Michael W. Deem and Ramdas Pophale) SiO2 
 PCOD9058739
Probable space group: P -1
;
_chemical_formula_sum "Si O2"
_cell_formula_units_Z 15
_cell_length_a 6.981567
_cell_length_b 12.349221
_cell_length_c 7.502542
_cell_angle_alpha 107.318412
_cell_angle_beta 104.894229
_cell_angle_gamma 106.561112
_cell_volume 549.039536
_symmetry_space_group_name_H-M "P -1"
_symmetry_group_IT_number 2
_symmetry_cell_setting 'triclinic'
loop_
_space_group_symop_operation_xyz
x,y,z
-x,-y,-z
loop_
_atom_site_type_symbol
_atom_site_label
_atom_site_fract_x
_atom_site_fract_y
_atom_site_fract_z
Si Si1 0.233628 0.492693 0.049783
Si Si2 0.324173 0.336224 0.295403
Si Si3 0.864951 0.707857 0.380638
Si Si4 0.343603 0.744530 0.059774
Si Si5 0.752774 0.964868 0.155672
Si Si6 0.000000 0.000000 0.500000
Si Si7 0.916919 0.116735 0.922611
Si Si8 0.815598 0.364039 0.393640
O O1 0.297469 0.441456 0.218082
O O2 0.380042 0.634692 0.111221
O O3 0.000000 0.500000 0.000000
O O4 0.224012 0.395864 0.845347
O O5 0.428572 0.648994 0.645417
O O6 0.257505 0.337507 0.483384
O O7 0.145672 0.208842 0.105073
O O8 0.101668 0.709452 0.483650
O O9 0.861290 0.840350 0.405571
O O10 0.549696 0.840550 0.057112
O O11 0.214851 0.813597 0.165777
O O12 0.181643 0.685735 0.828487
O O13 0.775739 0.018604 0.382616
O O14 0.003113 0.966187 0.230438
O O15 0.774437 0.037336 0.013502
O O16 0.000000 0.500000 0.500000
#
# Coordination Sequence:
#
# PCOD9058739 Si02
#       8
#     2   2   2   2   2   1   2   2
#     4  12  27  52  86 123 170 218 282 348 426 507
#     4  12  26  52  83 117 167 227 269 349 430 488
#     4  12  28  55  81 125 169 213 288 349 418 510
#     4  12  24  46  77 119 158 215 272 343 416 499
#     4  11  25  46  77 112 158 213 275 340 414 499
#     4  12  26  52  80 114 168 216 276 360 406 496
#     4  11  22  47  77 110 155 212 277 330 416 495
#     4  12  26  50  78 122 170 218 278 349 420 507
#
# _framework density 27.320433999999999
#
# number of rings (size 3 to 8) (size 9 to 14) (size 15 to 20)
#    0.000    0.267    6.667    1.200    0.000    2.133 
#    4.800    2.667    2.933    0.000    0.000    0.000 
#    0.000    0.000    0.000    0.000    0.000    0.000 
#
# Total GULP energy -83863.809364 kJ/mol
# GULP energy per Si atom -5590.920624 kJ/mol
# Density = 2.725825 g / cm^3
# Si number density = 27.320434 Si / 1000 Ang^3
#
#
#
# Elastic Constant Matrix: (Units=GPa)
#
#
# Indices 1 2 3 4 5 6 
#
# 1 196.2445 80.9609 39.3020 2.6217 2.3977 -16.2499
# 2 80.9609 262.3905 65.2374 -4.8105 3.6341 -4.8235
# 3 39.3020 65.2374 120.8174 5.8381 -13.2239 0.0960
# 4 2.6217 -4.8105 5.8381 65.4376 1.6391 7.5559
# 5 2.3977 3.6341 -13.2239 1.6391 40.5794 9.0477
# 6 -16.2499 -4.8235 0.0960 7.5559 9.0477 47.3229
#
#
#
# Elastic Compliance Matrix: (Units=1/GPa)
#
#
# Indices 1 2 3 4 5 6 
#
# 1 0.006198 -0.001544 -0.001285 -0.000481 -0.001133 0.002267
# 2 -0.001544 0.004887 -0.002292 0.000644 -0.001139 0.000087
# 3 -0.001285 -0.002292 0.010420 -0.000997 0.004008 -0.001303
# 4 -0.000481 0.000644 -0.000997 0.015740 -0.000426 -0.002529
# 5 -0.001133 -0.001139 0.004008 -0.000426 0.027403 -0.005684
# 6 0.002267 0.000087 -0.001303 -0.002529 -0.005684 0.023412
#
#
# Mechanical properties :
#
#
# Convention : Reuss Voigt Hill
#
# Bulk Modulus (GPa) = 88.79031 105.60588 97.19810
# Shear Modulus (GPa) = 48.99243 56.93146 52.96195
#
# Velocity S-wave (km/s) = 4.23928 4.56986 4.40767
# Velocity P-wave (km/s) = 7.51878 8.15986 7.84587
#
# Compressibility (1/GPa) = 0.01126249
#
# Stress axis : x y z
#
# Youngs Moduli (GPa) = 161.33912 204.63648 95.96543
#
# Poissons Ratio (x) = 0.31605 0.12330
# Poissons Ratio (y) = 0.24918 0.21996
# Poissons Ratio (z) = 0.20730 0.46904
#
# Static dielectric constant tensor:
#      x y z
#    x 2.312260 -0.068540 -0.136700 
#    y -0.068540 2.238400 0.136210 
#    z -0.136700 0.136210 2.496460 
# 
# From -- ./inp_files/189438.got.cif
#   From: 2010.05.17/outbox.cif.g08.bks.cpg/sg2_95_cif.got.tgz:189438.got - 2010.06.03 11:33:40.
