data_PCOD9058298
_publ_section_title
;
Structure prediction by ZEFSAII (Michael W. Deem and Ramdas Pophale) SiO2 
 PCOD9058298
Probable space group: P -1
;
_chemical_formula_sum "Si O2"
_cell_formula_units_Z 14
_cell_length_a 15.931977
_cell_length_b 12.149364
_cell_length_c 5.260362
_cell_angle_alpha 58.542052
_cell_angle_beta 91.353059
_cell_angle_gamma 128.988933
_cell_volume 599.573648
_symmetry_space_group_name_H-M "P -1"
_symmetry_group_IT_number 2
_symmetry_cell_setting 'triclinic'
loop_
_space_group_symop_operation_xyz
x,y,z
-x,-y,-z
loop_
_atom_site_type_symbol
_atom_site_label
_atom_site_fract_x
_atom_site_fract_y
_atom_site_fract_z
Si Si1 0.513001 0.899599 0.924027
Si Si2 0.192132 0.322265 0.936461
Si Si3 0.880815 0.606592 0.649627
Si Si4 0.470547 0.584882 0.580250
Si Si5 0.146345 0.992290 0.209607
Si Si6 0.290960 0.076421 0.621895
Si Si7 0.700319 0.191151 0.213903
O O1 0.401711 0.810820 0.833741
O O2 0.644622 0.060179 0.614154
O O3 0.490306 0.736859 0.236397
O O4 0.500000 0.000000 0.000000
O O5 0.179278 0.408261 0.598262
O O6 0.331972 0.433574 0.840887
O O7 0.150182 0.337124 0.179615
O O8 0.118063 0.112289 0.105037
O O9 0.024821 0.775353 0.419905
O O10 0.826234 0.406225 0.956656
O O11 0.500000 0.500000 0.500000
O O12 0.573299 0.714728 0.647197
O O13 0.211339 0.019573 0.439338
O O14 0.231636 0.071653 0.874430
O O15 0.296985 0.927911 0.830489
#
# Coordination Sequence:
#
# PCOD9058298 Si02
#       7
#     2   2   2   2   2   2   2
#     4  11  22  45  68 103 149 190 236 300 362 436
#     4  12  26  46  75 108 141 190 246 302 366 431
#     4  12  27  48  75 106 139 200 248 294 352 446
#     4  12  25  45  76 111 149 185 243 304 378 433
#     4  12  27  49  72 103 153 190 242 300 363 429
#     4  12  27  46  71 109 147 193 232 307 369 432
#     4  11  26  41  73 102 146 190 249 290 366 436
#
# _framework density 23.349924000000001
#
# number of rings (size 3 to 8) (size 9 to 14) (size 15 to 20)
#    0.000    0.286    4.286    4.286    2.000    2.857 
#    0.000    0.000    0.000    0.000    0.000    0.000 
#    0.000    0.000    0.000    0.000    0.000    0.000 
#
# Total GULP energy -78409.324358 kJ/mol
# GULP energy per Si atom -5600.666026 kJ/mol
# Density = 2.329678 g / cm^3
# Si number density = 23.349924 Si / 1000 Ang^3
#
#
#
# Elastic Constant Matrix: (Units=GPa)
#
#
# Indices 1 2 3 4 5 6 
#
# 1 50.6763 19.1755 2.4881 7.1544 9.4250 -8.4686
# 2 19.1755 82.5968 16.8351 -16.2394 -11.7645 6.0127
# 3 2.4881 16.8351 73.6700 -8.6474 -4.1195 5.0861
# 4 7.1544 -16.2394 -8.6474 65.1687 -3.3354 -0.0331
# 5 9.4250 -11.7645 -4.1195 -3.3354 38.3479 -7.4896
# 6 -8.4686 6.0127 5.0861 -0.0331 -7.4896 54.8041
#
#
#
# Elastic Compliance Matrix: (Units=1/GPa)
#
#
# Indices 1 2 3 4 5 6 
#
# 1 0.026047 -0.008593 -0.000315 -0.005492 -0.008809 0.003790
# 2 -0.008593 0.016755 -0.002402 0.005160 0.007057 -0.001976
# 3 -0.000315 -0.002402 0.014412 0.001389 0.000812 -0.001011
# 4 -0.005492 0.005160 0.001389 0.017644 0.004436 -0.000927
# 5 -0.008809 0.007057 0.000812 0.004436 0.031284 0.002067
# 6 0.003790 -0.001976 -0.001011 -0.000927 0.002067 0.019425
#
#
# Mechanical properties :
#
#
# Convention : Reuss Voigt Hill
#
# Bulk Modulus (GPa) = 28.90668 31.54897 30.22782
# Shear Modulus (GPa) = 31.30508 42.89377 37.09942
#
# Velocity S-wave (km/s) = 3.66552 4.29067 3.99036
# Velocity P-wave (km/s) = 5.50648 6.17148 5.84844
#
# Compressibility (1/GPa) = 0.03459409
#
# Stress axis : x y z
#
# Youngs Moduli (GPa) = 38.39200 59.68353 69.38732
#
# Poissons Ratio (x) = 0.51287 0.02184
# Poissons Ratio (y) = 0.32991 0.16667
# Poissons Ratio (z) = 0.01209 0.14336
#
# Static dielectric constant tensor:
#      x y z
#    x 1.793830 0.143640 -0.004170 
#    y 0.143640 1.834540 0.044850 
#    z -0.004170 0.044850 1.861090 
# 
# From -- ./inp_files/68274.got.cif
#   From: 2010.05.17/outbox.cif.g08.bks.cpg/sg2_35_cif.got.tgz:68274.got - 2010.06.03 11:33:40.
