data_PCOD9058252
_publ_section_title
;
Structure prediction by ZEFSAII (Michael W. Deem and Ramdas Pophale) SiO2 
 PCOD9058252
Probable space group: P -1
;
_chemical_formula_sum "Si O2"
_cell_formula_units_Z 16
_cell_length_a 14.129668
_cell_length_b 11.107339
_cell_length_c 8.421184
_cell_angle_alpha 81.080202
_cell_angle_beta 89.506054
_cell_angle_gamma 29.782911
_cell_volume 626.815313
_symmetry_space_group_name_H-M "P -1"
_symmetry_group_IT_number 2
_symmetry_cell_setting 'triclinic'
loop_
_space_group_symop_operation_xyz
x,y,z
-x,-y,-z
loop_
_atom_site_type_symbol
_atom_site_label
_atom_site_fract_x
_atom_site_fract_y
_atom_site_fract_z
Si Si1 0.986429 0.480346 0.321905
Si Si2 0.394393 0.251942 0.270471
Si Si3 0.290107 0.975196 0.277610
Si Si4 0.043239 0.237816 0.908833
Si Si5 0.869455 0.090363 0.623367
Si Si6 0.549994 0.542739 0.761297
Si Si7 0.640598 0.731758 0.356108
Si Si8 0.795923 0.191014 0.140714
O O1 0.914413 0.678963 0.187958
O O2 0.844707 0.523257 0.306655
O O3 0.000000 0.500000 0.500000
O O4 0.196346 0.200251 0.313331
O O5 0.510472 0.248477 0.261912
O O6 0.332856 0.306807 0.445860
O O7 0.193814 0.491248 0.123962
O O8 0.524688 0.989658 0.274926
O O9 0.232193 0.925435 0.395476
O O10 0.516290 0.756087 0.297660
O O11 0.180379 0.077596 0.093346
O O12 0.095785 0.060542 0.839838
O O13 0.038784 0.899035 0.796173
O O14 0.689517 0.371603 0.641441
O O15 0.000000 0.000000 0.500000
O O16 0.369642 0.652497 0.756657
O O17 0.684385 0.357490 0.949728
#
# Coordination Sequence:
#
# PCOD9058252 Si02
#       8
#     2   2   2   2   2   2   2   2
#     4  12  25  45  76 105 143 196 246 293 374 435
#     4  11  22  44  76  98 143 191 239 298 362 437
#     4  12  28  47  69 111 150 186 244 311 363 435
#     4  12  23  48  78 106 148 191 242 308 367 435
#     4  12  28  45  71 106 151 190 242 304 364 431
#     4  11  24  47  75 104 138 191 252 295 362 442
#     4  11  25  45  69 109 141 187 244 300 357 438
#     4  11  25  48  76 104 142 196 246 301 367 444
#
# _framework density 25.525860999999999
#
# number of rings (size 3 to 8) (size 9 to 14) (size 15 to 20)
#    0.000    0.500    5.000    3.000    5.250    2.000 
#    2.250    0.000    0.000    0.000    0.000    0.000 
#    0.000    0.000    0.000    0.000    0.000    0.000 
#
# Total GULP energy -89684.982788 kJ/mol
# GULP energy per Si atom -5605.311424 kJ/mol
# Density = 2.546776 g / cm^3
# Si number density = 25.525861 Si / 1000 Ang^3
#
#
#
# Elastic Constant Matrix: (Units=GPa)
#
#
# Indices 1 2 3 4 5 6 
#
# 1 180.8406 26.4563 21.1914 -1.5324 -10.2118 -18.8461
# 2 26.4563 64.5539 0.6374 3.9515 -5.4695 -2.8072
# 3 21.1914 0.6374 69.8880 -4.9882 -4.8447 -3.2850
# 4 -1.5324 3.9515 -4.9882 29.8858 -3.8039 -3.6694
# 5 -10.2118 -5.4695 -4.8447 -3.8039 45.5753 -6.6786
# 6 -18.8461 -2.8072 -3.2850 -3.6694 -6.6786 47.3212
#
#
#
# Elastic Compliance Matrix: (Units=1/GPa)
#
#
# Indices 1 2 3 4 5 6 
#
# 1 0.006436 -0.002442 -0.001647 0.000875 0.001424 0.002573
# 2 -0.002442 0.016732 0.000539 -0.002064 0.001359 0.000089
# 3 -0.001647 0.000539 0.015151 0.002691 0.001658 0.000870
# 4 0.000875 -0.002064 0.002691 0.035149 0.003705 0.003661
# 5 0.001424 0.001359 0.001658 0.003705 0.023550 0.004374
# 6 0.002573 0.000089 0.000870 0.003661 0.004374 0.023124
#
#
# Mechanical properties :
#
#
# Convention : Reuss Voigt Hill
#
# Bulk Modulus (GPa) = 32.03281 45.76142 38.89711
# Shear Modulus (GPa) = 36.32435 42.35630 39.34032
#
# Velocity S-wave (km/s) = 3.77641 4.07793 3.93006
# Velocity P-wave (km/s) = 5.62063 6.33554 5.98876
#
# Compressibility (1/GPa) = 0.03121799
#
# Stress axis : x y z
#
# Youngs Moduli (GPa) = 155.37569 59.76595 66.00187
#
# Poissons Ratio (x) = 0.14598 0.10871
# Poissons Ratio (y) = 0.37950 -0.03558
# Poissons Ratio (z) = 0.25593 -0.03222
#
# Static dielectric constant tensor:
#      x y z
#    x 2.017030 -0.014360 0.011280 
#    y -0.014360 1.950090 -0.006240 
#    z 0.011280 -0.006240 2.026230 
# 
# From -- ./inp_files/307325.got.cif
#   From: 2010.05.17/outbox.cif.g08.bks.cpg/sg2_154_cif.got.tgz:307325.got - 2010.06.03 11:33:40.
