data_PCOD9058914
_publ_section_title
;
Structure prediction by ZEFSAII (Michael W. Deem and Ramdas Pophale) SiO2 
 PCOD9058914
Probable space group: P -1
;
_chemical_formula_sum "Si O2"
_cell_formula_units_Z 14
_cell_length_a 11.111845
_cell_length_b 16.641208
_cell_length_c 9.453917
_cell_angle_alpha 78.132347
_cell_angle_beta 75.317229
_cell_angle_gamma 20.970254
_cell_volume 602.773073
_symmetry_space_group_name_H-M "P -1"
_symmetry_group_IT_number 2
_symmetry_cell_setting 'triclinic'
loop_
_space_group_symop_operation_xyz
x,y,z
-x,-y,-z
loop_
_atom_site_type_symbol
_atom_site_label
_atom_site_fract_x
_atom_site_fract_y
_atom_site_fract_z
Si Si1 0.254759 0.350899 0.737618
Si Si2 0.862673 0.075119 0.353145
Si Si3 0.288467 0.455391 0.190345
Si Si4 0.876147 0.723306 0.600926
Si Si5 0.306092 0.995186 0.485902
Si Si6 0.666699 0.950424 0.097848
Si Si7 0.639620 0.153982 0.945712
O O1 0.585499 0.102467 0.666012
O O2 0.297930 0.345232 0.889015
O O3 0.931911 0.492513 0.752791
O O4 0.196511 0.470449 0.628655
O O5 0.506073 0.334650 0.311501
O O6 0.806005 0.011706 0.383247
O O7 0.000000 0.000000 0.500000
O O8 0.127098 0.947265 0.206149
O O9 0.013216 0.693039 0.141557
O O10 0.556648 0.268345 0.053704
O O11 0.653868 0.820715 0.506737
O O12 0.951922 0.771205 0.530936
O O13 0.618573 0.876902 0.756265
O O14 0.500000 0.000000 0.000000
O O15 0.745403 0.997440 0.020900
#
# Coordination Sequence:
#
# PCOD9058914 Si02
#       7
#     2   2   2   2   2   2   2
#     4  12  21  41  73 106 132 182 233 294 351 406
#     4  12  27  48  69 100 153 196 225 282 360 432
#     4  12  25  44  76 103 137 189 237 292 351 410
#     4  11  23  38  71 106 135 176 237 298 347 403
#     4  11  23  42  66 101 143 179 232 288 350 413
#     4  12  23  42  72 109 137 172 244 298 345 409
#     4  12  25  46  72 103 146 182 232 295 353 420
#
# _framework density 23.225988999999998
#
# number of rings (size 3 to 8) (size 9 to 14) (size 15 to 20)
#    0.000    0.286    7.143    2.143    0.000    0.571 
#    0.000    2.143    0.000    0.000    0.000    0.000 
#    0.000    0.000    0.000    0.000    0.000    0.000 
#
# Total GULP energy -78296.751947 kJ/mol
# GULP energy per Si atom -5592.625139 kJ/mol
# Density = 2.317313 g / cm^3
# Si number density = 23.225989 Si / 1000 Ang^3
#
#
#
# Elastic Constant Matrix: (Units=GPa)
#
#
# Indices 1 2 3 4 5 6 
#
# 1 53.3522 15.6010 25.1036 -4.9552 -16.5615 2.7091
# 2 15.6010 71.9461 33.2398 -23.8374 -9.7058 -4.6518
# 3 25.1036 33.2398 125.9438 -1.9699 1.7779 -5.6912
# 4 -4.9552 -23.8374 -1.9699 42.1733 1.9166 -7.3526
# 5 -16.5615 -9.7058 1.7779 1.9166 58.4264 -12.6947
# 6 2.7091 -4.6518 -5.6912 -7.3526 -12.6947 34.6888
#
#
#
# Elastic Compliance Matrix: (Units=1/GPa)
#
#
# Indices 1 2 3 4 5 6 
#
# 1 0.023384 -0.001878 -0.004246 0.001164 0.006364 -0.000199
# 2 -0.001878 0.021847 -0.004955 0.012844 0.004248 0.006540
# 3 -0.004246 -0.004955 0.010079 -0.002742 -0.002263 -0.000088
# 4 0.001164 0.012844 -0.002742 0.032450 0.003513 0.009345
# 5 0.006364 0.004248 -0.002263 0.003513 0.021375 0.008268
# 6 -0.000199 0.006540 -0.000088 0.009345 0.008268 0.034713
#
#
# Mechanical properties :
#
#
# Convention : Reuss Voigt Hill
#
# Bulk Modulus (GPa) = 30.16353 44.34789 37.25571
# Shear Modulus (GPa) = 28.23954 38.87754 33.55854
#
# Velocity S-wave (km/s) = 3.49070 4.09575 3.80527
# Velocity P-wave (km/s) = 5.40942 6.44224 5.94829
#
# Compressibility (1/GPa) = 0.03315261
#
# Stress axis : x y z
#
# Youngs Moduli (GPa) = 42.76409 45.77266 99.21327
#
# Poissons Ratio (x) = 0.08594 0.42127
# Poissons Ratio (y) = 0.08029 0.49163
# Poissons Ratio (z) = 0.18158 0.22682
#
# Static dielectric constant tensor:
#      x y z
#    x 1.898520 -0.020790 0.009530 
#    y -0.020790 1.892490 0.007030 
#    z 0.009530 0.007030 1.917790 
# 
# From -- ./inp_files/151543.got.cif
#   From: 2010.05.17/outbox.cif.g08.bks.cpg/sg2_76_cif.got.tgz:151543.got - 2010.06.03 11:33:40.
