data_PCOD9058881
_publ_section_title
;
Structure prediction by ZEFSAII (Michael W. Deem and Ramdas Pophale) SiO2 
 PCOD9058881
Probable space group: P -1
;
_chemical_formula_sum "Si O2"
_cell_formula_units_Z 12
_cell_length_a 9.438602
_cell_length_b 11.963136
_cell_length_c 9.587484
_cell_angle_alpha 131.373541
_cell_angle_beta 129.040464
_cell_angle_gamma 82.456784
_cell_volume 550.370397
_symmetry_space_group_name_H-M "P -1"
_symmetry_group_IT_number 2
_symmetry_cell_setting 'triclinic'
loop_
_space_group_symop_operation_xyz
x,y,z
-x,-y,-z
loop_
_atom_site_type_symbol
_atom_site_label
_atom_site_fract_x
_atom_site_fract_y
_atom_site_fract_z
Si Si1 0.017258 0.622040 0.903202
Si Si2 0.830435 0.595456 0.069595
Si Si3 0.215715 0.115951 0.646007
Si Si4 0.166284 0.002948 0.214214
Si Si5 0.536225 0.978927 0.800459
Si Si6 0.773299 0.267159 0.385446
O O1 0.860657 0.467483 0.577566
O O2 0.203106 0.581093 0.029512
O O3 0.886982 0.597232 0.944689
O O4 0.099416 0.808864 0.053324
O O5 0.694758 0.687617 0.087513
O O6 0.044742 0.719148 0.388538
O O7 0.372781 0.043304 0.715176
O O8 0.176723 0.098129 0.441968
O O9 0.000000 0.000000 0.500000
O O10 0.384664 0.076928 0.329926
O O11 0.000000 0.000000 0.000000
O O12 0.435748 0.829555 0.730377
O O13 0.729855 0.144236 0.127444
#
# Coordination Sequence:
#
# PCOD9058881 Si02
#       6
#     2   2   2   2   2   2
#     4   9  19  40  69  89 128 170 213 254 320 375
#     4   9  18  38  69  89 116 177 213 246 306 387
#     4  12  21  41  68  91 126 174 215 252 321 389
#     4  12  26  41  65  98 130 165 211 271 320 369
#     4  11  23  38  64  98 131 160 213 271 314 372
#     4   9  19  38  65  90 125 171 209 252 313 382
#
# _framework density 21.803497
#
# number of rings (size 3 to 8) (size 9 to 14) (size 15 to 20)
#    1.000    0.667    3.333    1.500    2.333    0.667 
#    0.000    4.167    0.000    0.000    0.000    0.000 
#    0.000    0.000    0.000    0.000    0.000    0.000 
#
# Total GULP energy -66907.090536 kJ/mol
# GULP energy per Si atom -5575.590878 kJ/mol
# Density = 2.175387 g / cm^3
# Si number density = 21.803497 Si / 1000 Ang^3
#
#
#
# Elastic Constant Matrix: (Units=GPa)
#
#
# Indices 1 2 3 4 5 6 
#
# 1 106.0828 9.8983 5.6019 0.4442 -16.1433 -8.2691
# 2 9.8983 85.4575 -15.2130 11.2653 -1.3118 -14.9414
# 3 5.6019 -15.2130 64.1709 0.0974 -8.6344 5.2366
# 4 0.4442 11.2653 0.0974 26.1050 -3.7678 -6.2314
# 5 -16.1433 -1.3118 -8.6344 -3.7678 24.3113 -9.1118
# 6 -8.2691 -14.9414 5.2366 -6.2314 -9.1118 26.5385
#
#
#
# Elastic Compliance Matrix: (Units=1/GPa)
#
#
# Indices 1 2 3 4 5 6 
#
# 1 0.011842 -0.000244 -0.000239 0.003555 0.011452 0.008366
# 2 -0.000244 0.014243 0.003322 -0.003680 0.004158 0.007851
# 3 -0.000239 0.003322 0.017194 -0.000498 0.006206 0.000417
# 4 0.003555 -0.003680 -0.000498 0.045480 0.014588 0.014822
# 5 0.011452 0.004158 0.006206 0.014588 0.064806 0.030361
# 6 0.008366 0.007851 0.000417 0.014822 0.030361 0.058530
#
#
# Mechanical properties :
#
#
# Convention : Reuss Voigt Hill
#
# Bulk Modulus (GPa) = 20.42602 28.47619 24.45110
# Shear Modulus (GPa) = 22.44819 32.41923 27.43371
#
# Velocity S-wave (km/s) = 3.21217 3.86019 3.55100
# Velocity P-wave (km/s) = 4.81102 5.74081 5.29636
#
# Compressibility (1/GPa) = 0.04895716
#
# Stress axis : x y z
#
# Youngs Moduli (GPa) = 84.44576 70.20952 58.16098
#
# Poissons Ratio (x) = 0.01715 0.01389
# Poissons Ratio (y) = 0.02063 -0.19323
# Poissons Ratio (z) = 0.02017 -0.23326
#
# Static dielectric constant tensor:
#      x y z
#    x 1.838960 -0.044660 0.003740 
#    y -0.044660 1.841690 0.019980 
#    z 0.003740 0.019980 1.826890 
# 
# From -- ./inp_files/182915.got.cif
#   From: 2010.05.17/outbox.cif.g08.bks.cpg/sg2_92_cif.got.tgz:182915.got - 2010.06.03 11:33:40.
