data_PCOD9058566
_publ_section_title
;
Structure prediction by ZEFSAII (Michael W. Deem and Ramdas Pophale) SiO2 
 PCOD9058566
Probable space group: P -1
;
_chemical_formula_sum "Si O2"
_cell_formula_units_Z 14
_cell_length_a 5.587389
_cell_length_b 17.887244
_cell_length_c 7.804561
_cell_angle_alpha 102.034968
_cell_angle_beta 118.218635
_cell_angle_gamma 115.168618
_cell_volume 533.737879
_symmetry_space_group_name_H-M "P -1"
_symmetry_group_IT_number 2
_symmetry_cell_setting 'triclinic'
loop_
_space_group_symop_operation_xyz
x,y,z
-x,-y,-z
loop_
_atom_site_type_symbol
_atom_site_label
_atom_site_fract_x
_atom_site_fract_y
_atom_site_fract_z
Si Si1 0.680288 0.108183 0.676746
Si Si2 0.610634 0.792860 0.479789
Si Si3 0.407920 0.396895 0.433230
Si Si4 0.052952 0.587181 0.166108
Si Si5 0.283207 0.320051 0.985190
Si Si6 0.697844 0.109583 0.074483
Si Si7 0.297689 0.731938 0.730368
O O1 0.397689 0.125926 0.568709
O O2 0.500000 0.000000 0.500000
O O3 0.794472 0.116013 0.913587
O O4 0.006740 0.212641 0.764753
O O5 0.368944 0.692347 0.250323
O O6 0.455272 0.765735 0.609048
O O7 0.994610 0.835652 0.661350
O O8 0.500000 0.500000 0.500000
O O9 0.765604 0.414775 0.601622
O O10 0.221087 0.334668 0.170239
O O11 0.115097 0.337542 0.448176
O O12 0.000000 0.500000 0.000000
O O13 0.758068 0.602907 0.080901
O O14 0.614305 0.325853 0.145824
O O15 0.540362 0.166190 0.071334
O O16 0.500000 0.000000 0.000000
#
# Coordination Sequence:
#
# PCOD9058566 Si02
#       7
#     2   2   2   2   2   2   2
#     4  11  24  46  70 102 146 183 237 299 350 427
#     4  11  25  48  70 102 147 186 244 297 355 434
#     4  12  24  48  74 101 146 189 235 301 364 427
#     4  11  22  46  71  99 145 185 232 299 356 426
#     4  11  24  46  69 103 141 187 237 296 352 430
#     4  12  26  46  74 105 143 194 238 298 363 422
#     4  12  23  48  75 100 144 192 239 298 360 429
#
# _framework density 26.230101999999999
#
# number of rings (size 3 to 8) (size 9 to 14) (size 15 to 20)
#    0.000    0.571    7.143    0.857    2.000    2.286 
#   10.286    1.429    0.000    0.000    0.000    0.000 
#    0.000    0.000    0.000    0.000    0.000    0.000 
#
# Total GULP energy -78104.363937 kJ/mol
# GULP energy per Si atom -5578.883138 kJ/mol
# Density = 2.617040 g / cm^3
# Si number density = 26.230102 Si / 1000 Ang^3
#
#
#
# Elastic Constant Matrix: (Units=GPa)
#
#
# Indices 1 2 3 4 5 6 
#
# 1 43.5004 33.7263 21.4369 7.2262 4.3521 -18.7355
# 2 33.7263 189.8852 60.2039 35.9323 5.8798 -47.1792
# 3 21.4369 60.2039 153.9927 14.6127 -14.1783 -23.2359
# 4 7.2262 35.9323 14.6127 71.3963 -22.8062 -1.9393
# 5 4.3521 5.8798 -14.1783 -22.8062 31.3839 -11.6765
# 6 -18.7355 -47.1792 -23.2359 -1.9393 -11.6765 55.1321
#
#
#
# Elastic Compliance Matrix: (Units=1/GPa)
#
#
# Indices 1 2 3 4 5 6 
#
# 1 0.029439 -0.002368 -0.002439 -0.002521 -0.004364 0.005937
# 2 -0.002368 0.008562 -0.002255 -0.004790 -0.004087 0.004538
# 3 -0.002439 -0.002255 0.008522 0.001893 0.006862 0.002353
# 4 -0.002521 -0.004790 0.001893 0.022182 0.018416 0.000522
# 5 -0.004364 -0.004087 0.006862 0.018416 0.053388 0.009866
# 6 0.005937 0.004538 0.002353 0.000522 0.009866 0.027139
#
#
# Mechanical properties :
#
#
# Convention : Reuss Voigt Hill
#
# Bulk Modulus (GPa) = 30.86496 68.67919 49.77207
# Shear Modulus (GPa) = 28.70997 49.71653 39.21325
#
# Velocity S-wave (km/s) = 3.31198 4.35834 3.87068
# Velocity P-wave (km/s) = 5.13986 7.18102 6.24440
#
# Compressibility (1/GPa) = 0.03239920
#
# Stress axis : x y z
#
# Youngs Moduli (GPa) = 33.96897 116.78876 117.34210
#
# Poissons Ratio (x) = 0.27657 0.28620
# Poissons Ratio (y) = 0.08044 0.26459
# Poissons Ratio (z) = 0.08285 0.26334
#
# Static dielectric constant tensor:
#      x y z
#    x 2.023170 -0.166080 0.062090 
#    y -0.166080 2.071360 0.036310 
#    z 0.062090 0.036310 2.046570 
# 
# From -- ./inp_files/139281.got.cif
#   From: 2010.05.17/outbox.cif.g08.bks.cpg/sg2_70_cif.got.tgz:139281.got - 2010.06.03 11:33:40.
