data_PCOD9058896
_publ_section_title
;
Structure prediction by ZEFSAII (Michael W. Deem and Ramdas Pophale) SiO2 
 PCOD9058896
Probable space group: P -1
;
_chemical_formula_sum "Si O2"
_cell_formula_units_Z 16
_cell_length_a 7.854135
_cell_length_b 18.235212
_cell_length_c 7.913930
_cell_angle_alpha 69.426405
_cell_angle_beta 125.535783
_cell_angle_gamma 78.890154
_cell_volume 737.057255
_symmetry_space_group_name_H-M "P -1"
_symmetry_group_IT_number 2
_symmetry_cell_setting 'triclinic'
loop_
_space_group_symop_operation_xyz
x,y,z
-x,-y,-z
loop_
_atom_site_type_symbol
_atom_site_label
_atom_site_fract_x
_atom_site_fract_y
_atom_site_fract_z
Si Si1 0.570095 0.746588 0.691549
Si Si2 0.179899 0.164947 0.616117
Si Si3 0.408850 0.447962 0.603911
Si Si4 0.371041 0.658422 0.851508
Si Si5 0.736298 0.682869 0.502042
Si Si6 0.301399 0.099014 0.372347
Si Si7 0.882365 0.382559 0.519052
Si Si8 0.966661 0.191459 0.813408
O O1 0.554302 0.694340 0.887955
O O2 0.774662 0.680489 0.727040
O O3 0.602438 0.831902 0.667112
O O4 0.304994 0.783129 0.417815
O O5 0.344304 0.212335 0.675502
O O6 0.253571 0.102875 0.542836
O O7 0.151536 0.133350 0.811187
O O8 0.900741 0.251518 0.356142
O O9 0.500000 0.500000 0.500000
O O10 0.420610 0.363736 0.581860
O O11 0.155990 0.535032 0.454965
O O12 0.561182 0.401997 0.896935
O O13 0.360997 0.604462 0.725146
O O14 0.953220 0.627771 0.538644
O O15 0.500000 0.000000 0.500000
O O16 0.057851 0.139733 0.084271
O O17 0.973729 0.285678 0.743427
#
# Coordination Sequence:
#
# PCOD9058896 Si02
#       8
#     2   2   2   2   2   2   2   2
#     4   9  20  41  61  86 117 159 204 234 305 368
#     4   8  20  41  58  85 118 153 204 239 303 368
#     4  12  22  31  55  87 116 154 209 242 290 345
#     4   9  20  37  58  78 115 162 193 245 290 352
#     4   9  19  36  53  80 115 154 192 245 289 343
#     4  11  23  38  66  95 116 154 199 248 311 366
#     4   9  20  38  52  84 118 156 205 243 290 344
#     4   9  20  40  62  81 129 163 190 251 302 351
#
# _framework density 21.707946
#
# number of rings (size 3 to 8) (size 9 to 14) (size 15 to 20)
#    0.000    3.000    0.000    2.250    7.000    1.000 
#    0.000    5.625    0.000    0.000    0.000    0.000 
#    0.000    0.000    0.000    0.000    0.000    0.000 
#
# Total GULP energy -89119.701410 kJ/mol
# GULP energy per Si atom -5569.981338 kJ/mol
# Density = 2.165854 g / cm^3
# Si number density = 21.707946 Si / 1000 Ang^3
#
#
#
# Elastic Constant Matrix: (Units=GPa)
#
#
# Indices 1 2 3 4 5 6 
#
# 1 85.0058 19.0556 -4.4274 0.4597 -9.9678 -8.0338
# 2 19.0556 94.4144 18.6968 3.9295 -7.5914 -33.0854
# 3 -4.4274 18.6968 43.9214 -0.3330 -5.2678 0.7346
# 4 0.4597 3.9295 -0.3330 11.9738 -4.7388 3.4216
# 5 -9.9678 -7.5914 -5.2678 -4.7388 18.9167 4.0965
# 6 -8.0338 -33.0854 0.7346 3.4216 4.0965 32.3423
#
#
#
# Elastic Compliance Matrix: (Units=1/GPa)
#
#
# Indices 1 2 3 4 5 6 
#
# 1 0.013598 -0.003874 0.004109 0.004860 0.008463 -0.002264
# 2 -0.003874 0.022568 -0.011233 -0.016964 -0.005755 0.024903
# 3 0.004109 -0.011233 0.029779 0.013269 0.012330 -0.014112
# 4 0.004860 -0.016964 0.013269 0.112341 0.034677 -0.032725
# 5 0.008463 -0.005755 0.012330 0.034677 0.070749 -0.016695
# 6 -0.002264 0.024903 -0.014112 -0.032725 -0.016695 0.061729
#
#
# Mechanical properties :
#
#
# Convention : Reuss Voigt Hill
#
# Bulk Modulus (GPa) = 22.75217 32.22129 27.48673
# Shear Modulus (GPa) = 14.39229 25.31434 19.85332
#
# Velocity S-wave (km/s) = 2.57767 3.41857 3.02746
# Velocity P-wave (km/s) = 4.40033 5.51883 4.99101
#
# Compressibility (1/GPa) = 0.04395186
#
# Stress axis : x y z
#
# Youngs Moduli (GPa) = 73.53824 44.31119 33.58037
#
# Poissons Ratio (x) = 0.17164 -0.13800
# Poissons Ratio (y) = 0.28485 0.37720
# Poissons Ratio (z) = -0.30220 0.49773
#
# Static dielectric constant tensor:
#      x y z
#    x 1.892590 0.001390 0.027600 
#    y 0.001390 1.835090 0.046990 
#    z 0.027600 0.046990 1.836630 
# 
# From -- ./inp_files/217369.got.cif
#   From: 2010.05.17/outbox.cif.g08.bks.cpg/sg2_109_cif.got.tgz:217369.got - 2010.06.03 11:33:40.
