data_PCOD9058488
_publ_section_title
;
Structure prediction by ZEFSAII (Michael W. Deem and Ramdas Pophale) SiO2 
 PCOD9058488
Probable space group: P -1
;
_chemical_formula_sum "Si O2"
_cell_formula_units_Z 12
_cell_length_a 11.996211
_cell_length_b 9.480345
_cell_length_c 5.575954
_cell_angle_alpha 91.768617
_cell_angle_beta 47.752225
_cell_angle_gamma 99.391384
_cell_volume 460.422162
_symmetry_space_group_name_H-M "P -1"
_symmetry_group_IT_number 2
_symmetry_cell_setting 'triclinic'
loop_
_space_group_symop_operation_xyz
x,y,z
-x,-y,-z
loop_
_atom_site_type_symbol
_atom_site_label
_atom_site_fract_x
_atom_site_fract_y
_atom_site_fract_z
Si Si1 0.483295 0.830618 0.468393
Si Si2 0.824029 0.309494 0.584837
Si Si3 0.737312 0.683194 0.280416
Si Si4 0.175579 0.611273 0.916246
Si Si5 0.992350 0.079461 0.267127
Si Si6 0.536901 0.675017 0.910585
O O1 0.572274 0.741771 0.528192
O O2 0.306937 0.755843 0.717627
O O3 0.500000 0.000000 0.500000
O O4 0.555533 0.786962 0.116578
O O5 0.896581 0.391739 0.245026
O O6 0.841184 0.146603 0.507840
O O7 0.906165 0.364336 0.717887
O O8 0.647233 0.316189 0.867335
O O9 0.737684 0.522848 0.192206
O O10 0.727837 0.685989 0.578730
O O11 0.863521 0.790140 0.965905
O O12 0.000000 0.000000 0.500000
O O13 0.000000 0.000000 0.000000
O O14 0.500000 0.500000 0.000000
#
# Coordination Sequence:
#
# PCOD9058488 Si02
#       6
#     2   2   2   2   2   2
#     4  11  25  39  71 115 152 190 248 314 381 444
#     4  11  24  46  77 103 156 192 250 312 374 446
#     4  12  26  44  79 106 151 205 249 312 382 449
#     4  11  24  46  77 112 148 190 257 309 378 454
#     4  12  32  52  71 107 159 201 254 312 380 453
#     4  11  22  45  76 112 152 190 252 317 377 451
#
# _framework density 26.063034999999999
#
# number of rings (size 3 to 8) (size 9 to 14) (size 15 to 20)
#    0.000    0.667    5.000    2.500    9.333    2.000 
#    0.000    0.000    0.000    0.000    0.000    0.000 
#    0.000    0.000    0.000    0.000    0.000    0.000 
#
# Total GULP energy -66872.835184 kJ/mol
# GULP energy per Si atom -5572.736265 kJ/mol
# Density = 2.600371 g / cm^3
# Si number density = 26.063035 Si / 1000 Ang^3
#
#
#
# Elastic Constant Matrix: (Units=GPa)
#
#
# Indices 1 2 3 4 5 6 
#
# 1 95.5846 51.8637 37.3628 13.6387 22.7950 -21.3882
# 2 51.8637 206.4329 87.4080 22.5969 21.8624 -17.7628
# 3 37.3628 87.4080 167.6318 8.9103 26.0469 3.1897
# 4 13.6387 22.5969 8.9103 61.5294 12.0775 -1.3247
# 5 22.7950 21.8624 26.0469 12.0775 41.9900 18.2643
# 6 -21.3882 -17.7628 3.1897 -1.3247 18.2643 45.9217
#
#
#
# Elastic Compliance Matrix: (Units=1/GPa)
#
#
# Indices 1 2 3 4 5 6 
#
# 1 0.018222 -0.001240 -0.001446 -0.000279 -0.014259 0.013771
# 2 -0.001240 0.007115 -0.003095 -0.001412 -0.002089 0.003180
# 3 -0.001446 -0.003095 0.008244 0.000671 -0.002244 -0.001532
# 4 -0.000279 -0.001412 0.000671 0.017865 -0.005536 0.001995
# 5 -0.014259 -0.002089 -0.002244 -0.005536 0.047000 -0.026146
# 6 0.013771 0.003180 -0.001532 0.001995 -0.026146 0.039983
#
#
# Mechanical properties :
#
#
# Convention : Reuss Voigt Hill
#
# Bulk Modulus (GPa) = 45.41636 91.43536 68.42586
# Shear Modulus (GPa) = 31.78014 49.42254 40.60134
#
# Velocity S-wave (km/s) = 3.49572 4.35934 3.95120
# Velocity P-wave (km/s) = 5.81006 7.77798 6.86490
#
# Compressibility (1/GPa) = 0.02201850
#
# Stress axis : x y z
#
# Youngs Moduli (GPa) = 54.87959 140.53892 121.30517
#
# Poissons Ratio (x) = 0.17427 0.17546
# Poissons Ratio (y) = 0.06805 0.37540
# Poissons Ratio (z) = 0.07938 0.43493
#
# Static dielectric constant tensor:
#      x y z
#    x 2.538740 -0.118840 0.413720 
#    y -0.118840 2.079110 -0.122930 
#    z 0.413720 -0.122930 2.378560 
# 
# From -- ./inp_files/77487.got.cif
#   From: 2010.05.17/outbox.cif.g08.bks.cpg/sg2_39_cif.got.tgz:77487.got - 2010.06.03 11:33:40.
