data_PCOD9058415
_publ_section_title
;
Structure prediction by ZEFSAII (Michael W. Deem and Ramdas Pophale) SiO2 
 PCOD9058415
Probable space group: P -1
;
_chemical_formula_sum "Si O2"
_cell_formula_units_Z 16
_cell_length_a 14.339469
_cell_length_b 8.803861
_cell_length_c 9.467799
_cell_angle_alpha 79.483016
_cell_angle_beta 94.494205
_cell_angle_gamma 138.570580
_cell_volume 774.451179
_symmetry_space_group_name_H-M "P -1"
_symmetry_group_IT_number 2
_symmetry_cell_setting 'triclinic'
loop_
_space_group_symop_operation_xyz
x,y,z
-x,-y,-z
loop_
_atom_site_type_symbol
_atom_site_label
_atom_site_fract_x
_atom_site_fract_y
_atom_site_fract_z
Si Si1 0.548629 0.399078 0.634503
Si Si2 0.483196 0.659113 0.660570
Si Si3 0.854077 0.798529 0.934119
Si Si4 0.963135 0.323202 0.639941
Si Si5 0.755255 0.438239 0.208200
Si Si6 0.275352 0.021085 0.129467
Si Si7 0.870113 0.880866 0.604658
Si Si8 0.582074 0.978272 0.105887
O O1 0.473023 0.462108 0.667781
O O2 0.479450 0.244026 0.511024
O O3 0.711980 0.641466 0.578497
O O4 0.533106 0.263884 0.783523
O O5 0.344013 0.575394 0.707094
O O6 0.598614 0.829578 0.766384
O O7 0.781533 0.567852 0.045682
O O8 0.766996 0.851753 0.920819
O O9 0.885786 0.817624 0.769375
O O10 0.000000 0.000000 0.000000
O O11 0.000000 0.500000 0.500000
O O12 0.103394 0.428026 0.712144
O O13 0.856406 0.232028 0.771020
O O14 0.882897 0.080335 0.597376
O O15 0.677839 0.186300 0.195027
O O16 0.325526 0.010405 0.991064
O O17 0.000000 0.000000 0.500000
O O18 0.500000 0.000000 0.000000
#
# Coordination Sequence:
#
# PCOD9058415 Si02
#       8
#     2   2   2   2   2   2   2   2
#     4  11  25  44  70 105 135 181 234 286 345 414
#     4  11  24  44  75  96 138 178 240 281 345 404
#     4  11  22  45  72  99 135 180 236 280 345 407
#     4  11  26  46  69 100 143 182 226 284 354 407
#     4  12  25  45  72 104 138 183 233 288 347 415
#     4  11  24  48  70 101 140 186 229 290 342 410
#     4  11  23  45  71 101 134 180 232 283 339 411
#     4  12  27  43  69 106 142 180 230 286 354 411
#
# _framework density 20.659791999999999
#
# number of rings (size 3 to 8) (size 9 to 14) (size 15 to 20)
#    0.000    0.750    6.250    2.250    1.750    5.000 
#    2.250    0.000    0.000    0.000    0.000    0.000 
#    0.000    0.000    0.000    0.000    0.000    0.000 
#
# Total GULP energy -89405.231176 kJ/mol
# GULP energy per Si atom -5587.826948 kJ/mol
# Density = 2.061277 g / cm^3
# Si number density = 20.659792 Si / 1000 Ang^3
#
#
#
# Elastic Constant Matrix: (Units=GPa)
#
#
# Indices 1 2 3 4 5 6 
#
# 1 89.0018 35.3367 65.4116 -9.6229 -2.7585 13.8568
# 2 35.3367 86.3503 43.4414 -7.4408 -4.4457 10.1547
# 3 65.4116 43.4414 133.5523 -19.8582 4.4740 -11.0009
# 4 -9.6229 -7.4408 -19.8582 40.7649 -3.5295 5.9398
# 5 -2.7585 -4.4457 4.4740 -3.5295 45.5697 6.3020
# 6 13.8568 10.1547 -11.0009 5.9398 6.3020 23.4982
#
#
#
# Elastic Compliance Matrix: (Units=1/GPa)
#
#
# Indices 1 2 3 4 5 6 
#
# 1 0.026745 0.000282 -0.015033 0.003378 0.006930 -0.025643
# 2 0.000282 0.016389 -0.006267 0.002071 0.004021 -0.011784
# 3 -0.015033 -0.006267 0.019036 0.000826 -0.006366 0.021983
# 4 0.003378 0.002071 0.000826 0.028003 0.003966 -0.010642
# 5 0.006930 0.004021 -0.006366 0.003966 0.026009 -0.016783
# 6 -0.025643 -0.011784 0.021983 -0.010642 -0.016783 0.080253
#
#
# Mechanical properties :
#
#
# Convention : Reuss Voigt Hill
#
# Bulk Modulus (GPa) = 49.66625 66.36488 58.01556
# Shear Modulus (GPa) = 20.39302 32.94754 26.67028
#
# Velocity S-wave (km/s) = 3.14520 3.99779 3.59684
# Velocity P-wave (km/s) = 6.10590 7.31452 6.73736
#
# Compressibility (1/GPa) = 0.02013440
#
# Stress axis : x y z
#
# Youngs Moduli (GPa) = 37.39063 61.01529 52.53262
#
# Poissons Ratio (x) = -0.01719 0.78971
# Poissons Ratio (y) = -0.01053 0.32920
# Poissons Ratio (z) = 0.56209 0.38235
#
# Static dielectric constant tensor:
#      x y z
#    x 1.732410 0.002450 -0.009200 
#    y 0.002450 1.783030 -0.003990 
#    z -0.009200 -0.003990 1.771430 
# 
# From -- ./inp_files/298257.got.cif
#   From: 2010.05.17/outbox.cif.g08.bks.cpg/sg2_150_cif.got.tgz:298257.got - 2010.06.03 11:33:40.
