data_PCOD9058638
_publ_section_title
;
Structure prediction by ZEFSAII (Michael W. Deem and Ramdas Pophale) SiO2 
 PCOD9058638
Probable space group: P -1
;
_chemical_formula_sum "Si O2"
_cell_formula_units_Z 11
_cell_length_a 11.487883
_cell_length_b 10.733877
_cell_length_c 5.634032
_cell_angle_alpha 55.223685
_cell_angle_beta 115.806356
_cell_angle_gamma 120.246172
_cell_volume 482.113097
_symmetry_space_group_name_H-M "P -1"
_symmetry_group_IT_number 2
_symmetry_cell_setting 'triclinic'
loop_
_space_group_symop_operation_xyz
x,y,z
-x,-y,-z
loop_
_atom_site_type_symbol
_atom_site_label
_atom_site_fract_x
_atom_site_fract_y
_atom_site_fract_z
Si Si1 0.561578 0.632641 0.211119
Si Si2 0.000000 0.500000 0.500000
Si Si3 0.327695 0.599880 0.710951
Si Si4 0.775247 0.903209 0.407677
Si Si5 0.514170 0.921530 0.348440
Si Si6 0.005327 0.859053 0.972897
O O1 0.500000 0.500000 0.500000
O O2 0.638398 0.557534 0.169980
O O3 0.676685 0.783787 0.261024
O O4 0.428119 0.661765 0.957045
O O5 0.832870 0.437097 0.365610
O O6 0.005853 0.693103 0.268631
O O7 0.398450 0.743696 0.433396
O O8 0.670276 0.923858 0.485575
O O9 0.877483 0.829745 0.710437
O O10 0.863589 0.062038 0.169494
O O11 0.500000 0.000000 0.500000
O O12 0.500000 0.000000 0.000000
O O13 0.000000 0.000000 0.000000
#
# Coordination Sequence:
#
# PCOD9058638 Si02
#       6
#     2   1   2   2   2   2
#     4  11  22  46  76 111 147 202 267 328 399 471
#     4  12  26  48  74 112 154 206 266 332 402 486
#     4  11  26  43  75 109 154 204 261 331 401 475
#     4  11  25  48  78 112 156 208 268 331 404 480
#     4  12  27  46  76 114 155 209 270 335 399 484
#     4  11  27  50  79 113 159 211 259 336 406 484
#
# _framework density 22.816222
#
# number of rings (size 3 to 8) (size 9 to 14) (size 15 to 20)
#    0.000    0.727    1.818    4.364   10.182    0.000 
#    0.000    9.091    0.000    0.000    0.000    0.000 
#    0.000    0.000    0.000    0.000    0.000    0.000 
#
# Total GULP energy -61247.580791 kJ/mol
# GULP energy per Si atom -5567.961890 kJ/mol
# Density = 2.276429 g / cm^3
# Si number density = 22.816222 Si / 1000 Ang^3
#
#
#
# Elastic Constant Matrix: (Units=GPa)
#
#
# Indices 1 2 3 4 5 6 
#
# 1 127.5806 98.6100 42.7055 16.9677 30.3878 23.3927
# 2 98.6100 143.4764 76.7783 -0.9810 14.9065 18.5708
# 3 42.7055 76.7783 138.9264 -6.4647 26.7990 12.5558
# 4 16.9677 -0.9810 -6.4647 45.5147 -0.7911 7.6938
# 5 30.3878 14.9065 26.7990 -0.7911 33.2787 13.7793
# 6 23.3927 18.5708 12.5558 7.6938 13.7793 53.5583
#
#
#
# Elastic Compliance Matrix: (Units=1/GPa)
#
#
# Indices 1 2 3 4 5 6 
#
# 1 0.028367 -0.020830 0.006558 -0.010576 -0.022337 0.000561
# 2 -0.020830 0.025476 -0.010412 0.007620 0.017357 -0.002855
# 3 0.006558 -0.010412 0.013179 -0.001184 -0.012385 0.001013
# 4 -0.010576 0.007620 -0.001184 0.026757 0.009504 -0.004034
# 5 -0.022337 0.017357 -0.012385 0.009504 0.056729 -0.009319
# 6 0.000561 -0.002855 0.001013 -0.004034 -0.009319 0.022156
#
#
# Mechanical properties :
#
#
# Convention : Reuss Voigt Hill
#
# Bulk Modulus (GPa) = 56.64522 94.01901 75.33212
# Shear Modulus (GPa) = 21.93795 39.26298 30.60046
#
# Velocity S-wave (km/s) = 3.10418 4.15280 3.66617
# Velocity P-wave (km/s) = 6.14236 8.01816 7.14211
#
# Compressibility (1/GPa) = 0.01765374
#
# Stress axis : x y z
#
# Youngs Moduli (GPa) = 35.25239 39.25267 75.87954
#
# Poissons Ratio (x) = 0.81763 -0.49760
# Poissons Ratio (y) = 0.73430 0.79005
# Poissons Ratio (z) = -0.23118 0.40870
#
# Static dielectric constant tensor:
#      x y z
#    x 1.938230 -0.030260 -0.025910 
#    y -0.030260 1.886670 -0.001560 
#    z -0.025910 -0.001560 1.799880 
# 
# From -- ./inp_files/22711.got.cif
#   From: 2010.05.17/outbox.cif.g08.bks.cpg/sg2_12_cif.got.tgz:22711.got - 2010.06.03 11:33:40.
