data_PCOD9058776
_publ_section_title
;
Structure prediction by ZEFSAII (Michael W. Deem and Ramdas Pophale) SiO2 
 PCOD9058776
Probable space group: P -1
;
_chemical_formula_sum "Si O2"
_cell_formula_units_Z 14
_cell_length_a 8.793636
_cell_length_b 9.374439
_cell_length_c 12.877592
_cell_angle_alpha 127.037485
_cell_angle_beta 130.511881
_cell_angle_gamma 75.346377
_cell_volume 627.292139
_symmetry_space_group_name_H-M "P -1"
_symmetry_group_IT_number 2
_symmetry_cell_setting 'triclinic'
loop_
_space_group_symop_operation_xyz
x,y,z
-x,-y,-z
loop_
_atom_site_type_symbol
_atom_site_label
_atom_site_fract_x
_atom_site_fract_y
_atom_site_fract_z
Si Si1 0.061915 0.978373 0.817138
Si Si2 0.472022 0.069766 0.155342
Si Si3 0.224454 0.288234 0.278397
Si Si4 0.961921 0.344191 0.999731
Si Si5 0.166675 0.588913 0.525395
Si Si6 0.516829 0.297381 0.881870
Si Si7 0.088985 0.169849 0.539824
O O1 0.971136 0.156045 0.865457
O O2 0.303153 0.037870 0.975412
O O3 0.971055 0.844891 0.812884
O O4 0.978695 0.887989 0.632415
O O5 0.373747 0.161071 0.250093
O O6 0.663939 0.235159 0.284631
O O7 0.513582 0.874579 0.125661
O O8 0.283192 0.447178 0.460596
O O9 0.142585 0.372186 0.177336
O O10 0.742534 0.321869 0.946329
O O11 0.000000 0.500000 0.000000
O O12 0.000000 0.500000 0.500000
O O13 0.025621 0.667084 0.414335
O O14 0.331153 0.234701 0.690511
O O15 0.500000 0.500000 0.000000
O O16 0.000000 0.000000 0.500000
#
# Coordination Sequence:
#
# PCOD9058776 Si02
#       7
#     2   2   2   2   2   2   2
#     4  11  24  48  77 100 144 191 243 292 358 432
#     4  11  24  49  77 103 139 196 243 293 356 431
#     4  11  22  49  74 104 143 185 245 296 352 431
#     4  11  25  44  75 108 141 187 240 300 358 423
#     4  12  26  46  73 108 144 189 241 296 357 429
#     4  12  26  47  75 105 148 190 237 294 368 425
#     4  12  28  46  68 110 152 187 233 303 362 418
#
# _framework density 22.318148000000001
#
# number of rings (size 3 to 8) (size 9 to 14) (size 15 to 20)
#    0.000    0.571    5.714    2.143    4.000    3.429 
#    5.143    0.000    0.000    0.000    0.000    0.000 
#    0.000    0.000    0.000    0.000    0.000    0.000 
#
# Total GULP energy -78271.898991 kJ/mol
# GULP energy per Si atom -5590.849928 kJ/mol
# Density = 2.226735 g / cm^3
# Si number density = 22.318148 Si / 1000 Ang^3
#
#
#
# Elastic Constant Matrix: (Units=GPa)
#
#
# Indices 1 2 3 4 5 6 
#
# 1 81.7245 40.2968 50.1062 12.4598 -0.5827 -6.1692
# 2 40.2968 163.8837 49.7434 15.9200 -6.7191 3.4135
# 3 50.1062 49.7434 127.5549 13.4281 0.9326 -6.8576
# 4 12.4598 15.9200 13.4281 37.7626 -4.0213 -2.5626
# 5 -0.5827 -6.7191 0.9326 -4.0213 44.4489 8.1580
# 6 -6.1692 3.4135 -6.8576 -2.5626 8.1580 54.3297
#
#
#
# Elastic Compliance Matrix: (Units=1/GPa)
#
#
# Indices 1 2 3 4 5 6 
#
# 1 0.017293 -0.002366 -0.005507 -0.002711 -0.000511 0.001366
# 2 -0.002366 0.007496 -0.001894 -0.001660 0.001219 -0.001240
# 3 -0.005507 -0.001894 0.010936 -0.001303 -0.000879 0.000945
# 4 -0.002711 -0.001660 -0.001303 0.028821 0.002228 0.000657
# 5 -0.000511 0.001219 -0.000879 0.002228 0.023571 -0.003680
# 6 0.001366 -0.001240 0.000945 0.000657 -0.003680 0.019342
#
#
# Mechanical properties :
#
#
# Convention : Reuss Voigt Hill
#
# Bulk Modulus (GPa) = 61.77343 72.60620 67.18981
# Shear Modulus (GPa) = 37.76699 42.84267 40.30483
#
# Velocity S-wave (km/s) = 4.11811 4.38612 4.25422
# Velocity P-wave (km/s) = 7.09580 7.63241 7.36899
#
# Compressibility (1/GPa) = 0.01618819
#
# Stress axis : x y z
#
# Youngs Moduli (GPa) = 57.82828 133.40706 91.43829
#
# Poissons Ratio (x) = 0.31569 0.50359
# Poissons Ratio (y) = 0.13684 0.17323
# Poissons Ratio (z) = 0.31848 0.25274
#
# Static dielectric constant tensor:
#      x y z
#    x 1.869960 -0.046940 -0.018930 
#    y -0.046940 1.800120 0.026840 
#    z -0.018930 0.026840 1.838520 
# 
# From -- ./inp_files/185168.got.cif
#   From: 2010.05.17/outbox.cif.g08.bks.cpg/sg2_93_cif.got.tgz:185168.got - 2010.06.03 11:33:40.
