data_PCOD9058035
_publ_section_title
;
Structure prediction by ZEFSAII (Michael W. Deem and Ramdas Pophale) SiO2 
 PCOD9058035
Probable space group: P -1
;
_chemical_formula_sum "Si O2"
_cell_formula_units_Z 16
_cell_length_a 7.496477
_cell_length_b 11.811920
_cell_length_c 8.731292
_cell_angle_alpha 116.830405
_cell_angle_beta 110.044602
_cell_angle_gamma 73.448475
_cell_volume 640.253341
_symmetry_space_group_name_H-M "P -1"
_symmetry_group_IT_number 2
_symmetry_cell_setting 'triclinic'
loop_
_space_group_symop_operation_xyz
x,y,z
-x,-y,-z
loop_
_atom_site_type_symbol
_atom_site_label
_atom_site_fract_x
_atom_site_fract_y
_atom_site_fract_z
Si Si1 0.785414 0.052135 0.525895
Si Si2 0.724174 0.277055 0.115907
Si Si3 0.123202 0.595448 0.511002
Si Si4 0.237042 0.199707 0.449785
Si Si5 0.206262 0.478298 0.133050
Si Si6 0.695765 0.029553 0.146837
Si Si7 0.144950 0.227070 0.088388
Si Si8 0.417474 0.696375 0.227304
O O1 0.671572 0.060980 0.337224
O O2 0.740621 0.190574 0.677523
O O3 0.730087 0.942112 0.554905
O O4 0.000000 0.000000 0.500000
O O5 0.706701 0.380775 0.310120
O O6 0.752244 0.143417 0.131809
O O7 0.926375 0.288739 0.098819
O O8 0.575267 0.279185 0.936675
O O9 0.188367 0.539771 0.334043
O O10 0.000000 0.500000 0.500000
O O11 0.975926 0.727667 0.525933
O O12 0.240305 0.199005 0.266150
O O13 0.387956 0.282462 0.617862
O O14 0.249042 0.326825 0.086330
O O15 0.352268 0.557875 0.141683
O O16 0.000000 0.500000 0.000000
O O17 0.500000 0.000000 0.000000
O O18 0.848648 0.902552 0.083984
#
# Coordination Sequence:
#
# PCOD9058035 Si02
#       8
#     2   2   2   2   2   2   2   2
#     4  12  24  42  70 101 129 175 223 272 321 399
#     4  11  22  44  69  93 128 176 216 264 324 389
#     4  11  22  46  68  94 129 172 226 259 324 395
#     4  11  24  42  68 101 132 172 215 280 330 380
#     4  12  24  45  69  97 131 175 225 263 318 405
#     4  12  25  42  64 100 133 165 217 276 328 380
#     4  11  23  44  67  92 132 178 215 261 328 391
#     4  12  24  43  67 102 137 171 216 276 332 379
#
# _framework density 24.990106000000001
#
# number of rings (size 3 to 8) (size 9 to 14) (size 15 to 20)
#    0.000    0.500    3.750    6.750    1.750    0.500 
#    2.250    1.250    0.000    0.000    0.000    0.000 
#    0.000    0.000    0.000    0.000    0.000    0.000 
#
# Total GULP energy -89715.737460 kJ/mol
# GULP energy per Si atom -5607.233591 kJ/mol
# Density = 2.493323 g / cm^3
# Si number density = 24.990106 Si / 1000 Ang^3
#
#
#
# Elastic Constant Matrix: (Units=GPa)
#
#
# Indices 1 2 3 4 5 6 
#
# 1 75.1870 22.1729 25.6748 -7.8170 3.3231 8.3853
# 2 22.1729 139.3541 35.1915 -2.3219 -16.0664 43.4507
# 3 25.6748 35.1915 177.1235 -15.2097 -8.0870 7.4901
# 4 -7.8170 -2.3219 -15.2097 41.1905 1.3061 5.0629
# 5 3.3231 -16.0664 -8.0870 1.3061 44.6947 2.2095
# 6 8.3853 43.4507 7.4901 5.0629 2.2095 42.0483
#
#
#
# Elastic Compliance Matrix: (Units=1/GPa)
#
#
# Indices 1 2 3 4 5 6 
#
# 1 0.014842 -0.001870 -0.001642 0.002282 -0.002095 -0.000900
# 2 -0.001870 0.012286 -0.001312 0.001234 0.004900 -0.012496
# 3 -0.001642 -0.001312 0.006328 0.001892 0.000726 0.000290
# 4 0.002282 0.001234 0.001892 0.026117 0.000111 -0.005218
# 5 -0.002095 0.004900 0.000726 0.000111 0.024720 -0.006087
# 6 -0.000900 -0.012496 0.000290 -0.005218 -0.006087 0.037770
#
#
# Mechanical properties :
#
#
# Convention : Reuss Voigt Hill
#
# Bulk Modulus (GPa) = 41.99993 61.97143 51.98568
# Shear Modulus (GPa) = 35.80446 46.16174 40.98310
#
# Velocity S-wave (km/s) = 3.78927 4.30257 4.05405
# Velocity P-wave (km/s) = 5.99899 7.03811 6.53922
#
# Compressibility (1/GPa) = 0.02380957
#
# Stress axis : x y z
#
# Youngs Moduli (GPa) = 67.37439 81.39062 158.03350
#
# Poissons Ratio (x) = 0.15220 0.25942
# Poissons Ratio (y) = 0.12599 0.20734
# Poissons Ratio (z) = 0.11060 0.10678
#
# Static dielectric constant tensor:
#      x y z
#    x 2.031580 -0.059530 0.028900 
#    y -0.059530 2.053280 0.020760 
#    z 0.028900 0.020760 1.932810 
# 
# From -- ./inp_files/190367.got.cif
#   From: 2010.05.17/outbox.cif.g08.bks.cpg/sg2_96_cif.got.tgz:190367.got - 2010.06.03 11:33:40.
