data_PCOD9058285
_publ_section_title
;
Structure prediction by ZEFSAII (Michael W. Deem and Ramdas Pophale) SiO2 
 PCOD9058285
Probable space group: P -1
;
_chemical_formula_sum "Si O2"
_cell_formula_units_Z 16
_cell_length_a 9.272370
_cell_length_b 25.856955
_cell_length_c 9.866710
_cell_angle_alpha 134.383503
_cell_angle_beta 79.580440
_cell_angle_gamma 137.725401
_cell_volume 811.774076
_symmetry_space_group_name_H-M "P -1"
_symmetry_group_IT_number 2
_symmetry_cell_setting 'triclinic'
loop_
_space_group_symop_operation_xyz
x,y,z
-x,-y,-z
loop_
_atom_site_type_symbol
_atom_site_label
_atom_site_fract_x
_atom_site_fract_y
_atom_site_fract_z
Si Si1 0.068954 0.876607 0.343145
Si Si2 0.084259 0.889216 0.849723
Si Si3 0.726548 0.179096 0.423488
Si Si4 0.830779 0.846595 0.056871
Si Si5 0.157102 0.596085 0.782876
Si Si6 0.251720 0.799352 0.214756
Si Si7 0.850581 0.875649 0.615913
Si Si8 0.158002 0.612858 0.297509
O O1 0.060942 0.786388 0.176043
O O2 0.986240 0.876534 0.214098
O O3 0.868493 0.822629 0.398606
O O4 0.416382 0.048011 0.626426
O O5 0.096447 0.816259 0.643799
O O6 0.038444 0.928158 0.809582
O O7 0.830234 0.792188 0.828838
O O8 0.396569 0.032015 0.141102
O O9 0.710328 0.177985 0.587083
O O10 0.870626 0.314487 0.591967
O O11 0.509372 0.733738 0.956014
O O12 0.010544 0.993374 0.237837
O O13 0.000000 0.500000 0.500000
O O14 0.010229 0.485102 0.720762
O O15 0.121766 0.665777 0.951172
O O16 0.511624 0.745895 0.480878
O O17 0.000000 0.500000 0.000000
#
# Coordination Sequence:
#
# PCOD9058285 Si02
#       8
#     2   2   2   2   2   2   2   2
#     4  11  23  39  73 103 131 175 227 283 333 390
#     4  11  24  41  71 103 134 173 230 284 327 389
#     4  11  23  43  68 101 138 177 222 278 340 394
#     4  12  24  44  68 103 135 174 230 279 326 399
#     4  12  28  45  68 100 141 178 217 279 346 401
#     4  11  22  45  67 102 139 175 221 278 345 394
#     4  12  23  42  69 104 133 175 236 276 321 399
#     4  12  25  44  69  97 139 183 221 271 341 404
#
# _framework density 19.709918999999999
#
# number of rings (size 3 to 8) (size 9 to 14) (size 15 to 20)
#    0.000    0.500    6.250    2.250    1.750    1.000 
#    0.000    7.500    0.000    0.000    0.000    0.000 
#    0.000    0.000    0.000    0.000    0.000    0.000 
#
# Total GULP energy -89462.139245 kJ/mol
# GULP energy per Si atom -5591.383703 kJ/mol
# Density = 1.966506 g / cm^3
# Si number density = 19.709919 Si / 1000 Ang^3
#
#
#
# Elastic Constant Matrix: (Units=GPa)
#
#
# Indices 1 2 3 4 5 6 
#
# 1 146.4411 48.7836 48.3462 -4.8652 -12.9586 -9.4226
# 2 48.7836 122.0743 30.0400 -7.5277 -2.5021 -2.8594
# 3 48.3462 30.0400 78.2354 -12.2821 -12.8117 -6.4009
# 4 -4.8652 -7.5277 -12.2821 41.4876 -4.0176 3.2466
# 5 -12.9586 -2.5021 -12.8117 -4.0176 35.2027 -7.7394
# 6 -9.4226 -2.8594 -6.4009 3.2466 -7.7394 35.2405
#
#
#
# Elastic Compliance Matrix: (Units=1/GPa)
#
#
# Indices 1 2 3 4 5 6 
#
# 1 0.009462 -0.002641 -0.004432 -0.000641 0.002053 0.002021
# 2 -0.002641 0.009810 -0.002260 0.000740 -0.001154 -0.000642
# 3 -0.004432 -0.002260 0.018385 0.004878 0.006084 0.002857
# 4 -0.000641 0.000740 0.004878 0.026087 0.004425 -0.000657
# 5 0.002053 -0.001154 0.006084 0.004425 0.033680 0.008549
# 6 0.002021 -0.000642 0.002857 -0.000657 0.008549 0.031322
#
#
# Mechanical properties :
#
#
# Convention : Reuss Voigt Hill
#
# Bulk Modulus (GPa) = 52.65871 66.78783 59.72327
# Shear Modulus (GPa) = 32.52211 37.02489 34.77350
#
# Velocity S-wave (km/s) = 4.06647 4.33886 4.20487
# Velocity P-wave (km/s) = 6.98735 7.68504 7.34449
#
# Compressibility (1/GPa) = 0.01899021
#
# Stress axis : x y z
#
# Youngs Moduli (GPa) = 105.68519 101.93516 54.39309
#
# Poissons Ratio (x) = 0.26918 0.24108
# Poissons Ratio (y) = 0.27908 0.12295
# Poissons Ratio (z) = 0.46842 0.23042
#
# Static dielectric constant tensor:
#      x y z
#    x 1.714820 0.023650 0.011420 
#    y 0.023650 1.657390 -0.010630 
#    z 0.011420 -0.010630 1.729220 
# 
# From -- ./inp_files/208279.got.cif
#   From: 2010.05.17/outbox.cif.g08.bks.cpg/sg2_105_cif.got.tgz:208279.got - 2010.06.03 11:33:40.
