data_PCOD9058143
_publ_section_title
;
Structure prediction by ZEFSAII (Michael W. Deem and Ramdas Pophale) SiO2 
 PCOD9058143
Probable space group: P -1
;
_chemical_formula_sum "Si O2"
_cell_formula_units_Z 14
_cell_length_a 14.539313
_cell_length_b 9.134887
_cell_length_c 13.500122
_cell_angle_alpha 54.288122
_cell_angle_beta 64.364752
_cell_angle_gamma 30.601392
_cell_volume 730.489298
_symmetry_space_group_name_H-M "P -1"
_symmetry_group_IT_number 2
_symmetry_cell_setting 'triclinic'
loop_
_space_group_symop_operation_xyz
x,y,z
-x,-y,-z
loop_
_atom_site_type_symbol
_atom_site_label
_atom_site_fract_x
_atom_site_fract_y
_atom_site_fract_z
Si Si1 0.150711 0.295919 0.710057
Si Si2 0.762118 0.157070 0.284706
Si Si3 0.060629 0.802827 0.452291
Si Si4 0.347476 0.643281 0.276781
Si Si5 0.660251 0.654737 0.005510
Si Si6 0.901907 0.639500 0.884513
Si Si7 0.460562 0.368046 0.123204
O O1 0.119491 0.517101 0.571003
O O2 0.026797 0.483963 0.791516
O O3 0.128329 0.148896 0.712446
O O4 0.356459 0.984249 0.777543
O O5 0.561893 0.358337 0.320043
O O6 0.716490 0.400932 0.145306
O O7 0.889152 0.030526 0.366996
O O8 0.229077 0.669780 0.380607
O O9 0.000000 0.000000 0.500000
O O10 0.338407 0.593263 0.186257
O O11 0.250462 0.979921 0.197274
O O12 0.819679 0.561997 0.950543
O O13 0.606660 0.661802 0.919962
O O14 0.500000 0.000000 0.000000
O O15 0.000000 0.500000 0.000000
O O16 0.500000 0.500000 0.000000
#
# Coordination Sequence:
#
# PCOD9058143 Si02
#       7
#     2   2   2   2   2   2   2
#     4  11  25  46  67  99 141 179 224 294 333 410
#     4  11  26  46  69 100 140 177 234 283 341 419
#     4  12  27  47  70  98 137 187 239 284 337 400
#     4  11  24  47  70 100 138 186 227 285 344 411
#     4  12  23  40  71 103 136 178 222 282 355 412
#     4  12  24  40  69 102 140 177 228 282 354 410
#     4  11  22  44  72 103 141 171 226 288 351 415
#
# _framework density 19.165236
#
# number of rings (size 3 to 8) (size 9 to 14) (size 15 to 20)
#    0.000    0.571    5.714    3.000    4.000    3.429 
#    2.571    0.000    0.000    0.000    0.000    0.000 
#    0.000    0.000    0.000    0.000    0.000    0.000 
#
# Total GULP energy -78215.614581 kJ/mol
# GULP energy per Si atom -5586.829613 kJ/mol
# Density = 1.912161 g / cm^3
# Si number density = 19.165236 Si / 1000 Ang^3
#
#
#
# Elastic Constant Matrix: (Units=GPa)
#
#
# Indices 1 2 3 4 5 6 
#
# 1 161.0739 40.7838 62.9867 9.6959 15.5082 13.2039
# 2 40.7838 108.1423 51.3331 14.8379 0.0117 19.5824
# 3 62.9867 51.3331 130.1588 7.1590 -5.0353 -1.0595
# 4 9.6959 14.8379 7.1590 44.2795 -1.7191 -2.9504
# 5 15.5082 0.0117 -5.0353 -1.7191 45.3844 5.5032
# 6 13.2039 19.5824 -1.0595 -2.9504 5.5032 34.2323
#
#
#
# Elastic Compliance Matrix: (Units=1/GPa)
#
#
# Indices 1 2 3 4 5 6 
#
# 1 0.008501 -0.000701 -0.003907 -0.001289 -0.003070 -0.002617
# 2 -0.000701 0.013968 -0.004983 -0.004256 0.000531 -0.008327
# 3 -0.003907 -0.004983 0.011600 0.001030 0.002121 0.004464
# 4 -0.001289 -0.004256 0.001030 0.024489 0.000885 0.004932
# 5 -0.003070 0.000531 0.002121 0.000885 0.023689 -0.002786
# 6 -0.002617 -0.008327 0.004464 0.004932 -0.002786 0.035996
#
#
# Mechanical properties :
#
#
# Convention : Reuss Voigt Hill
#
# Bulk Modulus (GPa) = 67.16302 78.84248 73.00275
# Shear Modulus (GPa) = 35.11541 41.06401 38.08971
#
# Velocity S-wave (km/s) = 4.28512 4.63388 4.46290
# Velocity P-wave (km/s) = 7.72031 8.35811 8.04553
#
# Compressibility (1/GPa) = 0.01488915
#
# Stress axis : x y z
#
# Youngs Moduli (GPa) = 117.63296 71.59043 86.20328
#
# Poissons Ratio (x) = 0.05016 0.33677
# Poissons Ratio (y) = 0.08241 0.42956
# Poissons Ratio (z) = 0.45956 0.35674
#
# Static dielectric constant tensor:
#      x y z
#    x 1.929480 -0.030100 0.068350 
#    y -0.030100 1.661230 -0.008300 
#    z 0.068350 -0.008300 1.642470 
# 
# From -- ./inp_files/156676.got.cif
#   From: 2010.05.17/outbox.cif.g08.bks.cpg/sg2_79_cif.got.tgz:156676.got - 2010.06.03 11:33:40.
