data_PCOD9058718
_publ_section_title
;
Structure prediction by ZEFSAII (Michael W. Deem and Ramdas Pophale) SiO2 
 PCOD9058718
Probable space group: P -1
;
_chemical_formula_sum "Si O2"
_cell_formula_units_Z 16
_cell_length_a 8.884464
_cell_length_b 24.879635
_cell_length_c 19.084718
_cell_angle_alpha 157.560111
_cell_angle_beta 135.626845
_cell_angle_gamma 31.202274
_cell_volume 770.540834
_symmetry_space_group_name_H-M "P -1"
_symmetry_group_IT_number 2
_symmetry_cell_setting 'triclinic'
loop_
_space_group_symop_operation_xyz
x,y,z
-x,-y,-z
loop_
_atom_site_type_symbol
_atom_site_label
_atom_site_fract_x
_atom_site_fract_y
_atom_site_fract_z
Si Si1 0.319524 0.642328 0.994869
Si Si2 0.786625 0.248511 0.427341
Si Si3 0.763061 0.182086 0.585585
Si Si4 0.653958 0.810695 0.772878
Si Si5 0.256213 0.990850 0.398064
Si Si6 0.594663 0.992444 0.223014
Si Si7 0.882483 0.001349 0.887419
Si Si8 0.277374 0.639995 0.810786
O O1 0.552116 0.409770 0.819157
O O2 0.320518 0.622138 0.886689
O O3 0.406501 0.763777 0.184477
O O4 0.962285 0.798409 0.092185
O O5 0.546797 0.232736 0.334129
O O6 0.593937 0.464150 0.660352
O O7 0.886654 0.213093 0.337165
O O8 0.089717 0.076416 0.369890
O O9 0.564036 0.146001 0.445697
O O10 0.000000 0.000000 0.500000
O O11 0.976220 0.135911 0.536530
O O12 0.020556 0.641972 0.710440
O O13 0.595449 0.885743 0.764402
O O14 0.500000 0.000000 0.000000
O O15 0.500000 0.000000 0.500000
O O16 0.443241 0.926419 0.126145
O O17 0.858423 0.148795 0.007876
O O18 0.000000 0.000000 0.000000
#
# Coordination Sequence:
#
# PCOD9058718 Si02
#       8
#     2   2   2   2   2   2   2   2
#     4  11  22  47  73  96 130 179 229 273 340 408
#     4  12  24  43  65  99 135 174 231 274 322 410
#     4  11  26  46  69  99 131 169 228 290 338 393
#     4  12  18  41  69  95 130 179 219 272 325 402
#     4  11  24  44  70 100 132 174 225 281 337 403
#     4  11  23  42  66  97 138 173 221 275 334 403
#     4  12  25  43  62  97 146 178 214 275 333 390
#     4  12  23  40  71  99 133 182 225 269 337 403
#
# _framework density 20.764637
#
# number of rings (size 3 to 8) (size 9 to 14) (size 15 to 20)
#    0.000    0.500    8.750    0.375    1.750    4.000 
#    2.250    0.000    0.000    0.000    0.000    0.000 
#    0.000    0.000    0.000    0.000    0.000    0.000 
#
# Total GULP energy -89417.314292 kJ/mol
# GULP energy per Si atom -5588.582143 kJ/mol
# Density = 2.071738 g / cm^3
# Si number density = 20.764637 Si / 1000 Ang^3
#
#
#
# Elastic Constant Matrix: (Units=GPa)
#
#
# Indices 1 2 3 4 5 6 
#
# 1 77.7400 29.9362 22.1218 -11.9676 -1.4547 -17.6197
# 2 29.9362 73.0204 43.3462 -11.9187 9.3518 -11.2597
# 3 22.1218 43.3462 122.0977 3.3703 -6.7673 -21.6190
# 4 -11.9676 -11.9187 3.3703 36.7885 -7.2536 8.8956
# 5 -1.4547 9.3518 -6.7673 -7.2536 33.7141 -9.6984
# 6 -17.6197 -11.2597 -21.6190 8.8956 -9.6984 29.1776
#
#
#
# Elastic Compliance Matrix: (Units=1/GPa)
#
#
# Indices 1 2 3 4 5 6 
#
# 1 0.018092 -0.007125 0.001476 0.002131 0.006625 0.010822
# 2 -0.007125 0.022809 -0.008643 0.005685 -0.009059 -0.006649
# 3 0.001476 -0.008643 0.013596 -0.004898 0.007476 0.011608
# 4 0.002131 0.005685 -0.004898 0.032840 0.001851 -0.009545
# 5 0.006625 -0.009059 0.007476 0.001851 0.039734 0.018687
# 6 0.010822 -0.006649 0.011608 -0.009545 0.018687 0.055964
#
#
# Mechanical properties :
#
#
# Convention : Reuss Voigt Hill
#
# Bulk Modulus (GPa) = 38.59054 51.51851 45.05452
# Shear Modulus (GPa) = 22.70073 31.76630 27.23351
#
# Velocity S-wave (km/s) = 3.31000 3.91554 3.62544
# Velocity P-wave (km/s) = 5.76483 6.73101 6.26657
#
# Compressibility (1/GPa) = 0.02591309
#
# Stress axis : x y z
#
# Youngs Moduli (GPa) = 55.27329 43.84150 73.55113
#
# Poissons Ratio (x) = 0.31238 -0.10857
# Poissons Ratio (y) = 0.39384 0.63570
# Poissons Ratio (z) = -0.08159 0.37892
#
# Static dielectric constant tensor:
#      x y z
#    x 1.744340 0.011240 -0.018360 
#    y 0.011240 1.744200 0.007370 
#    z -0.018360 0.007370 1.802400 
# 
# From -- ./inp_files/447949.got.cif
#   From: 2010.05.17/outbox.cif.g08.bks.cpg/sg2_224_cif.got.tgz:447949.got - 2010.06.03 11:33:40.
