data_PCOD9058307
_publ_section_title
;
Structure prediction by ZEFSAII (Michael W. Deem and Ramdas Pophale) SiO2 
 PCOD9058307
Probable space group: P -1
;
_chemical_formula_sum "Si O2"
_cell_formula_units_Z 16
_cell_length_a 10.170305
_cell_length_b 13.986662
_cell_length_c 11.767808
_cell_angle_alpha 30.928258
_cell_angle_beta 84.500983
_cell_angle_gamma 66.310294
_cell_volume 668.748455
_symmetry_space_group_name_H-M "P -1"
_symmetry_group_IT_number 2
_symmetry_cell_setting 'triclinic'
loop_
_space_group_symop_operation_xyz
x,y,z
-x,-y,-z
loop_
_atom_site_type_symbol
_atom_site_label
_atom_site_fract_x
_atom_site_fract_y
_atom_site_fract_z
Si Si1 0.109612 0.592770 0.900541
Si Si2 0.872022 0.338369 0.906514
Si Si3 0.666599 0.180785 0.843658
Si Si4 0.256766 0.179136 0.616519
Si Si5 0.424466 0.121226 0.259696
Si Si6 0.713694 0.473628 0.417647
Si Si7 0.253260 0.124052 0.055328
Si Si8 0.989845 0.854641 0.432637
O O1 0.012174 0.828626 0.591600
O O2 0.141896 0.614199 0.005445
O O3 0.286761 0.396989 0.021885
O O4 0.000000 0.500000 0.000000
O O5 0.746314 0.596585 0.596173
O O6 0.061016 0.224367 0.967876
O O7 0.865788 0.121334 0.122184
O O8 0.762454 0.292121 0.702946
O O9 0.488096 0.374864 0.721306
O O10 0.640793 0.109019 0.794882
O O11 0.752865 0.936548 0.153034
O O12 0.089783 0.272138 0.465900
O O13 0.414943 0.978364 0.731447
O O14 0.320410 0.075085 0.230038
O O15 0.500000 0.000000 0.500000
O O16 0.828864 0.293230 0.491170
O O17 0.736945 0.675837 0.202702
#
# Coordination Sequence:
#
# PCOD9058307 Si02
#       8
#     2   2   2   2   2   2   2   2
#     4  12  20  44  74  96 138 180 223 276 342 401
#     4  12  25  43  69 103 132 187 225 274 335 413
#     4  11  26  43  71 101 133 180 232 277 337 399
#     4  12  25  45  66 102 142 174 220 288 336 393
#     4  12  23  42  75 101 134 175 220 282 344 389
#     4  11  22  45  68  97 133 182 227 278 333 402
#     4  12  23  46  72  97 134 182 230 271 338 410
#     4  12  24  45  68 100 139 180 228 271 341 405
#
# _framework density 23.925288999999999
#
# number of rings (size 3 to 8) (size 9 to 14) (size 15 to 20)
#    0.000    0.250    8.750    0.750    0.000    2.000 
#    2.250    0.625    0.000    0.000    0.000    0.000 
#    0.000    0.000    0.000    0.000    0.000    0.000 
#
# Total GULP energy -89333.857589 kJ/mol
# GULP energy per Si atom -5583.366099 kJ/mol
# Density = 2.387083 g / cm^3
# Si number density = 23.925289 Si / 1000 Ang^3
#
#
#
# Elastic Constant Matrix: (Units=GPa)
#
#
# Indices 1 2 3 4 5 6 
#
# 1 46.5958 17.3496 12.6326 -4.5766 -14.9678 -15.4218
# 2 17.3496 94.6337 32.4657 -4.8520 -11.9930 -0.6122
# 3 12.6326 32.4657 146.9773 8.5905 -26.7343 2.6975
# 4 -4.5766 -4.8520 8.5905 38.2458 2.5658 -0.7396
# 5 -14.9678 -11.9930 -26.7343 2.5658 37.1768 -3.2501
# 6 -15.4218 -0.6122 2.6975 -0.7396 -3.2501 39.9165
#
#
#
# Elastic Compliance Matrix: (Units=1/GPa)
#
#
# Indices 1 2 3 4 5 6 
#
# 1 0.031555 -0.004000 0.000028 0.002685 0.012402 0.013188
# 2 -0.004000 0.012234 -0.002348 0.001549 0.000442 -0.001135
# 3 0.000028 -0.002348 0.008476 -0.002572 0.005509 -0.000197
# 4 0.002685 0.001549 -0.002572 0.027408 -0.002022 0.001578
# 5 0.012402 0.000442 0.005509 -0.002022 0.036781 0.007383
# 6 0.013188 -0.001135 -0.000197 0.001578 0.007383 0.030774
#
#
# Mechanical properties :
#
#
# Convention : Reuss Voigt Hill
#
# Bulk Modulus (GPa) = 25.23620 45.90030 35.56825
# Shear Modulus (GPa) = 28.88896 38.11842 33.50369
#
# Velocity S-wave (km/s) = 3.47863 3.99586 3.74618
# Velocity P-wave (km/s) = 5.16772 6.36519 5.79745
#
# Compressibility (1/GPa) = 0.03962562
#
# Stress axis : x y z
#
# Youngs Moduli (GPa) = 31.69046 81.73959 117.97964
#
# Poissons Ratio (x) = 0.32697 -0.00334
# Poissons Ratio (y) = 0.12677 0.27701
# Poissons Ratio (z) = -0.00090 0.19192
#
# Static dielectric constant tensor:
#      x y z
#    x 1.888180 0.020320 0.006620 
#    y 0.020320 1.898290 0.024850 
#    z 0.006620 0.024850 1.992520 
# 
# From -- ./inp_files/433665.got.cif
#   From: 2010.05.17/outbox.cif.g08.bks.cpg/sg2_217_cif.got.tgz:433665.got - 2010.06.03 11:33:40.
