data_PCOD9058674
_publ_section_title
;
Structure prediction by ZEFSAII (Michael W. Deem and Ramdas Pophale) SiO2 
 PCOD9058674
Probable space group: P -1
;
_chemical_formula_sum "Si O2"
_cell_formula_units_Z 14
_cell_length_a 10.996518
_cell_length_b 8.306691
_cell_length_c 9.505845
_cell_angle_alpha 124.167269
_cell_angle_beta 71.852941
_cell_angle_gamma 70.114302
_cell_volume 515.818039
_symmetry_space_group_name_H-M "P -1"
_symmetry_group_IT_number 2
_symmetry_cell_setting 'triclinic'
loop_
_space_group_symop_operation_xyz
x,y,z
-x,-y,-z
loop_
_atom_site_type_symbol
_atom_site_label
_atom_site_fract_x
_atom_site_fract_y
_atom_site_fract_z
Si Si1 0.625562 0.413150 0.105504
Si Si2 0.833047 0.842548 0.193801
Si Si3 0.017673 0.342009 0.682901
Si Si4 0.017153 0.036638 0.174857
Si Si5 0.532918 0.825588 0.536049
Si Si6 0.688549 0.523416 0.835483
Si Si7 0.223680 0.359376 0.396839
O O1 0.640232 0.542625 0.294779
O O2 0.447361 0.475885 0.196533
O O3 0.628132 0.546364 0.029356
O O4 0.791924 0.111205 0.912231
O O5 0.818181 0.820332 0.355612
O O6 0.967295 0.879545 0.179073
O O7 0.652259 0.075164 0.313279
O O8 0.906000 0.603378 0.948085
O O9 0.891442 0.290063 0.669665
O O10 0.086186 0.355201 0.517677
O O11 0.871400 0.338331 0.402839
O O12 0.000000 0.000000 0.000000
O O13 0.617110 0.818392 0.643247
O O14 0.500000 0.000000 0.500000
O O15 0.707014 0.698989 0.816887
#
# Coordination Sequence:
#
# PCOD9058674 Si02
#       7
#     2   2   2   2   2   2   2
#     4  11  25  49  68 103 145 185 230 282 356 411
#     4  11  23  41  77  99 136 184 236 287 342 409
#     4  11  22  47  68 105 141 183 229 285 351 414
#     4  12  23  44  75 103 133 180 239 291 332 408
#     4  12  24  44  74 105 135 179 235 293 341 405
#     4  11  26  46  69 101 148 185 225 287 352 423
#     4  12  26  44  74 107 138 177 239 289 344 412
#
# _framework density 27.141352999999999
#
# number of rings (size 3 to 8) (size 9 to 14) (size 15 to 20)
#    0.000    0.571    5.714    2.143    2.000    1.714 
#    5.143    5.000    0.000    0.000    0.000    0.000 
#    0.000    0.000    0.000    0.000    0.000    0.000 
#
# Total GULP energy -78128.674141 kJ/mol
# GULP energy per Si atom -5580.619582 kJ/mol
# Density = 2.707958 g / cm^3
# Si number density = 27.141353 Si / 1000 Ang^3
#
#
#
# Elastic Constant Matrix: (Units=GPa)
#
#
# Indices 1 2 3 4 5 6 
#
# 1 145.8393 41.7875 36.3659 -8.0347 -39.5772 -28.1239
# 2 41.7875 107.0566 45.9733 -16.4903 -7.0298 -36.2221
# 3 36.3659 45.9733 81.1454 -11.1606 -8.9292 -2.4045
# 4 -8.0347 -16.4903 -11.1606 57.3329 -1.4923 3.6932
# 5 -39.5772 -7.0298 -8.9292 -1.4923 45.8845 -3.6539
# 6 -28.1239 -36.2221 -2.4045 3.6932 -3.6539 47.2278
#
#
#
# Elastic Compliance Matrix: (Units=1/GPa)
#
#
# Indices 1 2 3 4 5 6 
#
# 1 0.012264 0.000777 -0.004416 0.000814 0.010535 0.008426
# 2 0.000777 0.018717 -0.009839 0.002729 0.002853 0.014324
# 3 -0.004416 -0.009839 0.019472 0.000891 -0.002248 -0.009428
# 4 0.000814 0.002729 0.000891 0.018481 0.002001 0.001332
# 5 0.010535 0.002853 -0.002248 0.002001 0.031794 0.010651
# 6 0.008426 0.014324 -0.009428 0.001332 0.010651 0.037418
#
#
# Mechanical properties :
#
#
# Convention : Reuss Voigt Hill
#
# Bulk Modulus (GPa) = 42.55523 64.69943 53.62733
# Shear Modulus (GPa) = 28.91315 44.08336 36.49825
#
# Velocity S-wave (km/s) = 3.26740 4.03453 3.67106
# Velocity P-wave (km/s) = 5.47245 6.75225 6.14576
#
# Compressibility (1/GPa) = 0.02349888
#
# Stress axis : x y z
#
# Youngs Moduli (GPa) = 81.53961 53.42837 51.35503
#
# Poissons Ratio (x) = -0.04153 0.22676
# Poissons Ratio (y) = -0.06337 0.50526
# Poissons Ratio (z) = 0.36004 0.52566
#
# Static dielectric constant tensor:
#      x y z
#    x 2.029950 -0.175190 0.138500 
#    y -0.175190 1.421120 0.507700 
#    z 0.138500 0.507700 1.746900 
# 
# From -- ./inp_files/244951.got.cif
#   From: 2010.05.17/outbox.cif.g08.bks.cpg/sg2_123_cif.got.tgz:244951.got - 2010.06.03 11:33:40.
