data_PCOD9058411
_publ_section_title
;
Structure prediction by ZEFSAII (Michael W. Deem and Ramdas Pophale) SiO2 
 PCOD9058411
Probable space group: P -1
;
_chemical_formula_sum "Si O2"
_cell_formula_units_Z 10
_cell_length_a 9.575414
_cell_length_b 18.076664
_cell_length_c 12.248065
_cell_angle_alpha 16.719375
_cell_angle_beta 140.695166
_cell_angle_gamma 141.833109
_cell_volume 374.300135
_symmetry_space_group_name_H-M "P -1"
_symmetry_group_IT_number 2
_symmetry_cell_setting 'triclinic'
loop_
_space_group_symop_operation_xyz
x,y,z
-x,-y,-z
loop_
_atom_site_type_symbol
_atom_site_label
_atom_site_fract_x
_atom_site_fract_y
_atom_site_fract_z
Si Si1 0.020085 0.594990 0.589556
Si Si2 0.559408 0.079791 0.735807
Si Si3 0.617723 0.617891 0.149705
Si Si4 0.839828 0.942802 0.626839
Si Si5 0.782654 0.660705 0.576110
O O1 0.831343 0.643142 0.322855
O O2 0.929164 0.610136 0.634035
O O3 0.250600 0.816253 0.389355
O O4 0.069054 0.312925 0.990728
O O5 0.579573 0.334330 0.465676
O O6 0.314120 0.004779 0.639102
O O7 0.623992 0.843915 0.173874
O O8 0.389126 0.591785 0.117297
O O9 0.682688 0.838566 0.784682
O O10 0.048376 0.175324 0.463618
#
# Coordination Sequence:
#
# PCOD9058411 Si02
#       5
#     2   2   2   2   2
#     4  11  22  45  72  96 137 182 221 276 343 400
#     4  11  23  46  71  97 138 179 224 278 340 397
#     4  11  22  45  72  96 137 182 221 276 343 400
#     4  11  25  48  68  97 141 180 219 283 337 402
#     4  12  25  45  70 103 132 180 228 278 335 403
#
# _framework density 26.716526999999999
#
# number of rings (size 3 to 8) (size 9 to 14) (size 15 to 20)
#    0.000    0.800    4.000    5.400    0.000    1.600 
#    7.200    4.000    0.000    0.000    0.000    0.000 
#    0.000    0.000    0.000    0.000    0.000    0.000 
#
# Total GULP energy -56290.836382 kJ/mol
# GULP energy per Si atom -5629.083638 kJ/mol
# Density = 2.665572 g / cm^3
# Si number density = 26.716527 Si / 1000 Ang^3
#
#
#
# Elastic Constant Matrix: (Units=GPa)
#
#
# Indices 1 2 3 4 5 6 
#
# 1 144.4770 18.1605 27.6183 1.1805 -19.4448 11.8830
# 2 18.1605 164.3421 60.9322 42.0615 -7.9598 1.9237
# 3 27.6183 60.9322 113.0205 16.3715 -16.1611 -6.5604
# 4 1.1805 42.0615 16.3715 44.7498 -0.4399 -2.5479
# 5 -19.4448 -7.9598 -16.1611 -0.4399 34.1134 -21.7037
# 6 11.8830 1.9237 -6.5604 -2.5479 -21.7037 40.6639
#
#
#
# Elastic Compliance Matrix: (Units=1/GPa)
#
#
# Indices 1 2 3 4 5 6 
#
# 1 0.007713 -0.000334 -0.001370 0.000604 0.003236 -0.000694
# 2 -0.000334 0.009646 -0.004398 -0.007604 -0.001672 -0.002437
# 3 -0.001370 -0.004398 0.013399 -0.000192 0.009529 0.007844
# 4 0.000604 -0.007604 -0.000192 0.029671 0.000214 0.002126
# 5 0.003236 -0.001672 0.009529 0.000214 0.054087 0.029553
# 6 -0.000694 -0.002437 0.007844 0.002126 0.029553 0.042082
#
#
# Mechanical properties :
#
#
# Convention : Reuss Voigt Hill
#
# Bulk Modulus (GPa) = 53.89398 70.58465 62.23931
# Shear Modulus (GPa) = 28.57351 44.91399 36.74375
#
# Velocity S-wave (km/s) = 3.27388 4.10461 3.71255
# Velocity P-wave (km/s) = 5.87430 6.99578 6.45942
#
# Compressibility (1/GPa) = 0.01855495
#
# Stress axis : x y z
#
# Youngs Moduli (GPa) = 129.65106 103.66921 74.63061
#
# Poissons Ratio (x) = 0.03465 0.10222
# Poissons Ratio (y) = 0.04333 0.32821
# Poissons Ratio (z) = 0.17759 0.45591
#
# Static dielectric constant tensor:
#      x y z
#    x 2.095110 0.002260 0.033540 
#    y 0.002260 1.977760 -0.023370 
#    z 0.033540 -0.023370 2.048130 
# 
# From -- ./inp_files/146212.got.cif
#   From: 2010.05.17/outbox.cif.g08.bks.cpg/sg2_74_cif.got.tgz:146212.got - 2010.06.03 11:33:40.
