data_PCOD9058337
_publ_section_title
;
Structure prediction by ZEFSAII (Michael W. Deem and Ramdas Pophale) SiO2 
 PCOD9058337
Probable space group: P -1
;
_chemical_formula_sum "Si O2"
_cell_formula_units_Z 15
_cell_length_a 17.634782
_cell_length_b 11.803109
_cell_length_c 11.905698
_cell_angle_alpha 58.536649
_cell_angle_beta 44.439325
_cell_angle_gamma 24.254237
_cell_volume 637.007035
_symmetry_space_group_name_H-M "P -1"
_symmetry_group_IT_number 2
_symmetry_cell_setting 'triclinic'
loop_
_space_group_symop_operation_xyz
x,y,z
-x,-y,-z
loop_
_atom_site_type_symbol
_atom_site_label
_atom_site_fract_x
_atom_site_fract_y
_atom_site_fract_z
Si Si1 0.533071 0.168267 0.105210
Si Si2 0.918363 0.369476 0.787695
Si Si3 0.442909 0.383134 0.788302
Si Si4 0.812225 0.767323 0.811409
Si Si5 0.295909 0.649345 0.370218
Si Si6 0.495332 0.264933 0.550716
Si Si7 0.500000 0.500000 0.000000
Si Si8 0.321214 0.198521 0.692150
O O1 0.231563 0.488677 0.243838
O O2 0.604364 0.242247 0.966946
O O3 0.670299 0.953621 0.177841
O O4 0.610150 0.988859 0.010773
O O5 0.881379 0.556508 0.783010
O O6 0.788492 0.413093 0.994458
O O7 0.212645 0.025800 0.629458
O O8 0.544538 0.410301 0.709092
O O9 0.384161 0.455308 0.681204
O O10 0.679441 0.019638 0.739215
O O11 0.055129 0.533993 0.749305
O O12 0.352520 0.463022 0.486131
O O13 0.399399 0.524636 0.199784
O O14 0.000000 0.000000 0.500000
O O15 0.439210 0.171067 0.669412
O O16 0.500000 0.000000 0.500000
#
# Coordination Sequence:
#
# PCOD9058337 Si02
#       8
#     2   2   2   2   2   2   1   2
#     4  11  25  45  72 101 140 197 232 298 361 421
#     4  11  24  45  70 106 142 189 238 292 362 425
#     4  11  25  47  71 103 147 194 238 295 358 432
#     4  11  22  45  70 101 142 187 242 287 360 422
#     4  12  28  50  74 106 143 195 240 296 362 429
#     4  12  27  44  74 110 144 188 239 300 358 432
#     4  12  26  50  76 104 144 190 246 296 356 428
#     4  12  24  42  67 109 142 183 244 296 357 423
#
# _framework density 23.547619000000001
#
# number of rings (size 3 to 8) (size 9 to 14) (size 15 to 20)
#    0.000    0.533    4.000    5.600    3.733    2.667 
#    0.000    0.000    0.000    0.000    0.000    0.000 
#    0.000    0.000    0.000    0.000    0.000    0.000 
#
# Total GULP energy -83587.043605 kJ/mol
# GULP energy per Si atom -5572.469574 kJ/mol
# Density = 2.349402 g / cm^3
# Si number density = 23.547619 Si / 1000 Ang^3
#
#
#
# Elastic Constant Matrix: (Units=GPa)
#
#
# Indices 1 2 3 4 5 6 
#
# 1 83.6511 -9.6362 13.9351 -1.9272 -6.5043 3.0327
# 2 -9.6362 67.0923 15.9740 -11.4443 -11.5384 -17.9947
# 3 13.9351 15.9740 65.2743 -9.1372 1.1248 -12.7538
# 4 -1.9272 -11.4443 -9.1372 38.1030 -10.1677 -9.5031
# 5 -6.5043 -11.5384 1.1248 -10.1677 46.1520 -4.2890
# 6 3.0327 -17.9947 -12.7538 -9.5031 -4.2890 40.6738
#
#
#
# Elastic Compliance Matrix: (Units=1/GPa)
#
#
# Indices 1 2 3 4 5 6 
#
# 1 0.013252 0.003744 -0.003451 0.001963 0.003357 0.000399
# 2 0.003744 0.023695 -0.002296 0.012997 0.010639 0.013642
# 3 -0.003451 -0.002296 0.018579 0.005225 0.000224 0.006312
# 4 0.001963 0.012997 0.005225 0.039666 0.013807 0.017965
# 5 0.003357 0.010639 0.000224 0.013807 0.028840 0.010794
# 6 0.000399 0.013642 0.006312 0.017965 0.010794 0.037906
#
#
# Mechanical properties :
#
#
# Convention : Reuss Voigt Hill
#
# Bulk Modulus (GPa) = 19.40968 28.50707 23.95837
# Shear Modulus (GPa) = 27.30484 38.03541 32.67012
#
# Velocity S-wave (km/s) = 3.40892 4.02338 3.72883
# Velocity P-wave (km/s) = 4.87391 5.80654 5.36054
#
# Compressibility (1/GPa) = 0.05152068
#
# Stress axis : x y z
#
# Youngs Moduli (GPa) = 75.45832 42.20324 53.82310
#
# Poissons Ratio (x) = -0.15801 0.18572
# Poissons Ratio (y) = -0.28253 0.12360
# Poissons Ratio (z) = 0.26038 0.09692
#
# Static dielectric constant tensor:
#      x y z
#    x 2.793700 -0.614790 -0.367070 
#    y -0.614790 2.392220 0.294040 
#    z -0.367070 0.294040 2.041380 
# 
# From -- ./inp_files/465055.got.cif
#   From: 2010.05.17/outbox.cif.g08.bks.cpg/sg2_233_cif.got.tgz:465055.got - 2010.06.03 11:33:40.
