data_PCOD9058021
_publ_section_title
;
Structure prediction by ZEFSAII (Michael W. Deem and Ramdas Pophale) SiO2 
 PCOD9058021
Probable space group: P -1
;
_chemical_formula_sum "Si O2"
_cell_formula_units_Z 16
_cell_length_a 11.659640
_cell_length_b 11.384570
_cell_length_c 11.250652
_cell_angle_alpha 57.810593
_cell_angle_beta 60.699216
_cell_angle_gamma 36.899701
_cell_volume 752.915644
_symmetry_space_group_name_H-M "P -1"
_symmetry_group_IT_number 2
_symmetry_cell_setting 'triclinic'
loop_
_space_group_symop_operation_xyz
x,y,z
-x,-y,-z
loop_
_atom_site_type_symbol
_atom_site_label
_atom_site_fract_x
_atom_site_fract_y
_atom_site_fract_z
Si Si1 0.859806 0.018304 0.209243
Si Si2 0.937208 0.203926 0.548092
Si Si3 0.792729 0.601484 0.507548
Si Si4 0.128162 0.285366 0.987275
Si Si5 0.449326 0.113831 0.742502
Si Si6 0.446831 0.245837 0.213127
Si Si7 0.861713 0.311679 0.947870
Si Si8 0.197854 0.996968 0.303497
O O1 0.669028 0.107199 0.197792
O O2 0.852243 0.189546 0.107354
O O3 0.884868 0.952774 0.366655
O O4 0.044329 0.819981 0.149669
O O5 0.824488 0.424686 0.531308
O O6 0.023971 0.156204 0.398914
O O7 0.819126 0.151194 0.643558
O O8 0.686797 0.768013 0.367727
O O9 0.658721 0.701088 0.637408
O O10 0.000000 0.500000 0.500000
O O11 0.177522 0.120502 0.139145
O O12 0.317506 0.205045 0.876334
O O13 0.000000 0.500000 0.000000
O O14 0.004083 0.316063 0.926597
O O15 0.566624 0.880154 0.793162
O O16 0.600743 0.121291 0.672377
O O17 0.340395 0.459261 0.095207
#
# Coordination Sequence:
#
# PCOD9058021 Si02
#       8
#     2   2   2   2   2   2   2   2
#     4  11  22  44  69 101 141 173 229 292 344 412
#     4  11  23  46  71  97 142 182 229 283 354 407
#     4  12  24  43  70 104 139 182 224 291 358 408
#     4  12  24  46  67  98 142 188 232 279 345 413
#     4  12  25  44  67 102 140 177 242 283 332 424
#     4  12  23  41  70 105 134 176 230 282 354 410
#     4  11  23  42  69 102 138 182 224 286 357 397
#     4  11  25  44  69  97 137 193 226 284 341 409
#
# _framework density 21.250720999999999
#
# number of rings (size 3 to 8) (size 9 to 14) (size 15 to 20)
#    0.000    0.500    3.750    5.625    0.000    0.500 
#    4.500    0.000    0.000    0.000    0.000    0.000 
#    0.000    0.000    0.000    0.000    0.000    0.000 
#
# Total GULP energy -89565.593388 kJ/mol
# GULP energy per Si atom -5597.849587 kJ/mol
# Density = 2.120235 g / cm^3
# Si number density = 21.250721 Si / 1000 Ang^3
#
#
#
# Elastic Constant Matrix: (Units=GPa)
#
#
# Indices 1 2 3 4 5 6 
#
# 1 86.9007 27.3406 -21.0920 -5.8257 -14.8894 9.0954
# 2 27.3406 113.0620 23.7332 -5.5337 -8.5939 25.3504
# 3 -21.0920 23.7332 46.2418 1.3125 -2.9903 15.4684
# 4 -5.8257 -5.5337 1.3125 33.6333 -4.3750 8.0330
# 5 -14.8894 -8.5939 -2.9903 -4.3750 29.7871 -3.2811
# 6 9.0954 25.3504 15.4684 8.0330 -3.2811 38.2552
#
#
#
# Elastic Compliance Matrix: (Units=1/GPa)
#
#
# Indices 1 2 3 4 5 6 
#
# 1 0.019299 -0.005086 0.014304 0.004912 0.009542 -0.007215
# 2 -0.005086 0.012871 -0.007346 0.002732 0.000295 -0.004898
# 3 0.014304 -0.007346 0.036870 0.004105 0.007833 -0.013631
# 4 0.004912 0.002732 0.004105 0.034533 0.007489 -0.011247
# 5 0.009542 0.000295 0.007833 0.007489 0.039896 -0.003782
# 6 -0.007215 -0.004898 -0.013631 -0.011247 -0.003782 0.038650
#
#
# Mechanical properties :
#
#
# Convention : Reuss Voigt Hill
#
# Bulk Modulus (GPa) = 13.73926 34.01870 23.87898
# Shear Modulus (GPa) = 24.67482 34.74996 29.71239
#
# Velocity S-wave (km/s) = 3.41123 4.04819 3.74328
# Velocity P-wave (km/s) = 4.68985 6.15577 5.47212
#
# Compressibility (1/GPa) = 0.07278414
#
# Stress axis : x y z
#
# Youngs Moduli (GPa) = 51.81699 77.69472 27.12236
#
# Poissons Ratio (x) = 0.39515 -0.38796
# Poissons Ratio (y) = 0.26354 0.19923
# Poissons Ratio (z) = -0.74119 0.57073
#
# Static dielectric constant tensor:
#      x y z
#    x 1.766270 -0.004520 0.009280 
#    y -0.004520 1.744260 -0.011840 
#    z 0.009280 -0.011840 1.761470 
# 
# From -- ./inp_files/84237.got.cif
#   From: 2010.05.17/outbox.cif.g08.bks.cpg/sg2_43_cif.got.tgz:84237.got - 2010.06.03 11:33:40.
