data_PCOD9058514
_publ_section_title
;
Structure prediction by ZEFSAII (Michael W. Deem and Ramdas Pophale) SiO2 
 PCOD9058514
Probable space group: P -1
;
_chemical_formula_sum "Si O2"
_cell_formula_units_Z 15
_cell_length_a 15.384183
_cell_length_b 14.474832
_cell_length_c 22.231805
_cell_angle_alpha 157.917118
_cell_angle_beta 19.189173
_cell_angle_gamma 150.104542
_cell_volume 610.395157
_symmetry_space_group_name_H-M "P -1"
_symmetry_group_IT_number 2
_symmetry_cell_setting 'triclinic'
loop_
_space_group_symop_operation_xyz
x,y,z
-x,-y,-z
loop_
_atom_site_type_symbol
_atom_site_label
_atom_site_fract_x
_atom_site_fract_y
_atom_site_fract_z
Si Si1 0.833561 0.630068 0.632884
Si Si2 0.049704 0.832117 0.142337
Si Si3 0.462814 0.018679 0.608133
Si Si4 0.090466 0.339112 0.747989
Si Si5 0.612028 0.439249 0.044480
Si Si6 0.916480 0.550372 0.762834
Si Si7 0.000000 0.000000 0.000000
Si Si8 0.542702 0.128643 0.797413
O O1 0.545307 0.539038 0.777254
O O2 0.000000 0.500000 0.500000
O O3 0.953492 0.551708 0.443766
O O4 0.835180 0.922923 0.809632
O O5 0.087837 0.791028 0.163584
O O6 0.730119 0.881773 0.376081
O O7 0.148113 0.594013 0.896268
O O8 0.465070 0.315463 0.794776
O O9 0.500000 0.000000 0.500000
O O10 0.203512 0.951621 0.773078
O O11 0.327908 0.140344 0.458232
O O12 0.916146 0.396361 0.837168
O O13 0.506529 0.210801 0.939183
O O14 0.743993 0.333908 0.768099
O O15 0.090733 0.705626 0.785556
O O16 0.730547 0.809999 0.024101
#
# Coordination Sequence:
#
# PCOD9058514 Si02
#       8
#     2   2   2   2   2   2   1   2
#     4  12  23  43  75 104 130 185 243 295 351 425
#     4  11  24  45  69 102 142 187 234 287 360 425
#     4  12  23  44  73 105 144 181 245 298 345 423
#     4  11  25  43  69  97 145 189 225 291 365 427
#     4  12  24  43  71 102 136 181 238 294 352 426
#     4  11  23  42  71  99 135 176 240 292 343 424
#     4  12  26  38  72 116 136 178 240 310 354 404
#     4  11  22  46  66  94 138 185 223 286 357 414
#
# _framework density 24.574245999999999
#
# number of rings (size 3 to 8) (size 9 to 14) (size 15 to 20)
#    0.000    0.533    6.667    2.000    0.000    0.533 
#    0.000    0.667    0.000    0.000    0.000    0.000 
#    0.000    0.000    0.000    0.000    0.000    0.000 
#
# Total GULP energy -83681.173123 kJ/mol
# GULP energy per Si atom -5578.744875 kJ/mol
# Density = 2.451831 g / cm^3
# Si number density = 24.574246 Si / 1000 Ang^3
#
#
#
# Elastic Constant Matrix: (Units=GPa)
#
#
# Indices 1 2 3 4 5 6 
#
# 1 70.0813 0.0922 23.1553 -6.2230 7.7293 -8.1443
# 2 0.0922 152.9903 47.8248 5.9210 9.9474 -11.8749
# 3 23.1553 47.8248 168.5519 22.5450 7.2363 1.1275
# 4 -6.2230 5.9210 22.5450 50.4949 -4.6541 8.0971
# 5 7.7293 9.9474 7.2363 -4.6541 41.4713 -3.8429
# 6 -8.1443 -11.8749 1.1275 8.0971 -3.8429 28.6685
#
#
#
# Elastic Compliance Matrix: (Units=1/GPa)
#
#
# Indices 1 2 3 4 5 6 
#
# 1 0.016128 0.001256 -0.002802 0.002202 -0.002173 0.004299
# 2 0.001256 0.007617 -0.002240 -0.000434 -0.001391 0.003536
# 3 -0.002802 -0.002240 0.007430 -0.003276 -0.000715 -0.001187
# 4 0.002202 -0.000434 -0.003276 0.022687 0.002299 -0.005525
# 5 -0.002173 -0.001391 -0.000715 0.002299 0.025382 0.001587
# 6 0.004299 0.003536 -0.001187 -0.005525 0.001587 0.039387
#
#
# Mechanical properties :
#
#
# Convention : Reuss Voigt Hill
#
# Bulk Modulus (GPa) = 42.36590 59.30754 50.83672
# Shear Modulus (GPa) = 37.29375 45.49702 41.39539
#
# Velocity S-wave (km/s) = 3.89986 4.30747 4.10872
# Velocity P-wave (km/s) = 6.12829 6.99468 6.57577
#
# Compressibility (1/GPa) = 0.02360389
#
# Stress axis : x y z
#
# Youngs Moduli (GPa) = 62.00394 131.27667 134.58770
#
# Poissons Ratio (x) = -0.16487 0.37711
# Poissons Ratio (y) = -0.07787 0.30145
# Poissons Ratio (z) = 0.17373 0.29404
#
# Static dielectric constant tensor:
#      x y z
#    x 2.079280 0.086270 0.023880 
#    y 0.086270 2.130590 -0.000780 
#    z 0.023880 -0.000780 1.986140 
# 
# From -- ./inp_files/184059.got.cif
#   From: 2010.05.17/outbox.cif.g08.bks.cpg/sg2_93_cif.got.tgz:184059.got - 2010.06.03 11:33:40.
