data_PCOD9058879
_publ_section_title
;
Structure prediction by ZEFSAII (Michael W. Deem and Ramdas Pophale) SiO2 
 PCOD9058879
Probable space group: P -1
;
_chemical_formula_sum "Si O2"
_cell_formula_units_Z 14
_cell_length_a 9.289987
_cell_length_b 13.879432
_cell_length_c 13.347807
_cell_angle_alpha 21.685091
_cell_angle_beta 104.238788
_cell_angle_gamma 103.633385
_cell_volume 616.281642
_symmetry_space_group_name_H-M "P -1"
_symmetry_group_IT_number 2
_symmetry_cell_setting 'triclinic'
loop_
_space_group_symop_operation_xyz
x,y,z
-x,-y,-z
loop_
_atom_site_type_symbol
_atom_site_label
_atom_site_fract_x
_atom_site_fract_y
_atom_site_fract_z
Si Si1 0.927412 0.254586 0.782507
Si Si2 0.689763 0.634939 0.066365
Si Si3 0.789821 0.921097 0.383979
Si Si4 0.970014 0.389231 0.894344
Si Si5 0.503592 0.113604 0.501928
Si Si6 0.327949 0.521791 0.560809
Si Si7 0.397513 0.169528 0.747715
O O1 0.939383 0.300393 0.859156
O O2 0.762723 0.235061 0.727065
O O3 0.000000 0.500000 0.500000
O O4 0.000000 0.000000 0.000000
O O5 0.576945 0.402596 0.237465
O O6 0.714953 0.584014 0.237351
O O7 0.850555 0.607688 0.068219
O O8 0.612017 0.913515 0.771713
O O9 0.888822 0.663581 0.634589
O O10 0.662131 0.888711 0.477388
O O11 0.693892 0.969225 0.219990
O O12 0.897850 0.172861 0.165069
O O13 0.500000 0.000000 0.500000
O O14 0.295658 0.321343 0.659915
O O15 0.499794 0.609844 0.502751
O O16 0.500000 0.000000 0.000000
#
# Coordination Sequence:
#
# PCOD9058879 Si02
#       7
#     2   2   2   2   2   2   2
#     4  12  25  38  61  96 149 196 231 269 326 415
#     4  12  26  47  75 108 142 186 237 296 357 435
#     4  12  25  46  70 105 143 189 235 297 354 420
#     4  12  26  44  69 109 152 187 230 287 358 418
#     4  12  28  53  80 104 133 182 245 307 369 431
#     4  11  24  39  62 104 141 190 242 282 334 414
#     4  11  23  38  64  97 142 193 240 286 335 406
#
# _framework density 22.716884
#
# number of rings (size 3 to 8) (size 9 to 14) (size 15 to 20)
#    0.000    0.286    4.286    4.714    6.000    0.000 
#    0.000    4.286    0.000    0.000    0.000    0.000 
#    0.000    0.000    0.000    0.000    0.000    0.000 
#
# Total GULP energy -78335.461686 kJ/mol
# GULP energy per Si atom -5595.390120 kJ/mol
# Density = 2.266518 g / cm^3
# Si number density = 22.716884 Si / 1000 Ang^3
#
#
#
# Elastic Constant Matrix: (Units=GPa)
#
#
# Indices 1 2 3 4 5 6 
#
# 1 154.5690 15.8708 43.7912 2.7941 -17.5745 -34.9211
# 2 15.8708 45.4307 -5.3733 -7.0760 -6.9580 -21.9296
# 3 43.7912 -5.3733 104.3020 -15.4185 3.2577 -14.2578
# 4 2.7941 -7.0760 -15.4185 13.7532 -3.1025 3.9666
# 5 -17.5745 -6.9580 3.2577 -3.1025 59.1809 -7.0903
# 6 -34.9211 -21.9296 -14.2578 3.9666 -7.0903 24.9105
#
#
#
# Elastic Compliance Matrix: (Units=1/GPa)
#
#
# Indices 1 2 3 4 5 6 
#
# 1 0.014389 0.009655 -0.002780 -0.007981 0.008841 0.030867
# 2 0.009655 0.069436 0.014998 0.031151 0.021967 0.084538
# 3 -0.002780 0.014998 0.017127 0.023507 0.003177 0.016270
# 4 -0.007981 0.031151 0.023507 0.114503 0.007634 0.013630
# 5 0.008841 0.021967 0.003177 0.007634 0.027130 0.040056
# 6 0.030867 0.084538 0.016270 0.013630 0.040056 0.176380
#
#
# Mechanical properties :
#
#
# Convention : Reuss Voigt Hill
#
# Bulk Modulus (GPa) = 6.91091 45.87548 26.39319
# Shear Modulus (GPa) = 11.80774 36.23647 24.02210
#
# Velocity S-wave (km/s) = 2.28234 3.99825 3.25538
# Velocity P-wave (km/s) = 3.16136 6.44615 5.07677
#
# Compressibility (1/GPa) = 0.14469869
#
# Stress axis : x y z
#
# Youngs Moduli (GPa) = 69.49751 14.40178 58.38636
#
# Poissons Ratio (x) = -0.13905 0.16233
# Poissons Ratio (y) = -0.67100 -0.87571
# Poissons Ratio (z) = 0.19322 -0.21600
#
# Static dielectric constant tensor:
#      x y z
#    x 1.531110 0.146690 -0.318180 
#    y 0.146690 1.788030 0.083970 
#    z -0.318180 0.083970 1.674990 
# 
# From -- ./inp_files/503492.got.cif
#   From: 2010.05.17/outbox.cif.g08.bks.cpg/sg2_252_cif.got.tgz:503492.got - 2010.06.03 11:33:40.
