data_PCOD9058308
_publ_section_title
;
Structure prediction by ZEFSAII (Michael W. Deem and Ramdas Pophale) SiO2 
 PCOD9058308
Probable space group: P -1
;
_chemical_formula_sum "Si O2"
_cell_formula_units_Z 14
_cell_length_a 11.058151
_cell_length_b 10.515540
_cell_length_c 9.434375
_cell_angle_alpha 66.009567
_cell_angle_beta 117.850794
_cell_angle_gamma 143.196563
_cell_volume 579.989546
_symmetry_space_group_name_H-M "P -1"
_symmetry_group_IT_number 2
_symmetry_cell_setting 'triclinic'
loop_
_space_group_symop_operation_xyz
x,y,z
-x,-y,-z
loop_
_atom_site_type_symbol
_atom_site_label
_atom_site_fract_x
_atom_site_fract_y
_atom_site_fract_z
Si Si1 0.383425 0.830603 0.922213
Si Si2 0.850426 0.371809 0.872872
Si Si3 0.571885 0.397610 0.115436
Si Si4 0.177201 0.330400 0.372527
Si Si5 0.233212 0.945775 0.583776
Si Si6 0.536974 0.658315 0.613438
Si Si7 0.028554 0.657452 0.340821
O O1 0.475318 0.750876 0.965966
O O2 0.301547 0.855039 0.732754
O O3 0.122683 0.578810 0.949428
O O4 0.625866 0.119808 0.936277
O O5 0.817550 0.507811 0.750514
O O6 0.845950 0.288565 0.754999
O O7 0.467976 0.282741 0.261158
O O8 0.815586 0.562870 0.210528
O O9 0.500000 0.500000 0.000000
O O10 0.318764 0.424123 0.549104
O O11 0.279324 0.311507 0.319584
O O12 0.938798 0.119129 0.378406
O O13 0.137187 0.845956 0.422903
O O14 0.420119 0.193002 0.548428
O O15 0.000000 0.500000 0.500000
#
# Coordination Sequence:
#
# PCOD9058308 Si02
#       7
#     2   2   2   2   2   2   2
#     4  12  27  44  68 106 142 181 238 303 346 418
#     4  12  21  41  70  94 130 184 232 277 350 412
#     4  12  25  46  69 102 148 183 230 292 366 413
#     4  11  22  45  68  97 141 184 230 284 354 418
#     4  12  24  46  73 101 137 182 249 284 338 436
#     4  11  26  41  70 103 137 186 228 292 352 421
#     4  12  22  45  73  99 134 191 238 283 347 425
#
# _framework density 24.138365
#
# number of rings (size 3 to 8) (size 9 to 14) (size 15 to 20)
#    0.000    0.286    7.143    2.143    2.000    1.714 
#    2.571    0.714    0.000    0.000    0.000    0.000 
#    0.000    0.000    0.000    0.000    0.000    0.000 
#
# Total GULP energy -78162.071516 kJ/mol
# GULP energy per Si atom -5583.005108 kJ/mol
# Density = 2.408342 g / cm^3
# Si number density = 24.138365 Si / 1000 Ang^3
#
#
#
# Elastic Constant Matrix: (Units=GPa)
#
#
# Indices 1 2 3 4 5 6 
#
# 1 194.5878 33.8321 72.4952 -17.6904 -18.7015 4.6100
# 2 33.8321 80.8242 32.7431 1.3337 -17.9186 8.8582
# 3 72.4952 32.7431 103.3291 0.0750 7.4368 15.1923
# 4 -17.6904 1.3337 0.0750 43.3686 -6.3956 -15.0458
# 5 -18.7015 -17.9186 7.4368 -6.3956 36.3314 -10.9651
# 6 4.6100 8.8582 15.1923 -15.0458 -10.9651 36.2710
#
#
#
# Elastic Compliance Matrix: (Units=1/GPa)
#
#
# Indices 1 2 3 4 5 6 
#
# 1 0.010864 0.001427 -0.010705 0.010292 0.013666 0.011155
# 2 0.001427 0.017360 -0.008054 0.003431 0.012833 0.004255
# 3 -0.010705 -0.008054 0.024311 -0.014408 -0.022963 -0.019774
# 4 0.010292 0.003431 -0.014408 0.040923 0.025793 0.028662
# 5 0.013666 0.012833 -0.022963 0.025793 0.060292 0.033674
# 6 0.011155 0.004255 -0.019774 0.028662 0.033674 0.055465
#
#
# Mechanical properties :
#
#
# Convention : Reuss Voigt Hill
#
# Bulk Modulus (GPa) = 55.95814 72.98688 64.47251
# Shear Modulus (GPa) = 20.01300 39.17224 29.59262
#
# Velocity S-wave (km/s) = 2.88252 4.03280 3.50517
# Velocity P-wave (km/s) = 5.85757 7.21021 6.56880
#
# Compressibility (1/GPa) = 0.01787050
#
# Stress axis : x y z
#
# Youngs Moduli (GPa) = 92.04552 57.60317 41.13315
#
# Poissons Ratio (x) = -0.08217 0.44035
# Poissons Ratio (y) = -0.13131 0.33127
# Poissons Ratio (z) = 0.98539 0.46392
#
# Static dielectric constant tensor:
#      x y z
#    x 1.958100 0.116540 0.003200 
#    y 0.116540 2.356500 -0.012400 
#    z 0.003200 -0.012400 1.879980 
# 
# From -- ./inp_files/95102.got.cif
#   From: 2010.05.17/outbox.cif.g08.bks.cpg/sg2_48_cif.got.tgz:95102.got - 2010.06.03 11:33:40.
