data_PCOD9058926
_publ_section_title
;
Structure prediction by ZEFSAII (Michael W. Deem and Ramdas Pophale) SiO2 
 PCOD9058926
Probable space group: P -1
;
_chemical_formula_sum "Si O2"
_cell_formula_units_Z 14
_cell_length_a 6.523123
_cell_length_b 7.846908
_cell_length_c 18.598846
_cell_angle_alpha 47.644801
_cell_angle_beta 82.043410
_cell_angle_gamma 101.175937
_cell_volume 640.903411
_symmetry_space_group_name_H-M "P -1"
_symmetry_group_IT_number 2
_symmetry_cell_setting 'triclinic'
loop_
_space_group_symop_operation_xyz
x,y,z
-x,-y,-z
loop_
_atom_site_type_symbol
_atom_site_label
_atom_site_fract_x
_atom_site_fract_y
_atom_site_fract_z
Si Si1 0.830027 0.831474 0.485106
Si Si2 0.060977 0.103848 0.191373
Si Si3 0.334098 0.192011 0.355103
Si Si4 0.824958 0.987609 0.949579
Si Si5 0.132386 0.622960 0.385277
Si Si6 0.601695 0.912743 0.338709
Si Si7 0.652358 0.414496 0.861461
O O1 0.664692 0.855378 0.546906
O O2 0.913842 0.635527 0.578912
O O3 0.693394 0.778853 0.432781
O O4 0.067500 0.048502 0.390786
O O5 0.226386 0.354014 0.154293
O O6 0.102507 0.089350 0.108641
O O7 0.082468 0.849366 0.292201
O O8 0.809121 0.071650 0.233131
O O9 0.403959 0.467525 0.241460
O O10 0.486853 0.074822 0.339659
O O11 0.799229 0.255368 0.877248
O O12 0.578439 0.778506 0.038487
O O13 0.000000 0.000000 0.000000
O O14 0.398503 0.724230 0.356358
O O15 0.000000 0.500000 0.500000
#
# Coordination Sequence:
#
# PCOD9058926 Si02
#       7
#     2   2   2   2   2   2   2
#     4  11  23  39  63 100 140 184 227 273 330 402
#     4  12  26  46  74 102 141 186 224 287 353 404
#     4  11  23  42  66  96 142 180 222 283 335 406
#     4  11  29  49  75 105 130 175 240 294 350 417
#     4  12  22  42  63  97 142 178 227 271 330 411
#     4  12  22  40  66 100 138 181 231 267 338 412
#     4  11  24  52  72  98 141 176 233 289 352 411
#
# _framework density 21.844163999999999
#
# number of rings (size 3 to 8) (size 9 to 14) (size 15 to 20)
#    0.000    0.571    5.714    2.143    2.000    4.000 
#    0.000    0.000    0.000    0.000    0.000    0.000 
#    0.000    0.000    0.000    0.000    0.000    0.000 
#
# Total GULP energy -78062.319687 kJ/mol
# GULP energy per Si atom -5575.879978 kJ/mol
# Density = 2.179445 g / cm^3
# Si number density = 21.844164 Si / 1000 Ang^3
#
#
#
# Elastic Constant Matrix: (Units=GPa)
#
#
# Indices 1 2 3 4 5 6 
#
# 1 85.9868 34.0376 36.6947 3.7482 -10.7369 -18.9440
# 2 34.0376 97.0331 47.4827 16.8793 -12.7450 -17.4516
# 3 36.6947 47.4827 101.8549 5.6696 -11.0898 -14.0157
# 4 3.7482 16.8793 5.6696 44.1757 -13.0085 0.1998
# 5 -10.7369 -12.7450 -11.0898 -13.0085 34.7986 -0.8192
# 6 -18.9440 -17.4516 -14.0157 0.1998 -0.8192 38.5309
#
#
#
# Elastic Compliance Matrix: (Units=1/GPa)
#
#
# Indices 1 2 3 4 5 6 
#
# 1 0.015656 -0.002627 -0.003379 0.001061 0.003314 0.005344
# 2 -0.002627 0.015537 -0.005341 -0.004588 0.001554 0.003860
# 3 -0.003379 -0.005341 0.013797 0.001091 0.001829 0.000972
# 4 0.001061 -0.004588 0.001091 0.026813 0.008992 -0.001108
# 5 0.003314 0.001554 0.001829 0.008992 0.034359 0.003682
# 6 0.005344 0.003860 0.000972 -0.001108 0.003682 0.030766
#
#
# Mechanical properties :
#
#
# Convention : Reuss Voigt Hill
#
# Bulk Modulus (GPa) = 44.84823 57.92276 51.38550
# Shear Modulus (GPa) = 29.93036 34.61169 32.27103
#
# Velocity S-wave (km/s) = 3.70561 3.98487 3.84777
# Velocity P-wave (km/s) = 6.23572 6.90986 6.58143
#
# Compressibility (1/GPa) = 0.02229742
#
# Stress axis : x y z
#
# Youngs Moduli (GPa) = 63.87238 64.36157 72.47858
#
# Poissons Ratio (x) = 0.16906 0.24489
# Poissons Ratio (y) = 0.16777 0.38712
# Poissons Ratio (z) = 0.21581 0.34377
#
# Static dielectric constant tensor:
#      x y z
#    x 1.881740 -0.090410 -0.066280 
#    y -0.090410 1.989350 0.000690 
#    z -0.066280 0.000690 1.917130 
# 
# From -- ./inp_files/582176.got.cif
#   From: 2010.05.17/outbox.cif.g08.bks.cpg/sg2_292_cif.got.tgz:582176.got - 2010.06.03 11:33:40.
