data_PCOD9058477
_publ_section_title
;
Structure prediction by ZEFSAII (Michael W. Deem and Ramdas Pophale) SiO2 
 PCOD9058477
Probable space group: P -1
;
_chemical_formula_sum "Si O2"
_cell_formula_units_Z 16
_cell_length_a 6.783198
_cell_length_b 17.820716
_cell_length_c 9.307796
_cell_angle_alpha 56.094084
_cell_angle_beta 55.092376
_cell_angle_gamma 55.330546
_cell_volume 712.437771
_symmetry_space_group_name_H-M "P -1"
_symmetry_group_IT_number 2
_symmetry_cell_setting 'triclinic'
loop_
_space_group_symop_operation_xyz
x,y,z
-x,-y,-z
loop_
_atom_site_type_symbol
_atom_site_label
_atom_site_fract_x
_atom_site_fract_y
_atom_site_fract_z
Si Si1 0.263425 0.910378 0.590070
Si Si2 0.443835 0.744846 0.472034
Si Si3 0.658704 0.767149 0.072822
Si Si4 0.218342 0.604490 0.002141
Si Si5 0.319364 0.028945 0.189578
Si Si6 0.501383 0.739392 0.879475
Si Si7 0.127943 0.440936 0.370877
Si Si8 0.891386 0.372510 0.302657
O O1 0.267520 0.825303 0.567686
O O2 0.409472 0.845289 0.732367
O O3 0.973189 0.971450 0.700241
O O4 0.398117 0.969498 0.372142
O O5 0.679248 0.665358 0.545532
O O6 0.276545 0.691082 0.522977
O O7 0.547676 0.792234 0.251423
O O8 0.717852 0.858895 0.892612
O O9 0.469651 0.747755 0.055617
O O10 0.917087 0.672649 0.080983
O O11 0.365798 0.671036 0.936257
O O12 0.726197 0.496952 0.833789
O O13 0.219562 0.585566 0.850819
O O14 0.500000 0.000000 0.000000
O O15 0.807604 0.690020 0.780697
O O16 0.000000 0.500000 0.500000
O O17 0.905830 0.439822 0.354845
#
# Coordination Sequence:
#
# PCOD9058477 Si02
#       8
#     2   2   2   2   2   2   2   2
#     4  11  22  45  75  98 139 182 227 286 346 414
#     4  12  24  45  67 101 141 181 232 285 343 409
#     4  11  24  42  70 100 139 181 225 290 345 403
#     4  11  23  45  68  95 137 178 233 282 340 407
#     4  11  23  43  75 105 137 177 228 290 351 410
#     4  11  23  45  70  99 133 185 230 277 345 414
#     4  12  26  41  67 103 134 183 230 287 343 406
#     4  11  24  42  67  96 136 185 226 282 340 407
#
# _framework density 22.458102
#
# number of rings (size 3 to 8) (size 9 to 14) (size 15 to 20)
#    0.000    0.750    6.250    1.125    1.750    5.000 
#    2.250    0.625    0.000    0.000    0.000    0.000 
#    0.000    0.000    0.000    0.000    0.000    0.000 
#
# Total GULP energy -89316.446961 kJ/mol
# GULP energy per Si atom -5582.277935 kJ/mol
# Density = 2.240699 g / cm^3
# Si number density = 22.458102 Si / 1000 Ang^3
#
#
#
# Elastic Constant Matrix: (Units=GPa)
#
#
# Indices 1 2 3 4 5 6 
#
# 1 109.9360 23.0594 37.0328 -10.6244 12.8327 -9.0387
# 2 23.0594 77.9903 35.2717 -11.8132 12.3045 -8.4651
# 3 37.0328 35.2717 136.2967 -16.3185 12.3977 -4.3254
# 4 -10.6244 -11.8132 -16.3185 51.2612 3.4808 3.3295
# 5 12.8327 12.3045 12.3977 3.4808 25.3353 -8.4198
# 6 -9.0387 -8.4651 -4.3254 3.3295 -8.4198 28.2112
#
#
#
# Elastic Compliance Matrix: (Units=1/GPa)
#
#
# Indices 1 2 3 4 5 6 
#
# 1 0.010728 -0.001322 -0.002039 0.001407 -0.003481 0.001523
# 2 -0.001322 0.016007 -0.002903 0.002727 -0.005393 0.002003
# 3 -0.002039 -0.002903 0.009096 0.002062 -0.002682 -0.001174
# 4 0.001407 0.002727 0.002062 0.021765 -0.007064 -0.003092
# 5 -0.003481 -0.005393 -0.002682 -0.007064 0.050363 0.012720
# 6 0.001523 0.002003 -0.001174 -0.003092 0.012720 0.040517
#
#
# Mechanical properties :
#
#
# Convention : Reuss Voigt Hill
#
# Bulk Modulus (GPa) = 42.91298 57.21676 50.06487
# Shear Modulus (GPa) = 29.62588 36.21884 32.92236
#
# Velocity S-wave (km/s) = 3.63597 4.02024 3.83292
# Velocity P-wave (km/s) = 6.06436 6.86164 6.47529
#
# Compressibility (1/GPa) = 0.02330297
#
# Stress axis : x y z
#
# Youngs Moduli (GPa) = 93.21410 62.47267 109.94109
#
# Poissons Ratio (x) = 0.08259 0.22420
# Poissons Ratio (y) = 0.12323 0.31911
# Poissons Ratio (z) = 0.19009 0.18133
#
# Static dielectric constant tensor:
#      x y z
#    x 1.856830 -0.010500 -0.026310 
#    y -0.010500 1.860320 0.014110 
#    z -0.026310 0.014110 1.936800 
# 
# From -- ./inp_files/140599.got.cif
#   From: 2010.05.17/outbox.cif.g08.bks.cpg/sg2_71_cif.got.tgz:140599.got - 2010.06.03 11:33:40.
