data_PCOD9058985
_publ_section_title
;
Structure prediction by ZEFSAII (Michael W. Deem and Ramdas Pophale) SiO2 
 PCOD9058985
Probable space group: P -1
;
_chemical_formula_sum "Si O2"
_cell_formula_units_Z 16
_cell_length_a 11.123468
_cell_length_b 9.137385
_cell_length_c 9.452086
_cell_angle_alpha 133.929203
_cell_angle_beta 99.127071
_cell_angle_gamma 101.008282
_cell_volume 618.914960
_symmetry_space_group_name_H-M "P -1"
_symmetry_group_IT_number 2
_symmetry_cell_setting 'triclinic'
loop_
_space_group_symop_operation_xyz
x,y,z
-x,-y,-z
loop_
_atom_site_type_symbol
_atom_site_label
_atom_site_fract_x
_atom_site_fract_y
_atom_site_fract_z
Si Si1 0.132986 0.983474 0.153308
Si Si2 0.354569 0.654721 0.682849
Si Si3 0.059426 0.478514 0.847753
Si Si4 0.600041 0.259669 0.568049
Si Si5 0.677440 0.918793 0.490599
Si Si6 0.341638 0.130817 0.041316
Si Si7 0.701954 0.629193 0.065191
Si Si8 0.053002 0.330282 0.465085
O O1 0.192271 0.016511 0.346677
O O2 0.251175 0.109501 0.147567
O O3 0.032480 0.105719 0.225375
O O4 0.085404 0.718596 0.942721
O O5 0.355500 0.618750 0.490390
O O6 0.500801 0.690017 0.792764
O O7 0.217077 0.467442 0.593892
O O8 0.347478 0.892079 0.863298
O O9 0.180835 0.423770 0.884484
O O10 0.993539 0.296699 0.589810
O O11 0.000000 0.500000 0.000000
O O12 0.440710 0.110074 0.439143
O O13 0.621522 0.411301 0.810691
O O14 0.680083 0.111817 0.516245
O O15 0.646639 0.706618 0.242848
O O16 0.275230 0.185855 0.928169
O O17 0.000000 0.500000 0.500000
#
# Coordination Sequence:
#
# PCOD9058985 Si02
#       8
#     2   2   2   2   2   2   2   2
#     4  12  25  51  76 107 147 189 245 306 372 434
#     4  11  24  46  73 112 156 189 251 298 368 449
#     4  12  30  51  72 107 147 193 251 306 362 439
#     4  11  23  39  69 106 152 187 235 292 370 433
#     4  11  23  41  68 108 144 193 231 297 364 440
#     4  11  25  43  80 113 149 197 236 307 378 438
#     4  12  25  44  71 109 145 191 244 297 369 437
#     4  12  30  49  78 107 145 200 252 302 360 437
#
# _framework density 25.851693999999998
#
# number of rings (size 3 to 8) (size 9 to 14) (size 15 to 20)
#    0.000    0.500    6.250    1.125    5.250    4.000 
#    0.000    0.000    0.000    0.000    0.000    0.000 
#    0.000    0.000    0.000    0.000    0.000    0.000 
#
# Total GULP energy -89526.029514 kJ/mol
# GULP energy per Si atom -5595.376845 kJ/mol
# Density = 2.579285 g / cm^3
# Si number density = 25.851694 Si / 1000 Ang^3
#
#
#
# Elastic Constant Matrix: (Units=GPa)
#
#
# Indices 1 2 3 4 5 6 
#
# 1 98.7431 63.7173 64.8233 7.6761 -31.8266 -4.3867
# 2 63.7173 100.8836 10.3228 -13.6468 -20.9741 -28.9915
# 3 64.8233 10.3228 115.4123 -22.9010 -36.0339 -23.1257
# 4 7.6761 -13.6468 -22.9010 37.1102 -5.4139 -18.4578
# 5 -31.8266 -20.9741 -36.0339 -5.4139 42.5114 2.6812
# 6 -4.3867 -28.9915 -23.1257 -18.4578 2.6812 43.9789
#
#
#
# Elastic Compliance Matrix: (Units=1/GPa)
#
#
# Indices 1 2 3 4 5 6 
#
# 1 0.003424 0.007541 0.009371 0.018621 0.015519 0.017109
# 2 0.007541 -0.001283 -0.012477 -0.017495 -0.006936 -0.013574
# 3 0.009371 -0.012477 -0.002165 -0.015530 -0.002018 -0.014824
# 4 0.018621 -0.017495 -0.015530 -0.003306 -0.007090 -0.018797
# 5 0.015519 -0.006936 -0.002018 -0.007090 0.029666 -0.008870
# 6 0.017109 -0.013574 -0.014824 -0.018797 -0.008870 0.000353
#
#
# Mechanical properties :
#
#
# Convention : Reuss Voigt Hill
#
# Bulk Modulus (GPa) = 113.06393 65.86286 89.46340
# Shear Modulus (GPa) = 240.73623 36.46513 138.60068
#
# Velocity S-wave (km/s) = 9.66044 3.75980 7.33009
# Velocity P-wave (km/s) = 12.97162 6.66188 10.31124
#
# Compressibility (1/GPa) = 0.00884455
#
# Stress axis : x y z
#
# Youngs Moduli (GPa) = 292.03300 -779.45043 -461.94590
#
# Poissons Ratio (x) = 5.87754 4.32883
# Poissons Ratio (y) = -2.20211 -5.76392
# Poissons Ratio (z) = -2.73660 -9.72558
#
# Static dielectric constant tensor:
#      x y z
#    x 1.876130 0.005960 0.054860 
#    y 0.005960 2.036080 0.060700 
#    z 0.054860 0.060700 2.002960 
# 
# From -- ./inp_files/246010.got.cif
#   From: 2010.05.17/outbox.cif.g08.bks.cpg/sg2_124_cif.got.tgz:246010.got - 2010.06.03 11:33:40.
