data_PCOD9058096
_publ_section_title
;
Structure prediction by ZEFSAII (Michael W. Deem and Ramdas Pophale) SiO2 
 PCOD9058096
Probable space group: P -1
;
_chemical_formula_sum "Si O2"
_cell_formula_units_Z 14
_cell_length_a 10.652771
_cell_length_b 19.251714
_cell_length_c 9.031545
_cell_angle_alpha 137.783499
_cell_angle_beta 114.961745
_cell_angle_gamma 34.134313
_cell_volume 602.127178
_symmetry_space_group_name_H-M "P -1"
_symmetry_group_IT_number 2
_symmetry_cell_setting 'triclinic'
loop_
_space_group_symop_operation_xyz
x,y,z
-x,-y,-z
loop_
_atom_site_type_symbol
_atom_site_label
_atom_site_fract_x
_atom_site_fract_y
_atom_site_fract_z
Si Si1 0.415544 0.434842 0.180664
Si Si2 0.689952 0.009634 0.337455
Si Si3 0.469023 0.166143 0.804441
Si Si4 0.372732 0.012079 0.108122
Si Si5 0.589631 0.689205 0.534579
Si Si6 0.052760 0.617883 0.013586
Si Si7 0.210475 0.632104 0.696679
O O1 0.255047 0.523403 0.090253
O O2 0.270912 0.586928 0.479959
O O3 0.684060 0.326208 0.123761
O O4 0.450772 0.297392 0.040452
O O5 0.566130 0.102063 0.583953
O O6 0.510060 0.035868 0.211476
O O7 0.657495 0.132455 0.415675
O O8 0.957468 0.781896 0.142235
O O9 0.194020 0.282477 0.876575
O O10 0.662065 0.989983 0.737636
O O11 0.098438 0.185375 0.163427
O O12 0.561896 0.800767 0.812410
O O13 0.631246 0.557833 0.438967
O O14 0.822338 0.537905 0.291472
#
# Coordination Sequence:
#
# PCOD9058096 Si02
#       7
#     2   2   2   2   2   2   2
#     4  11  23  47  70  94 128 175 227 263 321 388
#     4  11  24  41  67 103 130 168 216 272 333 378
#     4  11  22  44  71 100 127 171 219 275 326 375
#     4  11  24  43  66  99 136 165 222 265 323 398
#     4  12  25  43  65 102 135 174 212 263 341 382
#     4  11  24  43  71  97 134 168 217 275 324 384
#     4  11  26  45  68  94 132 178 216 270 319 386
#
# _framework density 23.250900999999999
#
# number of rings (size 3 to 8) (size 9 to 14) (size 15 to 20)
#    0.000    0.857    2.857    5.143    2.000    5.143 
#    2.571    1.429    0.000    0.000    0.000    0.000 
#    0.000    0.000    0.000    0.000    0.000    0.000 
#
# Total GULP energy -78243.251800 kJ/mol
# GULP energy per Si atom -5588.803700 kJ/mol
# Density = 2.319798 g / cm^3
# Si number density = 23.250901 Si / 1000 Ang^3
#
#
#
# Elastic Constant Matrix: (Units=GPa)
#
#
# Indices 1 2 3 4 5 6 
#
# 1 9.7889 102.3922 -8.6487 -17.1357 -19.0538 -39.2191
# 2 102.3922 121.2082 29.3729 7.3714 28.3175 30.7599
# 3 -8.6487 29.3729 95.8800 -13.4681 -16.4866 -18.3698
# 4 -17.1357 7.3714 -13.4681 36.3726 0.8672 -7.5001
# 5 -19.0538 28.3175 -16.4866 0.8672 17.4504 -25.4350
# 6 -39.2191 30.7599 -18.3698 -7.5001 -25.4350 10.1797
#
#
#
# Elastic Compliance Matrix: (Units=1/GPa)
#
#
# Indices 1 2 3 4 5 6 
#
# 1 0.008887 0.000552 -0.004554 -0.000029 -0.015130 -0.013472
# 2 0.000552 0.004165 0.001355 0.001295 0.005767 0.007347
# 3 -0.004554 0.001355 0.009788 0.001036 0.001006 -0.000700
# 4 -0.000029 0.001295 0.001036 0.026917 -0.008810 -0.004335
# 5 -0.015130 0.005767 0.001006 -0.008810 0.031932 -0.000606
# 6 -0.013472 0.007347 -0.000700 -0.004335 -0.000606 0.018161
#
#
# Mechanical properties :
#
#
# Convention : Reuss Voigt Hill
#
# Bulk Modulus (GPa) = 56.99574 52.56775 54.78175
# Shear Modulus (GPa) = 45.04760 19.71793 32.38276
#
# Velocity S-wave (km/s) = 4.40643 2.91529 3.73601
# Velocity P-wave (km/s) = 7.10320 5.83008 6.49789
#
# Compressibility (1/GPa) = 0.01754517
#
# Stress axis : x y z
#
# Youngs Moduli (GPa) = 112.52849 240.07125 102.16269
#
# Poissons Ratio (x) = -0.13247 0.46526
# Poissons Ratio (y) = -0.06209 -0.13840
# Poissons Ratio (z) = 0.51247 -0.32523
#
# Static dielectric constant tensor:
#      x y z
#    x 1.893680 0.049660 -0.068570 
#    y 0.049660 1.875280 -0.013760 
#    z -0.068570 -0.013760 1.936880 
# 
# From -- ./inp_files/283420.got.cif
#   From: 2010.05.17/outbox.cif.g08.bks.cpg/sg2_142_cif.got.tgz:283420.got - 2010.06.03 11:33:40.
