data_PCOD9058883
_publ_section_title
;
Structure prediction by ZEFSAII (Michael W. Deem and Ramdas Pophale) SiO2 
 PCOD9058883
Probable space group: P -1
;
_chemical_formula_sum "Si O2"
_cell_formula_units_Z 16
_cell_length_a 11.825083
_cell_length_b 5.013040
_cell_length_c 21.288610
_cell_angle_alpha 86.309360
_cell_angle_beta 37.586674
_cell_angle_gamma 101.012393
_cell_volume 704.827618
_symmetry_space_group_name_H-M "P -1"
_symmetry_group_IT_number 2
_symmetry_cell_setting 'triclinic'
loop_
_space_group_symop_operation_xyz
x,y,z
-x,-y,-z
loop_
_atom_site_type_symbol
_atom_site_label
_atom_site_fract_x
_atom_site_fract_y
_atom_site_fract_z
Si Si1 0.091512 0.826518 0.625120
Si Si2 0.635666 0.512787 0.500559
Si Si3 0.578093 0.900888 0.725713
Si Si4 0.992685 0.989260 0.918453
Si Si5 0.157074 0.442841 0.385672
Si Si6 0.026551 0.340964 0.180999
Si Si7 0.326817 0.543932 0.735728
Si Si8 0.249070 0.645603 0.969200
O O1 0.285396 0.743357 0.533998
O O2 0.983979 0.696271 0.740147
O O3 0.949717 0.678130 0.631464
O O4 0.173847 0.176176 0.585267
O O5 0.500000 0.500000 0.500000
O O6 0.497327 0.495493 0.621389
O O7 0.751883 0.790475 0.630795
O O8 0.424684 0.809405 0.736424
O O9 0.457640 0.717618 0.841795
O O10 0.664542 0.237459 0.700064
O O11 0.202386 0.253133 0.834550
O O12 0.820748 0.093159 0.014201
O O13 0.992688 0.951703 0.842919
O O14 0.925348 0.657600 0.974344
O O15 0.000000 0.500000 0.500000
O O16 0.832119 0.396726 0.240742
O O17 0.224251 0.577910 0.056062
#
# Coordination Sequence:
#
# PCOD9058883 Si02
#       8
#     2   2   2   2   2   2   2   2
#     4  12  25  43  66  92 134 170 209 267 319 378
#     4  12  24  38  66 102 131 158 212 260 327 385
#     4  12  26  44  69  93 128 170 228 252 306 378
#     4   9  20  37  61  91 139 158 202 256 345 365
#     4  12  27  49  67  91 128 178 216 258 311 370
#     4   9  22  39  64  96 131 163 203 263 343 368
#     4  11  23  38  64  99 132 166 207 270 316 391
#     4   9  21  40  62  93 130 166 208 265 308 391
#
# _framework density 22.700588
#
# number of rings (size 3 to 8) (size 9 to 14) (size 15 to 20)
#    0.750    0.500    1.250    4.500    5.250    2.500 
#    0.000    1.250    0.000    0.000    0.000    0.000 
#    0.000    0.000    0.000    0.000    0.000    0.000 
#
# Total GULP energy -89415.174638 kJ/mol
# GULP energy per Si atom -5588.448415 kJ/mol
# Density = 2.264892 g / cm^3
# Si number density = 22.700588 Si / 1000 Ang^3
#
#
#
# Elastic Constant Matrix: (Units=GPa)
#
#
# Indices 1 2 3 4 5 6 
#
# 1 52.0846 25.2840 -13.7087 0.5085 6.6214 20.9556
# 2 25.2840 109.8782 4.3857 -2.5803 0.2284 4.7376
# 3 -13.7087 4.3857 86.8090 10.0754 18.2096 10.5607
# 4 0.5085 -2.5803 10.0754 40.7562 4.1488 -4.4501
# 5 6.6214 0.2284 18.2096 4.1488 23.5612 8.7861
# 6 20.9556 4.7376 10.5607 -4.4501 8.7861 41.8694
#
#
#
# Elastic Compliance Matrix: (Units=1/GPa)
#
#
# Indices 1 2 3 4 5 6 
#
# 1 0.033821 -0.007547 0.010475 -0.004280 -0.010442 -0.016979
# 2 -0.007547 0.010860 -0.002870 0.001502 0.002918 0.002820
# 3 0.010475 -0.002870 0.017371 -0.004045 -0.013019 -0.006997
# 4 -0.004280 0.001502 -0.004045 0.026666 -0.002770 0.006408
# 5 -0.010442 0.002918 -0.013019 -0.002770 0.057454 -0.004171
# 6 -0.016979 0.002820 -0.006997 0.006408 -0.004171 0.035384
#
#
# Mechanical properties :
#
#
# Convention : Reuss Voigt Hill
#
# Bulk Modulus (GPa) = 16.08577 31.18821 23.63699
# Shear Modulus (GPa) = 24.73251 36.75808 30.74530
#
# Velocity S-wave (km/s) = 3.30435 4.02836 3.68419
# Velocity P-wave (km/s) = 4.65401 5.95027 5.34161
#
# Compressibility (1/GPa) = 0.06216675
#
# Stress axis : x y z
#
# Youngs Moduli (GPa) = 29.56749 92.08214 57.56878
#
# Poissons Ratio (x) = 0.69497 -0.60303
# Poissons Ratio (y) = 0.22316 0.16522
# Poissons Ratio (z) = -0.30972 0.26427
#
# Static dielectric constant tensor:
#      x y z
#    x 1.858580 -0.013560 0.012810 
#    y -0.013560 1.827190 -0.003700 
#    z 0.012810 -0.003700 1.882970 
# 
# From -- ./inp_files/592528.got.cif
#   From: 2010.05.17/outbox.cif.g08.bks.cpg/sg2_297_cif.got.tgz:592528.got - 2010.06.03 11:33:40.
