data_PCOD9058724
_publ_section_title
;
Structure prediction by ZEFSAII (Michael W. Deem and Ramdas Pophale) SiO2 
 PCOD9058724
Probable space group: P -1
;
_chemical_formula_sum "Si O2"
_cell_formula_units_Z 16
_cell_length_a 9.195477
_cell_length_b 8.918689
_cell_length_c 16.450828
_cell_angle_alpha 79.475029
_cell_angle_beta 34.755729
_cell_angle_gamma 69.939693
_cell_volume 709.973853
_symmetry_space_group_name_H-M "P -1"
_symmetry_group_IT_number 2
_symmetry_cell_setting 'triclinic'
loop_
_space_group_symop_operation_xyz
x,y,z
-x,-y,-z
loop_
_atom_site_type_symbol
_atom_site_label
_atom_site_fract_x
_atom_site_fract_y
_atom_site_fract_z
Si Si1 0.351735 0.180666 0.519778
Si Si2 0.230178 0.807196 0.805297
Si Si3 0.607130 0.650938 0.925330
Si Si4 0.359509 0.445610 0.794541
Si Si5 0.236173 0.465644 0.661551
Si Si6 0.460209 0.119173 0.209452
Si Si7 0.348563 0.186832 0.946536
Si Si8 0.010574 0.682848 0.476167
O O1 0.580370 0.219812 0.357836
O O2 0.257292 0.295979 0.628514
O O3 0.103560 0.226323 0.565208
O O4 0.500000 0.000000 0.500000
O O5 0.319636 0.628131 0.821820
O O6 0.311045 0.921281 0.820798
O O7 0.920808 0.860637 0.915196
O O8 0.482482 0.761563 0.894458
O O9 0.935082 0.588650 0.767234
O O10 0.500000 0.500000 0.000000
O O11 0.550228 0.762386 0.021210
O O12 0.245340 0.456714 0.755311
O O13 0.255508 0.347065 0.917271
O O14 0.678297 0.343631 0.651405
O O15 0.500000 0.500000 0.500000
O O16 0.183742 0.213647 0.374708
O O17 0.450677 0.962783 0.181024
O O18 0.000000 0.500000 0.500000
#
# Coordination Sequence:
#
# PCOD9058724 Si02
#       8
#     2   2   2   2   2   2   2   2
#     4  11  25  43  72 107 140 177 236 300 360 408
#     4  11  23  47  72 100 140 189 230 289 354 439
#     4  12  27  45  71 104 139 190 241 291 357 436
#     4  12  24  43  73  97 139 186 242 279 347 433
#     4  12  24  46  71 100 138 189 237 292 351 425
#     4  11  25  44  73  99 142 180 231 297 363 413
#     4  12  27  45  66 106 143 182 232 293 364 424
#     4  11  22  47  74  99 135 187 242 286 349 431
#
# _framework density 22.536041999999998
#
# number of rings (size 3 to 8) (size 9 to 14) (size 15 to 20)
#    0.000    0.500    5.000    3.375    7.000    1.500 
#    4.500    0.000    0.000    0.000    0.000    0.000 
#    0.000    0.000    0.000    0.000    0.000    0.000 
#
# Total GULP energy -89510.668797 kJ/mol
# GULP energy per Si atom -5594.416800 kJ/mol
# Density = 2.248475 g / cm^3
# Si number density = 22.536042 Si / 1000 Ang^3
#
#
#
# Elastic Constant Matrix: (Units=GPa)
#
#
# Indices 1 2 3 4 5 6 
#
# 1 105.7718 22.0661 22.0582 9.8480 23.1096 9.3002
# 2 22.0661 96.4386 7.1099 19.8732 19.1283 6.7840
# 3 22.0582 7.1099 66.6052 13.4222 -1.2241 19.0253
# 4 9.8480 19.8732 13.4222 43.3197 5.6024 13.7176
# 5 23.1096 19.1283 -1.2241 5.6024 43.2042 8.6091
# 6 9.3002 6.7840 19.0253 13.7176 8.6091 37.2005
#
#
#
# Elastic Compliance Matrix: (Units=1/GPa)
#
#
# Indices 1 2 3 4 5 6 
#
# 1 0.011831 -0.001192 -0.004078 -0.000377 -0.006043 0.000883
# 2 -0.001192 0.012537 -0.000301 -0.005158 -0.004472 0.001103
# 3 -0.004078 -0.000301 0.019656 -0.002791 0.005051 -0.009118
# 4 -0.000377 -0.005158 -0.002791 0.028989 0.000300 -0.008297
# 5 -0.006043 -0.004472 0.005051 0.000300 0.029915 -0.007290
# 6 0.000883 0.001103 -0.009118 -0.008297 -0.007290 0.035869
#
#
# Mechanical properties :
#
#
# Convention : Reuss Voigt Hill
#
# Bulk Modulus (GPa) = 30.41282 41.25378 35.83330
# Shear Modulus (GPa) = 31.07478 39.25031 35.16255
#
# Velocity S-wave (km/s) = 3.71737 4.17786 3.95432
# Velocity P-wave (km/s) = 5.65240 6.45121 6.06497
#
# Compressibility (1/GPa) = 0.03288087
#
# Stress axis : x y z
#
# Youngs Moduli (GPa) = 84.52081 79.76624 50.87417
#
# Poissons Ratio (x) = 0.09510 0.20748
# Poissons Ratio (y) = 0.10077 0.01533
# Poissons Ratio (z) = 0.34470 0.02403
#
# Static dielectric constant tensor:
#      x y z
#    x 1.861830 -0.005590 -0.064680 
#    y -0.005590 1.854510 -0.008610 
#    z -0.064680 -0.008610 1.870880 
# 
# From -- ./inp_files/494791.got.cif
#   From: 2010.05.17/outbox.cif.g08.bks.cpg/sg2_248_cif.got.tgz:494791.got - 2010.06.03 11:33:40.
