data_PCOD9058061
_publ_section_title
;
Structure prediction by ZEFSAII (Michael W. Deem and Ramdas Pophale) SiO2 
 PCOD9058061
Probable space group: P -1
;
_chemical_formula_sum "Si O2"
_cell_formula_units_Z 15
_cell_length_a 12.080053
_cell_length_b 8.423967
_cell_length_c 7.466035
_cell_angle_alpha 76.798171
_cell_angle_beta 117.498621
_cell_angle_gamma 80.005723
_cell_volume 620.926882
_symmetry_space_group_name_H-M "P -1"
_symmetry_group_IT_number 2
_symmetry_cell_setting 'triclinic'
loop_
_space_group_symop_operation_xyz
x,y,z
-x,-y,-z
loop_
_atom_site_type_symbol
_atom_site_label
_atom_site_fract_x
_atom_site_fract_y
_atom_site_fract_z
Si Si1 0.615164 0.592292 0.698995
Si Si2 0.054714 0.292654 0.367498
Si Si3 0.072782 0.645127 0.356365
Si Si4 0.195977 0.784284 0.959313
Si Si5 0.377382 0.484037 0.666758
Si Si6 0.591972 0.796381 0.944899
Si Si7 0.000000 0.000000 0.000000
Si Si8 0.303764 0.007265 0.731817
O O1 0.471537 0.595058 0.661437
O O2 0.611019 0.629921 0.476322
O O3 0.706863 0.395406 0.849858
O O4 0.659329 0.716878 0.830846
O O5 0.016155 0.314765 0.542963
O O6 0.941520 0.242203 0.194834
O O7 0.062297 0.480439 0.280682
O O8 0.189856 0.135411 0.494281
O O9 0.224815 0.592010 0.545366
O O10 0.033091 0.814614 0.168637
O O11 0.256134 0.855670 0.817840
O O12 0.149834 0.931225 0.035400
O O13 0.420054 0.361692 0.900769
O O14 0.671207 0.885755 0.106625
O O15 0.446274 0.927795 0.770036
#
# Coordination Sequence:
#
# PCOD9058061 Si02
#       8
#     2   2   2   2   2   2   1   2
#     4  11  25  42  73 102 132 187 237 284 353 424
#     4  11  25  44  72  98 136 190 238 273 353 428
#     4  11  24  44  69 100 136 183 224 294 344 413
#     4  12  25  44  67 103 137 183 235 288 345 419
#     4  11  22  44  70 101 137 177 238 283 345 420
#     4  11  24  45  73 100 139 187 228 294 351 415
#     4  12  26  42  64 102 146 170 224 298 346 398
#     4  11  24  44  68 105 138 177 238 292 344 413
#
# _framework density 24.157436000000001
#
# number of rings (size 3 to 8) (size 9 to 14) (size 15 to 20)
#    0.000    0.800    5.333    1.600    3.733    0.533 
#    2.400    2.667    0.000    0.000    0.000    0.000 
#    0.000    0.000    0.000    0.000    0.000    0.000 
#
# Total GULP energy -83772.020000 kJ/mol
# GULP energy per Si atom -5584.801333 kJ/mol
# Density = 2.410245 g / cm^3
# Si number density = 24.157436 Si / 1000 Ang^3
#
#
#
# Elastic Constant Matrix: (Units=GPa)
#
#
# Indices 1 2 3 4 5 6 
#
# 1 48.6691 6.7041 13.8903 -16.4249 14.7816 1.4966
# 2 6.7041 49.4124 35.8324 -10.2057 2.7248 -15.0980
# 3 13.8903 35.8324 81.1310 -18.2816 7.1000 2.0301
# 4 -16.4249 -10.2057 -18.2816 42.9449 -5.9792 -5.5926
# 5 14.7816 2.7248 7.1000 -5.9792 49.5096 1.1739
# 6 1.4966 -15.0980 2.0301 -5.5926 1.1739 33.3613
#
#
#
# Elastic Compliance Matrix: (Units=1/GPa)
#
#
# Indices 1 2 3 4 5 6 
#
# 1 0.025834 0.000361 -0.002181 0.008238 -0.006443 0.000745
# 2 0.000361 0.039458 -0.016895 0.004924 0.000272 0.019685
# 3 -0.002181 -0.016895 0.021108 0.002929 -0.000895 -0.008310
# 4 0.008238 0.004924 0.002929 0.029761 0.000286 0.006659
# 5 -0.006443 0.000272 -0.000895 0.000286 0.022276 -0.000270
# 6 0.000745 0.019685 -0.008310 0.006659 -0.000270 0.040481
#
#
# Mechanical properties :
#
#
# Convention : Reuss Voigt Hill
#
# Bulk Modulus (GPa) = 20.42166 32.45181 26.43673
# Shear Modulus (GPa) = 21.48961 33.34887 27.41924
#
# Velocity S-wave (km/s) = 2.98579 3.71951 3.37266
# Velocity P-wave (km/s) = 4.51204 5.64880 5.11212
#
# Compressibility (1/GPa) = 0.04896761
#
# Stress axis : x y z
#
# Youngs Moduli (GPa) = 38.70930 25.34361 47.37638
#
# Poissons Ratio (x) = -0.00914 0.10332
# Poissons Ratio (y) = -0.01396 0.80045
# Poissons Ratio (z) = 0.08442 0.42819
#
# Static dielectric constant tensor:
#      x y z
#    x 1.907520 0.006730 0.029430 
#    y 0.006730 2.051950 0.061840 
#    z 0.029430 0.061840 1.833300 
# 
# From -- ./inp_files/237969.got.cif
#   From: 2010.05.17/outbox.cif.g08.bks.cpg/sg2_119_cif.got.tgz:237969.got - 2010.06.03 11:33:40.
