data_PCOD9058852
_publ_section_title
;
Structure prediction by ZEFSAII (Michael W. Deem and Ramdas Pophale) SiO2 
 PCOD9058852
Probable space group: P -1
;
_chemical_formula_sum "Si O2"
_cell_formula_units_Z 16
_cell_length_a 14.294725
_cell_length_b 11.269526
_cell_length_c 5.758502
_cell_angle_alpha 76.684227
_cell_angle_beta 87.079646
_cell_angle_gamma 129.125732
_cell_volume 676.214291
_symmetry_space_group_name_H-M "P -1"
_symmetry_group_IT_number 2
_symmetry_cell_setting 'triclinic'
loop_
_space_group_symop_operation_xyz
x,y,z
-x,-y,-z
loop_
_atom_site_type_symbol
_atom_site_label
_atom_site_fract_x
_atom_site_fract_y
_atom_site_fract_z
Si Si1 0.842812 0.339378 0.982607
Si Si2 0.714611 0.399911 0.352317
Si Si3 0.810787 0.670121 0.554840
Si Si4 0.005409 0.672375 0.666510
Si Si5 0.568995 0.053301 0.718003
Si Si6 0.847806 0.883284 0.087551
Si Si7 0.372387 0.462637 0.985309
Si Si8 0.230605 0.925853 0.181232
O O1 0.781454 0.378889 0.153412
O O2 0.938104 0.329991 0.101993
O O3 0.749178 0.163393 0.967350
O O4 0.910904 0.479457 0.717646
O O5 0.812253 0.574673 0.386520
O O6 0.654109 0.249035 0.597477
O O7 0.618301 0.412516 0.240433
O O8 0.820658 0.812244 0.383377
O O9 0.681730 0.540095 0.760639
O O10 0.925703 0.726889 0.672899
O O11 0.114463 0.789407 0.419656
O O12 0.644638 0.989034 0.726672
O O13 0.500000 0.000000 0.500000
O O14 0.500000 0.000000 0.000000
O O15 0.746133 0.718605 0.018654
O O16 0.806364 0.983050 0.982294
O O17 0.000000 0.000000 0.000000
O O18 0.500000 0.500000 0.000000
#
# Coordination Sequence:
#
# PCOD9058852 Si02
#       8
#     2   2   2   2   2   2   2   2
#     4  11  24  39  72 112 148 191 244 323 402 475
#     4  11  25  47  73 106 144 193 261 317 393 466
#     4  11  25  45  76 105 146 202 256 327 386 471
#     4  11  23  37  72 107 146 191 252 311 400 466
#     4  12  29  48  74 110 154 206 260 330 400 477
#     4  11  27  47  73 111 153 200 263 321 399 464
#     4  11  28  49  78 105 145 205 261 319 388 474
#     4  12  26  45  70 107 158 196 256 321 401 473
#
# _framework density 23.661138000000001
#
# number of rings (size 3 to 8) (size 9 to 14) (size 15 to 20)
#    0.000    0.750    3.750    1.875    8.750    4.500 
#    0.000    0.000    0.000    0.000    0.000    0.000 
#    0.000    0.000    0.000    0.000    0.000    0.000 
#
# Total GULP energy -89286.449225 kJ/mol
# GULP energy per Si atom -5580.403077 kJ/mol
# Density = 2.360728 g / cm^3
# Si number density = 23.661138 Si / 1000 Ang^3
#
#
#
# Elastic Constant Matrix: (Units=GPa)
#
#
# Indices 1 2 3 4 5 6 
#
# 1 220.6461 34.3651 82.9500 -7.5270 39.8935 13.5231
# 2 34.3651 69.9537 17.9756 -9.2172 5.8563 4.4513
# 3 82.9500 17.9756 138.9054 -29.0754 25.8343 -11.2646
# 4 -7.5270 -9.2172 -29.0754 30.7400 -9.0894 7.1247
# 5 39.8935 5.8563 25.8343 -9.0894 62.6903 -1.9461
# 6 13.5231 4.4513 -11.2646 7.1247 -1.9461 33.4971
#
#
#
# Elastic Compliance Matrix: (Units=1/GPa)
#
#
# Indices 1 2 3 4 5 6 
#
# 1 0.007225 -0.002351 -0.004382 -0.003179 -0.003145 -0.003585
# 2 -0.002351 0.016185 0.000070 0.005039 0.000617 -0.002214
# 3 -0.004382 0.000070 0.012229 0.009398 -0.000776 0.003828
# 4 -0.003179 0.005039 0.009398 0.044598 0.003976 -0.005481
# 5 -0.003145 0.000617 -0.000776 0.003976 0.018828 0.001175
# 6 -0.003585 -0.002214 0.003828 -0.005481 0.001175 0.034116
#
#
# Mechanical properties :
#
#
# Convention : Reuss Voigt Hill
#
# Bulk Modulus (GPa) = 44.81603 77.78738 61.30171
# Shear Modulus (GPa) = 32.47903 44.99978 38.73941
#
# Velocity S-wave (km/s) = 3.70898 4.36574 4.05070
# Velocity P-wave (km/s) = 6.10933 7.63937 6.91679
#
# Compressibility (1/GPa) = 0.02231344
#
# Stress axis : x y z
#
# Youngs Moduli (GPa) = 138.39880 61.78413 81.77466
#
# Poissons Ratio (x) = 0.14526 0.35833
# Poissons Ratio (y) = 0.32539 -0.00572
# Poissons Ratio (z) = 0.60645 -0.00432
#
# Static dielectric constant tensor:
#      x y z
#    x 1.951130 0.092400 0.021460 
#    y 0.092400 2.118370 0.055780 
#    z 0.021460 0.055780 1.910580 
# 
# From -- ./inp_files/94648.got.cif
#   From: 2010.05.17/outbox.cif.g08.bks.cpg/sg2_48_cif.got.tgz:94648.got - 2010.06.03 11:33:40.
