data_PCOD9058775
_publ_section_title
;
Structure prediction by ZEFSAII (Michael W. Deem and Ramdas Pophale) SiO2 
 PCOD9058775
Probable space group: P -1
;
_chemical_formula_sum "Si O2"
_cell_formula_units_Z 14
_cell_length_a 7.259227
_cell_length_b 12.884194
_cell_length_c 8.555261
_cell_angle_alpha 62.234525
_cell_angle_beta 124.487569
_cell_angle_gamma 116.205919
_cell_volume 565.988615
_symmetry_space_group_name_H-M "P -1"
_symmetry_group_IT_number 2
_symmetry_cell_setting 'triclinic'
loop_
_space_group_symop_operation_xyz
x,y,z
-x,-y,-z
loop_
_atom_site_type_symbol
_atom_site_label
_atom_site_fract_x
_atom_site_fract_y
_atom_site_fract_z
Si Si1 0.280487 0.526227 0.791661
Si Si2 0.539009 0.903630 0.958572
Si Si3 0.224838 0.086167 0.252197
Si Si4 0.063716 0.164731 0.627268
Si Si5 0.971515 0.291003 0.897245
Si Si6 0.081477 0.702859 0.790556
Si Si7 0.642842 0.250407 0.527330
O O1 0.160441 0.605518 0.791380
O O2 0.358255 0.613947 0.620681
O O3 0.108467 0.396376 0.775295
O O4 0.500000 0.500000 0.000000
O O5 0.708076 0.829156 0.169207
O O6 0.663742 0.959267 0.817398
O O7 0.302269 0.814193 0.852185
O O8 0.500000 0.000000 0.000000
O O9 0.425900 0.159310 0.409119
O O10 0.057069 0.978102 0.339860
O O11 0.081974 0.177448 0.051117
O O12 0.097403 0.238154 0.430550
O O13 0.866291 0.214874 0.583441
O O14 0.709059 0.250475 0.740605
O O15 0.998068 0.347331 0.043164
#
# Coordination Sequence:
#
# PCOD9058775 Si02
#       7
#     2   2   2   2   2   2   2
#     4  11  22  49  73  97 137 180 233 290 341 400
#     4  12  25  42  67 103 142 180 229 282 337 408
#     4  12  24  45  70 103 141 182 231 282 339 418
#     4  11  25  44  69  97 142 185 223 276 348 404
#     4  12  25  44  74 100 138 183 232 280 348 404
#     4  11  27  46  66 107 143 177 229 292 332 412
#     4  11  24  43  74  99 132 184 230 279 344 410
#
# _framework density 24.735478000000001
#
# number of rings (size 3 to 8) (size 9 to 14) (size 15 to 20)
#    0.000    0.571    5.714    2.571    2.000    3.429 
#    0.000    0.714    0.000    0.000    0.000    0.000 
#    0.000    0.000    0.000    0.000    0.000    0.000 
#
# Total GULP energy -78433.765803 kJ/mol
# GULP energy per Si atom -5602.411843 kJ/mol
# Density = 2.467918 g / cm^3
# Si number density = 24.735478 Si / 1000 Ang^3
#
#
#
# Elastic Constant Matrix: (Units=GPa)
#
#
# Indices 1 2 3 4 5 6 
#
# 1 47.8659 9.7034 12.1543 -2.1040 -2.2771 -12.2156
# 2 9.7034 114.2007 40.8715 -11.3184 -2.8120 3.7009
# 3 12.1543 40.8715 181.8747 1.1222 15.0140 -3.9628
# 4 -2.1040 -11.3184 1.1222 41.7714 -0.5973 7.7900
# 5 -2.2771 -2.8120 15.0140 -0.5973 36.0853 1.8987
# 6 -12.2156 3.7009 -3.9628 7.7900 1.8987 30.3358
#
#
#
# Elastic Compliance Matrix: (Units=1/GPa)
#
#
# Indices 1 2 3 4 5 6 
#
# 1 0.024154 -0.002102 -0.001017 -0.001188 0.001233 0.010078
# 2 -0.002102 0.010301 -0.002428 0.003415 0.001917 -0.003417
# 3 -0.001017 -0.002428 0.006392 -0.001148 -0.002995 0.001204
# 4 -0.001188 0.003415 -0.001148 0.026332 0.001521 -0.007902
# 5 0.001233 0.001917 -0.002995 0.001521 0.029335 -0.002355
# 6 0.010078 -0.003417 0.001204 -0.007902 -0.002355 0.039773
#
#
# Mechanical properties :
#
#
# Convention : Reuss Voigt Hill
#
# Bulk Modulus (GPa) = 33.60972 52.15553 42.88262
# Shear Modulus (GPa) = 31.78660 40.38597 36.08628
#
# Velocity S-wave (km/s) = 3.58866 4.04507 3.82368
# Velocity P-wave (km/s) = 5.54874 6.55346 6.07192
#
# Compressibility (1/GPa) = 0.02975330
#
# Stress axis : x y z
#
# Youngs Moduli (GPa) = 41.40018 97.08235 156.43418
#
# Poissons Ratio (x) = 0.20411 0.15904
# Poissons Ratio (y) = 0.08704 0.37983
# Poissons Ratio (z) = 0.04209 0.23572
#
# Static dielectric constant tensor:
#      x y z
#    x 2.039350 -0.006400 -0.082470 
#    y -0.006400 1.953940 0.025520 
#    z -0.082470 0.025520 1.991950 
# 
# From -- ./inp_files/185505.got.cif
#   From: 2010.05.17/outbox.cif.g08.bks.cpg/sg2_93_cif.got.tgz:185505.got - 2010.06.03 11:33:40.
