data_PCOD9058177
_publ_section_title
;
Structure prediction by ZEFSAII (Michael W. Deem and Ramdas Pophale) SiO2 
 PCOD9058177
Probable space group: P -1
;
_chemical_formula_sum "Si O2"
_cell_formula_units_Z 14
_cell_length_a 9.787546
_cell_length_b 12.531038
_cell_length_c 10.084560
_cell_angle_alpha 38.317420
_cell_angle_beta 88.522019
_cell_angle_gamma 109.083661
_cell_volume 635.058985
_symmetry_space_group_name_H-M "P -1"
_symmetry_group_IT_number 2
_symmetry_cell_setting 'triclinic'
loop_
_space_group_symop_operation_xyz
x,y,z
-x,-y,-z
loop_
_atom_site_type_symbol
_atom_site_label
_atom_site_fract_x
_atom_site_fract_y
_atom_site_fract_z
Si Si1 0.685384 0.683980 0.320594
Si Si2 0.005347 0.752241 0.859217
Si Si3 0.232065 0.887809 0.981023
Si Si4 0.751385 0.271325 0.289381
Si Si5 0.527631 0.136745 0.173869
Si Si6 0.000580 0.812028 0.264172
Si Si7 0.780403 0.856895 0.868044
O O1 0.500000 0.500000 0.500000
O O2 0.806471 0.651798 0.437942
O O3 0.690233 0.882079 0.185625
O O4 0.749757 0.716410 0.135665
O O5 0.882858 0.826732 0.786433
O O6 0.121418 0.850160 0.890576
O O7 0.132779 0.805968 0.684868
O O8 0.879612 0.501852 0.114615
O O9 0.370909 0.851990 0.968007
O O10 0.100358 0.749499 0.232955
O O11 0.598720 0.106903 0.544750
O O12 0.659988 0.263956 0.162674
O O13 0.399943 0.202067 0.102916
O O14 0.101634 0.912904 0.296464
O O15 0.000000 0.000000 0.000000
#
# Coordination Sequence:
#
# PCOD9058177 Si02
#       7
#     2   2   2   2   2   2   2
#     4  10  19  32  55  91 104 135 182 219 260 340
#     4  10  17  37  60  73 100 158 175 225 263 326
#     4   9  17  33  58  72 114 145 169 210 282 318
#     4   9  22  36  54  78 109 140 197 212 274 315
#     4  10  21  36  52  85 108 143 177 236 259 312
#     4   8  15  32  50  81  99 141 168 211 260 343
#     4  10  19  34  59  78 112 140 180 218 275 308
#
# _framework density 22.045197000000002
#
# number of rings (size 3 to 8) (size 9 to 14) (size 15 to 20)
#    0.000    2.857    4.286    0.000    2.000    3.429 
#    0.000    4.286    0.000    5.143    0.000    0.000 
#    0.000    0.000    0.000    0.000    0.000    0.000 
#
# Total GULP energy -77991.550046 kJ/mol
# GULP energy per Si atom -5570.825003 kJ/mol
# Density = 2.199502 g / cm^3
# Si number density = 22.045197 Si / 1000 Ang^3
#
#
#
# Elastic Constant Matrix: (Units=GPa)
#
#
# Indices 1 2 3 4 5 6 
#
# 1 180.2637 43.5986 11.0926 -2.7593 -21.1285 -19.4853
# 2 43.5986 64.0628 21.9076 -7.5277 -5.5002 -9.5314
# 3 11.0926 21.9076 38.3321 -16.0801 -18.5487 2.1599
# 4 -2.7593 -7.5277 -16.0801 19.6639 6.5889 -9.0017
# 5 -21.1285 -5.5002 -18.5487 6.5889 31.9101 -3.7104
# 6 -19.4853 -9.5314 2.1599 -9.0017 -3.7104 37.6496
#
#
#
# Elastic Compliance Matrix: (Units=1/GPa)
#
#
# Indices 1 2 3 4 5 6 
#
# 1 0.007888 -0.005741 0.005366 0.002534 0.007253 0.003642
# 2 -0.005741 0.025179 -0.017895 -0.001229 -0.009234 0.003226
# 3 0.005366 -0.017895 0.067182 0.041607 0.031798 0.007474
# 4 0.002534 -0.001229 0.041607 0.091455 0.009254 0.021391
# 5 0.007253 -0.009234 0.031798 0.009254 0.051926 0.006922
# 6 0.003642 0.003226 0.007474 0.021391 0.006922 0.034630
#
#
# Mechanical properties :
#
#
# Convention : Reuss Voigt Hill
#
# Bulk Modulus (GPa) = 15.69645 48.42847 32.06246
# Shear Modulus (GPa) = 14.87932 31.58202 23.23067
#
# Velocity S-wave (km/s) = 2.60079 3.78908 3.24971
# Velocity P-wave (km/s) = 4.01925 6.41548 5.35316
#
# Compressibility (1/GPa) = 0.06370869
#
# Stress axis : x y z
#
# Youngs Moduli (GPa) = 126.76946 39.71558 14.88501
#
# Poissons Ratio (x) = 0.22801 -0.07987
# Poissons Ratio (y) = 0.72780 0.26636
# Poissons Ratio (z) = -0.68021 0.71070
#
# Static dielectric constant tensor:
#      x y z
#    x 1.867040 0.020620 -0.002330 
#    y 0.020620 1.792670 0.010890 
#    z -0.002330 0.010890 1.945230 
# 
# From -- ./inp_files/218789.got.cif
#   From: 2010.05.17/outbox.cif.g08.bks.cpg/sg2_110_cif.got.tgz:218789.got - 2010.06.03 11:33:40.
