data_PCOD9058133
_publ_section_title
;
Structure prediction by ZEFSAII (Michael W. Deem and Ramdas Pophale) SiO2 
 PCOD9058133
Probable space group: P -1
;
_chemical_formula_sum "Si O2"
_cell_formula_units_Z 14
_cell_length_a 12.913890
_cell_length_b 9.183027
_cell_length_c 15.179920
_cell_angle_alpha 120.800762
_cell_angle_beta 151.391112
_cell_angle_gamma 48.084128
_cell_volume 627.266906
_symmetry_space_group_name_H-M "P -1"
_symmetry_group_IT_number 2
_symmetry_cell_setting 'triclinic'
loop_
_space_group_symop_operation_xyz
x,y,z
-x,-y,-z
loop_
_atom_site_type_symbol
_atom_site_label
_atom_site_fract_x
_atom_site_fract_y
_atom_site_fract_z
Si Si1 0.968322 0.976222 0.574349
Si Si2 0.523319 0.055292 0.769381
Si Si3 0.702617 0.036448 0.709947
Si Si4 0.073885 0.578161 0.868875
Si Si5 0.931365 0.300323 0.919438
Si Si6 0.547485 0.303359 0.025367
Si Si7 0.785479 0.403175 0.653599
O O1 0.738682 0.938818 0.411944
O O2 0.217022 0.809328 0.764477
O O3 0.890249 0.190412 0.622204
O O4 0.000000 0.000000 0.500000
O O5 0.565244 0.133901 0.731625
O O6 0.566752 0.154391 0.917566
O O7 0.768118 0.831618 0.875881
O O8 0.801073 0.168019 0.780124
O O9 0.500000 0.000000 0.500000
O O10 0.959216 0.811854 0.835602
O O11 0.837577 0.547012 0.680209
O O12 0.285624 0.401193 0.913727
O O13 0.196366 0.551524 0.048755
O O14 0.919968 0.378265 0.839071
O O15 0.500000 0.500000 0.000000
O O16 0.500000 0.500000 0.500000
#
# Coordination Sequence:
#
# PCOD9058133 Si02
#       7
#     2   2   2   2   2   2   2
#     4  12  29  48  73 106 149 196 243 300 366 436
#     4  11  24  46  74  99 142 193 239 297 368 424
#     4  11  23  44  74 103 140 187 241 304 364 427
#     4  11  25  41  70 103 140 187 240 298 362 424
#     4  11  22  44  72 100 140 186 241 299 365 427
#     4  12  27  49  73 106 149 190 248 299 363 439
#     4  12  25  44  70 106 142 186 247 300 357 435
#
# _framework density 22.319047000000001
#
# number of rings (size 3 to 8) (size 9 to 14) (size 15 to 20)
#    0.000    0.571    1.429    8.143    6.000    1.714 
#    5.143    0.000    0.000    0.000    0.000    0.000 
#    0.000    0.000    0.000    0.000    0.000    0.000 
#
# Total GULP energy -78172.455255 kJ/mol
# GULP energy per Si atom -5583.746804 kJ/mol
# Density = 2.226825 g / cm^3
# Si number density = 22.319047 Si / 1000 Ang^3
#
#
#
# Elastic Constant Matrix: (Units=GPa)
#
#
# Indices 1 2 3 4 5 6 
#
# 1 104.8536 44.9833 42.4626 -1.1625 2.4978 -16.2755
# 2 44.9833 80.7203 17.8707 3.2371 3.7019 0.9323
# 3 42.4626 17.8707 109.9298 1.5709 10.8434 3.1023
# 4 -1.1625 3.2371 1.5709 24.5991 0.3007 3.9677
# 5 2.4978 3.7019 10.8434 0.3007 47.9561 10.0394
# 6 -16.2755 0.9323 3.1023 3.9677 10.0394 49.1888
#
#
#
# Elastic Compliance Matrix: (Units=1/GPa)
#
#
# Indices 1 2 3 4 5 6 
#
# 1 0.015799 -0.007801 -0.004983 0.001183 -0.000285 0.005652
# 2 -0.007801 0.016777 0.000433 -0.002169 -0.000415 -0.002667
# 3 -0.004983 0.000433 0.011202 -0.000675 -0.001900 -0.001921
# 4 0.001183 -0.002169 -0.000675 0.041513 0.000626 -0.003001
# 5 -0.000285 -0.000415 -0.001900 0.000626 0.022281 -0.004564
# 6 0.005652 -0.002667 -0.001921 -0.003001 -0.004564 0.023545
#
#
# Mechanical properties :
#
#
# Convention : Reuss Voigt Hill
#
# Bulk Modulus (GPa) = 52.41995 56.23744 54.32869
# Shear Modulus (GPa) = 30.83058 37.02793 33.92926
#
# Velocity S-wave (km/s) = 3.72069 4.07754 3.90319
# Velocity P-wave (km/s) = 6.48041 6.88623 6.68640
#
# Compressibility (1/GPa) = 0.01907671
#
# Stress axis : x y z
#
# Youngs Moduli (GPa) = 63.29551 59.60696 89.26700
#
# Poissons Ratio (x) = 0.46498 0.44480
# Poissons Ratio (y) = 0.49376 -0.03866
# Poissons Ratio (z) = 0.31539 -0.02582
#
# Static dielectric constant tensor:
#      x y z
#    x 1.914000 -0.033670 0.067700 
#    y -0.033670 1.876120 -0.092820 
#    z 0.067700 -0.092820 1.951660 
# 
# From -- ./inp_files/183775.got.cif
#   From: 2010.05.17/outbox.cif.g08.bks.cpg/sg2_92_cif.got.tgz:183775.got - 2010.06.03 11:33:40.
