data_PCOD9058109
_publ_section_title
;
Structure prediction by ZEFSAII (Michael W. Deem and Ramdas Pophale) SiO2 
 PCOD9058109
Probable space group: P -1
;
_chemical_formula_sum "Si O2"
_cell_formula_units_Z 14
_cell_length_a 16.909655
_cell_length_b 15.161632
_cell_length_c 9.620017
_cell_angle_alpha 36.588703
_cell_angle_beta 67.571877
_cell_angle_gamma 40.646098
_cell_volume 775.649685
_symmetry_space_group_name_H-M "P -1"
_symmetry_group_IT_number 2
_symmetry_cell_setting 'triclinic'
loop_
_space_group_symop_operation_xyz
x,y,z
-x,-y,-z
loop_
_atom_site_type_symbol
_atom_site_label
_atom_site_fract_x
_atom_site_fract_y
_atom_site_fract_z
Si Si1 0.292543 0.178122 0.955087
Si Si2 0.375387 0.799833 0.187342
Si Si3 0.499961 0.127998 0.535822
Si Si4 0.900177 0.973759 0.000976
Si Si5 0.773001 0.430328 0.669920
Si Si6 0.646602 0.966915 0.356937
Si Si7 0.029608 0.416789 0.421775
O O1 0.277306 0.350435 0.657435
O O2 0.122883 0.357150 0.847437
O O3 0.384100 0.924469 0.128957
O O4 0.374340 0.084141 0.164402
O O5 0.500000 0.500000 0.500000
O O6 0.214280 0.947235 0.123210
O O7 0.383367 0.861372 0.951513
O O8 0.365661 0.410385 0.339804
O O9 0.423961 0.083016 0.593355
O O10 0.575142 0.094590 0.393378
O O11 0.924712 0.821414 0.302499
O O12 0.071012 0.761063 0.109783
O O13 0.819931 0.234590 0.780157
O O14 0.827088 0.697868 0.581609
O O15 0.000000 0.500000 0.500000
#
# Coordination Sequence:
#
# PCOD9058109 Si02
#       7
#     2   2   2   2   2   2   2
#     4  11  21  34  61  84 110 150 198 234 272 328
#     4  11  21  36  58  86 110 146 194 239 275 339
#     4  11  22  35  56  86 119 150 182 240 287 337
#     4   9  19  32  56  88 106 148 189 235 279 319
#     4  10  19  34  57  86 114 145 196 233 269 343
#     4  10  22  38  56  83 117 153 185 229 301 333
#     4  10  17  37  59  82 111 149 192 232 275 343
#
# _framework density 18.049386999999999
#
# number of rings (size 3 to 8) (size 9 to 14) (size 15 to 20)
#    0.000    1.714    4.286    2.143    2.000    0.571 
#    0.000    6.429    0.000    2.571    0.000    0.000 
#    0.000    0.000    0.000    0.000    0.000    0.000 
#
# Total GULP energy -78039.546839 kJ/mol
# GULP energy per Si atom -5574.253346 kJ/mol
# Density = 1.800831 g / cm^3
# Si number density = 18.049387 Si / 1000 Ang^3
#
#
#
# Elastic Constant Matrix: (Units=GPa)
#
#
# Indices 1 2 3 4 5 6 
#
# 1 75.6193 35.8915 22.5863 -6.1977 9.5906 -8.0585
# 2 35.8915 104.5765 36.3502 -2.9311 10.4404 -12.7114
# 3 22.5863 36.3502 66.4351 -19.2950 -0.9130 4.5659
# 4 -6.1977 -2.9311 -19.2950 23.9257 3.2038 -2.8814
# 5 9.5906 10.4404 -0.9130 3.2038 36.5199 -13.4089
# 6 -8.0585 -12.7114 4.5659 -2.8814 -13.4089 27.8812
#
#
#
# Elastic Compliance Matrix: (Units=1/GPa)
#
#
# Indices 1 2 3 4 5 6 
#
# 1 0.016851 -0.004081 -0.003123 0.001993 -0.002603 0.002475
# 2 -0.004081 0.014589 -0.008579 -0.005380 -0.000632 0.006017
# 3 -0.003123 -0.008579 0.026812 0.018924 -0.000460 -0.007470
# 4 0.001993 -0.005380 0.018924 0.057324 -0.003878 -0.000916
# 5 -0.002603 -0.000632 -0.000460 -0.003878 0.034094 0.015031
# 6 0.002475 0.006017 -0.007470 -0.000916 0.015031 0.047682
#
#
# Mechanical properties :
#
#
# Convention : Reuss Voigt Hill
#
# Bulk Modulus (GPa) = 37.47497 48.47630 42.97563
# Shear Modulus (GPa) = 21.02479 27.78556 24.40517
#
# Velocity S-wave (km/s) = 3.41669 3.92780 3.68113
# Velocity P-wave (km/s) = 6.03097 6.89101 6.47528
#
# Compressibility (1/GPa) = 0.02668448
#
# Stress axis : x y z
#
# Youngs Moduli (GPa) = 59.34255 68.54485 37.29734
#
# Poissons Ratio (x) = 0.27976 0.11647
# Poissons Ratio (y) = 0.24220 0.31999
# Poissons Ratio (z) = 0.18532 0.58808
#
# Static dielectric constant tensor:
#      x y z
#    x 1.690410 -0.017320 0.007830 
#    y -0.017320 1.631810 -0.035380 
#    z 0.007830 -0.035380 1.609990 
# 
# From -- ./inp_files/266406.got.cif
#   From: 2010.05.17/outbox.cif.g08.bks.cpg/sg2_134_cif.got.tgz:266406.got - 2010.06.03 11:33:40.
