data_PCOD9058636
_publ_section_title
;
Structure prediction by ZEFSAII (Michael W. Deem and Ramdas Pophale) SiO2 
 PCOD9058636
Probable space group: P -1
;
_chemical_formula_sum "Si O2"
_cell_formula_units_Z 16
_cell_length_a 26.003192
_cell_length_b 12.281989
_cell_length_c 8.995074
_cell_angle_alpha 37.532544
_cell_angle_beta 30.917559
_cell_angle_gamma 26.566879
_cell_volume 656.010380
_symmetry_space_group_name_H-M "P -1"
_symmetry_group_IT_number 2
_symmetry_cell_setting 'triclinic'
loop_
_space_group_symop_operation_xyz
x,y,z
-x,-y,-z
loop_
_atom_site_type_symbol
_atom_site_label
_atom_site_fract_x
_atom_site_fract_y
_atom_site_fract_z
Si Si1 0.202343 0.092339 0.198188
Si Si2 0.914504 0.482365 0.340334
Si Si3 0.592182 0.519069 0.037765
Si Si4 0.595884 0.916137 0.146181
Si Si5 0.144437 0.798157 0.779186
Si Si6 0.686585 0.649298 0.929416
Si Si7 0.549857 0.274609 0.225414
Si Si8 0.137372 0.750113 0.501402
O O1 0.042677 0.266528 0.360717
O O2 0.223001 0.891395 0.466222
O O3 0.255457 0.201503 0.035704
O O4 0.300555 0.966199 0.946560
O O5 0.786633 0.659544 0.575967
O O6 0.847264 0.447602 0.414648
O O7 0.000000 0.500000 0.000000
O O8 0.636698 0.552441 0.047240
O O9 0.726201 0.322315 0.815636
O O10 0.497355 0.793790 0.909767
O O11 0.534621 0.387484 0.304198
O O12 0.539154 0.799420 0.479190
O O13 0.592362 0.885317 0.012322
O O14 0.126540 0.756927 0.697139
O O15 0.225588 0.561105 0.935266
O O16 0.000000 0.000000 0.000000
O O17 0.500000 0.500000 0.000000
O O18 0.000000 0.000000 0.500000
#
# Coordination Sequence:
#
# PCOD9058636 Si02
#       8
#     2   2   2   2   2   2   2   2
#     4  12  25  46  73 113 149 195 257 311 386 454
#     4  11  26  45  74 108 145 200 253 311 385 457
#     4  11  25  50  74 105 154 197 263 300 382 461
#     4  12  29  45  76 109 158 202 253 319 378 456
#     4  12  23  45  76 111 153 192 253 322 386 451
#     4  11  27  48  72 113 153 195 254 320 390 447
#     4  12  25  46  76 110 145 206 261 308 379 453
#     4  11  22  46  76 107 145 196 253 313 371 459
#
# _framework density 24.389858
#
# number of rings (size 3 to 8) (size 9 to 14) (size 15 to 20)
#    0.000    0.500    5.000    2.250    5.250    2.000 
#    2.250    0.000    0.000    0.000    0.000    0.000 
#    0.000    0.000    0.000    0.000    0.000    0.000 
#
# Total GULP energy -89237.521738 kJ/mol
# GULP energy per Si atom -5577.345109 kJ/mol
# Density = 2.433435 g / cm^3
# Si number density = 24.389858 Si / 1000 Ang^3
#
#
#
# Elastic Constant Matrix: (Units=GPa)
#
#
# Indices 1 2 3 4 5 6 
#
# 1 169.3399 28.2340 29.6198 -2.1121 3.2472 32.9032
# 2 28.2340 59.8054 13.7384 0.9725 6.4571 21.3530
# 3 29.6198 13.7384 129.0777 -0.7363 3.9440 27.1025
# 4 -2.1121 0.9725 -0.7363 39.6608 9.8031 3.7200
# 5 3.2472 6.4571 3.9440 9.8031 51.0418 -2.3285
# 6 32.9032 21.3530 27.1025 3.7200 -2.3285 40.9197
#
#
#
# Elastic Compliance Matrix: (Units=1/GPa)
#
#
# Indices 1 2 3 4 5 6 
#
# 1 0.007201 -0.001518 -0.000451 0.001026 -0.000648 -0.004829
# 2 -0.001518 0.021452 0.000386 0.001219 -0.003362 -0.010531
# 3 -0.000451 0.000386 0.009119 0.000997 -0.001192 -0.006037
# 4 0.001026 0.001219 0.000997 0.027135 -0.005732 -0.004914
# 5 -0.000648 -0.003362 -0.001192 -0.005732 0.021471 0.004808
# 6 -0.004829 -0.010531 -0.006037 -0.004914 0.004808 0.038536
#
#
# Mechanical properties :
#
#
# Convention : Reuss Voigt Hill
#
# Bulk Modulus (GPa) = 28.89690 55.71194 42.30442
# Shear Modulus (GPa) = 35.81256 45.43317 40.62287
#
# Velocity S-wave (km/s) = 3.83605 4.32069 4.08556
# Velocity P-wave (km/s) = 5.61195 6.91252 6.29591
#
# Compressibility (1/GPa) = 0.03460578
#
# Stress axis : x y z
#
# Youngs Moduli (GPa) = 138.87162 46.61513 109.65583
#
# Poissons Ratio (x) = 0.07078 0.04947
# Poissons Ratio (y) = 0.21085 -0.04234
# Poissons Ratio (z) = 0.06265 -0.01800
#
# Static dielectric constant tensor:
#      x y z
#    x 1.148990 0.045960 0.880160 
#    y 0.045960 2.078280 -0.117600 
#    z 0.880160 -0.117600 0.933620 
# 
# From -- ./inp_files/357031.got.cif
#   From: 2010.05.17/outbox.cif.g08.bks.cpg/sg2_179_cif.got.tgz:357031.got - 2010.06.03 11:33:40.
