data_PCOD9058615
_publ_section_title
;
Structure prediction by ZEFSAII (Michael W. Deem and Ramdas Pophale) SiO2 
 PCOD9058615
Probable space group: P -1
;
_chemical_formula_sum "Si O2"
_cell_formula_units_Z 16
_cell_length_a 9.102831
_cell_length_b 8.275505
_cell_length_c 10.643965
_cell_angle_alpha 85.664105
_cell_angle_beta 56.061942
_cell_angle_gamma 92.034021
_cell_volume 660.383189
_symmetry_space_group_name_H-M "P -1"
_symmetry_group_IT_number 2
_symmetry_cell_setting 'triclinic'
loop_
_space_group_symop_operation_xyz
x,y,z
-x,-y,-z
loop_
_atom_site_type_symbol
_atom_site_label
_atom_site_fract_x
_atom_site_fract_y
_atom_site_fract_z
Si Si1 0.853599 0.916632 0.484252
Si Si2 0.505170 0.733566 0.730721
Si Si3 0.389299 0.655249 0.059132
Si Si4 0.985035 0.620607 0.300680
Si Si5 0.577015 0.807802 0.188595
Si Si6 0.224692 0.910616 0.751282
Si Si7 0.366428 0.558670 0.456136
Si Si8 0.933311 0.677038 0.040035
O O1 0.668310 0.872330 0.646947
O O2 0.933946 0.749834 0.418085
O O3 0.813087 0.008503 0.368439
O O4 0.000000 0.000000 0.500000
O O5 0.372225 0.781160 0.682048
O O6 0.593195 0.568435 0.667015
O O7 0.392914 0.724501 0.912158
O O8 0.191174 0.595340 0.203422
O O9 0.477397 0.794276 0.103293
O O10 0.500000 0.500000 0.000000
O O11 0.837299 0.469167 0.400288
O O12 0.951120 0.703690 0.178342
O O13 0.431876 0.734095 0.362095
O O14 0.727548 0.681537 0.106637
O O15 0.688250 0.959958 0.194025
O O16 0.048297 0.812786 0.897138
O O17 0.500000 0.500000 0.500000
O O18 0.000000 0.500000 0.000000
#
# Coordination Sequence:
#
# PCOD9058615 Si02
#       8
#     2   2   2   2   2   2   2   2
#     4  11  27  49  72 109 150 195 247 312 381 445
#     4  11  25  48  70 107 153 194 249 306 362 461
#     4  12  26  48  73 111 151 196 258 310 377 438
#     4  11  25  47  75 107 150 193 255 307 370 455
#     4  12  25  43  75 106 149 197 245 311 374 438
#     4  12  26  47  76 109 147 193 255 302 377 450
#     4  11  22  46  74 105 149 196 249 305 368 448
#     4  12  24  46  76 110 144 196 251 312 373 448
#
# _framework density 24.228356000000002
#
# number of rings (size 3 to 8) (size 9 to 14) (size 15 to 20)
#    0.000    0.500    5.000    3.000    3.500    1.000 
#    0.000    0.000    0.000    0.000    0.000    0.000 
#    0.000    0.000    0.000    0.000    0.000    0.000 
#
# Total GULP energy -89582.381739 kJ/mol
# GULP energy per Si atom -5598.898859 kJ/mol
# Density = 2.417321 g / cm^3
# Si number density = 24.228356 Si / 1000 Ang^3
#
#
#
# Elastic Constant Matrix: (Units=GPa)
#
#
# Indices 1 2 3 4 5 6 
#
# 1 126.2226 28.2934 52.2224 -3.5563 -19.0907 14.8556
# 2 28.2934 78.7681 42.7530 -12.0191 -4.0606 10.5671
# 3 52.2224 42.7530 139.1247 -14.0841 -35.2758 11.4697
# 4 -3.5563 -12.0191 -14.0841 39.2071 3.8632 -5.8498
# 5 -19.0907 -4.0606 -35.2758 3.8632 52.6783 6.7221
# 6 14.8556 10.5671 11.4697 -5.8498 6.7221 40.4630
#
#
#
# Elastic Compliance Matrix: (Units=1/GPa)
#
#
# Indices 1 2 3 4 5 6 
#
# 1 0.010051 -0.001935 -0.002464 -0.001251 0.002325 -0.003054
# 2 -0.001935 0.016391 -0.004501 0.003270 -0.002512 -0.001404
# 3 -0.002464 -0.004501 0.011499 0.001571 0.006607 -0.002050
# 4 -0.001251 0.003270 0.001571 0.027628 -0.001612 0.003422
# 5 0.002325 -0.002512 0.006607 -0.001612 0.024999 -0.006456
# 6 -0.003054 -0.001404 -0.002050 0.003422 -0.006456 0.028350
#
#
# Mechanical properties :
#
#
# Convention : Reuss Voigt Hill
#
# Bulk Modulus (GPa) = 49.64519 65.62808 57.63664
# Shear Modulus (GPa) = 34.85975 41.19277 38.02626
#
# Velocity S-wave (km/s) = 3.79727 4.12781 3.96598
# Velocity P-wave (km/s) = 6.30561 7.06148 6.69422
#
# Compressibility (1/GPa) = 0.02014294
#
# Stress axis : x y z
#
# Youngs Moduli (GPa) = 99.48951 61.00785 86.96424
#
# Poissons Ratio (x) = 0.11802 0.21426
# Poissons Ratio (y) = 0.19246 0.39143
# Poissons Ratio (z) = 0.24512 0.27460
#
# Static dielectric constant tensor:
#      x y z
#    x 1.934080 0.029990 0.022070 
#    y 0.029990 2.057140 0.040180 
#    z 0.022070 0.040180 1.918500 
# 
# From -- ./inp_files/381891.got.cif
#   From: 2010.05.17/outbox.cif.g08.bks.cpg/sg2_191_cif.got.tgz:381891.got - 2010.06.03 11:33:40.
