data_PCOD9058368
_publ_section_title
;
Structure prediction by ZEFSAII (Michael W. Deem and Ramdas Pophale) SiO2 
 PCOD9058368
Probable space group: P -1
;
_chemical_formula_sum "Si O2"
_cell_formula_units_Z 16
_cell_length_a 11.855973
_cell_length_b 11.901316
_cell_length_c 6.308574
_cell_angle_alpha 52.507399
_cell_angle_beta 74.542081
_cell_angle_gamma 90.547772
_cell_volume 663.327783
_symmetry_space_group_name_H-M "P -1"
_symmetry_group_IT_number 2
_symmetry_cell_setting 'triclinic'
loop_
_space_group_symop_operation_xyz
x,y,z
-x,-y,-z
loop_
_atom_site_type_symbol
_atom_site_label
_atom_site_fract_x
_atom_site_fract_y
_atom_site_fract_z
Si Si1 0.165182 0.037804 0.316851
Si Si2 0.307093 0.616173 0.832360
Si Si3 0.041028 0.202736 0.466710
Si Si4 0.816085 0.598417 0.534912
Si Si5 0.855461 0.365904 0.487431
Si Si6 0.398798 0.072219 0.872294
Si Si7 0.256617 0.865746 0.837405
Si Si8 0.539476 0.589657 0.588680
O O1 0.134186 0.184002 0.257597
O O2 0.180581 0.937129 0.626891
O O3 0.287326 0.060728 0.100859
O O4 0.056783 0.948994 0.329888
O O5 0.259541 0.645838 0.591516
O O6 0.326654 0.762953 0.790843
O O7 0.421912 0.545248 0.848040
O O8 0.199775 0.503395 0.131455
O O9 0.113568 0.244642 0.600942
O O10 0.961719 0.323247 0.350270
O O11 0.879198 0.521099 0.413222
O O12 0.678054 0.586837 0.557450
O O13 0.822337 0.242040 0.827877
O O14 0.455877 0.240228 0.624404
O O15 0.345496 0.991691 0.776690
O O16 0.500000 0.000000 0.000000
O O17 0.500000 0.500000 0.500000
#
# Coordination Sequence:
#
# PCOD9058368 Si02
#       8
#     2   2   2   2   2   2   2   2
#     4  11  25  46  69 104 145 186 239 300 358 423
#     4  11  24  45  73  99 144 189 243 292 362 428
#     4  11  24  46  69 104 145 187 240 294 355 435
#     4  11  26  44  72 103 141 192 236 292 367 426
#     4  11  22  46  68 103 142 187 236 296 355 425
#     4  12  27  46  76 107 144 191 243 298 357 430
#     4  11  22  45  71 101 140 187 241 294 358 420
#     4  12  26  47  72 106 146 189 235 306 357 424
#
# _framework density 24.120806999999999
#
# number of rings (size 3 to 8) (size 9 to 14) (size 15 to 20)
#    0.000    0.750    3.750    3.000    3.500    4.000 
#    6.750    0.000    0.000    0.000    0.000    0.000 
#    0.000    0.000    0.000    0.000    0.000    0.000 
#
# Total GULP energy -89523.811247 kJ/mol
# GULP energy per Si atom -5595.238203 kJ/mol
# Density = 2.406591 g / cm^3
# Si number density = 24.120807 Si / 1000 Ang^3
#
#
#
# Elastic Constant Matrix: (Units=GPa)
#
#
# Indices 1 2 3 4 5 6 
#
# 1 138.8606 59.0962 -1.2394 31.5414 -6.2578 -0.7820
# 2 59.0962 200.9781 6.7791 36.7164 -9.4451 4.2383
# 3 -1.2394 6.7791 42.4722 9.7672 3.9742 4.2952
# 4 31.5414 36.7164 9.7672 25.7195 -1.9686 -11.2300
# 5 -6.2578 -9.4451 3.9742 -1.9686 19.0989 10.2706
# 6 -0.7820 4.2383 4.2952 -11.2300 10.2706 58.6408
#
#
#
# Elastic Compliance Matrix: (Units=1/GPa)
#
#
# Indices 1 2 3 4 5 6 
#
# 1 0.011186 -0.000194 0.004256 -0.016503 0.003050 -0.003843
# 2 -0.000194 0.007524 0.001663 -0.012470 0.004052 -0.003766
# 3 0.004256 0.001663 0.029194 -0.021433 -0.002954 -0.005789
# 4 -0.016503 -0.012470 -0.021433 0.093894 -0.009181 0.021840
# 5 0.003050 0.004052 -0.002954 -0.009181 0.061817 -0.012621
# 6 -0.003843 -0.003766 -0.005789 0.021840 -0.012621 0.024091
#
#
# Mechanical properties :
#
#
# Convention : Reuss Voigt Hill
#
# Bulk Modulus (GPa) = 16.84789 56.84253 36.84521
# Shear Modulus (GPa) = 21.18267 41.87018 31.52642
#
# Velocity S-wave (km/s) = 2.96664 4.17088 3.61920
# Velocity P-wave (km/s) = 4.32835 6.84192 5.72479
#
# Compressibility (1/GPa) = 0.05935460
#
# Stress axis : x y z
#
# Youngs Moduli (GPa) = 89.39690 132.90054 34.25312
#
# Poissons Ratio (x) = 0.02572 -0.14577
# Poissons Ratio (y) = 0.01730 -0.05695
# Poissons Ratio (z) = -0.38044 -0.22098
#
# Static dielectric constant tensor:
#      x y z
#    x 1.947830 -0.015810 -0.024910 
#    y -0.015810 1.902060 0.010420 
#    z -0.024910 0.010420 1.966260 
# 
# From -- ./inp_files/68461.got.cif
#   From: 2010.05.17/outbox.cif.g08.bks.cpg/sg2_35_cif.got.tgz:68461.got - 2010.06.03 11:33:40.
