data_PCOD9058682
_publ_section_title
;
Structure prediction by ZEFSAII (Michael W. Deem and Ramdas Pophale) SiO2 
 PCOD9058682
Probable space group: P -1
;
_chemical_formula_sum "Si O2"
_cell_formula_units_Z 16
_cell_length_a 14.811422
_cell_length_b 10.606530
_cell_length_c 14.668018
_cell_angle_alpha 139.338472
_cell_angle_beta 138.146984
_cell_angle_gamma 28.968095
_cell_volume 702.714035
_symmetry_space_group_name_H-M "P -1"
_symmetry_group_IT_number 2
_symmetry_cell_setting 'triclinic'
loop_
_space_group_symop_operation_xyz
x,y,z
-x,-y,-z
loop_
_atom_site_type_symbol
_atom_site_label
_atom_site_fract_x
_atom_site_fract_y
_atom_site_fract_z
Si Si1 0.739210 0.530308 0.431943
Si Si2 0.230423 0.625575 0.190769
Si Si3 0.682970 0.169954 0.251984
Si Si4 0.675301 0.016430 0.697202
Si Si5 0.271469 0.170369 0.060203
Si Si6 0.038242 0.228987 0.077616
Si Si7 0.839415 0.903254 0.555690
Si Si8 0.709633 0.832725 0.243243
O O1 0.755206 0.315772 0.382729
O O2 0.703224 0.756838 0.590692
O O3 0.933133 0.362652 0.428637
O O4 0.550084 0.705206 0.322208
O O5 0.449661 0.413376 0.204357
O O6 0.208963 0.435775 0.113459
O O7 0.199541 0.831424 0.350024
O O8 0.075563 0.802367 0.090211
O O9 0.731304 0.996706 0.282927
O O10 0.754882 0.974811 0.112101
O O11 0.755336 0.962665 0.625669
O O12 0.801854 0.002788 0.857645
O O13 0.154353 0.246149 0.104197
O O14 0.498918 0.960410 0.136725
O O15 0.875124 0.513983 0.165006
O O16 0.735281 0.875138 0.388811
#
# Coordination Sequence:
#
# PCOD9058682 Si02
#       8
#     2   2   2   2   2   2   2   2
#     4  11  25  44  69  94 137 180 224 282 332 387
#     4  11  23  45  69 104 142 174 222 282 341 404
#     4  11  22  47  69 103 143 169 224 290 334 405
#     4  11  27  47  67  96 138 183 234 279 322 405
#     4  11  24  42  72 102 142 173 219 287 340 403
#     4  12  24  43  74  99 131 190 226 266 346 406
#     4  12  26  45  70 101 139 180 225 282 336 400
#     4  11  25  41  72 105 135 178 221 277 350 400
#
# _framework density 22.768864000000001
#
# number of rings (size 3 to 8) (size 9 to 14) (size 15 to 20)
#    0.000    0.750    5.000    2.250    5.250    4.000 
#    0.000    1.250    0.000    0.000    0.000    0.000 
#    0.000    0.000    0.000    0.000    0.000    0.000 
#
# Total GULP energy -89590.365769 kJ/mol
# GULP energy per Si atom -5599.397861 kJ/mol
# Density = 2.271704 g / cm^3
# Si number density = 22.768864 Si / 1000 Ang^3
#
#
#
# Elastic Constant Matrix: (Units=GPa)
#
#
# Indices 1 2 3 4 5 6 
#
# 1 69.2192 -5.7881 15.8353 -9.3416 2.0342 -0.8986
# 2 -5.7881 77.5762 -2.2017 -12.2401 -2.7234 -21.0059
# 3 15.8353 -2.2017 42.7102 -0.2427 -13.8353 2.6860
# 4 -9.3416 -12.2401 -0.2427 44.6209 10.6448 3.9450
# 5 2.0342 -2.7234 -13.8353 10.6448 33.4917 6.6665
# 6 -0.8986 -21.0059 2.6860 3.9450 6.6665 21.6358
#
#
#
# Elastic Compliance Matrix: (Units=1/GPa)
#
#
# Indices 1 2 3 4 5 6 
#
# 1 0.018050 0.003578 -0.009484 0.006015 -0.007981 0.006763
# 2 0.003578 0.019137 -0.003453 0.005610 -0.005838 0.019933
# 3 -0.009484 -0.003453 0.033518 -0.006072 0.018563 -0.012520
# 4 0.006015 0.005610 -0.006072 0.027636 -0.012232 0.005181
# 5 -0.007981 -0.005838 0.018563 -0.012232 0.045419 -0.020069
# 6 0.006763 0.019933 -0.012520 0.005181 -0.020069 0.072647
#
#
# Mechanical properties :
#
#
# Convention : Reuss Voigt Hill
#
# Bulk Modulus (GPa) = 19.23584 22.79964 21.01774
# Shear Modulus (GPa) = 19.80549 32.06035 25.93292
#
# Velocity S-wave (km/s) = 2.95252 3.75651 3.37852
# Velocity P-wave (km/s) = 4.48217 5.37126 4.94673
#
# Compressibility (1/GPa) = 0.05198629
#
# Stress axis : x y z
#
# Youngs Moduli (GPa) = 55.40230 52.25423 29.83456
#
# Poissons Ratio (x) = -0.18695 0.28296
# Poissons Ratio (y) = -0.19821 0.10302
# Poissons Ratio (z) = 0.52545 0.18043
#
# Static dielectric constant tensor:
#      x y z
#    x 1.860240 0.034010 0.035890 
#    y 0.034010 1.859710 -0.010920 
#    z 0.035890 -0.010920 1.818520 
# 
# From -- ./inp_files/532067.got.cif
#   From: 2010.05.17/outbox.cif.g08.bks.cpg/sg2_267_cif.got.tgz:532067.got - 2010.06.03 11:33:40.
