data_PCOD9058695
_publ_section_title
;
Structure prediction by ZEFSAII (Michael W. Deem and Ramdas Pophale) SiO2 
 PCOD9058695
Probable space group: P -1
;
_chemical_formula_sum "Si O2"
_cell_formula_units_Z 14
_cell_length_a 12.447143
_cell_length_b 16.037333
_cell_length_c 8.363009
_cell_angle_alpha 115.477618
_cell_angle_beta 49.133801
_cell_angle_gamma 150.613224
_cell_volume 573.759164
_symmetry_space_group_name_H-M "P -1"
_symmetry_group_IT_number 2
_symmetry_cell_setting 'triclinic'
loop_
_space_group_symop_operation_xyz
x,y,z
-x,-y,-z
loop_
_atom_site_type_symbol
_atom_site_label
_atom_site_fract_x
_atom_site_fract_y
_atom_site_fract_z
Si Si1 0.852539 0.030170 0.396842
Si Si2 0.610793 0.656862 0.090759
Si Si3 0.038224 0.107831 0.764814
Si Si4 0.834638 0.159074 0.783962
Si Si5 0.086721 0.458658 0.982296
Si Si6 0.662011 0.186554 0.457981
Si Si7 0.571350 0.278193 0.852822
O O1 0.870123 0.139045 0.556035
O O2 0.103657 0.164848 0.138912
O O3 0.558377 0.868693 0.459561
O O4 0.872659 0.947023 0.410948
O O5 0.500000 0.500000 0.000000
O O6 0.404780 0.622626 0.209020
O O7 0.706008 0.710639 0.225516
O O8 0.939236 0.127646 0.752061
O O9 0.750452 0.935959 0.003976
O O10 0.042869 0.355116 0.806540
O O11 0.500000 0.000000 0.000000
O O12 0.898331 0.313379 0.195401
O O13 0.355571 0.643554 0.976138
O O14 0.000000 0.500000 0.000000
O O15 0.741819 0.286027 0.624883
O O16 0.500000 0.000000 0.500000
#
# Coordination Sequence:
#
# PCOD9058695 Si02
#       7
#     2   2   2   2   2   2   2
#     4  11  24  44  70 103 136 188 240 291 363 426
#     4  11  23  42  71 100 135 181 242 302 350 419
#     4  11  22  47  71 100 141 186 239 296 361 421
#     4  12  25  44  70 101 145 192 231 288 359 438
#     4  12  28  45  67 108 150 188 236 297 364 426
#     4  12  25  44  76 103 140 190 246 297 355 425
#     4  11  23  44  69 101 139 185 239 298 354 421
#
# _framework density 24.400482
#
# number of rings (size 3 to 8) (size 9 to 14) (size 15 to 20)
#    0.000    0.571    4.286    4.286    4.000    1.143 
#    0.000    3.571    0.000    0.000    0.000    0.000 
#    0.000    0.000    0.000    0.000    0.000    0.000 
#
# Total GULP energy -78143.813392 kJ/mol
# GULP energy per Si atom -5581.700957 kJ/mol
# Density = 2.434495 g / cm^3
# Si number density = 24.400482 Si / 1000 Ang^3
#
#
#
# Elastic Constant Matrix: (Units=GPa)
#
#
# Indices 1 2 3 4 5 6 
#
# 1 117.7079 32.0285 -2.4458 14.0235 -14.3098 3.3908
# 2 32.0285 127.9599 21.5026 45.5156 -1.9723 2.9986
# 3 -2.4458 21.5026 66.1528 32.1409 -7.9752 3.4933
# 4 14.0235 45.5156 32.1409 52.6469 -2.0769 -0.8713
# 5 -14.3098 -1.9723 -7.9752 -2.0769 27.0008 6.8334
# 6 3.3908 2.9986 3.4933 -0.8713 6.8334 49.1483
#
#
#
# Elastic Compliance Matrix: (Units=1/GPa)
#
#
# Indices 1 2 3 4 5 6 
#
# 1 0.010276 -0.001990 0.003252 -0.002775 0.006496 -0.001771
# 2 -0.001990 0.011845 0.001131 -0.010432 -0.000458 -0.000787
# 3 0.003252 0.001131 0.023939 -0.016181 0.008509 -0.003465
# 4 -0.002775 -0.010432 -0.016181 0.038493 -0.004897 0.003341
# 5 0.006496 -0.000458 0.008509 -0.004897 0.044426 -0.007289
# 6 -0.001771 -0.000787 -0.003465 0.003341 -0.007289 0.021836
#
#
# Mechanical properties :
#
#
# Convention : Reuss Voigt Hill
#
# Bulk Modulus (GPa) = 19.66705 45.99901 32.83303
# Shear Modulus (GPa) = 30.67890 43.14155 36.91023
#
# Velocity S-wave (km/s) = 3.54970 4.20939 3.89354
# Velocity P-wave (km/s) = 4.98779 6.52058 5.80500
#
# Compressibility (1/GPa) = 0.05084646
#
# Stress axis : x y z
#
# Youngs Moduli (GPa) = 97.31484 84.42351 41.77217
#
# Poissons Ratio (x) = 0.16798 -0.13583
# Poissons Ratio (y) = 0.19363 -0.04725
# Poissons Ratio (z) = -0.31643 -0.09549
#
# Static dielectric constant tensor:
#      x y z
#    x 2.065890 0.048390 0.117030 
#    y 0.048390 1.979600 0.076080 
#    z 0.117030 0.076080 2.144460 
# 
# From -- ./inp_files/174122.got.cif
#   From: 2010.05.17/outbox.cif.g08.bks.cpg/sg2_88_cif.got.tgz:174122.got - 2010.06.03 11:33:40.
