data_PCOD9058173
_publ_section_title
;
Structure prediction by ZEFSAII (Michael W. Deem and Ramdas Pophale) SiO2 
 PCOD9058173
Probable space group: P -1
;
_chemical_formula_sum "Si O2"
_cell_formula_units_Z 16
_cell_length_a 13.848840
_cell_length_b 21.707238
_cell_length_c 16.023031
_cell_angle_alpha 24.649834
_cell_angle_beta 33.261283
_cell_angle_gamma 19.846114
_cell_volume 676.050710
_symmetry_space_group_name_H-M "P -1"
_symmetry_group_IT_number 2
_symmetry_cell_setting 'triclinic'
loop_
_space_group_symop_operation_xyz
x,y,z
-x,-y,-z
loop_
_atom_site_type_symbol
_atom_site_label
_atom_site_fract_x
_atom_site_fract_y
_atom_site_fract_z
Si Si1 0.572124 0.096771 0.464657
Si Si2 0.765835 0.267419 0.802200
Si Si3 0.081116 0.588206 0.140525
Si Si4 0.976251 0.362377 0.397535
Si Si5 0.659959 0.224518 0.486121
Si Si6 0.492898 0.285483 0.832690
Si Si7 0.372604 0.128687 0.737377
Si Si8 0.065998 0.983265 0.293058
O O1 0.403803 0.325378 0.248677
O O2 0.359963 0.169311 0.598026
O O3 0.817297 0.027528 0.420579
O O4 0.721469 0.875215 0.572453
O O5 0.559015 0.503133 0.720920
O O6 0.537994 0.325576 0.840429
O O7 0.924508 0.280995 0.610342
O O8 0.000000 0.000000 0.000000
O O9 0.958459 0.539814 0.229300
O O10 0.916017 0.696320 0.215924
O O11 0.043310 0.779217 0.900276
O O12 0.750817 0.490624 0.326906
O O13 0.534735 0.154754 0.631906
O O14 0.672716 0.222488 0.579998
O O15 0.000000 0.000000 0.500000
O O16 0.796846 0.107450 0.785823
O O17 0.450931 0.138717 0.051118
#
# Coordination Sequence:
#
# PCOD9058173 Si02
#       8
#     2   2   2   2   2   2   2   2
#     4  12  25  42  67 104 151 185 233 300 362 422
#     4  12  27  45  73 108 148 189 238 300 370 426
#     4  11  25  44  70 102 142 188 241 290 362 429
#     4  12  24  47  74  99 143 192 240 295 358 432
#     4  12  24  45  72 105 143 187 244 298 353 430
#     4  11  24  47  76 101 138 189 246 286 361 436
#     4  11  25  44  72 102 143 188 241 296 363 417
#     4  11  22  44  73 101 133 192 241 289 350 436
#
# _framework density 23.666862999999999
#
# number of rings (size 3 to 8) (size 9 to 14) (size 15 to 20)
#    0.000    0.500    5.000    3.000    1.750    5.500 
#    2.250    0.000    0.000    0.000    0.000    0.000 
#    0.000    0.000    0.000    0.000    0.000    0.000 
#
# Total GULP energy -89488.829458 kJ/mol
# GULP energy per Si atom -5593.051841 kJ/mol
# Density = 2.361300 g / cm^3
# Si number density = 23.666863 Si / 1000 Ang^3
#
#
#
# Elastic Constant Matrix: (Units=GPa)
#
#
# Indices 1 2 3 4 5 6 
#
# 1 68.3049 13.1280 31.3210 -8.9917 -11.9776 1.0879
# 2 13.1280 63.3596 24.5359 -16.1538 -2.8753 17.6811
# 3 31.3210 24.5359 134.2098 -34.1620 -8.0124 12.1054
# 4 -8.9917 -16.1538 -34.1620 25.3207 1.3401 4.5681
# 5 -11.9776 -2.8753 -8.0124 1.3401 41.4049 -11.1348
# 6 1.0879 17.6811 12.1054 4.5681 -11.1348 19.4980
#
#
#
# Elastic Compliance Matrix: (Units=1/GPa)
#
#
# Indices 1 2 3 4 5 6 
#
# 1 0.019848 -0.011109 -0.008144 -0.015823 0.010248 0.023582
# 2 -0.011109 0.051726 0.016935 0.068383 -0.021433 -0.085061
# 3 -0.008144 0.016935 0.021088 0.044957 -0.010533 -0.044543
# 4 -0.015823 0.068383 0.044957 0.166989 -0.036624 -0.149078
# 5 0.010248 -0.021433 -0.010533 -0.036624 0.040067 0.056865
# 6 0.023582 -0.085061 -0.044543 -0.149078 0.056865 0.222163
#
#
# Mechanical properties :
#
#
# Convention : Reuss Voigt Hill
#
# Bulk Modulus (GPa) = 11.36020 44.87157 28.11589
# Shear Modulus (GPa) = 8.99511 30.37068 19.68289
#
# Velocity S-wave (km/s) = 1.95166 3.58614 2.88699
# Velocity P-wave (km/s) = 3.14469 6.01233 4.79777
#
# Compressibility (1/GPa) = 0.08802660
#
# Stress axis : x y z
#
# Youngs Moduli (GPa) = 50.38221 19.33278 47.42077
#
# Poissons Ratio (x) = 0.21476 0.38620
# Poissons Ratio (y) = 0.55968 -0.80309
# Poissons Ratio (z) = 0.41032 -0.32741
#
# Static dielectric constant tensor:
#      x y z
#    x 1.925360 0.070290 0.006870 
#    y 0.070290 1.934490 0.016610 
#    z 0.006870 0.016610 1.907250 
# 
# From -- ./inp_files/574401.got.cif
#   From: 2010.05.17/outbox.cif.g08.bks.cpg/sg2_288_cif.got.tgz:574401.got - 2010.06.03 11:33:40.
