data_PCOD9058770
_publ_section_title
;
Structure prediction by ZEFSAII (Michael W. Deem and Ramdas Pophale) SiO2 
 PCOD9058770
Probable space group: P -1
;
_chemical_formula_sum "Si O2"
_cell_formula_units_Z 15
_cell_length_a 16.989979
_cell_length_b 7.392960
_cell_length_c 13.231246
_cell_angle_alpha 132.876317
_cell_angle_beta 153.591594
_cell_angle_gamma 51.918492
_cell_volume 541.542960
_symmetry_space_group_name_H-M "P -1"
_symmetry_group_IT_number 2
_symmetry_cell_setting 'triclinic'
loop_
_space_group_symop_operation_xyz
x,y,z
-x,-y,-z
loop_
_atom_site_type_symbol
_atom_site_label
_atom_site_fract_x
_atom_site_fract_y
_atom_site_fract_z
Si Si1 0.645908 0.254704 0.530968
Si Si2 0.061535 0.925800 0.357371
Si Si3 0.477411 0.496408 0.115657
Si Si4 0.735163 0.275531 0.876033
Si Si5 0.000000 0.000000 0.500000
Si Si6 0.114778 0.435379 0.343920
Si Si7 0.764369 0.769237 0.804491
Si Si8 0.620885 0.097633 0.999316
O O1 0.783963 0.121799 0.561765
O O2 0.713342 0.247575 0.720415
O O3 0.353986 0.459504 0.391165
O O4 0.470483 0.112644 0.250259
O O5 0.072817 0.731209 0.395070
O O6 0.061779 0.155182 0.518239
O O7 0.893139 0.845405 0.070685
O O8 0.387442 0.524828 0.131801
O O9 0.684202 0.589782 0.394380
O O10 0.498752 0.221595 0.993417
O O11 0.369016 0.670967 0.979322
O O12 0.676843 0.018156 0.758698
O O13 0.945270 0.314829 0.153818
O O14 0.796791 0.998076 0.215223
O O15 0.121117 0.333255 0.198132
#
# Coordination Sequence:
#
# PCOD9058770 Si02
#       8
#     2   2   2   2   1   2   2   2
#     4  11  25  50  82 121 165 216 279 343 417 490
#     4  11  23  46  74 120 162 207 283 337 394 512
#     4  11  27  52  80 126 167 211 289 346 411 516
#     4  12  25  48  90 119 166 228 263 348 435 489
#     4  12  26  50  82 110 166 232 276 344 420 492
#     4  11  22  48  79 114 167 216 263 346 420 483
#     4  11  23  46  80 123 166 206 281 337 405 508
#     4  11  27  54  80 117 171 217 278 356 410 497
#
# _framework density 27.698633000000001
#
# number of rings (size 3 to 8) (size 9 to 14) (size 15 to 20)
#    0.000    0.800    4.000    2.800    1.867    4.800 
#    4.800    6.667    0.000    0.000    0.000    0.000 
#    0.000    0.000    0.000    0.000    0.000    0.000 
#
# Total GULP energy -83970.628615 kJ/mol
# GULP energy per Si atom -5598.041908 kJ/mol
# Density = 2.763559 g / cm^3
# Si number density = 27.698633 Si / 1000 Ang^3
#
#
#
# Elastic Constant Matrix: (Units=GPa)
#
#
# Indices 1 2 3 4 5 6 
#
# 1 170.5456 39.8697 51.8997 14.3564 -19.5906 -41.7428
# 2 39.8697 89.9400 34.7829 7.2954 -1.9235 -11.1777
# 3 51.8997 34.7829 181.1510 -2.3933 -4.1844 -12.7550
# 4 14.3564 7.2954 -2.3933 37.8079 -10.1761 -4.9485
# 5 -19.5906 -1.9235 -4.1844 -10.1761 58.3712 9.3041
# 6 -41.7428 -11.1777 -12.7550 -4.9485 9.3041 60.3151
#
#
#
# Elastic Compliance Matrix: (Units=1/GPa)
#
#
# Indices 1 2 3 4 5 6 
#
# 1 0.008361 -0.002329 -0.001610 -0.001801 0.001563 0.004626
# 2 -0.002329 0.013057 -0.001858 -0.001940 -0.000885 0.000392
# 3 -0.001610 -0.001858 0.006358 0.001397 0.000100 -0.000015
# 4 -0.001801 -0.001940 0.001397 0.028829 0.004398 0.000376
# 5 0.001563 -0.000885 0.000100 0.004398 0.018652 -0.001578
# 6 0.004626 0.000392 -0.000015 0.000376 -0.001578 0.020125
#
#
# Mechanical properties :
#
#
# Convention : Reuss Voigt Hill
#
# Bulk Modulus (GPa) = 61.80179 77.19347 69.49763
# Shear Modulus (GPa) = 44.49510 52.30447 48.39978
#
# Velocity S-wave (km/s) = 4.01234 4.35022 4.18469
# Velocity P-wave (km/s) = 6.62011 7.29123 6.96376
#
# Compressibility (1/GPa) = 0.01618076
#
# Stress axis : x y z
#
# Youngs Moduli (GPa) = 119.59607 76.58814 157.27956
#
# Poissons Ratio (x) = 0.17840 0.25327
# Poissons Ratio (y) = 0.27859 0.29225
# Poissons Ratio (z) = 0.19258 0.14231
#
# Static dielectric constant tensor:
#      x y z
#    x 2.351700 -0.112210 0.061320 
#    y -0.112210 2.291250 0.011420 
#    z 0.061320 0.011420 2.140160 
# 
# From -- ./inp_files/446381.got.cif
#   From: 2010.05.17/outbox.cif.g08.bks.cpg/sg2_224_cif.got.tgz:446381.got - 2010.06.03 11:33:40.
