data_PCOD9058122
_publ_section_title
;
Structure prediction by ZEFSAII (Michael W. Deem and Ramdas Pophale) SiO2 
 PCOD9058122
Probable space group: P -1
;
_chemical_formula_sum "Si O2"
_cell_formula_units_Z 16
_cell_length_a 11.489252
_cell_length_b 20.837982
_cell_length_c 16.881535
_cell_angle_alpha 149.805581
_cell_angle_beta 21.650147
_cell_angle_gamma 149.555243
_cell_volume 711.329499
_symmetry_space_group_name_H-M "P -1"
_symmetry_group_IT_number 2
_symmetry_cell_setting 'triclinic'
loop_
_space_group_symop_operation_xyz
x,y,z
-x,-y,-z
loop_
_atom_site_type_symbol
_atom_site_label
_atom_site_fract_x
_atom_site_fract_y
_atom_site_fract_z
Si Si1 0.164710 0.936480 0.398313
Si Si2 0.158296 0.850091 0.775609
Si Si3 0.543131 0.367918 0.619047
Si Si4 0.449325 0.639983 0.204545
Si Si5 0.667616 0.889656 0.800937
Si Si6 0.232120 0.710559 0.008047
Si Si7 0.215635 0.363470 0.340388
Si Si8 0.207236 0.065123 0.765406
O O1 0.884687 0.868195 0.567191
O O2 0.474090 0.046137 0.361951
O O3 0.306485 0.833845 0.153782
O O4 0.000000 0.000000 0.500000
O O5 0.263525 0.736720 0.639456
O O6 0.948036 0.773242 0.751926
O O7 0.933571 0.917267 0.040213
O O8 0.526470 0.354806 0.710185
O O9 0.731235 0.515156 0.625255
O O10 0.164370 0.336993 0.797334
O O11 0.680945 0.782319 0.176865
O O12 0.072206 0.631634 0.411875
O O13 0.500000 0.500000 0.000000
O O14 0.391938 0.762456 0.877010
O O15 0.912897 0.962318 0.793179
O O16 0.500000 0.000000 0.000000
O O17 0.438865 0.621219 0.818822
O O18 0.500000 0.000000 0.500000
#
# Coordination Sequence:
#
# PCOD9058122 Si02
#       8
#     2   2   2   2   2   2   2   2
#     4  12  23  42  69 102 133 183 221 277 345 418
#     4  11  22  44  71  97 134 185 227 271 350 415
#     4  11  23  46  70  93 132 187 235 274 338 424
#     4  11  23  45  70  97 133 184 238 279 339 423
#     4  12  23  42  65  99 136 176 228 271 343 420
#     4  12  25  44  68 101 142 174 226 289 351 400
#     4  11  25  44  68  97 133 179 232 290 339 403
#     4  12  25  40  66 106 143 172 224 301 346 394
#
# _framework density 22.493092000000001
#
# number of rings (size 3 to 8) (size 9 to 14) (size 15 to 20)
#    0.000    0.500    3.750    6.375    1.750    0.500 
#    4.500    0.625    0.000    0.000    0.000    0.000 
#    0.000    0.000    0.000    0.000    0.000    0.000 
#
# Total GULP energy -89477.841322 kJ/mol
# GULP energy per Si atom -5592.365083 kJ/mol
# Density = 2.244190 g / cm^3
# Si number density = 22.493092 Si / 1000 Ang^3
#
#
#
# Elastic Constant Matrix: (Units=GPa)
#
#
# Indices 1 2 3 4 5 6 
#
# 1 54.5436 2.7374 32.9644 -5.2804 -9.0171 0.1918
# 2 2.7374 81.4403 13.7792 -12.9511 5.9701 -6.1164
# 3 32.9644 13.7792 140.1232 -0.4477 -5.2695 3.1968
# 4 -5.2804 -12.9511 -0.4477 34.5035 -1.3102 -3.7917
# 5 -9.0171 5.9701 -5.2695 -1.3102 51.7977 -12.1711
# 6 0.1918 -6.1164 3.1968 -3.7917 -12.1711 37.3779
#
#
#
# Elastic Compliance Matrix: (Units=1/GPa)
#
#
# Indices 1 2 3 4 5 6 
#
# 1 0.022496 0.000639 -0.005244 0.003995 0.003907 0.002115
# 2 0.000639 0.013652 -0.001568 0.005459 -0.000864 0.002637
# 3 -0.005244 -0.001568 0.008540 -0.001414 -0.000172 -0.001159
# 4 0.003995 0.005459 -0.001414 0.032232 0.001884 0.004877
# 5 0.003907 -0.000864 -0.000172 0.001884 0.021794 0.007141
# 6 0.002115 0.002637 -0.001159 0.004877 0.007141 0.030094
#
#
# Mechanical properties :
#
#
# Convention : Reuss Voigt Hill
#
# Bulk Modulus (GPa) = 30.91890 41.67435 36.29663
# Shear Modulus (GPa) = 32.90890 39.84424 36.37657
#
# Velocity S-wave (km/s) = 3.82916 4.21336 4.02585
# Velocity P-wave (km/s) = 5.77284 6.49906 6.14668
#
# Compressibility (1/GPa) = 0.03234268
#
# Stress axis : x y z
#
# Youngs Moduli (GPa) = 44.45176 73.24785 117.09802
#
# Poissons Ratio (x) = -0.04680 0.61403
# Poissons Ratio (y) = -0.02840 0.18361
# Poissons Ratio (z) = 0.23309 0.11486
#
# Static dielectric constant tensor:
#      x y z
#    x 1.856540 -0.038300 -0.028490 
#    y -0.038300 1.883190 -0.002880 
#    z -0.028490 -0.002880 1.885480 
# 
# From -- ./inp_files/570745.got.cif
#   From: 2010.05.17/outbox.cif.g08.bks.cpg/sg2_286_cif.got.tgz:570745.got - 2010.06.03 11:33:40.
