data_PCOD9058102
_publ_section_title
;
Structure prediction by ZEFSAII (Michael W. Deem and Ramdas Pophale) SiO2 
 PCOD9058102
Probable space group: P -1
;
_chemical_formula_sum "Si O2"
_cell_formula_units_Z 16
_cell_length_a 12.234411
_cell_length_b 7.938243
_cell_length_c 11.857421
_cell_angle_alpha 55.976325
_cell_angle_beta 126.266271
_cell_angle_gamma 128.259711
_cell_volume 694.277636
_symmetry_space_group_name_H-M "P -1"
_symmetry_group_IT_number 2
_symmetry_cell_setting 'triclinic'
loop_
_space_group_symop_operation_xyz
x,y,z
-x,-y,-z
loop_
_atom_site_type_symbol
_atom_site_label
_atom_site_fract_x
_atom_site_fract_y
_atom_site_fract_z
Si Si1 0.700295 0.703934 0.332559
Si Si2 0.550325 0.548524 0.885250
Si Si3 0.129266 0.476618 0.658851
Si Si4 0.192594 0.476857 0.076205
Si Si5 0.753985 0.498092 0.648010
Si Si6 0.113916 0.760953 0.749732
Si Si7 0.951964 0.000444 0.841409
Si Si8 0.364881 0.992661 0.342306
O O1 0.554257 0.650103 0.188264
O O2 0.760882 0.544376 0.360974
O O3 0.672291 0.612791 0.477536
O O4 0.812655 0.968049 0.304605
O O5 0.714566 0.575292 0.945557
O O6 0.556521 0.789654 0.769319
O O7 0.500000 0.500000 0.000000
O O8 0.171613 0.666609 0.711085
O O9 0.000000 0.500000 0.500000
O O10 0.066737 0.232196 0.770952
O O11 0.275522 0.526288 0.227749
O O12 0.053901 0.237516 0.109763
O O13 0.155300 0.662814 0.924485
O O14 0.704843 0.245940 0.671208
O O15 0.932074 0.645931 0.675484
O O16 0.786533 0.987829 0.714140
O O17 0.000000 0.000000 0.000000
O O18 0.500000 0.000000 0.500000
#
# Coordination Sequence:
#
# PCOD9058102 Si02
#       8
#     2   2   2   2   2   2   2   2
#     4  12  27  46  72 108 148 188 237 300 359 432
#     4  11  27  50  71 101 143 192 242 293 365 444
#     4  12  24  43  72 105 144 190 237 298 371 421
#     4  11  26  45  70 104 137 193 236 296 365 420
#     4  12  24  47  69 106 142 181 245 294 359 425
#     4  12  25  46  73 109 146 187 237 304 360 425
#     4  11  22  44  71 102 141 183 246 296 351 430
#     4  11  23  46  72 100 142 191 239 294 354 433
#
# _framework density 23.045536999999999
#
# number of rings (size 3 to 8) (size 9 to 14) (size 15 to 20)
#    0.000    0.500    5.000    2.250    5.250    1.000 
#    2.250    0.000    0.000    0.000    0.000    0.000 
#    0.000    0.000    0.000    0.000    0.000    0.000 
#
# Total GULP energy -89330.880724 kJ/mol
# GULP energy per Si atom -5583.180045 kJ/mol
# Density = 2.299308 g / cm^3
# Si number density = 23.045537 Si / 1000 Ang^3
#
#
#
# Elastic Constant Matrix: (Units=GPa)
#
#
# Indices 1 2 3 4 5 6 
#
# 1 80.8647 29.5311 33.4336 4.8772 -8.1867 -13.7550
# 2 29.5311 140.2703 31.7771 -6.3038 -18.8064 0.4983
# 3 33.4336 31.7771 152.7105 -2.3690 -21.5230 -4.9164
# 4 4.8772 -6.3038 -2.3690 37.9260 -1.0838 3.2442
# 5 -8.1867 -18.8064 -21.5230 -1.0838 28.1712 5.7866
# 6 -13.7550 0.4983 -4.9164 3.2442 5.7866 27.5580
#
#
#
# Elastic Compliance Matrix: (Units=1/GPa)
#
#
# Indices 1 2 3 4 5 6 
#
# 1 0.016190 -0.003138 -0.002881 -0.003538 -0.001441 0.008343
# 2 -0.003138 0.008714 -0.000446 0.002248 0.005305 -0.003182
# 3 -0.002881 -0.000446 0.007990 0.001051 0.005263 -0.001233
# 4 -0.003538 0.002248 0.001051 0.027843 0.003504 -0.005633
# 5 -0.001441 0.005305 0.005263 0.003504 0.044766 -0.009688
# 6 0.008343 -0.003182 -0.001233 -0.005633 -0.009688 0.042986
#
#
# Mechanical properties :
#
#
# Convention : Reuss Voigt Hill
#
# Bulk Modulus (GPa) = 50.08818 62.59213 56.34015
# Shear Modulus (GPa) = 29.74868 37.33797 33.54333
#
# Velocity S-wave (km/s) = 3.59676 4.02952 3.81927
# Velocity P-wave (km/s) = 6.24744 6.99060 6.62944
#
# Compressibility (1/GPa) = 0.01996479
#
# Stress axis : x y z
#
# Youngs Moduli (GPa) = 61.76680 114.75404 125.15072
#
# Poissons Ratio (x) = 0.36005 0.36056
# Poissons Ratio (y) = 0.19380 0.05586
# Poissons Ratio (z) = 0.17795 0.05122
#
# Static dielectric constant tensor:
#      x y z
#    x 1.938610 0.009850 0.027550 
#    y 0.009850 1.912860 0.099920 
#    z 0.027550 0.099920 1.939830 
# 
# From -- ./inp_files/446822.got.cif
#   From: 2010.05.17/outbox.cif.g08.bks.cpg/sg2_224_cif.got.tgz:446822.got - 2010.06.03 11:33:40.
