data_PCOD9058777
_publ_section_title
;
Structure prediction by ZEFSAII (Michael W. Deem and Ramdas Pophale) SiO2 
 PCOD9058777
Probable space group: P -1
;
_chemical_formula_sum "Si O2"
_cell_formula_units_Z 15
_cell_length_a 13.405490
_cell_length_b 9.527196
_cell_length_c 8.622274
_cell_angle_alpha 124.647973
_cell_angle_beta 105.717385
_cell_angle_gamma 40.845860
_cell_volume 565.970392
_symmetry_space_group_name_H-M "P -1"
_symmetry_group_IT_number 2
_symmetry_cell_setting 'triclinic'
loop_
_space_group_symop_operation_xyz
x,y,z
-x,-y,-z
loop_
_atom_site_type_symbol
_atom_site_label
_atom_site_fract_x
_atom_site_fract_y
_atom_site_fract_z
Si Si1 0.243967 0.781474 0.373499
Si Si2 0.576852 0.994342 0.180569
Si Si3 0.119342 0.557751 0.129452
Si Si4 0.506136 0.341736 0.778482
Si Si5 0.500000 0.000000 0.500000
Si Si6 0.830572 0.273343 0.167289
Si Si7 0.035460 0.617600 0.478600
Si Si8 0.236406 0.926704 0.778371
O O1 0.181604 0.676219 0.225323
O O2 0.413778 0.647807 0.317864
O O3 0.120957 0.077471 0.445115
O O4 0.232300 0.789431 0.557478
O O5 0.495903 0.084253 0.369558
O O6 0.619164 0.130718 0.229769
O O7 0.755265 0.695229 0.082914
O O8 0.500000 0.000000 0.000000
O O9 0.118817 0.488790 0.263573
O O10 0.940898 0.771376 0.121351
O O11 0.336498 0.449295 0.798212
O O12 0.605009 0.040423 0.629321
O O13 0.500000 0.500000 0.000000
O O14 0.870200 0.366293 0.366326
O O15 0.756057 0.185606 0.132224
O O16 0.000000 0.000000 0.000000
O O17 0.000000 0.500000 0.500000
#
# Coordination Sequence:
#
# PCOD9058777 Si02
#       8
#     2   2   2   2   1   2   2   2
#     4  11  22  49  75 107 149 208 260 321 416 484
#     4  12  30  49  81 118 161 210 276 341 414 494
#     4  11  24  48  79 108 156 214 264 331 417 490
#     4  12  29  48  80 112 162 216 263 342 418 485
#     4  12  30  54  76 120 172 206 276 344 422 488
#     4  12  28  47  76 113 156 208 275 339 408 496
#     4  11  25  44  75 116 157 202 270 339 399 493
#     4  11  24  49  74 109 155 207 266 329 407 492
#
# _framework density 26.503152
#
# number of rings (size 3 to 8) (size 9 to 14) (size 15 to 20)
#    0.000    0.533    4.000    2.800   11.200    0.533 
#    0.000    0.000    0.000    0.000    0.000    0.000 
#    0.000    0.000    0.000    0.000    0.000    0.000 
#
# Total GULP energy -83537.046374 kJ/mol
# GULP energy per Si atom -5569.136425 kJ/mol
# Density = 2.644283 g / cm^3
# Si number density = 26.503152 Si / 1000 Ang^3
#
#
#
# Elastic Constant Matrix: (Units=GPa)
#
#
# Indices 1 2 3 4 5 6 
#
# 1 208.6706 45.3647 41.5350 -7.0486 -2.1979 26.5150
# 2 45.3647 51.2808 6.0531 -9.3897 -21.3263 3.6340
# 3 41.5350 6.0531 83.3192 -2.9922 -2.3656 -3.6214
# 4 -7.0486 -9.3897 -2.9922 30.0073 -6.5965 -0.0126
# 5 -2.1979 -21.3263 -2.3656 -6.5965 51.7099 -4.8186
# 6 26.5150 3.6340 -3.6214 -0.0126 -4.8186 62.8839
#
#
#
# Elastic Compliance Matrix: (Units=1/GPa)
#
#
# Indices 1 2 3 4 5 6 
#
# 1 0.007487 -0.007817 -0.003470 -0.001825 -0.003593 -0.003181
# 2 -0.007817 0.035006 0.002389 0.012898 0.016106 0.002647
# 3 -0.003470 0.002389 0.013773 0.001724 0.001899 0.002264
# 4 -0.001825 0.012898 0.001724 0.039398 0.010433 0.000931
# 5 -0.003593 0.016106 0.001899 0.010433 0.027508 0.002804
# 6 -0.003181 0.002647 0.002264 0.000931 0.002804 0.017436
#
#
# Mechanical properties :
#
#
# Convention : Reuss Voigt Hill
#
# Bulk Modulus (GPa) = 25.99469 58.79735 42.39602
# Shear Modulus (GPa) = 29.20120 45.60807 37.40463
#
# Velocity S-wave (km/s) = 3.32294 4.15282 3.76084
# Velocity P-wave (km/s) = 4.95500 6.72516 5.90677
#
# Compressibility (1/GPa) = 0.03846939
#
# Stress axis : x y z
#
# Youngs Moduli (GPa) = 133.56460 28.56693 72.60773
#
# Poissons Ratio (x) = 0.22330 0.25197
# Poissons Ratio (y) = 1.04404 -0.17347
# Poissons Ratio (z) = 0.46350 -0.06825
#
# Static dielectric constant tensor:
#      x y z
#    x 2.043660 -0.010070 -0.011140 
#    y -0.010070 2.270600 -0.239250 
#    z -0.011140 -0.239250 2.246680 
# 
# From -- ./inp_files/245544.got.cif
#   From: 2010.05.17/outbox.cif.g08.bks.cpg/sg2_123_cif.got.tgz:245544.got - 2010.06.03 11:33:40.
