data_PCOD9058521
_publ_section_title
;
Structure prediction by ZEFSAII (Michael W. Deem and Ramdas Pophale) SiO2 
 PCOD9058521
Probable space group: P -1
;
_chemical_formula_sum "Si O2"
_cell_formula_units_Z 16
_cell_length_a 9.389073
_cell_length_b 11.834114
_cell_length_c 8.525400
_cell_angle_alpha 84.033364
_cell_angle_beta 132.459305
_cell_angle_gamma 80.733703
_cell_volume 659.664101
_symmetry_space_group_name_H-M "P -1"
_symmetry_group_IT_number 2
_symmetry_cell_setting 'triclinic'
loop_
_space_group_symop_operation_xyz
x,y,z
-x,-y,-z
loop_
_atom_site_type_symbol
_atom_site_label
_atom_site_fract_x
_atom_site_fract_y
_atom_site_fract_z
Si Si1 0.604763 0.700817 0.836364
Si Si2 0.896485 0.835784 0.454984
Si Si3 0.631945 0.036141 0.458129
Si Si4 0.299186 0.353986 0.732596
Si Si5 0.011027 0.285187 0.994279
Si Si6 0.761249 0.198849 0.055861
Si Si7 0.938715 0.937413 0.138487
Si Si8 0.336476 0.560047 0.506177
O O1 0.502004 0.844288 0.748372
O O2 0.435360 0.645350 0.662072
O O3 0.703464 0.640106 0.081179
O O4 0.786417 0.678273 0.846719
O O5 0.862307 0.707962 0.438856
O O6 0.875723 0.886896 0.258411
O O7 0.115753 0.832291 0.685593
O O8 0.730328 0.924839 0.431565
O O9 0.827778 0.065894 0.669529
O O10 0.500000 0.000000 0.500000
O O11 0.289128 0.469905 0.607849
O O12 0.525529 0.263618 0.883730
O O13 0.080493 0.149400 0.000765
O O14 0.865847 0.364314 0.743755
O O15 0.874750 0.282556 0.042814
O O16 0.803256 0.075190 0.011414
O O17 0.500000 0.500000 0.500000
#
# Coordination Sequence:
#
# PCOD9058521 Si02
#       8
#     2   2   2   2   2   2   2   2
#     4  12  26  47  74 107 138 186 242 285 359 417
#     4  11  25  45  69 109 147 185 229 289 352 422
#     4  11  24  41  75 108 152 186 226 290 355 424
#     4  12  27  47  74 103 140 193 236 289 352 420
#     4  12  26  45  72 106 136 187 234 296 349 423
#     4  11  25  41  72 103 147 183 229 283 354 430
#     4  11  22  46  68 106 149 181 229 291 354 418
#     4  12  29  51  73  99 144 184 244 302 346 415
#
# _framework density 24.254769
#
# number of rings (size 3 to 8) (size 9 to 14) (size 15 to 20)
#    0.000    0.500    3.750    5.250    7.000    3.000 
#    0.000    0.000    0.000    0.000    0.000    0.000 
#    0.000    0.000    0.000    0.000    0.000    0.000 
#
# Total GULP energy -89724.113398 kJ/mol
# GULP energy per Si atom -5607.757087 kJ/mol
# Density = 2.419956 g / cm^3
# Si number density = 24.254769 Si / 1000 Ang^3
#
#
#
# Elastic Constant Matrix: (Units=GPa)
#
#
# Indices 1 2 3 4 5 6 
#
# 1 103.5861 13.7968 -4.1127 -1.3642 -4.8842 22.9676
# 2 13.7968 78.4562 15.9900 -12.6691 -3.3157 25.3724
# 3 -4.1127 15.9900 49.0250 -8.6592 -0.5122 0.3839
# 4 -1.3642 -12.6691 -8.6592 27.2625 6.0191 -5.7666
# 5 -4.8842 -3.3157 -0.5122 6.0191 47.8231 -4.7317
# 6 22.9676 25.3724 0.3839 -5.7666 -4.7317 34.9108
#
#
#
# Elastic Compliance Matrix: (Units=1/GPa)
#
#
# Indices 1 2 3 4 5 6 
#
# 1 0.011383 0.000222 0.000803 -0.000822 0.000526 -0.007723
# 2 0.000222 0.018656 -0.005192 0.004411 -0.000581 -0.012998
# 3 0.000803 -0.005192 0.023166 0.005898 -0.000385 0.003912
# 4 -0.000822 0.004411 0.005898 0.042366 -0.004688 0.003633
# 5 0.000526 -0.000581 -0.000385 -0.004688 0.021732 0.002252
# 6 -0.007723 -0.012998 0.003912 0.003633 0.002252 0.044034
#
#
# Mechanical properties :
#
#
# Convention : Reuss Voigt Hill
#
# Bulk Modulus (GPa) = 22.28599 31.37949 26.83274
# Shear Modulus (GPa) = 27.08168 35.69216 31.38692
#
# Velocity S-wave (km/s) = 3.34511 3.84024 3.60120
# Velocity P-wave (km/s) = 4.91202 5.71216 5.32713
#
# Compressibility (1/GPa) = 0.04487123
#
# Stress axis : x y z
#
# Youngs Moduli (GPa) = 87.85408 53.60156 43.16756
#
# Poissons Ratio (x) = -0.01188 -0.03468
# Poissons Ratio (y) = -0.01947 0.22411
# Poissons Ratio (z) = -0.07058 0.27827
#
# Static dielectric constant tensor:
#      x y z
#    x 1.945640 -0.006480 -0.024770 
#    y -0.006480 1.911230 -0.005580 
#    z -0.024770 -0.005580 1.897250 
# 
# From -- ./inp_files/187049.got.cif
#   From: 2010.05.17/outbox.cif.g08.bks.cpg/sg2_94_cif.got.tgz:187049.got - 2010.06.03 11:33:40.
