data_PCOD9058369
_publ_section_title
;
Structure prediction by ZEFSAII (Michael W. Deem and Ramdas Pophale) SiO2 
 PCOD9058369
Probable space group: P -1
;
_chemical_formula_sum "Si O2"
_cell_formula_units_Z 16
_cell_length_a 8.784410
_cell_length_b 14.274954
_cell_length_c 14.065914
_cell_angle_alpha 147.299869
_cell_angle_beta 55.208584
_cell_angle_gamma 130.075412
_cell_volume 727.375621
_symmetry_space_group_name_H-M "P -1"
_symmetry_group_IT_number 2
_symmetry_cell_setting 'triclinic'
loop_
_space_group_symop_operation_xyz
x,y,z
-x,-y,-z
loop_
_atom_site_type_symbol
_atom_site_label
_atom_site_fract_x
_atom_site_fract_y
_atom_site_fract_z
Si Si1 0.870674 0.517557 0.782471
Si Si2 0.537132 0.582038 0.449491
Si Si3 0.093318 0.010024 0.873485
Si Si4 0.841391 0.321479 0.354471
Si Si5 0.443364 0.389863 0.118610
Si Si6 0.018997 0.857057 0.150669
Si Si7 0.987601 0.191231 0.546995
Si Si8 0.176344 0.698311 0.115021
O O1 0.654549 0.469164 0.769294
O O2 0.916467 0.333986 0.632964
O O3 0.048253 0.652665 0.765638
O O4 0.888868 0.649792 0.981180
O O5 0.500000 0.500000 0.500000
O O6 0.379375 0.683275 0.583360
O O7 0.472419 0.430377 0.256213
O O8 0.769157 0.711519 0.459587
O O9 0.164452 0.839192 0.707479
O O10 0.944889 0.013041 0.845081
O O11 0.279076 0.199712 0.976817
O O12 0.000000 0.000000 0.000000
O O13 0.000000 0.500000 0.500000
O O14 0.639060 0.364314 0.989876
O O15 0.189482 0.820041 0.118800
O O16 0.926803 0.977605 0.351909
O O17 0.887735 0.195783 0.687688
O O18 0.000000 0.500000 0.000000
#
# Coordination Sequence:
#
# PCOD9058369 Si02
#       8
#     2   2   2   2   2   2   2   2
#     4  11  22  45  71 101 141 182 229 286 348 426
#     4  12  25  38  68 108 139 180 238 281 358 427
#     4  11  23  43  70 100 141 184 226 288 354 417
#     4  12  22  41  67 101 149 182 223 282 350 429
#     4  11  25  44  69 103 136 187 244 277 358 422
#     4  11  25  45  70 101 135 186 240 284 351 419
#     4  12  26  47  73 101 142 189 231 297 353 409
#     4  12  25  50  72  94 146 189 238 299 349 411
#
# _framework density 21.996887999999998
#
# number of rings (size 3 to 8) (size 9 to 14) (size 15 to 20)
#    0.000    0.500    7.500    1.125    3.500    0.500 
#    0.000    4.375    0.000    0.000    0.000    0.000 
#    0.000    0.000    0.000    0.000    0.000    0.000 
#
# Total GULP energy -89126.442948 kJ/mol
# GULP energy per Si atom -5570.402684 kJ/mol
# Density = 2.194682 g / cm^3
# Si number density = 21.996888 Si / 1000 Ang^3
#
#
#
# Elastic Constant Matrix: (Units=GPa)
#
#
# Indices 1 2 3 4 5 6 
#
# 1 143.3585 52.9916 43.8250 -15.0406 -36.9916 -6.5969
# 2 52.9916 49.5441 7.5712 -16.2216 -18.5292 -7.7378
# 3 43.8250 7.5712 125.3055 -10.6288 -4.7471 -1.0685
# 4 -15.0406 -16.2216 -10.6288 40.0024 -5.9049 -8.3653
# 5 -36.9916 -18.5292 -4.7471 -5.9049 48.9456 -3.8022
# 6 -6.5969 -7.7378 -1.0685 -8.3653 -3.8022 40.6649
#
#
#
# Elastic Compliance Matrix: (Units=1/GPa)
#
#
# Indices 1 2 3 4 5 6 
#
# 1 0.014330 -0.012381 -0.004018 0.000255 0.005820 0.000460
# 2 -0.012381 0.044910 0.003714 0.018593 0.011141 0.011501
# 3 -0.004018 0.003714 0.009376 0.002604 -0.000344 0.000805
# 4 0.000255 0.018593 0.002604 0.037899 0.013040 0.012663
# 5 0.005820 0.011141 -0.000344 0.013040 0.031259 0.008660
# 6 0.000460 0.011501 0.000805 0.012663 0.008660 0.030290
#
#
# Mechanical properties :
#
#
# Convention : Reuss Voigt Hill
#
# Bulk Modulus (GPa) = 23.12380 58.55375 40.83878
# Shear Modulus (GPa) = 24.05589 40.17728 32.11658
#
# Velocity S-wave (km/s) = 3.31056 4.27839 3.82521
# Velocity P-wave (km/s) = 5.01480 7.14724 6.17379
#
# Compressibility (1/GPa) = 0.04324548
#
# Stress axis : x y z
#
# Youngs Moduli (GPa) = 69.78329 22.26688 106.65556
#
# Poissons Ratio (x) = 0.27570 0.42851
# Poissons Ratio (y) = 0.86402 -0.39612
# Poissons Ratio (z) = 0.28037 -0.08270
#
# Static dielectric constant tensor:
#      x y z
#    x 1.844140 -0.074210 -0.000420 
#    y -0.074210 1.802990 -0.029920 
#    z -0.000420 -0.029920 1.861020 
# 
# From -- ./inp_files/505697.got.cif
#   From: 2010.05.17/outbox.cif.g08.bks.cpg/sg2_253_cif.got.tgz:505697.got - 2010.06.03 11:33:40.
