data_PCOD9058643
_publ_section_title
;
Structure prediction by ZEFSAII (Michael W. Deem and Ramdas Pophale) SiO2 
 PCOD9058643
Probable space group: P -1
;
_chemical_formula_sum "Si O2"
_cell_formula_units_Z 15
_cell_length_a 9.445610
_cell_length_b 11.887410
_cell_length_c 9.582042
_cell_angle_alpha 119.137499
_cell_angle_beta 50.977777
_cell_angle_gamma 105.856322
_cell_volume 729.216550
_symmetry_space_group_name_H-M "P -1"
_symmetry_group_IT_number 2
_symmetry_cell_setting 'triclinic'
loop_
_space_group_symop_operation_xyz
x,y,z
-x,-y,-z
loop_
_atom_site_type_symbol
_atom_site_label
_atom_site_fract_x
_atom_site_fract_y
_atom_site_fract_z
Si Si1 0.436326 0.818092 0.666347
Si Si2 0.911211 0.916573 0.628557
Si Si3 0.322621 0.567159 0.719846
Si Si4 0.500000 0.000000 0.000000
Si Si5 0.780319 0.742363 0.218354
Si Si6 0.853642 0.020399 0.225550
Si Si7 0.039587 0.354880 0.698826
Si Si8 0.329047 0.507832 0.005446
O O1 0.318471 0.710869 0.749147
O O2 0.611524 0.752628 0.438533
O O3 0.494065 0.916715 0.807953
O O4 0.317840 0.895965 0.673250
O O5 0.883435 0.769453 0.508847
O O6 0.726403 0.985790 0.843087
O O7 0.000000 0.000000 0.500000
O O8 0.055896 0.911235 0.659823
O O9 0.500000 0.500000 0.500000
O O10 0.158740 0.480438 0.717900
O O11 0.358503 0.559013 0.859408
O O12 0.800216 0.880482 0.224520
O O13 0.956632 0.696589 0.173831
O O14 0.737561 0.635699 0.066625
O O15 0.000000 0.000000 0.000000
O O16 0.843943 0.400655 0.786196
O O17 0.500000 0.500000 0.000000
#
# Coordination Sequence:
#
# PCOD9058643 Si02
#       8
#     2   2   2   1   2   2   2   2
#     4  12  25  44  73 105 142 190 240 297 367 431
#     4  12  25  47  73 105 145 191 242 296 365 431
#     4  11  22  46  76  99 138 186 241 290 364 438
#     4  12  24  44  68 106 142 184 244 292 350 444
#     4  11  23  49  69 101 141 190 239 290 372 427
#     4  12  27  43  70 104 145 184 237 305 357 430
#     4  11  24  45  75 100 138 190 241 290 362 436
#     4  11  27  45  71 105 139 186 239 304 357 427
#
# _framework density 20.570022000000002
#
# number of rings (size 3 to 8) (size 9 to 14) (size 15 to 20)
#    0.000    0.533    6.667    2.000    7.467    1.067 
#    2.400    1.333    0.000    0.000    0.000    0.000 
#    0.000    0.000    0.000    0.000    0.000    0.000 
#
# Total GULP energy -83543.651209 kJ/mol
# GULP energy per Si atom -5569.576747 kJ/mol
# Density = 2.052320 g / cm^3
# Si number density = 20.570022 Si / 1000 Ang^3
#
#
#
# Elastic Constant Matrix: (Units=GPa)
#
#
# Indices 1 2 3 4 5 6 
#
# 1 139.3123 51.2789 16.6705 18.3527 2.7550 -18.0223
# 2 51.2789 111.5791 -2.7248 -5.4159 8.2036 -8.3640
# 3 16.6705 -2.7248 80.0344 8.3233 -8.6281 2.5329
# 4 18.3527 -5.4159 8.3233 26.8590 4.0305 -2.2758
# 5 2.7550 8.2036 -8.6281 4.0305 43.8798 6.9624
# 6 -18.0223 -8.3640 2.5329 -2.2758 6.9624 14.2457
#
#
#
# Elastic Compliance Matrix: (Units=1/GPa)
#
#
# Indices 1 2 3 4 5 6 
#
# 1 0.011749 -0.004764 -0.002447 -0.006955 -0.001622 0.012183
# 2 -0.004764 0.011940 0.000314 0.006302 -0.002989 0.003394
# 3 -0.002447 0.000314 0.014194 -0.004055 0.004578 -0.008320
# 4 -0.006955 0.006302 -0.004055 0.046059 -0.006767 0.006288
# 5 -0.001622 -0.002989 0.004578 -0.006767 0.028052 -0.019413
# 6 0.012183 0.003394 -0.008320 0.006288 -0.019413 0.099574
#
#
# Mechanical properties :
#
#
# Convention : Reuss Voigt Hill
#
# Bulk Modulus (GPa) = 41.51451 51.26388 46.38919
# Shear Modulus (GPa) = 21.42324 34.71032 28.06678
#
# Velocity S-wave (km/s) = 3.23070 4.11228 3.69785
# Velocity P-wave (km/s) = 5.84315 6.89373 6.39007
#
# Compressibility (1/GPa) = 0.02408796
#
# Stress axis : x y z
#
# Youngs Moduli (GPa) = 85.11381 83.75548 70.45438
#
# Poissons Ratio (x) = 0.39904 0.17237
# Poissons Ratio (y) = 0.40551 -0.02211
# Poissons Ratio (z) = 0.20824 -0.02629
#
# Static dielectric constant tensor:
#      x y z
#    x 1.726160 0.000640 -0.033490 
#    y 0.000640 1.761550 0.005940 
#    z -0.033490 0.005940 1.716770 
# 
# From -- ./inp_files/174789.got.cif
#   From: 2010.05.17/outbox.cif.g08.bks.cpg/sg2_88_cif.got.tgz:174789.got - 2010.06.03 11:33:40.
