data_PCOD9058351
_publ_section_title
;
Structure prediction by ZEFSAII (Michael W. Deem and Ramdas Pophale) SiO2 
 PCOD9058351
Probable space group: P -1
;
_chemical_formula_sum "Si O2"
_cell_formula_units_Z 16
_cell_length_a 17.897798
_cell_length_b 11.557386
_cell_length_c 16.072851
_cell_angle_alpha 28.819391
_cell_angle_beta 23.226684
_cell_angle_gamma 40.611209
_cell_volume 613.271790
_symmetry_space_group_name_H-M "P -1"
_symmetry_group_IT_number 2
_symmetry_cell_setting 'triclinic'
loop_
_space_group_symop_operation_xyz
x,y,z
-x,-y,-z
loop_
_atom_site_type_symbol
_atom_site_label
_atom_site_fract_x
_atom_site_fract_y
_atom_site_fract_z
Si Si1 0.969596 0.540712 0.605025
Si Si2 0.601596 0.890782 0.584265
Si Si3 0.955802 0.309223 0.287660
Si Si4 0.970035 0.269779 0.930443
Si Si5 0.717704 0.626656 0.225973
Si Si6 0.303155 0.183954 0.187091
Si Si7 0.621266 0.125565 0.018159
Si Si8 0.578420 0.674317 0.572648
O O1 0.911477 0.295375 0.877444
O O2 0.000000 0.500000 0.500000
O O3 0.826731 0.710553 0.676948
O O4 0.186565 0.673823 0.330298
O O5 0.512080 0.115380 0.504542
O O6 0.490238 0.789456 0.844557
O O7 0.562461 0.690385 0.678708
O O8 0.828924 0.033515 0.267181
O O9 0.039985 0.471569 0.179196
O O10 0.813701 0.462119 0.292591
O O11 0.832121 0.027411 0.597408
O O12 0.135163 0.318807 0.036404
O O13 0.193340 0.267733 0.712455
O O14 0.500000 0.500000 0.500000
O O15 0.699272 0.889216 0.114325
O O16 0.458506 0.063763 0.152585
O O17 0.445029 0.409657 0.850897
#
# Coordination Sequence:
#
# PCOD9058351 Si02
#       8
#     2   2   2   2   2   2   2   2
#     4  12  28  48  73 107 148 191 250 309 367 432
#     4  11  26  45  73 106 145 189 249 309 356 441
#     4  11  26  43  74 107 152 188 248 297 361 452
#     4  12  26  48  71 109 146 197 238 307 370 429
#     4  11  22  45  70 109 144 194 238 300 364 428
#     4  12  25  48  72 109 144 194 246 296 369 442
#     4  12  25  45  76 105 143 196 241 299 372 432
#     4  11  25  47  70 104 144 191 248 298 372 424
#
# _framework density 26.089573000000001
#
# number of rings (size 3 to 8) (size 9 to 14) (size 15 to 20)
#    0.000    0.500    5.000    2.625    5.250    3.000 
#    0.000    0.000    0.000    0.000    0.000    0.000 
#    0.000    0.000    0.000    0.000    0.000    0.000 
#
# Total GULP energy -89703.326842 kJ/mol
# GULP energy per Si atom -5606.457928 kJ/mol
# Density = 2.603019 g / cm^3
# Si number density = 26.089573 Si / 1000 Ang^3
#
#
#
# Elastic Constant Matrix: (Units=GPa)
#
#
# Indices 1 2 3 4 5 6 
#
# 1 67.3542 23.5490 27.7122 15.1771 -16.2360 2.6246
# 2 23.5490 106.5307 34.5178 7.2328 -8.2485 -7.1035
# 3 27.7122 34.5178 150.8565 13.4339 -18.0000 -4.2628
# 4 15.1771 7.2328 13.4339 46.6756 -0.5096 -7.5026
# 5 -16.2360 -8.2485 -18.0000 -0.5096 31.9565 5.2007
# 6 2.6246 -7.1035 -4.2628 -7.5026 5.2007 47.8512
#
#
#
# Elastic Compliance Matrix: (Units=1/GPa)
#
#
# Indices 1 2 3 4 5 6 
#
# 1 0.020292 -0.003124 -0.001472 -0.006181 0.009174 -0.003674
# 2 -0.003124 0.010774 -0.001873 0.000148 -0.000126 0.001641
# 3 -0.001472 -0.001873 0.007834 -0.001463 0.003170 -0.000073
# 4 -0.006181 0.000148 -0.001463 0.024515 -0.004274 0.004539
# 5 0.009174 -0.000126 0.003170 -0.004274 0.038467 -0.005090
# 6 -0.003674 0.001641 -0.000073 0.004539 -0.005090 0.022602
#
#
# Mechanical properties :
#
#
# Convention : Reuss Voigt Hill
#
# Bulk Modulus (GPa) = 38.51652 55.14438 46.83045
# Shear Modulus (GPa) = 34.22887 41.22748 37.72818
#
# Velocity S-wave (km/s) = 3.62605 3.97952 3.80689
# Velocity P-wave (km/s) = 5.68561 6.50368 6.10836
#
# Compressibility (1/GPa) = 0.02596288
#
# Stress axis : x y z
#
# Youngs Moduli (GPa) = 49.28100 92.81542 127.64453
#
# Poissons Ratio (x) = 0.28993 0.18785
# Poissons Ratio (y) = 0.15394 0.23911
# Poissons Ratio (z) = 0.07252 0.17386
#
# Static dielectric constant tensor:
#      x y z
#    x 2.056940 -0.000090 0.021470 
#    y -0.000090 2.068860 -0.007830 
#    z 0.021470 -0.007830 1.989340 
# 
# From -- ./inp_files/577906.got.cif
#   From: 2010.05.17/outbox.cif.g08.bks.cpg/sg2_289_cif.got.tgz:577906.got - 2010.06.03 11:33:40.
