data_PCOD9058134
_publ_section_title
;
Structure prediction by ZEFSAII (Michael W. Deem and Ramdas Pophale) SiO2 
 PCOD9058134
Probable space group: P -1
;
_chemical_formula_sum "Si O2"
_cell_formula_units_Z 14
_cell_length_a 21.643194
_cell_length_b 9.627066
_cell_length_c 8.626740
_cell_angle_alpha 47.507467
_cell_angle_beta 128.733416
_cell_angle_gamma 149.953309
_cell_volume 659.531494
_symmetry_space_group_name_H-M "P -1"
_symmetry_group_IT_number 2
_symmetry_cell_setting 'triclinic'
loop_
_space_group_symop_operation_xyz
x,y,z
-x,-y,-z
loop_
_atom_site_type_symbol
_atom_site_label
_atom_site_fract_x
_atom_site_fract_y
_atom_site_fract_z
Si Si1 0.221862 0.128144 0.580618
Si Si2 0.233971 0.714557 0.978610
Si Si3 0.222652 0.372237 0.696788
Si Si4 0.029943 0.056051 0.187397
Si Si5 0.499848 0.350241 0.472766
Si Si6 0.373176 0.785567 0.872074
Si Si7 0.390797 0.959693 0.339758
O O1 0.215796 0.193905 0.696851
O O2 0.115368 0.035628 0.385377
O O3 0.355509 0.431111 0.491063
O O4 0.214568 0.890145 0.756171
O O5 0.271750 0.656459 0.935313
O O6 0.111164 0.391952 0.095859
O O7 0.346024 0.913515 0.129141
O O8 0.323354 0.531841 0.873046
O O9 0.271212 0.640929 0.472073
O O10 0.092957 0.169533 0.730893
O O11 0.000000 0.000000 0.000000
O O12 0.500000 0.500000 0.500000
O O13 0.408894 0.024410 0.639924
O O14 0.442229 0.245022 0.287208
O O15 0.500000 0.000000 0.000000
O O16 0.500000 0.000000 0.500000
#
# Coordination Sequence:
#
# PCOD9058134 Si02
#       7
#     2   2   2   2   2   2   2
#     4  12  26  46  71 104 139 180 240 290 344 414
#     4  12  25  45  71 105 136 185 239 282 341 421
#     4  11  24  45  72  98 138 190 224 289 352 411
#     4  12  26  50  71  96 141 186 235 291 350 409
#     4  11  23  42  64 101 145 171 220 292 342 408
#     4  11  23  40  71 101 138 182 228 277 357 416
#     4  11  22  44  72 100 142 180 226 283 351 418
#
# _framework density 21.227188999999999
#
# number of rings (size 3 to 8) (size 9 to 14) (size 15 to 20)
#    0.000    0.571    5.714    3.000    0.000    2.857 
#    0.000    0.000    0.000    0.000    0.000    0.000 
#    0.000    0.000    0.000    0.000    0.000    0.000 
#
# Total GULP energy -78106.414632 kJ/mol
# GULP energy per Si atom -5579.029617 kJ/mol
# Density = 2.117888 g / cm^3
# Si number density = 21.227189 Si / 1000 Ang^3
#
#
#
# Elastic Constant Matrix: (Units=GPa)
#
#
# Indices 1 2 3 4 5 6 
#
# 1 118.5829 38.5562 20.5385 14.2157 -25.9547 3.8093
# 2 38.5562 95.8370 28.9440 18.0175 -5.2339 3.9445
# 3 20.5385 28.9440 65.8161 15.7502 -6.6758 -9.4546
# 4 14.2157 18.0175 15.7502 38.4662 -5.4003 -16.9995
# 5 -25.9547 -5.2339 -6.6758 -5.4003 25.4699 -4.8323
# 6 3.8093 3.9445 -9.4546 -16.9995 -4.8323 55.1710
#
#
#
# Elastic Compliance Matrix: (Units=1/GPa)
#
#
# Indices 1 2 3 4 5 6 
#
# 1 0.012491 -0.004023 -0.000764 -0.000767 0.011553 0.000070
# 2 -0.004023 0.014440 -0.004720 -0.005550 -0.004237 -0.003645
# 3 -0.000764 -0.004720 0.019092 -0.003666 0.003009 0.002796
# 4 -0.000767 -0.005550 -0.003666 0.036548 0.007087 0.011704
# 5 0.011553 -0.004237 0.003009 0.007087 0.053767 0.006914
# 6 0.000070 -0.003645 0.002796 0.011704 0.006914 0.023072
#
#
# Mechanical properties :
#
#
# Convention : Reuss Voigt Hill
#
# Bulk Modulus (GPa) = 37.02237 50.70149 43.86193
# Shear Modulus (GPa) = 26.67687 36.63459 31.65573
#
# Velocity S-wave (km/s) = 3.54889 4.15882 3.86590
# Velocity P-wave (km/s) = 5.85420 6.85551 6.37455
#
# Compressibility (1/GPa) = 0.02701070
#
# Stress axis : x y z
#
# Youngs Moduli (GPa) = 80.05494 69.25031 52.37736
#
# Poissons Ratio (x) = 0.27857 0.04000
# Poissons Ratio (y) = 0.32203 0.24724
# Poissons Ratio (z) = 0.06114 0.32689
#
# Static dielectric constant tensor:
#      x y z
#    x 1.820580 -0.063720 -0.048930 
#    y -0.063720 1.825620 0.071850 
#    z -0.048930 0.071850 1.816800 
# 
# From -- ./inp_files/209504.got.cif
#   From: 2010.05.17/outbox.cif.g08.bks.cpg/sg2_105_cif.got.tgz:209504.got - 2010.06.03 11:33:40.
