data_PCOD9058310
_publ_section_title
;
Structure prediction by ZEFSAII (Michael W. Deem and Ramdas Pophale) SiO2 
 PCOD9058310
Probable space group: P -1
;
_chemical_formula_sum "Si O2"
_cell_formula_units_Z 14
_cell_length_a 7.313608
_cell_length_b 8.154744
_cell_length_c 23.202106
_cell_angle_alpha 143.621621
_cell_angle_beta 38.135248
_cell_angle_gamma 127.354188
_cell_volume 505.495271
_symmetry_space_group_name_H-M "P -1"
_symmetry_group_IT_number 2
_symmetry_cell_setting 'triclinic'
loop_
_space_group_symop_operation_xyz
x,y,z
-x,-y,-z
loop_
_atom_site_type_symbol
_atom_site_label
_atom_site_fract_x
_atom_site_fract_y
_atom_site_fract_z
Si Si1 0.334340 0.301578 0.204047
Si Si2 0.913845 0.298570 0.132636
Si Si3 0.808757 0.740348 0.485421
Si Si4 0.486750 0.211598 0.303218
Si Si5 0.676234 0.209794 0.478252
Si Si6 0.678973 0.647309 0.137213
Si Si7 0.947015 0.161588 0.800871
O O1 0.595901 0.368762 0.201269
O O2 0.455757 0.418110 0.146806
O O3 0.030237 0.471279 0.344214
O O4 0.285267 0.981840 0.141172
O O5 0.820416 0.282455 0.218351
O O6 0.112159 0.536720 0.127799
O O7 0.000000 0.000000 0.000000
O O8 0.672577 0.784148 0.594171
O O9 0.544993 0.725055 0.501538
O O10 0.000000 0.000000 0.500000
O O11 0.308728 0.504559 0.410480
O O12 0.547967 0.872969 0.187238
O O13 0.500000 0.000000 0.500000
O O14 0.966207 0.046487 0.332879
O O15 0.772389 0.813811 0.218769
O O16 0.000000 0.500000 0.000000
#
# Coordination Sequence:
#
# PCOD9058310 Si02
#       7
#     2   2   2   2   2   2   2
#     4  11  24  43  71 100 139 182 238 298 348 417
#     4  11  26  47  67 100 147 190 236 291 349 424
#     4  12  23  41  68 105 144 176 237 294 356 424
#     4  12  22  40  72  97 140 192 225 285 369 405
#     4  12  24  42  69 103 146 184 225 299 362 416
#     4  11  24  45  68  98 141 188 234 288 350 425
#     4  11  22  45  68  98 139 181 233 290 354 416
#
# _framework density 27.695611
#
# number of rings (size 3 to 8) (size 9 to 14) (size 15 to 20)
#    0.000    0.571    5.714    3.857    0.000    2.857 
#    0.000    1.429    0.000    0.000    0.000    0.000 
#    0.000    0.000    0.000    0.000    0.000    0.000 
#
# Total GULP energy -78184.327710 kJ/mol
# GULP energy per Si atom -5584.594836 kJ/mol
# Density = 2.763258 g / cm^3
# Si number density = 27.695611 Si / 1000 Ang^3
#
#
#
# Elastic Constant Matrix: (Units=GPa)
#
#
# Indices 1 2 3 4 5 6 
#
# 1 49.8579 9.2526 21.0234 8.2911 -9.6865 5.1484
# 2 9.2526 298.5700 72.0838 -1.8683 5.7431 -7.4114
# 3 21.0234 72.0838 199.8589 16.5428 1.5258 -18.4136
# 4 8.2911 -1.8683 16.5428 50.6841 -0.9655 -1.4685
# 5 -9.6865 5.7431 1.5258 -0.9655 38.0654 2.7828
# 6 5.1484 -7.4114 -18.4136 -1.4685 2.7828 38.8976
#
#
#
# Elastic Compliance Matrix: (Units=1/GPa)
#
#
# Indices 1 2 3 4 5 6 
#
# 1 0.023486 -0.000367 -0.002595 -0.003030 0.006423 -0.004981
# 2 -0.000367 0.003701 -0.001325 0.000623 -0.000597 0.000193
# 3 -0.002595 -0.001325 0.006170 -0.001569 -0.000968 0.003022
# 4 -0.003030 0.000623 -0.001569 0.020772 -0.000318 0.000584
# 5 0.006423 -0.000597 -0.000968 -0.000318 0.028279 -0.003457
# 6 -0.004981 0.000193 0.003022 0.000584 -0.003457 0.028104
#
#
# Mechanical properties :
#
#
# Convention : Reuss Voigt Hill
#
# Bulk Modulus (GPa) = 40.35385 83.66738 62.01061
# Shear Modulus (GPa) = 39.26265 55.25791 47.26028
#
# Velocity S-wave (km/s) = 3.76925 4.47160 4.13536
# Velocity P-wave (km/s) = 5.79182 7.54556 6.72609
#
# Compressibility (1/GPa) = 0.02478078
#
# Stress axis : x y z
#
# Youngs Moduli (GPa) = 42.57936 270.20811 162.06804
#
# Poissons Ratio (x) = 0.09929 0.42058
# Poissons Ratio (y) = 0.01565 0.21481
# Poissons Ratio (z) = 0.11050 0.35815
#
# Static dielectric constant tensor:
#      x y z
#    x 3.759340 0.005190 0.569370 
#    y 0.005190 2.325900 0.061080 
#    z 0.569370 0.061080 2.330310 
# 
# From -- ./inp_files/616712.got.cif
#   From: 2010.05.17/outbox.cif.g08.bks.cpg/sg2_309_cif.got.tgz:616712.got - 2010.06.03 11:33:40.
