data_PCOD9058900
_publ_section_title
;
Structure prediction by ZEFSAII (Michael W. Deem and Ramdas Pophale) SiO2 
 PCOD9058900
Probable space group: P -1
;
_chemical_formula_sum "Si O2"
_cell_formula_units_Z 15
_cell_length_a 12.888995
_cell_length_b 14.225865
_cell_length_c 6.094528
_cell_angle_alpha 103.634629
_cell_angle_beta 125.276196
_cell_angle_gamma 47.239056
_cell_volume 646.594875
_symmetry_space_group_name_H-M "P -1"
_symmetry_group_IT_number 2
_symmetry_cell_setting 'triclinic'
loop_
_space_group_symop_operation_xyz
x,y,z
-x,-y,-z
loop_
_atom_site_type_symbol
_atom_site_label
_atom_site_fract_x
_atom_site_fract_y
_atom_site_fract_z
Si Si1 0.623771 0.968701 0.333607
Si Si2 0.909132 0.110217 0.761787
Si Si3 0.000000 0.500000 0.000000
Si Si4 0.184944 0.014146 0.736637
Si Si5 0.690646 0.527436 0.825079
Si Si6 0.611303 0.370412 0.803592
Si Si7 0.336740 0.224008 0.385140
Si Si8 0.497033 0.730697 0.066507
O O1 0.674396 0.861070 0.510691
O O2 0.793161 0.919288 0.388634
O O3 0.509332 0.110990 0.392188
O O4 0.500000 0.000000 0.000000
O O5 0.853595 0.064753 0.481898
O O6 0.745514 0.247202 0.739603
O O7 0.047660 0.107046 0.808961
O O8 0.000000 0.000000 0.000000
O O9 0.869375 0.483618 0.945673
O O10 0.836524 0.663676 0.900209
O O11 0.368980 0.889515 0.998613
O O12 0.686598 0.439467 0.944312
O O13 0.578299 0.540739 0.493909
O O14 0.577594 0.666115 0.894611
O O15 0.599466 0.313447 0.978676
O O16 0.356870 0.309978 0.606066
#
# Coordination Sequence:
#
# PCOD9058900 Si02
#       8
#     2   2   1   2   2   2   2   2
#     4  11  24  45  70 103 138 187 236 284 353 427
#     4  11  23  40  67  98 138 173 225 288 347 407
#     4  12  26  50  66 106 142 188 236 296 362 416
#     4  11  23  38  67 104 132 179 230 285 344 423
#     4  11  26  44  70  95 139 182 234 285 344 424
#     4  11  23  45  67 100 134 186 228 282 348 422
#     4  11  26  44  73 101 141 189 235 294 356 426
#     4  12  21  45  73  95 134 185 232 283 357 419
#
# _framework density 23.198453000000001
#
# number of rings (size 3 to 8) (size 9 to 14) (size 15 to 20)
#    0.000    0.800    5.333    2.000    0.000    2.667 
#    0.000    0.000    0.000    0.000    0.000    0.000 
#    0.000    0.000    0.000    0.000    0.000    0.000 
#
# Total GULP energy -83532.948107 kJ/mol
# GULP energy per Si atom -5568.863207 kJ/mol
# Density = 2.314565 g / cm^3
# Si number density = 23.198453 Si / 1000 Ang^3
#
#
#
# Elastic Constant Matrix: (Units=GPa)
#
#
# Indices 1 2 3 4 5 6 
#
# 1 209.7857 41.3886 1.0315 -6.1685 -5.1021 3.2735
# 2 41.3886 60.9168 10.4886 -7.4471 0.7669 4.1452
# 3 1.0315 10.4886 21.3390 10.4013 -8.4462 -7.1130
# 4 -6.1685 -7.4471 10.4013 24.7041 5.4980 -5.6833
# 5 -5.1021 0.7669 -8.4462 5.4980 26.0176 -6.6592
# 6 3.2735 4.1452 -7.1130 -5.6833 -6.6592 44.2661
#
#
#
# Elastic Compliance Matrix: (Units=1/GPa)
#
#
# Indices 1 2 3 4 5 6 
#
# 1 0.005847 -0.005747 0.006709 -0.003813 0.004657 0.001395
# 2 -0.005747 0.032339 -0.043099 0.029806 -0.024784 -0.009430
# 3 0.006709 -0.043099 0.147750 -0.083900 0.075410 0.027854
# 4 -0.003813 0.029806 -0.083900 0.092563 -0.051456 -0.011848
# 5 0.004657 -0.024784 0.075410 -0.051456 0.080447 0.019590
# 6 0.001395 -0.009430 0.027854 -0.011848 0.019590 0.029272
#
#
# Mechanical properties :
#
#
# Convention : Reuss Voigt Hill
#
# Bulk Modulus (GPa) = 9.83662 44.20654 27.02158
# Shear Modulus (GPa) = 9.87396 34.93974 22.40685
#
# Velocity S-wave (km/s) = 2.06532 3.88509 3.11123
# Velocity P-wave (km/s) = 3.15227 6.26278 4.95778
#
# Compressibility (1/GPa) = 0.10166096
#
# Stress axis : x y z
#
# Youngs Moduli (GPa) = 171.02570 30.92221 6.76817
#
# Poissons Ratio (x) = 0.17772 -0.04541
# Poissons Ratio (y) = 0.98296 0.29170
# Poissons Ratio (z) = -1.14740 1.33273
#
# Static dielectric constant tensor:
#      x y z
#    x 6.974240 1.350000 2.041050 
#    y 1.350000 2.209600 0.458250 
#    z 2.041050 0.458250 2.823500 
# 
# From -- ./inp_files/76339.got.cif
#   From: 2010.05.17/outbox.cif.g08.bks.cpg/sg2_39_cif.got.tgz:76339.got - 2010.06.03 11:33:40.
