data_PCOD9058634
_publ_section_title
;
Structure prediction by ZEFSAII (Michael W. Deem and Ramdas Pophale) SiO2 
 PCOD9058634
Probable space group: P -1
;
_chemical_formula_sum "Si O2"
_cell_formula_units_Z 14
_cell_length_a 5.978088
_cell_length_b 9.077213
_cell_length_c 15.488537
_cell_angle_alpha 80.197023
_cell_angle_beta 113.978805
_cell_angle_gamma 125.298466
_cell_volume 624.401958
_symmetry_space_group_name_H-M "P -1"
_symmetry_group_IT_number 2
_symmetry_cell_setting 'triclinic'
loop_
_space_group_symop_operation_xyz
x,y,z
-x,-y,-z
loop_
_atom_site_type_symbol
_atom_site_label
_atom_site_fract_x
_atom_site_fract_y
_atom_site_fract_z
Si Si1 0.162562 0.793364 0.372423
Si Si2 0.878395 0.420885 0.780249
Si Si3 0.149993 0.886810 0.541734
Si Si4 0.715209 0.857887 0.218201
Si Si5 0.057189 0.075726 0.097458
Si Si6 0.843340 0.592112 0.010988
Si Si7 0.307601 0.816390 0.750883
O O1 0.119906 0.650556 0.308179
O O2 0.053646 0.751961 0.458491
O O3 0.506903 0.946822 0.420495
O O4 0.005945 0.884918 0.300274
O O5 0.990209 0.340701 0.877137
O O6 0.093682 0.636611 0.790924
O O7 0.549260 0.339665 0.771909
O O8 0.142573 0.781269 0.636430
O O9 0.000000 0.000000 0.500000
O O10 0.662418 0.002532 0.233648
O O11 0.780182 0.915538 0.123635
O O12 0.362230 0.135319 0.187812
O O13 0.086207 0.260714 0.064839
O O14 0.000000 0.000000 0.000000
O O15 0.500000 0.500000 0.000000
O O16 0.000000 0.500000 0.000000
#
# Coordination Sequence:
#
# PCOD9058634 Si02
#       7
#     2   2   2   2   2   2   2
#     4  11  23  44  75 105 145 195 245 320 377 456
#     4  12  27  45  75 110 150 196 259 312 387 453
#     4  11  22  46  76 104 147 194 247 310 390 454
#     4  12  24  47  71 106 147 196 249 316 380 459
#     4  12  27  47  75 107 151 205 258 307 390 457
#     4  12  28  50  74 112 161 204 256 323 386 460
#     4  12  25  47  74 110 145 200 248 310 385 457
#
# _framework density 22.421455999999999
#
# number of rings (size 3 to 8) (size 9 to 14) (size 15 to 20)
#    0.000    0.286    5.714    2.571    4.000    2.857 
#    0.000    2.857    0.000    0.000    0.000    0.000 
#    0.000    0.000    0.000    0.000    0.000    0.000 
#
# Total GULP energy -78030.823359 kJ/mol
# GULP energy per Si atom -5573.630240 kJ/mol
# Density = 2.237042 g / cm^3
# Si number density = 22.421456 Si / 1000 Ang^3
#
#
#
# Elastic Constant Matrix: (Units=GPa)
#
#
# Indices 1 2 3 4 5 6 
#
# 1 107.3424 39.0167 43.9176 -8.1481 10.9755 6.1451
# 2 39.0167 78.6772 9.7634 -11.1211 2.2208 12.0785
# 3 43.9176 9.7634 144.9730 -8.6105 -11.0754 4.6328
# 4 -8.1481 -11.1211 -8.6105 35.2822 -4.3165 3.0803
# 5 10.9755 2.2208 -11.0754 -4.3165 55.8336 -6.3778
# 6 6.1451 12.0785 4.6328 3.0803 -6.3778 24.9685
#
#
#
# Elastic Compliance Matrix: (Units=1/GPa)
#
#
# Indices 1 2 3 4 5 6 
#
# 1 0.013463 -0.006040 -0.003910 -0.000104 -0.003245 -0.000482
# 2 -0.006040 0.017460 0.001224 0.005114 0.000245 -0.007755
# 3 -0.003910 0.001224 0.008322 0.001879 0.002426 -0.000786
# 4 -0.000104 0.005114 0.001879 0.031159 0.001895 -0.006157
# 5 -0.003245 0.000245 0.002426 0.001895 0.019742 0.005039
# 6 -0.000482 -0.007755 -0.000786 -0.006157 0.005039 0.046113
#
#
# Mechanical properties :
#
#
# Convention : Reuss Voigt Hill
#
# Bulk Modulus (GPa) = 45.88705 57.37644 51.63175
# Shear Modulus (GPa) = 31.06057 39.10319 35.08188
#
# Velocity S-wave (km/s) = 3.72601 4.18066 3.95987
# Velocity P-wave (km/s) = 6.24668 6.99639 6.63213
#
# Compressibility (1/GPa) = 0.02179264
#
# Stress axis : x y z
#
# Youngs Moduli (GPa) = 74.27888 57.27306 120.16286
#
# Poissons Ratio (x) = 0.34594 0.46987
# Poissons Ratio (y) = 0.44866 -0.14711
# Poissons Ratio (z) = 0.29045 -0.07012
#
# Static dielectric constant tensor:
#      x y z
#    x 1.923150 -0.020930 -0.112100 
#    y -0.020930 1.803400 -0.107260 
#    z -0.112100 -0.107260 1.646870 
# 
# From -- ./inp_files/546580.got.cif
#   From: 2010.05.17/outbox.cif.g08.bks.cpg/sg2_274_cif.got.tgz:546580.got - 2010.06.03 11:33:40.
