data_PCOD9058299
_publ_section_title
;
Structure prediction by ZEFSAII (Michael W. Deem and Ramdas Pophale) SiO2 
 PCOD9058299
Probable space group: P -1
;
_chemical_formula_sum "Si O2"
_cell_formula_units_Z 16
_cell_length_a 9.151674
_cell_length_b 12.298951
_cell_length_c 8.541661
_cell_angle_alpha 91.338879
_cell_angle_beta 79.135277
_cell_angle_gamma 129.113377
_cell_volume 726.807951
_symmetry_space_group_name_H-M "P -1"
_symmetry_group_IT_number 2
_symmetry_cell_setting 'triclinic'
loop_
_space_group_symop_operation_xyz
x,y,z
-x,-y,-z
loop_
_atom_site_type_symbol
_atom_site_label
_atom_site_fract_x
_atom_site_fract_y
_atom_site_fract_z
Si Si1 0.474993 0.185023 0.742419
Si Si2 0.264726 0.899032 0.300595
Si Si3 0.525294 0.216699 0.109963
Si Si4 0.943624 0.854851 0.556533
Si Si5 0.915333 0.273318 0.985982
Si Si6 0.402761 0.358583 0.607656
Si Si7 0.943341 0.061432 0.142053
Si Si8 0.642951 0.509720 0.096868
O O1 0.584136 0.124140 0.683041
O O2 0.535649 0.319921 0.637079
O O3 0.250259 0.070968 0.741970
O O4 0.482928 0.203646 0.930340
O O5 0.135473 0.781982 0.185842
O O6 0.122688 0.862849 0.469290
O O7 0.377550 0.059773 0.214683
O O8 0.543856 0.350396 0.167364
O O9 0.741239 0.267918 0.079021
O O10 0.765436 0.748392 0.479788
O O11 0.906212 0.841185 0.748789
O O12 0.000000 0.000000 0.500000
O O13 0.132701 0.414729 0.985943
O O14 0.892646 0.148510 0.071921
O O15 0.500000 0.500000 0.500000
O O16 0.326220 0.380076 0.780433
O O17 0.000000 0.000000 0.000000
O O18 0.500000 0.500000 0.000000
#
# Coordination Sequence:
#
# PCOD9058299 Si02
#       8
#     2   2   2   2   2   2   2   2
#     4  11  22  45  72 107 142 180 237 299 344 422
#     4  11  23  46  75 108 142 182 236 297 364 412
#     4  11  23  41  76 108 139 191 229 292 358 420
#     4  12  27  44  71 102 143 187 235 296 354 416
#     4  11  22  45  68 105 142 182 240 293 352 419
#     4  12  28  49  64 103 145 190 236 291 358 419
#     4  12  24  40  74 107 136 178 241 296 348 416
#     4  12  26  43  70 101 145 192 239 291 343 422
#
# _framework density 22.014068000000002
#
# number of rings (size 3 to 8) (size 9 to 14) (size 15 to 20)
#    0.000    0.500    6.250    2.625    3.500    0.500 
#    2.250    0.625    0.000    0.000    0.000    0.000 
#    0.000    0.000    0.000    0.000    0.000    0.000 
#
# Total GULP energy -89355.147773 kJ/mol
# GULP energy per Si atom -5584.696736 kJ/mol
# Density = 2.196396 g / cm^3
# Si number density = 22.014068 Si / 1000 Ang^3
#
#
#
# Elastic Constant Matrix: (Units=GPa)
#
#
# Indices 1 2 3 4 5 6 
#
# 1 142.4165 59.8685 48.2826 3.2387 15.6915 -6.5661
# 2 59.8685 121.7047 22.0094 4.1721 7.4221 -1.7619
# 3 48.2826 22.0094 78.1324 18.7708 11.3946 -0.7537
# 4 3.2387 4.1721 18.7708 42.6465 -2.2375 5.0139
# 5 15.6915 7.4221 11.3946 -2.2375 25.8981 -2.2038
# 6 -6.5661 -1.7619 -0.7537 5.0139 -2.2038 51.0336
#
#
#
# Elastic Compliance Matrix: (Units=1/GPa)
#
#
# Indices 1 2 3 4 5 6 
#
# 1 0.011041 -0.004293 -0.005641 0.001815 -0.002745 0.000892
# 2 -0.004293 0.010384 -0.000050 -0.000673 -0.000423 -0.000147
# 3 -0.005641 -0.000050 0.019123 -0.008296 -0.005688 0.000124
# 4 0.001815 -0.000673 -0.008296 0.027570 0.004920 -0.002408
# 5 -0.002745 -0.000423 -0.005688 0.004920 0.043405 0.000939
# 6 0.000892 -0.000147 0.000124 -0.002408 0.000939 0.019984
#
#
# Mechanical properties :
#
#
# Convention : Reuss Voigt Hill
#
# Bulk Modulus (GPa) = 48.59207 66.95272 57.77239
# Shear Modulus (GPa) = 31.57883 38.05517 34.81700
#
# Velocity S-wave (km/s) = 3.79157 4.16224 3.98122
# Velocity P-wave (km/s) = 6.42566 7.31975 6.88723
#
# Compressibility (1/GPa) = 0.02057949
#
# Stress axis : x y z
#
# Youngs Moduli (GPa) = 90.57158 96.29933 52.29425
#
# Poissons Ratio (x) = 0.41342 0.29498
# Poissons Ratio (y) = 0.38883 0.00263
# Poissons Ratio (z) = 0.51089 0.00485
#
# Static dielectric constant tensor:
#      x y z
#    x 1.726950 -0.084930 -0.186750 
#    y -0.084930 1.762510 -0.176300 
#    z -0.186750 -0.176300 2.416950 
# 
# From -- ./inp_files/187536.got.cif
#   From: 2010.05.17/outbox.cif.g08.bks.cpg/sg2_94_cif.got.tgz:187536.got - 2010.06.03 11:33:40.
