data_PCOD9058742
_publ_section_title
;
Structure prediction by ZEFSAII (Michael W. Deem and Ramdas Pophale) SiO2 
 PCOD9058742
Probable space group: P -1
;
_chemical_formula_sum "Si O2"
_cell_formula_units_Z 16
_cell_length_a 14.676485
_cell_length_b 14.637301
_cell_length_c 11.031328
_cell_angle_alpha 52.885029
_cell_angle_beta 149.552323
_cell_angle_gamma 139.631659
_cell_volume 767.453101
_symmetry_space_group_name_H-M "P -1"
_symmetry_group_IT_number 2
_symmetry_cell_setting 'triclinic'
loop_
_space_group_symop_operation_xyz
x,y,z
-x,-y,-z
loop_
_atom_site_type_symbol
_atom_site_label
_atom_site_fract_x
_atom_site_fract_y
_atom_site_fract_z
Si Si1 0.204014 0.167248 0.583189
Si Si2 0.114666 0.105216 0.250807
Si Si3 0.084565 0.824830 0.409952
Si Si4 0.449011 0.070892 0.016880
Si Si5 0.285110 0.777375 0.029231
Si Si6 0.149477 0.382762 0.483502
Si Si7 0.244922 0.860112 0.298420
Si Si8 0.587616 0.296122 0.526186
O O1 0.215212 0.177133 0.440784
O O2 0.193143 0.290447 0.522395
O O3 0.371729 0.169811 0.872543
O O4 0.000000 0.000000 0.500000
O O5 0.318085 0.188951 0.318291
O O6 0.047319 0.945371 0.296510
O O7 0.906462 0.108320 0.977276
O O8 0.328671 0.886159 0.697070
O O9 0.113045 0.806066 0.317558
O O10 0.904888 0.683141 0.392093
O O11 0.266778 0.900739 0.960382
O O12 0.503103 0.116006 0.900393
O O13 0.325824 0.704295 0.239870
O O14 0.085224 0.661475 0.807292
O O15 0.333140 0.549964 0.548701
O O16 0.292444 0.755086 0.376814
O O17 0.500000 0.000000 0.500000
#
# Coordination Sequence:
#
# PCOD9058742 Si02
#       8
#     2   2   2   2   2   2   2   2
#     4  12  21  37  69 103 131 171 220 268 338 405
#     4  12  24  45  72 102 133 166 235 280 323 405
#     4  11  23  44  68  97 134 175 232 278 316 397
#     4  10  18  35  66  98 125 168 218 272 325 382
#     4  10  17  37  62  91 133 172 207 271 333 390
#     4  11  25  39  65  99 140 178 215 272 343 401
#     4  12  27  44  75  97 124 185 232 277 331 383
#     4  12  25  45  64  99 141 176 219 280 336 392
#
# _framework density 20.848179999999999
#
# number of rings (size 3 to 8) (size 9 to 14) (size 15 to 20)
#    0.000    0.750    6.250    2.250    1.750    1.000 
#    4.500    0.625    0.000    0.000    0.000    0.000 
#    0.000    0.000    0.000    0.000    0.000    0.000 
#
# Total GULP energy -89151.672680 kJ/mol
# GULP energy per Si atom -5571.979543 kJ/mol
# Density = 2.080073 g / cm^3
# Si number density = 20.848180 Si / 1000 Ang^3
#
#
#
# Elastic Constant Matrix: (Units=GPa)
#
#
# Indices 1 2 3 4 5 6 
#
# 1 119.0138 37.7685 23.7271 -19.3324 -0.6540 8.4841
# 2 37.7685 120.4798 29.5467 -26.0290 9.2912 18.8231
# 3 23.7271 29.5467 104.5757 -20.7869 10.5690 -4.4807
# 4 -19.3324 -26.0290 -20.7869 18.5520 -1.5366 3.5876
# 5 -0.6540 9.2912 10.5690 -1.5366 25.9575 -9.2561
# 6 8.4841 18.8231 -4.4807 3.5876 -9.2561 27.9064
#
#
#
# Elastic Compliance Matrix: (Units=1/GPa)
#
#
# Indices 1 2 3 4 5 6 
#
# 1 0.010731 0.000229 -0.000206 0.012228 -0.000901 -0.005321
# 2 0.000229 0.018902 0.001186 0.031062 -0.012852 -0.020885
# 3 -0.000206 0.001186 0.012904 0.015940 -0.005665 -0.002594
# 4 0.012228 0.031062 0.015940 0.135228 -0.026515 -0.048289
# 5 -0.000901 -0.012852 -0.005665 -0.026515 0.054347 0.029468
# 6 -0.005321 -0.020885 -0.002594 -0.048289 0.029468 0.067104
#
#
# Mechanical properties :
#
#
# Convention : Reuss Voigt Hill
#
# Bulk Modulus (GPa) = 22.24429 58.46154 40.35291
# Shear Modulus (GPa) = 16.03670 31.35164 23.69417
#
# Velocity S-wave (km/s) = 2.77648 3.88210 3.37487
# Velocity P-wave (km/s) = 4.57944 6.94239 5.88082
#
# Compressibility (1/GPa) = 0.04495536
#
# Stress axis : x y z
#
# Youngs Moduli (GPa) = 93.18469 52.90310 77.49542
#
# Poissons Ratio (x) = -0.01211 0.01595
# Poissons Ratio (y) = -0.02133 -0.09189
# Poissons Ratio (z) = 0.01918 -0.06273
#
# Static dielectric constant tensor:
#      x y z
#    x 1.964520 -0.059580 0.143200 
#    y -0.059580 1.744010 -0.050390 
#    z 0.143200 -0.050390 1.906920 
# 
# From -- ./inp_files/455575.got.cif
#   From: 2010.05.17/outbox.cif.g08.bks.cpg/sg2_228_cif.got.tgz:455575.got - 2010.06.03 11:33:40.
