data_PCOD9058671
_publ_section_title
;
Structure prediction by ZEFSAII (Michael W. Deem and Ramdas Pophale) SiO2 
 PCOD9058671
Probable space group: P -1
;
_chemical_formula_sum "Si O2"
_cell_formula_units_Z 14
_cell_length_a 21.959171
_cell_length_b 14.108865
_cell_length_c 6.787834
_cell_angle_alpha 116.161891
_cell_angle_beta 72.990773
_cell_angle_gamma 159.484939
_cell_volume 611.103960
_symmetry_space_group_name_H-M "P -1"
_symmetry_group_IT_number 2
_symmetry_cell_setting 'triclinic'
loop_
_space_group_symop_operation_xyz
x,y,z
-x,-y,-z
loop_
_atom_site_type_symbol
_atom_site_label
_atom_site_fract_x
_atom_site_fract_y
_atom_site_fract_z
Si Si1 0.183689 0.362524 0.652432
Si Si2 0.847321 0.173993 0.883900
Si Si3 0.026157 0.264256 0.040810
Si Si4 0.304018 0.709906 0.534433
Si Si5 0.392447 0.299494 0.617240
Si Si6 0.526061 0.829541 0.000154
Si Si7 0.336695 0.397698 0.074378
O O1 0.224588 0.484877 0.521010
O O2 0.149718 0.400595 0.882538
O O3 0.375983 0.606160 0.762118
O O4 0.000000 0.000000 0.500000
O O5 0.914143 0.186707 0.978740
O O6 0.797169 0.045596 0.603142
O O7 0.000000 0.500000 0.000000
O O8 0.667174 0.953867 0.938740
O O9 0.150845 0.497741 0.318508
O O10 0.872816 0.938479 0.955206
O O11 0.500000 0.000000 0.500000
O O12 0.351433 0.876033 0.799010
O O13 0.500000 0.500000 0.500000
O O14 0.349995 0.330607 0.827646
O O15 0.518496 0.413677 0.722631
O O16 0.402411 0.607976 0.106348
#
# Coordination Sequence:
#
# PCOD9058671 Si02
#       7
#     2   2   2   2   2   2   2
#     4  12  30  52  80 110 154 202 256 309 379 456
#     4  12  28  44  76 111 151 196 246 315 383 441
#     4  12  28  50  74 112 152 197 256 310 379 451
#     4  12  29  51  77 107 156 200 251 315 373 455
#     4  11  22  47  67 106 156 195 240 309 380 446
#     4  12  27  49  77 113 149 201 254 311 385 445
#     4  11  25  43  76 110 144 199 256 306 376 450
#
# _framework density 22.909358000000001
#
# number of rings (size 3 to 8) (size 9 to 14) (size 15 to 20)
#    0.000    0.286    4.286    3.000   14.000    1.714 
#    0.000    0.000    0.000    0.000    0.000    0.000 
#    0.000    0.000    0.000    0.000    0.000    0.000 
#
# Total GULP energy -78436.386734 kJ/mol
# GULP energy per Si atom -5602.599052 kJ/mol
# Density = 2.285722 g / cm^3
# Si number density = 22.909358 Si / 1000 Ang^3
#
#
#
# Elastic Constant Matrix: (Units=GPa)
#
#
# Indices 1 2 3 4 5 6 
#
# 1 86.3334 33.9168 47.5579 9.2705 9.0506 -2.2212
# 2 33.9168 110.6290 36.4007 7.9293 3.3785 -14.4975
# 3 47.5579 36.4007 150.0969 24.9572 21.6254 -12.0074
# 4 9.2705 7.9293 24.9572 50.5582 2.2660 -6.8445
# 5 9.0506 3.3785 21.6254 2.2660 31.1101 7.1625
# 6 -2.2212 -14.4975 -12.0074 -6.8445 7.1625 43.4692
#
#
#
# Elastic Compliance Matrix: (Units=1/GPa)
#
#
# Indices 1 2 3 4 5 6 
#
# 1 0.015205 -0.003508 -0.003850 -0.000476 -0.001017 -0.001364
# 2 -0.003508 0.010949 -0.001295 -0.000014 0.000017 0.003110
# 3 -0.003850 -0.001295 0.009800 -0.003322 -0.005891 0.002526
# 4 -0.000476 -0.000014 -0.003322 0.021826 0.000298 0.002441
# 5 -0.001017 0.000017 -0.005891 0.000298 0.038340 -0.007944
# 6 -0.001364 0.003110 0.002526 0.002441 -0.007944 0.026363
#
#
# Mechanical properties :
#
#
# Convention : Reuss Voigt Hill
#
# Bulk Modulus (GPa) = 53.62932 64.75668 59.19300
# Shear Modulus (GPa) = 34.24552 40.30643 37.27597
#
# Velocity S-wave (km/s) = 3.87049 4.19906 4.03812
# Velocity P-wave (km/s) = 6.59048 7.19981 6.90187
#
# Compressibility (1/GPa) = 0.01864651
#
# Stress axis : x y z
#
# Youngs Moduli (GPa) = 65.76841 91.33347 102.04599
#
# Poissons Ratio (x) = 0.32042 0.39289
# Poissons Ratio (y) = 0.23073 0.13215
# Poissons Ratio (z) = 0.25322 0.11827
#
# Static dielectric constant tensor:
#      x y z
#    x 1.863820 0.059020 0.001390 
#    y 0.059020 2.038220 0.087810 
#    z 0.001390 0.087810 1.901700 
# 
# From -- ./inp_files/124353.got.cif
#   From: 2010.05.17/outbox.cif.g08.bks.cpg/sg2_63_cif.got.tgz:124353.got - 2010.06.03 11:33:40.
