data_PCOD9058438
_publ_section_title
;
Structure prediction by ZEFSAII (Michael W. Deem and Ramdas Pophale) SiO2 
 PCOD9058438
Probable space group: P -1
;
_chemical_formula_sum "Si O2"
_cell_formula_units_Z 15
_cell_length_a 5.417166
_cell_length_b 20.237777
_cell_length_c 9.166750
_cell_angle_alpha 137.599334
_cell_angle_beta 87.517242
_cell_angle_gamma 71.645003
_cell_volume 580.367838
_symmetry_space_group_name_H-M "P -1"
_symmetry_group_IT_number 2
_symmetry_cell_setting 'triclinic'
loop_
_space_group_symop_operation_xyz
x,y,z
-x,-y,-z
loop_
_atom_site_type_symbol
_atom_site_label
_atom_site_fract_x
_atom_site_fract_y
_atom_site_fract_z
Si Si1 0.111358 0.866416 0.413471
Si Si2 0.363497 0.539841 0.229076
Si Si3 0.694135 0.668165 0.027334
Si Si4 0.161945 0.239208 0.074310
Si Si5 0.415778 0.710295 0.664487
Si Si6 0.716414 0.096866 0.241157
Si Si7 0.870769 0.750821 0.437728
Si Si8 0.500000 0.000000 0.500000
O O1 0.047916 0.786678 0.388801
O O2 0.818865 0.954041 0.488566
O O3 0.383539 0.777288 0.168309
O O4 0.224916 0.922687 0.618533
O O5 0.535560 0.582414 0.392501
O O6 0.057373 0.653114 0.387342
O O7 0.500000 0.500000 0.000000
O O8 0.321586 0.444568 0.151089
O O9 0.745197 0.697790 0.238286
O O10 0.911418 0.675777 0.923795
O O11 0.359412 0.268128 0.219388
O O12 0.871743 0.257659 0.185354
O O13 0.348087 0.111161 0.798630
O O14 0.324420 0.789971 0.652721
O O15 0.384139 0.130389 0.293356
O O16 0.000000 0.000000 0.000000
#
# Coordination Sequence:
#
# PCOD9058438 Si02
#       8
#     2   2   2   2   2   2   2   1
#     4  11  23  44  73 109 143 190 267 312 376 469
#     4  12  24  48  82 110 153 203 259 331 395 456
#     4  11  25  46  74 110 149 204 263 316 384 468
#     4  12  29  48  75 111 159 205 260 318 387 472
#     4  12  28  49  72 116 157 199 263 323 387 465
#     4  11  25  44  72 105 155 199 253 322 398 458
#     4  11  22  45  73 112 140 195 262 321 376 469
#     4  12  26  50  80 106 154 210 252 314 396 460
#
# _framework density 25.845680000000002
#
# number of rings (size 3 to 8) (size 9 to 14) (size 15 to 20)
#    0.000    0.533    4.000    3.600    1.867    4.800 
#    0.000    0.000    0.000    0.000    0.000    0.000 
#    0.000    0.000    0.000    0.000    0.000    0.000 
#
# Total GULP energy -83742.114881 kJ/mol
# GULP energy per Si atom -5582.807659 kJ/mol
# Density = 2.578685 g / cm^3
# Si number density = 25.845680 Si / 1000 Ang^3
#
#
#
# Elastic Constant Matrix: (Units=GPa)
#
#
# Indices 1 2 3 4 5 6 
#
# 1 113.3477 30.0201 34.0222 -13.0602 -9.8550 9.7127
# 2 30.0201 89.7546 12.9240 -3.7400 -7.5208 8.9420
# 3 34.0222 12.9240 117.5022 -15.4086 11.0651 -1.1405
# 4 -13.0602 -3.7400 -15.4086 30.1496 0.1960 -2.6816
# 5 -9.8550 -7.5208 11.0651 0.1960 40.6896 2.2917
# 6 9.7127 8.9420 -1.1405 -2.6816 2.2917 55.1553
#
#
#
# Elastic Compliance Matrix: (Units=1/GPa)
#
#
# Indices 1 2 3 4 5 6 
#
# 1 0.011142 -0.002789 -0.002844 0.002869 0.003030 -0.001555
# 2 -0.002789 0.012507 -0.000797 -0.000223 0.001947 -0.001645
# 3 -0.002844 -0.000797 0.010318 0.004074 -0.003729 0.001196
# 4 0.002869 -0.000223 0.004074 0.036596 -0.000710 0.001424
# 5 0.003030 0.001947 -0.003729 -0.000710 0.026804 -0.002075
# 6 -0.001555 -0.001645 0.001196 0.001424 -0.002075 0.018851
#
#
# Mechanical properties :
#
#
# Convention : Reuss Voigt Hill
#
# Bulk Modulus (GPa) = 47.37296 52.72636 50.04966
# Shear Modulus (GPa) = 36.73425 41.44145 39.08785
#
# Velocity S-wave (km/s) = 3.77409 4.00862 3.89312
# Velocity P-wave (km/s) = 6.11234 6.47071 6.29407
#
# Compressibility (1/GPa) = 0.02110909
#
# Stress axis : x y z
#
# Youngs Moduli (GPa) = 89.75195 79.95761 96.91467
#
# Poissons Ratio (x) = 0.22298 0.27558
# Poissons Ratio (y) = 0.25030 0.07720
# Poissons Ratio (z) = 0.25521 0.06369
#
# Static dielectric constant tensor:
#      x y z
#    x 1.749090 -0.308760 0.202980 
#    y -0.308760 1.760850 0.092310 
#    z 0.202980 0.092310 2.028600 
# 
# From -- ./inp_files/141719.got.cif
#   From: 2010.05.17/outbox.cif.g08.bks.cpg/sg2_71_cif.got.tgz:141719.got - 2010.06.03 11:33:40.
