data_PCOD9058851
_publ_section_title
;
Structure prediction by ZEFSAII (Michael W. Deem and Ramdas Pophale) SiO2 
 PCOD9058851
Probable space group: P -1
;
_chemical_formula_sum "Si O2"
_cell_formula_units_Z 14
_cell_length_a 9.494776
_cell_length_b 8.807119
_cell_length_c 13.555733
_cell_angle_alpha 46.814985
_cell_angle_beta 124.497906
_cell_angle_gamma 134.272100
_cell_volume 583.226680
_symmetry_space_group_name_H-M "P -1"
_symmetry_group_IT_number 2
_symmetry_cell_setting 'triclinic'
loop_
_space_group_symop_operation_xyz
x,y,z
-x,-y,-z
loop_
_atom_site_type_symbol
_atom_site_label
_atom_site_fract_x
_atom_site_fract_y
_atom_site_fract_z
Si Si1 0.511374 0.277938 0.658748
Si Si2 0.403317 0.787540 0.940717
Si Si3 0.183010 0.897699 0.951133
Si Si4 0.858168 0.713550 0.576022
Si Si5 0.667276 0.230840 0.524006
Si Si6 0.088060 0.435662 0.831763
Si Si7 0.921052 0.749150 0.297722
O O1 0.695117 0.518912 0.674992
O O2 0.320718 0.304779 0.556046
O O3 0.591414 0.232295 0.605113
O O4 0.450462 0.043954 0.801460
O O5 0.300415 0.595789 0.898281
O O6 0.240804 0.732290 0.984402
O O7 0.611416 0.859867 0.040262
O O8 0.080170 0.005551 0.793004
O O9 0.059443 0.748822 0.062668
O O10 0.005955 0.605461 0.678392
O O11 0.000000 0.000000 0.500000
O O12 0.749380 0.495873 0.389310
O O13 0.864571 0.211469 0.608209
O O14 0.500000 0.000000 0.500000
O O15 0.095515 0.287074 0.809820
#
# Coordination Sequence:
#
# PCOD9058851 Si02
#       7
#     2   2   2   2   2   2   2
#     4  11  23  40  65  95 131 166 212 273 324 377
#     4  11  24  42  67  94 129 169 226 269 319 384
#     4  11  26  43  64  94 131 173 219 273 318 386
#     4  11  23  37  70  96 123 169 215 265 330 379
#     4  11  25  42  66  97 130 168 216 266 328 391
#     4  12  23  44  65  95 131 174 217 268 322 391
#     4  11  26  43  67  93 136 171 217 267 325 392
#
# _framework density 24.004387999999999
#
# number of rings (size 3 to 8) (size 9 to 14) (size 15 to 20)
#    0.000    0.857    4.286    1.714    4.000    2.857 
#    0.000    0.000    0.000    0.000    0.000    0.000 
#    0.000    0.000    0.000    0.000    0.000    0.000 
#
# Total GULP energy -78107.943658 kJ/mol
# GULP energy per Si atom -5579.138833 kJ/mol
# Density = 2.394975 g / cm^3
# Si number density = 24.004388 Si / 1000 Ang^3
#
#
#
# Elastic Constant Matrix: (Units=GPa)
#
#
# Indices 1 2 3 4 5 6 
#
# 1 59.2421 21.2287 38.3114 -14.6595 -16.1846 9.1181
# 2 21.2287 127.5370 -2.8638 2.6458 -6.1079 26.8199
# 3 38.3114 -2.8638 92.9697 -19.5324 -6.3123 -2.7051
# 4 -14.6595 2.6458 -19.5324 31.9915 2.3770 2.6397
# 5 -16.1846 -6.1079 -6.3123 2.3770 51.2002 -1.8148
# 6 9.1181 26.8199 -2.7051 2.6397 -1.8148 17.4050
#
#
#
# Elastic Compliance Matrix: (Units=1/GPa)
#
#
# Indices 1 2 3 4 5 6 
#
# 1 0.031286 -0.002016 -0.011135 0.008441 0.007334 -0.015530
# 2 -0.002016 0.011765 0.000699 -0.000093 0.000257 -0.016924
# 3 -0.011135 0.000699 0.016388 0.004413 -0.001391 0.006490
# 4 0.008441 -0.000093 0.004413 0.038517 0.001083 -0.009322
# 5 0.007334 0.000257 -0.001391 0.001083 0.021574 -0.002369
# 6 -0.015530 -0.016924 0.006490 -0.009322 -0.002369 0.093845
#
#
# Mechanical properties :
#
#
# Convention : Reuss Voigt Hill
#
# Bulk Modulus (GPa) = 28.95646 43.67792 36.31719
# Shear Modulus (GPa) = 20.01676 34.99085 27.50380
#
# Velocity S-wave (km/s) = 2.89083 3.82211 3.38861
# Velocity P-wave (km/s) = 4.81993 6.14112 5.52019
#
# Compressibility (1/GPa) = 0.03453461
#
# Stress axis : x y z
#
# Youngs Moduli (GPa) = 31.96362 84.99596 61.02073
#
# Poissons Ratio (x) = 0.17132 0.67946
# Poissons Ratio (y) = 0.06443 -0.04262
# Poissons Ratio (z) = 0.35591 -0.05937
#
# Static dielectric constant tensor:
#      x y z
#    x 1.957650 -0.007040 -0.007190 
#    y -0.007040 1.951210 0.020250 
#    z -0.007190 0.020250 1.979230 
# 
# From -- ./inp_files/446574.got.cif
#   From: 2010.05.17/outbox.cif.g08.bks.cpg/sg2_224_cif.got.tgz:446574.got - 2010.06.03 11:33:40.
