data_PCOD9058046
_publ_section_title
;
Structure prediction by ZEFSAII (Michael W. Deem and Ramdas Pophale) SiO2 
 PCOD9058046
Probable space group: P -1
;
_chemical_formula_sum "Si O2"
_cell_formula_units_Z 14
_cell_length_a 9.561153
_cell_length_b 14.809119
_cell_length_c 8.823633
_cell_angle_alpha 117.732664
_cell_angle_beta 133.016326
_cell_angle_gamma 95.334594
_cell_volume 625.144279
_symmetry_space_group_name_H-M "P -1"
_symmetry_group_IT_number 2
_symmetry_cell_setting 'triclinic'
loop_
_space_group_symop_operation_xyz
x,y,z
-x,-y,-z
loop_
_atom_site_type_symbol
_atom_site_label
_atom_site_fract_x
_atom_site_fract_y
_atom_site_fract_z
Si Si1 0.568836 0.087163 0.967868
Si Si2 0.257277 0.645245 0.818525
Si Si3 0.079869 0.849440 0.274709
Si Si4 0.839491 0.046097 0.900445
Si Si5 0.719252 0.448182 0.730823
Si Si6 0.576962 0.624715 0.851575
Si Si7 0.643274 0.238491 0.687860
O O1 0.302944 0.994910 0.613077
O O2 0.776982 0.091530 0.036501
O O3 0.676509 0.238726 0.157856
O O4 0.500000 0.000000 0.000000
O O5 0.464443 0.630016 0.926341
O O6 0.000000 0.500000 0.500000
O O7 0.259150 0.690881 0.024407
O O8 0.173378 0.764471 0.284910
O O9 0.048294 0.853237 0.075312
O O10 0.821158 0.772158 0.105923
O O11 0.571306 0.913192 0.552284
O O12 0.000000 0.000000 0.000000
O O13 0.660335 0.535215 0.837112
O O14 0.629345 0.430965 0.477561
O O15 0.557175 0.305705 0.580108
O O16 0.000000 0.500000 0.000000
#
# Coordination Sequence:
#
# PCOD9058046 Si02
#       7
#     2   2   2   2   2   2   2
#     4  11  26  45  71 105 146 188 235 309 365 413
#     4  12  27  45  69 104 148 186 234 300 364 430
#     4  11  22  46  72  99 139 189 246 289 357 436
#     4  11  23  42  71 102 136 189 239 291 358 437
#     4  11  23  44  69 102 142 184 239 292 351 438
#     4  11  27  42  74 107 137 191 241 292 363 433
#     4  11  22  44  69  96 141 187 229 293 360 418
#
# _framework density 22.394831
#
# number of rings (size 3 to 8) (size 9 to 14) (size 15 to 20)
#    0.000    0.857    4.286    2.571    8.000    4.571 
#    0.000    0.000    0.000    0.000    0.000    0.000 
#    0.000    0.000    0.000    0.000    0.000    0.000 
#
# Total GULP energy -78174.339750 kJ/mol
# GULP energy per Si atom -5583.881411 kJ/mol
# Density = 2.234386 g / cm^3
# Si number density = 22.394831 Si / 1000 Ang^3
#
#
#
# Elastic Constant Matrix: (Units=GPa)
#
#
# Indices 1 2 3 4 5 6 
#
# 1 97.8929 12.6123 36.8633 16.9332 24.0665 -5.5555
# 2 12.6123 118.1183 15.7057 13.7868 4.5855 -8.1460
# 3 36.8633 15.7057 58.7196 11.1050 14.2542 -15.0354
# 4 16.9332 13.7868 11.1050 33.0878 -2.8548 -1.8588
# 5 24.0665 4.5855 14.2542 -2.8548 33.9446 -0.0226
# 6 -5.5555 -8.1460 -15.0354 -1.8588 -0.0226 37.4736
#
#
#
# Elastic Compliance Matrix: (Units=1/GPa)
#
#
# Indices 1 2 3 4 5 6 
#
# 1 0.016191 0.000308 -0.006856 -0.006945 -0.009226 -0.000634
# 2 0.000308 0.009164 -0.001346 -0.003553 -0.001189 0.001321
# 3 -0.006856 -0.001346 0.026522 -0.004882 -0.006499 0.009086
# 4 -0.006945 -0.003553 -0.004882 0.037706 0.010624 -0.001884
# 5 -0.009226 -0.001189 -0.006499 0.010624 0.039782 -0.003683
# 6 -0.000634 0.001321 0.009086 -0.001884 -0.003683 0.030429
#
#
# Mechanical properties :
#
#
# Convention : Reuss Voigt Hill
#
# Bulk Modulus (GPa) = 27.70912 45.01040 36.35976
# Shear Modulus (GPa) = 26.65096 34.87117 30.76106
#
# Velocity S-wave (km/s) = 3.45345 3.95030 3.71020
# Velocity P-wave (km/s) = 5.31993 6.39912 5.88432
#
# Compressibility (1/GPa) = 0.03608920
#
# Stress axis : x y z
#
# Youngs Moduli (GPa) = 61.76309 109.12183 37.70523
#
# Poissons Ratio (x) = -0.03360 0.25850
# Poissons Ratio (y) = -0.01902 0.05074
# Poissons Ratio (z) = 0.42344 0.14684
#
# Static dielectric constant tensor:
#      x y z
#    x 1.961020 0.006140 0.111610 
#    y 0.006140 1.883210 -0.002230 
#    z 0.111610 -0.002230 1.946830 
# 
# From -- ./inp_files/203886.got.cif
#   From: 2010.05.17/outbox.cif.g08.bks.cpg/sg2_102_cif.got.tgz:203886.got - 2010.06.03 11:33:40.
