data_PCOD9058750
_publ_section_title
;
Structure prediction by ZEFSAII (Michael W. Deem and Ramdas Pophale) SiO2 
 PCOD9058750
Probable space group: P -1
;
_chemical_formula_sum "Si O2"
_cell_formula_units_Z 14
_cell_length_a 9.698869
_cell_length_b 9.493647
_cell_length_c 18.004473
_cell_angle_alpha 63.368821
_cell_angle_beta 152.569541
_cell_angle_gamma 123.697604
_cell_volume 631.149087
_symmetry_space_group_name_H-M "P -1"
_symmetry_group_IT_number 2
_symmetry_cell_setting 'triclinic'
loop_
_space_group_symop_operation_xyz
x,y,z
-x,-y,-z
loop_
_atom_site_type_symbol
_atom_site_label
_atom_site_fract_x
_atom_site_fract_y
_atom_site_fract_z
Si Si1 0.295114 0.836267 0.391211
Si Si2 0.148020 0.765364 0.742304
Si Si3 0.444243 0.195258 0.622485
Si Si4 0.774898 0.055035 0.934611
Si Si5 0.646642 0.586814 0.659722
Si Si6 0.236376 0.401929 0.124144
Si Si7 0.329285 0.473618 0.843464
O O1 0.380665 0.881214 0.335766
O O2 0.447162 0.695290 0.511162
O O3 0.912703 0.721823 0.241581
O O4 0.500000 0.000000 0.500000
O O5 0.142183 0.603243 0.730197
O O6 0.921485 0.846900 0.571004
O O7 0.001229 0.700397 0.768862
O O8 0.515923 0.895487 0.889972
O O9 0.553300 0.137940 0.764653
O O10 0.580200 0.400721 0.639723
O O11 0.021243 0.201979 0.067469
O O12 0.000000 0.000000 0.000000
O O13 0.566109 0.562524 0.713931
O O14 0.424641 0.459420 0.123388
O O15 0.000000 0.500000 0.000000
O O16 0.500000 0.500000 0.000000
#
# Coordination Sequence:
#
# PCOD9058750 Si02
#       7
#     2   2   2   2   2   2   2
#     4  11  25  42  73 108 140 184 245 306 349 422
#     4  11  23  44  73  99 133 202 237 284 362 432
#     4  11  22  48  71  96 146 191 238 287 365 431
#     4  12  26  42  69 107 141 186 245 298 351 429
#     4  11  23  46  71  97 143 187 238 290 358 434
#     4  12  26  43  67 104 145 184 235 302 357 422
#     4  12  24  44  75 104 143 194 239 289 370 433
#
# _framework density 22.181764999999999
#
# number of rings (size 3 to 8) (size 9 to 14) (size 15 to 20)
#    0.000    0.571    5.714    3.000    2.000    3.429 
#    2.571    0.000    0.000    0.000    0.000    0.000 
#    0.000    0.000    0.000    0.000    0.000    0.000 
#
# Total GULP energy -78126.503433 kJ/mol
# GULP energy per Si atom -5580.464531 kJ/mol
# Density = 2.213128 g / cm^3
# Si number density = 22.181765 Si / 1000 Ang^3
#
#
#
# Elastic Constant Matrix: (Units=GPa)
#
#
# Indices 1 2 3 4 5 6 
#
# 1 129.7850 27.9154 37.5545 18.6112 2.1534 1.4115
# 2 27.9154 110.1815 33.2762 33.3462 7.2967 -12.7717
# 3 37.5545 33.2762 58.5545 18.5383 7.5597 12.7735
# 4 18.6112 33.3462 18.5383 59.1576 4.8647 -3.5892
# 5 2.1534 7.2967 7.5597 4.8647 42.1121 9.0099
# 6 1.4115 -12.7717 12.7735 -3.5892 9.0099 24.5561
#
#
#
# Elastic Compliance Matrix: (Units=1/GPa)
#
#
# Indices 1 2 3 4 5 6 
#
# 1 0.009691 0.000123 -0.006630 -0.000889 0.000186 0.002758
# 2 0.000123 0.015118 -0.009803 -0.004402 -0.003246 0.013503
# 3 -0.006630 -0.009803 0.033108 -0.004293 0.001539 -0.023132
# 4 -0.000889 -0.004402 -0.004293 0.021376 -0.001690 0.003740
# 5 0.000186 -0.003246 0.001539 -0.001690 0.026919 -0.012624
# 6 0.002758 0.013503 -0.023132 0.003740 -0.012624 0.064798
#
#
# Mechanical properties :
#
#
# Convention : Reuss Voigt Hill
#
# Bulk Modulus (GPa) = 39.52928 55.11258 47.32093
# Shear Modulus (GPa) = 23.57787 38.48350 31.03068
#
# Velocity S-wave (km/s) = 3.26381 4.16975 3.74428
# Velocity P-wave (km/s) = 5.66238 6.93414 6.33028
#
# Compressibility (1/GPa) = 0.02529770
#
# Stress axis : x y z
#
# Youngs Moduli (GPa) = 103.18512 66.14677 30.20411
#
# Poissons Ratio (x) = -0.00815 0.20025
# Poissons Ratio (y) = -0.01272 0.29610
# Poissons Ratio (z) = 0.68410 0.64845
#
# Static dielectric constant tensor:
#      x y z
#    x 2.504130 -0.054280 -0.380140 
#    y -0.054280 1.848370 0.048550 
#    z -0.380140 0.048550 2.108340 
# 
# From -- ./inp_files/156750.got.cif
#   From: 2010.05.17/outbox.cif.g08.bks.cpg/sg2_79_cif.got.tgz:156750.got - 2010.06.03 11:33:40.
