data_PCOD9058654
_publ_section_title
;
Structure prediction by ZEFSAII (Michael W. Deem and Ramdas Pophale) SiO2 
 PCOD9058654
Probable space group: P -1
;
_chemical_formula_sum "Si O2"
_cell_formula_units_Z 16
_cell_length_a 14.288622
_cell_length_b 11.233003
_cell_length_c 9.421983
_cell_angle_alpha 136.926223
_cell_angle_beta 68.028560
_cell_angle_gamma 137.496075
_cell_volume 652.009572
_symmetry_space_group_name_H-M "P -1"
_symmetry_group_IT_number 2
_symmetry_cell_setting 'triclinic'
loop_
_space_group_symop_operation_xyz
x,y,z
-x,-y,-z
loop_
_atom_site_type_symbol
_atom_site_label
_atom_site_fract_x
_atom_site_fract_y
_atom_site_fract_z
Si Si1 0.073074 0.896272 0.139351
Si Si2 0.893075 0.273576 0.476179
Si Si3 0.197288 0.888205 0.319328
Si Si4 0.839269 0.612787 0.541309
Si Si5 0.719657 0.910353 0.037168
Si Si6 0.375113 0.459250 0.822084
Si Si7 0.333436 0.760398 0.937686
Si Si8 0.213230 0.358798 0.100357
O O1 0.069670 0.809061 0.221614
O O2 0.162496 0.193394 0.351201
O O3 0.922508 0.746454 0.010188
O O4 0.180123 0.909991 0.995867
O O5 0.861281 0.292999 0.669678
O O6 0.000000 0.500000 0.500000
O O7 0.988259 0.219823 0.406421
O O8 0.740244 0.057542 0.289969
O O9 0.291819 0.175009 0.574596
O O10 0.287571 0.863561 0.153254
O O11 0.760888 0.388404 0.280103
O O12 0.773173 0.509247 0.648732
O O13 0.551383 0.660559 0.877642
O O14 0.806267 0.848171 0.987199
O O15 0.325099 0.565677 0.855810
O O16 0.342225 0.472774 0.015805
O O17 0.500000 0.000000 0.000000
#
# Coordination Sequence:
#
# PCOD9058654 Si02
#       8
#     2   2   2   2   2   2   2   2
#     4  11  22  46  79 113 147 203 266 321 385 471
#     4  12  28  47  75 116 159 204 264 333 394 465
#     4  12  29  50  80 115 159 208 265 325 398 469
#     4  11  24  47  75 108 154 203 260 323 386 462
#     4  11  23  46  74 114 151 207 263 314 395 468
#     4  12  27  49  79 113 162 209 262 326 393 473
#     4  12  31  49  72 119 159 210 261 319 401 475
#     4  11  23  45  81 113 146 207 269 318 390 465
#
# _framework density 24.539517
#
# number of rings (size 3 to 8) (size 9 to 14) (size 15 to 20)
#    0.000    0.500    5.000    1.875   10.500    2.500 
#    0.000    1.250    0.000    0.000    0.000    0.000 
#    0.000    0.000    0.000    0.000    0.000    0.000 
#
# Total GULP energy -89406.631834 kJ/mol
# GULP energy per Si atom -5587.914490 kJ/mol
# Density = 2.448366 g / cm^3
# Si number density = 24.539517 Si / 1000 Ang^3
#
#
#
# Elastic Constant Matrix: (Units=GPa)
#
#
# Indices 1 2 3 4 5 6 
#
# 1 98.7830 34.6297 64.7523 4.6241 -5.6085 -8.8418
# 2 34.6297 99.0108 52.7496 -23.0114 2.3911 -6.5342
# 3 64.7523 52.7496 135.6558 -21.0082 -6.3254 -7.1603
# 4 4.6241 -23.0114 -21.0082 42.5160 -0.2107 -0.5594
# 5 -5.6085 2.3911 -6.3254 -0.2107 45.8781 -0.9775
# 6 -8.8418 -6.5342 -7.1603 -0.5594 -0.9775 43.3988
#
#
#
# Elastic Compliance Matrix: (Units=1/GPa)
#
#
# Indices 1 2 3 4 5 6 
#
# 1 0.017022 -0.003477 -0.007805 -0.007563 0.001185 0.001586
# 2 -0.003477 0.014591 -0.002976 0.006811 -0.001542 0.001051
# 3 -0.007805 -0.002976 0.013210 0.005774 0.001054 0.000240
# 4 -0.007563 0.006811 0.005774 0.030892 -0.000324 0.000828
# 5 0.001185 -0.001542 0.001054 -0.000324 0.022180 0.000679
# 6 0.001586 0.001051 0.000240 0.000828 0.000679 0.023589
#
#
# Mechanical properties :
#
#
# Convention : Reuss Voigt Hill
#
# Bulk Modulus (GPa) = 61.32203 70.85698 66.08950
# Shear Modulus (GPa) = 32.16764 38.44643 35.30704
#
# Velocity S-wave (km/s) = 3.62449 3.96247 3.79724
# Velocity P-wave (km/s) = 6.52375 7.06203 6.79822
#
# Compressibility (1/GPa) = 0.01630735
#
# Stress axis : x y z
#
# Youngs Moduli (GPa) = 58.74872 68.53590 75.69797
#
# Poissons Ratio (x) = 0.23829 0.59084
# Poissons Ratio (y) = 0.20426 0.22526
# Poissons Ratio (z) = 0.45855 0.20394
#
# Static dielectric constant tensor:
#      x y z
#    x 1.962970 -0.048710 -0.061770 
#    y -0.048710 1.960370 -0.038140 
#    z -0.061770 -0.038140 2.133470 
# 
# From -- ./inp_files/308524.got.cif
#   From: 2010.05.17/outbox.cif.g08.bks.cpg/sg2_155_cif.got.tgz:308524.got - 2010.06.03 11:33:40.
