data_PCOD9058100
_publ_section_title
;
Structure prediction by ZEFSAII (Michael W. Deem and Ramdas Pophale) SiO2 
 PCOD9058100
Probable space group: P -1
;
_chemical_formula_sum "Si O2"
_cell_formula_units_Z 16
_cell_length_a 6.260227
_cell_length_b 18.357894
_cell_length_c 8.400491
_cell_angle_alpha 61.993915
_cell_angle_beta 81.028648
_cell_angle_gamma 53.725525
_cell_volume 677.024667
_symmetry_space_group_name_H-M "P -1"
_symmetry_group_IT_number 2
_symmetry_cell_setting 'triclinic'
loop_
_space_group_symop_operation_xyz
x,y,z
-x,-y,-z
loop_
_atom_site_type_symbol
_atom_site_label
_atom_site_fract_x
_atom_site_fract_y
_atom_site_fract_z
Si Si1 0.186182 0.090382 0.459603
Si Si2 0.535161 0.430096 0.256313
Si Si3 0.136735 0.287357 0.368106
Si Si4 0.996895 0.187398 0.044230
Si Si5 0.976213 0.625696 0.152110
Si Si6 0.417063 0.347799 0.062898
Si Si7 0.592085 0.703962 0.389862
Si Si8 0.977700 0.094569 0.829355
O O1 0.121629 0.199300 0.397505
O O2 0.070916 0.113484 0.266304
O O3 0.087737 0.069626 0.658518
O O4 0.500000 0.000000 0.500000
O O5 0.481970 0.410576 0.102634
O O6 0.505963 0.353994 0.443651
O O7 0.838592 0.392401 0.278080
O O8 0.292446 0.542994 0.222470
O O9 0.370871 0.281826 0.254489
O O10 0.235701 0.271242 0.551388
O O11 0.672310 0.270116 0.003700
O O12 0.089660 0.129719 0.922114
O O13 0.092800 0.261393 0.979334
O O14 0.805256 0.629269 0.311919
O O15 0.863804 0.593650 0.056890
O O16 0.330770 0.808484 0.250404
O O17 0.000000 0.000000 0.000000
#
# Coordination Sequence:
#
# PCOD9058100 Si02
#       8
#     2   2   2   2   2   2   2   2
#     4  12  27  48  77 110 147 192 248 309 380 438
#     4  11  24  45  70 109 145 197 247 298 370 441
#     4  11  23  46  69 100 150 190 240 309 367 436
#     4  12  27  50  77 109 152 194 250 310 369 447
#     4  12  25  42  75 106 146 196 246 300 370 442
#     4  11  22  44  71 101 148 187 242 300 364 426
#     4  11  25  46  70 102 151 190 246 310 366 433
#     4  12  29  51  77 111 148 194 252 311 372 449
#
# _framework density 23.632816999999999
#
# number of rings (size 3 to 8) (size 9 to 14) (size 15 to 20)
#    0.000    0.500    5.000    2.250    5.250    5.500 
#    0.000    0.000    0.000    0.000    0.000    0.000 
#    0.000    0.000    0.000    0.000    0.000    0.000 
#
# Total GULP energy -89370.023571 kJ/mol
# GULP energy per Si atom -5585.626473 kJ/mol
# Density = 2.357903 g / cm^3
# Si number density = 23.632817 Si / 1000 Ang^3
#
#
#
# Elastic Constant Matrix: (Units=GPa)
#
#
# Indices 1 2 3 4 5 6 
#
# 1 75.3618 20.2521 43.9075 7.9410 0.6113 -4.6551
# 2 20.2521 95.9194 47.2064 -0.6607 2.9436 -19.7404
# 3 43.9075 47.2064 102.7783 0.8344 9.3959 3.6708
# 4 7.9410 -0.6607 0.8344 37.7294 -0.7295 0.2148
# 5 0.6113 2.9436 9.3959 -0.7295 46.1925 4.2679
# 6 -4.6551 -19.7404 3.6708 0.2148 4.2679 40.4269
#
#
#
# Elastic Compliance Matrix: (Units=1/GPa)
#
#
# Indices 1 2 3 4 5 6 
#
# 1 0.018584 0.000885 -0.008530 -0.003705 0.001074 0.003253
# 2 0.000885 0.015963 -0.008003 0.000217 -0.000196 0.008643
# 3 -0.008530 -0.008003 0.017475 0.001259 -0.002336 -0.006237
# 4 -0.003705 0.000217 0.001259 0.027269 0.000266 -0.000608
# 5 0.001074 -0.000196 -0.002336 0.000266 0.022322 -0.002118
# 6 0.003253 0.008643 -0.006237 -0.000608 -0.002118 0.030124
#
#
# Mechanical properties :
#
#
# Convention : Reuss Voigt Hill
#
# Bulk Modulus (GPa) = 48.24448 55.19906 51.72177
# Shear Modulus (GPa) = 29.42190 35.71599 32.56895
#
# Velocity S-wave (km/s) = 3.53223 3.89175 3.71634
# Velocity P-wave (km/s) = 6.09048 6.60317 6.35200
#
# Compressibility (1/GPa) = 0.02072776
#
# Stress axis : x y z
#
# Youngs Moduli (GPa) = 53.81021 62.64387 57.22305
#
# Poissons Ratio (x) = -0.05546 0.48811
# Poissons Ratio (y) = -0.04764 0.45794
# Poissons Ratio (z) = 0.45900 0.50132
#
# Static dielectric constant tensor:
#      x y z
#    x 1.890300 0.052690 0.044100 
#    y 0.052690 1.880550 0.066710 
#    z 0.044100 0.066710 2.037320 
# 
# From -- ./inp_files/141260.got.cif
#   From: 2010.05.17/outbox.cif.g08.bks.cpg/sg2_71_cif.got.tgz:141260.got - 2010.06.03 11:33:40.
