data_PCOD9058201
_publ_section_title
;
Structure prediction by ZEFSAII (Michael W. Deem and Ramdas Pophale) SiO2 
 PCOD9058201
Probable space group: P -1
;
_chemical_formula_sum "Si O2"
_cell_formula_units_Z 14
_cell_length_a 20.071819
_cell_length_b 16.695801
_cell_length_c 8.718833
_cell_angle_alpha 132.775643
_cell_angle_beta 143.971060
_cell_angle_gamma 22.010121
_cell_volume 610.102312
_symmetry_space_group_name_H-M "P -1"
_symmetry_group_IT_number 2
_symmetry_cell_setting 'triclinic'
loop_
_space_group_symop_operation_xyz
x,y,z
-x,-y,-z
loop_
_atom_site_type_symbol
_atom_site_label
_atom_site_fract_x
_atom_site_fract_y
_atom_site_fract_z
Si Si1 0.127617 0.057577 0.286180
Si Si2 0.954461 0.329297 0.905773
Si Si3 0.437215 0.324629 0.601131
Si Si4 0.683715 0.167911 0.134463
Si Si5 0.754106 0.227070 0.624732
Si Si6 0.262490 0.268788 0.400404
Si Si7 0.208813 0.485260 0.810280
O O1 0.975260 0.291459 0.346890
O O2 0.350732 0.901521 0.398549
O O3 0.220932 0.903802 0.397423
O O4 0.946299 0.141261 0.952266
O O5 0.745161 0.471082 0.589831
O O6 0.861963 0.429179 0.035777
O O7 0.153114 0.070225 0.920598
O O8 0.063814 0.352701 0.087846
O O9 0.316364 0.328148 0.473303
O O10 0.550777 0.312585 0.918891
O O11 0.808079 0.151055 0.450999
O O12 0.470548 0.305568 0.025646
O O13 0.500000 0.500000 0.500000
O O14 0.203689 0.366246 0.585948
O O15 0.500000 0.000000 0.500000
#
# Coordination Sequence:
#
# PCOD9058201 Si02
#       7
#     2   2   2   2   2   2   2
#     4  11  24  46  70 106 138 178 237 284 351 419
#     4  12  24  45  71 102 143 188 231 282 341 411
#     4  11  25  42  68 102 142 181 231 283 345 407
#     4  11  24  44  70 100 143 179 234 286 342 406
#     4  11  25  44  75 101 137 184 230 288 354 413
#     4  11  22  45  71 100 143 182 233 283 339 407
#     4  11  22  44  73  98 145 180 226 291 340 401
#
# _framework density 22.94697
#
# number of rings (size 3 to 8) (size 9 to 14) (size 15 to 20)
#    0.000    0.857    5.714    1.714    4.000    0.571 
#    0.000    2.857    0.000    0.000    0.000    0.000 
#    0.000    0.000    0.000    0.000    0.000    0.000 
#
# Total GULP energy -78268.808606 kJ/mol
# GULP energy per Si atom -5590.629186 kJ/mol
# Density = 2.289474 g / cm^3
# Si number density = 22.946970 Si / 1000 Ang^3
#
#
#
# Elastic Constant Matrix: (Units=GPa)
#
#
# Indices 1 2 3 4 5 6 
#
# 1 87.1754 61.5552 19.7533 -7.1421 -14.6506 -9.4152
# 2 61.5552 152.5494 58.4987 -2.6717 -24.9941 -22.8646
# 3 19.7533 58.4987 112.4040 -6.7465 -39.3849 5.5307
# 4 -7.1421 -2.6717 -6.7465 42.4713 0.2916 0.6836
# 5 -14.6506 -24.9941 -39.3849 0.2916 27.0724 -7.4272
# 6 -9.4152 -22.8646 5.5307 0.6836 -7.4272 34.7136
#
#
#
# Elastic Compliance Matrix: (Units=1/GPa)
#
#
# Indices 1 2 3 4 5 6 
#
# 1 0.017213 -0.006581 0.003626 0.002969 0.008922 0.001607
# 2 -0.006581 0.012837 -0.004692 -0.001203 0.003737 0.008241
# 3 0.003626 -0.004692 0.020567 0.003384 0.027641 0.000463
# 4 0.002969 -0.001203 0.003384 0.024469 0.005184 0.000101
# 5 0.008922 0.003737 0.027641 0.005184 0.090806 0.019804
# 6 0.001607 0.008241 0.000463 0.000101 0.019804 0.038832
#
#
# Mechanical properties :
#
#
# Convention : Reuss Voigt Hill
#
# Bulk Modulus (GPa) = 28.31215 70.19368 49.25292
# Shear Modulus (GPa) = 21.57092 35.00625 28.28859
#
# Velocity S-wave (km/s) = 3.06932 3.91004 3.51491
# Velocity P-wave (km/s) = 4.99258 7.14426 6.16305
#
# Compressibility (1/GPa) = 0.03532052
#
# Stress axis : x y z
#
# Youngs Moduli (GPa) = 58.09587 77.90211 48.62200
#
# Poissons Ratio (x) = 0.51270 -0.17629
# Poissons Ratio (y) = 0.38234 0.22815
# Poissons Ratio (z) = -0.21063 0.36554
#
# Static dielectric constant tensor:
#      x y z
#    x 1.904610 -0.004370 0.017200 
#    y -0.004370 1.832300 0.013530 
#    z 0.017200 0.013530 1.923370 
# 
# From -- ./inp_files/348618.got.cif
#   From: 2010.05.17/outbox.cif.g08.bks.cpg/sg2_175_cif.got.tgz:348618.got - 2010.06.03 11:33:40.
