data_PCOD9058794
_publ_section_title
;
Structure prediction by ZEFSAII (Michael W. Deem and Ramdas Pophale) SiO2 
 PCOD9058794
Probable space group: P -1
;
_chemical_formula_sum "Si O2"
_cell_formula_units_Z 16
_cell_length_a 7.943579
_cell_length_b 16.141322
_cell_length_c 17.008016
_cell_angle_alpha 25.817512
_cell_angle_beta 89.272568
_cell_angle_gamma 104.786086
_cell_volume 750.824972
_symmetry_space_group_name_H-M "P -1"
_symmetry_group_IT_number 2
_symmetry_cell_setting 'triclinic'
loop_
_space_group_symop_operation_xyz
x,y,z
-x,-y,-z
loop_
_atom_site_type_symbol
_atom_site_label
_atom_site_fract_x
_atom_site_fract_y
_atom_site_fract_z
Si Si1 0.851850 0.178337 0.004241
Si Si2 0.789729 0.078296 0.777833
Si Si3 0.400499 0.618389 0.125146
Si Si4 0.543890 0.289974 0.553688
Si Si5 0.043853 0.858296 0.451068
Si Si6 0.944089 0.742719 0.225637
Si Si7 0.369784 0.391819 0.013665
Si Si8 0.737976 0.393114 0.295722
O O1 0.700046 0.893078 0.261879
O O2 0.725549 0.271758 0.958259
O O3 0.923086 0.261610 0.842857
O O4 0.070713 0.329129 0.921149
O O5 0.655209 0.175461 0.682955
O O6 0.906307 0.118672 0.661278
O O7 0.958262 0.240438 0.705626
O O8 0.606677 0.787443 0.036826
O O9 0.502064 0.653601 0.009508
O O10 0.210655 0.335684 0.375517
O O11 0.577841 0.304431 0.446755
O O12 0.695677 0.545882 0.376604
O O13 0.163102 0.752305 0.578291
O O14 0.149331 0.123752 0.256696
O O15 0.000000 0.000000 0.000000
O O16 0.346856 0.578654 0.809178
O O17 0.500000 0.500000 0.000000
#
# Coordination Sequence:
#
# PCOD9058794 Si02
#       8
#     2   2   2   2   2   2   2   2
#     4   9  20  39  60  83 117 163 204 237 290 351
#     4   9  19  36  58  82 117 159 200 242 290 339
#     4   9  20  39  62  86 113 154 206 234 288 364
#     4   9  19  36  58  78 112 164 198 236 293 342
#     4   9  20  40  62  86 119 163 192 237 302 348
#     4  11  23  33  51  90 128 149 201 256 286 335
#     4  11  24  40  63  95 121 146 191 248 302 360
#     4   9  20  40  61  87 120 153 197 242 290 362
#
# _framework density 21.309892999999999
#
# number of rings (size 3 to 8) (size 9 to 14) (size 15 to 20)
#    0.000    2.500    0.000    1.875    7.000    5.500 
#    0.000    2.500    0.000    0.000    0.000    0.000 
#    0.000    0.000    0.000    0.000    0.000    0.000 
#
# Total GULP energy -89195.399174 kJ/mol
# GULP energy per Si atom -5574.712448 kJ/mol
# Density = 2.126139 g / cm^3
# Si number density = 21.309893 Si / 1000 Ang^3
#
#
#
# Elastic Constant Matrix: (Units=GPa)
#
#
# Indices 1 2 3 4 5 6 
#
# 1 50.8457 7.9202 8.7582 14.4251 14.1163 5.2017
# 2 7.9202 87.7492 26.2112 10.3613 5.0088 25.4856
# 3 8.7582 26.2112 108.1785 -10.3218 -12.0997 22.2961
# 4 14.4251 10.3613 -10.3218 25.7567 5.5765 10.0257
# 5 14.1163 5.0088 -12.0997 5.5765 38.2808 3.1521
# 6 5.2017 25.4856 22.2961 10.0257 3.1521 29.8808
#
#
#
# Elastic Compliance Matrix: (Units=1/GPa)
#
#
# Indices 1 2 3 4 5 6 
#
# 1 0.028548 0.000167 -0.007017 -0.019628 -0.010552 0.007822
# 2 0.000167 0.015476 -0.001961 -0.002614 -0.001442 -0.010736
# 3 -0.007017 -0.001961 0.015439 0.015051 0.006716 -0.014384
# 4 -0.019628 -0.002614 0.015051 0.066952 0.004936 -0.028569
# 5 -0.010552 -0.001442 0.006716 0.004936 0.032182 -0.006996
# 6 0.007822 -0.010736 -0.014384 -0.028569 -0.006996 0.062318
#
#
# Mechanical properties :
#
#
# Convention : Reuss Voigt Hill
#
# Bulk Modulus (GPa) = 23.89985 36.95030 30.42507
# Shear Modulus (GPa) = 19.80321 32.37591 26.08956
#
# Velocity S-wave (km/s) = 3.05174 3.90204 3.50279
# Velocity P-wave (km/s) = 4.86387 6.13827 5.53785
#
# Compressibility (1/GPa) = 0.04184127
#
# Stress axis : x y z
#
# Youngs Moduli (GPa) = 35.02912 64.61633 64.76991
#
# Poissons Ratio (x) = -0.01082 0.45449
# Poissons Ratio (y) = -0.00586 0.12703
# Poissons Ratio (z) = 0.24580 0.12673
#
# Static dielectric constant tensor:
#      x y z
#    x 0.995950 -1.659360 -0.364130 
#    y -1.659360 -1.750880 -0.812980 
#    z -0.364130 -0.812980 1.731990 
# 
# From -- ./inp_files/208510.got.cif
#   From: 2010.05.17/outbox.cif.g08.bks.cpg/sg2_105_cif.got.tgz:208510.got - 2010.06.03 11:33:40.
