data_PCOD9058408
_publ_section_title
;
Structure prediction by ZEFSAII (Michael W. Deem and Ramdas Pophale) SiO2 
 PCOD9058408
Probable space group: P -1
;
_chemical_formula_sum "Si O2"
_cell_formula_units_Z 14
_cell_length_a 8.972563
_cell_length_b 6.095638
_cell_length_c 17.829155
_cell_angle_alpha 53.328619
_cell_angle_beta 132.646977
_cell_angle_gamma 102.959109
_cell_volume 547.751152
_symmetry_space_group_name_H-M "P -1"
_symmetry_group_IT_number 2
_symmetry_cell_setting 'triclinic'
loop_
_space_group_symop_operation_xyz
x,y,z
-x,-y,-z
loop_
_atom_site_type_symbol
_atom_site_label
_atom_site_fract_x
_atom_site_fract_y
_atom_site_fract_z
Si Si1 0.228036 0.761387 0.231712
Si Si2 0.134567 0.682633 0.966659
Si Si3 0.771051 0.213752 0.351959
Si Si4 0.516748 0.208275 0.827317
Si Si5 0.809508 0.813891 0.659374
Si Si6 0.761249 0.206298 0.178729
Si Si7 0.441955 0.178658 0.566978
O O1 0.323054 0.882606 0.169105
O O2 0.140469 0.507895 0.225724
O O3 0.434510 0.638450 0.382042
O O4 0.042640 0.003099 0.159267
O O5 0.231034 0.607433 0.930821
O O6 0.331173 0.716549 0.074565
O O7 0.000000 0.500000 0.000000
O O8 0.674583 0.494625 0.313192
O O9 0.742585 0.326042 0.232976
O O10 0.613159 0.023352 0.347779
O O11 0.000000 0.000000 0.500000
O O12 0.398645 0.974924 0.852796
O O13 0.764356 0.749113 0.571103
O O14 0.987448 0.971944 0.692526
O O15 0.615565 0.990660 0.607070
#
# Coordination Sequence:
#
# PCOD9058408 Si02
#       7
#     2   2   2   2   2   2   2
#     4  12  24  48  78 107 144 197 250 307 366 434
#     4  12  28  53  78 105 147 196 259 309 361 437
#     4  12  26  49  74 111 158 192 238 306 378 448
#     4  12  28  49  74 111 150 197 244 304 376 434
#     4  11  24  44  73 109 151 196 248 299 364 441
#     4  12  27  47  75 110 149 196 244 303 375 438
#     4  11  22  45  72 110 152 195 243 303 364 440
#
# _framework density 25.559049999999999
#
# number of rings (size 3 to 8) (size 9 to 14) (size 15 to 20)
#    0.000    0.286    5.714    3.000    2.000    1.143 
#    7.714    0.000    0.000    0.000    0.000    0.000 
#    0.000    0.000    0.000    0.000    0.000    0.000 
#
# Total GULP energy -78102.313113 kJ/mol
# GULP energy per Si atom -5578.736651 kJ/mol
# Density = 2.550088 g / cm^3
# Si number density = 25.559050 Si / 1000 Ang^3
#
#
#
# Elastic Constant Matrix: (Units=GPa)
#
#
# Indices 1 2 3 4 5 6 
#
# 1 150.2592 45.4623 36.0215 16.7406 -3.3185 16.0144
# 2 45.4623 90.8527 31.6537 17.6927 9.9719 27.4233
# 3 36.0215 31.6537 96.3688 27.5600 7.1401 8.1893
# 4 16.7406 17.6927 27.5600 45.6689 -12.9746 11.2251
# 5 -3.3185 9.9719 7.1401 -12.9746 39.8193 6.9680
# 6 16.0144 27.4233 8.1893 11.2251 6.9680 47.9133
#
#
#
# Elastic Compliance Matrix: (Units=1/GPa)
#
#
# Indices 1 2 3 4 5 6 
#
# 1 0.008324 -0.003483 -0.002200 0.000479 0.002266 -0.000855
# 2 -0.003483 0.016639 -0.002393 -0.003208 -0.003913 -0.006629
# 3 -0.002200 -0.002393 0.014938 -0.009596 -0.005853 0.002651
# 4 0.000479 -0.003208 -0.009596 0.034781 0.015127 -0.007033
# 5 0.002266 -0.003913 -0.005853 0.015127 0.033294 -0.005903
# 6 -0.000855 -0.006629 0.002651 -0.007033 -0.005903 0.027004
#
#
# Mechanical properties :
#
#
# Convention : Reuss Voigt Hill
#
# Bulk Modulus (GPa) = 42.10671 62.63953 52.37312
# Shear Modulus (GPa) = 31.43741 41.63651 36.53696
#
# Velocity S-wave (km/s) = 3.51093 4.04051 3.78499
# Velocity P-wave (km/s) = 5.73982 6.80651 6.29580
#
# Compressibility (1/GPa) = 0.02374918
#
# Stress axis : x y z
#
# Youngs Moduli (GPa) = 120.13369 60.10144 66.94546
#
# Poissons Ratio (x) = 0.20934 0.14727
# Poissons Ratio (y) = 0.41843 0.16018
# Poissons Ratio (z) = 0.26427 0.14380
#
# Static dielectric constant tensor:
#      x y z
#    x 2.033290 0.030470 -0.069160 
#    y 0.030470 1.975020 0.045310 
#    z -0.069160 0.045310 2.243300 
# 
# From -- ./inp_files/138706.got.cif
#   From: 2010.05.17/outbox.cif.g08.bks.cpg/sg2_70_cif.got.tgz:138706.got - 2010.06.03 11:33:40.
