data_PCOD9058605
_publ_section_title
;
Structure prediction by ZEFSAII (Michael W. Deem and Ramdas Pophale) SiO2 
 PCOD9058605
Probable space group: P -1
;
_chemical_formula_sum "Si O2"
_cell_formula_units_Z 16
_cell_length_a 9.108970
_cell_length_b 15.180186
_cell_length_c 14.653754
_cell_angle_alpha 143.408733
_cell_angle_beta 139.968779
_cell_angle_gamma 39.976270
_cell_volume 713.655181
_symmetry_space_group_name_H-M "P -1"
_symmetry_group_IT_number 2
_symmetry_cell_setting 'triclinic'
loop_
_space_group_symop_operation_xyz
x,y,z
-x,-y,-z
loop_
_atom_site_type_symbol
_atom_site_label
_atom_site_fract_x
_atom_site_fract_y
_atom_site_fract_z
Si Si1 0.893810 0.681207 0.636739
Si Si2 0.039031 0.676378 0.357602
Si Si3 0.660066 0.302730 0.022672
Si Si4 0.537331 0.187403 0.317459
Si Si5 0.280379 0.656582 0.128523
Si Si6 0.360148 0.160100 0.846779
Si Si7 0.742677 0.696812 0.901387
Si Si8 0.651456 0.819543 0.455963
O O1 0.671029 0.705166 0.620942
O O2 0.803500 0.796719 0.602438
O O3 0.000000 0.500000 0.500000
O O4 0.109070 0.708586 0.816723
O O5 0.242220 0.750591 0.534772
O O6 0.171940 0.486029 0.244445
O O7 0.887424 0.753553 0.258083
O O8 0.841472 0.719221 0.382846
O O9 0.420714 0.469402 0.064669
O O10 0.720002 0.320021 0.960899
O O11 0.578873 0.156230 0.879871
O O12 0.409856 0.196864 0.166305
O O13 0.624660 0.009270 0.251208
O O14 0.447434 0.745818 0.319617
O O15 0.992775 0.720896 0.068311
O O16 0.400533 0.258250 0.034306
O O17 0.500000 0.000000 0.500000
#
# Coordination Sequence:
#
# PCOD9058605 Si02
#       8
#     2   2   2   2   2   2   2   2
#     4  12  26  44  73 102 137 188 233 284 349 417
#     4  12  26  49  70 102 143 188 232 286 347 427
#     4  11  23  45  73  98 138 181 242 291 337 416
#     4  12  29  47  66 107 151 177 228 299 353 406
#     4  11  22  46  73  98 140 180 239 293 341 409
#     4  12  27  45  73 104 137 186 235 285 355 409
#     4  12  26  46  75 102 137 192 235 283 347 420
#     4  12  27  44  73 106 139 183 232 292 355 407
#
# _framework density 22.419792000000001
#
# number of rings (size 3 to 8) (size 9 to 14) (size 15 to 20)
#    0.000    0.250    5.000    3.750    7.000    1.500 
#    0.000    0.000    0.000    0.000    0.000    0.000 
#    0.000    0.000    0.000    0.000    0.000    0.000 
#
# Total GULP energy -89587.874753 kJ/mol
# GULP energy per Si atom -5599.242172 kJ/mol
# Density = 2.236876 g / cm^3
# Si number density = 22.419792 Si / 1000 Ang^3
#
#
#
# Elastic Constant Matrix: (Units=GPa)
#
#
# Indices 1 2 3 4 5 6 
#
# 1 73.6900 23.1607 22.7243 -0.7773 -2.4980 16.7163
# 2 23.1607 90.6184 24.1330 -13.1055 -1.8481 19.1336
# 3 22.7243 24.1330 68.7670 -14.5673 7.9220 -0.3789
# 4 -0.7773 -13.1055 -14.5673 45.1709 7.8361 -13.0690
# 5 -2.4980 -1.8481 7.9220 7.8361 46.3706 -2.9376
# 6 16.7163 19.1336 -0.3789 -13.0690 -2.9376 24.6285
#
#
#
# Elastic Compliance Matrix: (Units=1/GPa)
#
#
# Indices 1 2 3 4 5 6 
#
# 1 0.020427 -0.000230 -0.008840 -0.008225 0.002861 -0.017846
# 2 -0.000230 0.014988 -0.005598 -0.001115 0.000966 -0.012050
# 3 -0.008840 -0.005598 0.022466 0.011001 -0.005390 0.015889
# 4 -0.008225 -0.001115 0.011001 0.033122 -0.006480 0.023421
# 5 0.002861 0.000966 -0.005390 -0.006480 0.023558 -0.003404
# 6 -0.017846 -0.012050 0.015889 0.023421 -0.003404 0.074344
#
#
# Mechanical properties :
#
#
# Convention : Reuss Voigt Hill
#
# Bulk Modulus (GPa) = 35.03087 41.45682 38.24385
# Shear Modulus (GPa) = 21.95342 34.10449 28.02895
#
# Velocity S-wave (km/s) = 3.13261 3.90446 3.53964
# Velocity P-wave (km/s) = 5.36127 6.23360 5.81382
#
# Compressibility (1/GPa) = 0.02854625
#
# Stress axis : x y z
#
# Youngs Moduli (GPa) = 48.95470 66.72208 44.51101
#
# Poissons Ratio (x) = 0.01534 0.39347
# Poissons Ratio (y) = 0.01125 0.24915
# Poissons Ratio (z) = 0.43275 0.37348
#
# Static dielectric constant tensor:
#      x y z
#    x 1.825040 -0.015830 -0.021270 
#    y -0.015830 1.816940 0.018500 
#    z -0.021270 0.018500 1.810510 
# 
# From -- ./inp_files/505645.got.cif
#   From: 2010.05.17/outbox.cif.g08.bks.cpg/sg2_253_cif.got.tgz:505645.got - 2010.06.03 11:33:40.
