data_PCOD9058196
_publ_section_title
;
Structure prediction by ZEFSAII (Michael W. Deem and Ramdas Pophale) SiO2 
 PCOD9058196
Probable space group: P -1
;
_chemical_formula_sum "Si O2"
_cell_formula_units_Z 16
_cell_length_a 9.372847
_cell_length_b 16.597273
_cell_length_c 12.291825
_cell_angle_alpha 31.146113
_cell_angle_beta 47.690908
_cell_angle_gamma 54.004040
_cell_volume 731.060813
_symmetry_space_group_name_H-M "P -1"
_symmetry_group_IT_number 2
_symmetry_cell_setting 'triclinic'
loop_
_space_group_symop_operation_xyz
x,y,z
-x,-y,-z
loop_
_atom_site_type_symbol
_atom_site_label
_atom_site_fract_x
_atom_site_fract_y
_atom_site_fract_z
Si Si1 0.056209 0.926793 0.885804
Si Si2 0.354633 0.090788 0.887697
Si Si3 0.839714 0.372395 0.727363
Si Si4 0.561065 0.920755 0.396637
Si Si5 0.443529 0.433261 0.492056
Si Si6 0.205902 0.560621 0.862342
Si Si7 0.144009 0.899887 0.619767
Si Si8 0.486914 0.359281 0.088445
O O1 0.074752 0.883284 0.798846
O O2 0.251137 0.999691 0.744705
O O3 0.039499 0.787547 0.142792
O O4 0.842891 0.004747 0.906098
O O5 0.411399 0.113876 0.705451
O O6 0.338455 0.267756 0.737905
O O7 0.500000 0.000000 0.000000
O O8 0.697893 0.430933 0.639003
O O9 0.000000 0.500000 0.500000
O O10 0.686191 0.353880 0.925651
O O11 0.343784 0.994236 0.419956
O O12 0.538586 0.785386 0.653167
O O13 0.500000 0.500000 0.500000
O O14 0.636595 0.409481 0.347363
O O15 0.181106 0.725091 0.751833
O O16 0.306912 0.414266 0.043498
O O17 0.000000 0.500000 0.000000
O O18 0.000000 0.000000 0.500000
O O19 0.500000 0.500000 0.000000
#
# Coordination Sequence:
#
# PCOD9058196 Si02
#       8
#     2   2   2   2   2   2   2   2
#     4  12  27  44  75 110 142 198 246 302 374 437
#     4  12  27  49  70 106 154 193 243 305 375 443
#     4  11  23  44  71 101 140 182 245 300 355 432
#     4  12  25  48  73 108 147 194 251 303 368 441
#     4  11  26  46  72 103 143 193 241 301 368 441
#     4  11  26  45  71 106 142 189 242 303 371 432
#     4  12  26  46  73 109 151 191 241 307 370 442
#     4  11  22  44  73  97 139 186 242 302 357 423
#
# _framework density 21.886005000000001
#
# number of rings (size 3 to 8) (size 9 to 14) (size 15 to 20)
#    0.000    0.500    5.000    2.250    5.250    2.000 
#    0.000    0.000    0.000    0.000    0.000    0.000 
#    0.000    0.000    0.000    0.000    0.000    0.000 
#
# Total GULP energy -89200.371189 kJ/mol
# GULP energy per Si atom -5575.023199 kJ/mol
# Density = 2.183619 g / cm^3
# Si number density = 21.886005 Si / 1000 Ang^3
#
#
#
# Elastic Constant Matrix: (Units=GPa)
#
#
# Indices 1 2 3 4 5 6 
#
# 1 197.6796 48.1837 86.9728 8.1174 3.8445 -18.5323
# 2 48.1837 51.4307 14.7159 9.7693 17.6042 1.6796
# 3 86.9728 14.7159 115.1160 1.2303 3.7089 -2.3745
# 4 8.1174 9.7693 1.2303 27.7652 -4.1000 3.5485
# 5 3.8445 17.6042 3.7089 -4.1000 48.0250 5.2416
# 6 -18.5323 1.6796 -2.3745 3.5485 5.2416 44.4845
#
#
#
# Elastic Compliance Matrix: (Units=1/GPa)
#
#
# Indices 1 2 3 4 5 6 
#
# 1 0.010593 -0.009020 -0.006852 0.000239 0.002564 0.004067
# 2 -0.009020 0.033402 0.003007 -0.010755 -0.012395 -0.002540
# 3 -0.006852 0.003007 0.013474 0.000424 -0.001326 -0.002126
# 4 0.000239 -0.010755 0.000424 0.041339 0.007822 -0.003691
# 5 0.002564 -0.012395 -0.001326 0.007822 0.026176 -0.002243
# 6 0.004067 -0.002540 -0.002126 -0.003691 -0.002243 0.024715
#
#
# Mechanical properties :
#
#
# Convention : Reuss Voigt Hill
#
# Bulk Modulus (GPa) = 31.50674 73.77459 52.64067
# Shear Modulus (GPa) = 26.88044 38.34519 32.61282
#
# Velocity S-wave (km/s) = 3.50837 4.19028 3.86440
# Velocity P-wave (km/s) = 5.55326 7.56261 6.63444
#
# Compressibility (1/GPa) = 0.03173924
#
# Stress axis : x y z
#
# Youngs Moduli (GPa) = 94.39803 29.93792 74.21960
#
# Poissons Ratio (x) = 0.27004 0.50854
# Poissons Ratio (y) = 0.85147 -0.22316
# Poissons Ratio (z) = 0.64680 -0.09002
#
# Static dielectric constant tensor:
#      x y z
#    x 1.864110 -0.076710 -0.039770 
#    y -0.076710 1.909290 -0.012910 
#    z -0.039770 -0.012910 1.759800 
# 
# From -- ./inp_files/381089.got.cif
#   From: 2010.05.17/outbox.cif.g08.bks.cpg/sg2_191_cif.got.tgz:381089.got - 2010.06.03 11:33:40.
