data_PCOD9058953
_publ_section_title
;
Structure prediction by ZEFSAII (Michael W. Deem and Ramdas Pophale) SiO2 
 PCOD9058953
Probable space group: P -1
;
_chemical_formula_sum "Si O2"
_cell_formula_units_Z 14
_cell_length_a 18.911988
_cell_length_b 11.031488
_cell_length_c 7.495646
_cell_angle_alpha 140.950721
_cell_angle_beta 136.505013
_cell_angle_gamma 45.125851
_cell_volume 640.600298
_symmetry_space_group_name_H-M "P -1"
_symmetry_group_IT_number 2
_symmetry_cell_setting 'triclinic'
loop_
_space_group_symop_operation_xyz
x,y,z
-x,-y,-z
loop_
_atom_site_type_symbol
_atom_site_label
_atom_site_fract_x
_atom_site_fract_y
_atom_site_fract_z
Si Si1 0.581225 0.647457 0.619162
Si Si2 0.339709 0.692417 0.319176
Si Si3 0.984579 0.601626 0.285700
Si Si4 0.745745 0.854390 0.254258
Si Si5 0.821814 0.752126 0.660573
Si Si6 0.713627 0.484438 0.353066
Si Si7 0.903560 0.117483 0.326624
O O1 0.454013 0.723891 0.513629
O O2 0.635527 0.475761 0.672075
O O3 0.608721 0.554877 0.365727
O O4 0.641680 0.814666 0.934601
O O5 0.262011 0.910009 0.495562
O O6 0.299810 0.614419 0.974840
O O7 0.858370 0.704662 0.210912
O O8 0.060250 0.421288 0.340319
O O9 0.038470 0.780759 0.595596
O O10 0.000000 0.500000 0.000000
O O11 0.751675 0.791617 0.399964
O O12 0.758106 0.668762 0.596730
O O13 0.846551 0.956711 0.982441
O O14 0.806833 0.315305 0.441622
O O15 0.000000 0.000000 0.500000
#
# Coordination Sequence:
#
# PCOD9058953 Si02
#       7
#     2   2   2   2   2   2   2
#     4  11  26  44  73  97 136 175 228 286 334 395
#     4  11  25  48  68 104 129 176 234 279 338 394
#     4  11  24  40  64  98 134 176 226 266 330 407
#     4  12  24  44  69  95 140 176 220 283 335 396
#     4  11  23  42  64  98 135 176 220 269 333 405
#     4  11  24  46  71  98 138 179 220 278 340 397
#     4  11  23  39  65  98 135 172 227 267 323 413
#
# _framework density 21.854500999999999
#
# number of rings (size 3 to 8) (size 9 to 14) (size 15 to 20)
#    0.000    0.857    4.286    3.000    2.000    0.571 
#    0.000    0.714    0.000    0.000    0.000    0.000 
#    0.000    0.000    0.000    0.000    0.000    0.000 
#
# Total GULP energy -78231.271950 kJ/mol
# GULP energy per Si atom -5587.947996 kJ/mol
# Density = 2.180476 g / cm^3
# Si number density = 21.854501 Si / 1000 Ang^3
#
#
#
# Elastic Constant Matrix: (Units=GPa)
#
#
# Indices 1 2 3 4 5 6 
#
# 1 71.6998 -1.4934 26.2062 10.5788 1.1178 -9.6811
# 2 -1.4934 60.6214 10.0656 9.6333 -4.0056 6.0865
# 3 26.2062 10.0656 110.6465 7.3558 16.8431 6.7708
# 4 10.5788 9.6333 7.3558 36.8353 3.8030 4.2672
# 5 1.1178 -4.0056 16.8431 3.8030 28.4164 -6.3023
# 6 -9.6811 6.0865 6.7708 4.2672 -6.3023 22.3234
#
#
#
# Elastic Compliance Matrix: (Units=1/GPa)
#
#
# Indices 1 2 3 4 5 6 
#
# 1 0.018773 0.001707 -0.005954 -0.006817 0.006759 0.012693
# 2 0.001707 0.018134 -0.002276 -0.005056 0.004214 -0.001358
# 3 -0.005954 -0.002276 0.012559 0.001831 -0.009743 -0.008872
# 4 -0.006817 -0.005056 0.001831 0.032133 -0.008177 -0.010584
# 5 0.006759 0.004214 -0.009743 -0.008177 0.046711 0.019488
# 6 0.012693 -0.001358 -0.008872 -0.010584 0.019488 0.060887
#
#
# Mechanical properties :
#
#
# Convention : Reuss Voigt Hill
#
# Bulk Modulus (GPa) = 27.45789 34.72494 31.09142
# Shear Modulus (GPa) = 23.32276 31.39430 27.35853
#
# Velocity S-wave (km/s) = 3.27032 3.79425 3.54199
# Velocity P-wave (km/s) = 5.18182 5.92611 5.56642
#
# Compressibility (1/GPa) = 0.03641940
#
# Stress axis : x y z
#
# Youngs Moduli (GPa) = 53.26802 55.14526 79.62184
#
# Poissons Ratio (x) = -0.09411 0.47406
# Poissons Ratio (y) = -0.09090 0.18122
# Poissons Ratio (z) = 0.31715 0.12551
#
# Static dielectric constant tensor:
#      x y z
#    x 1.809600 0.006270 -0.011020 
#    y 0.006270 1.792590 0.003380 
#    z -0.011020 0.003380 1.832540 
# 
# From -- ./inp_files/281575.got.cif
#   From: 2010.05.17/outbox.cif.g08.bks.cpg/sg2_141_cif.got.tgz:281575.got - 2010.06.03 11:33:40.
