data_PCOD9058127
_publ_section_title
;
Structure prediction by ZEFSAII (Michael W. Deem and Ramdas Pophale) SiO2 
 PCOD9058127
Probable space group: P -1
;
_chemical_formula_sum "Si O2"
_cell_formula_units_Z 15
_cell_length_a 11.188663
_cell_length_b 6.636015
_cell_length_c 8.669062
_cell_angle_alpha 98.606200
_cell_angle_beta 77.195068
_cell_angle_gamma 87.472023
_cell_volume 618.590398
_symmetry_space_group_name_H-M "P -1"
_symmetry_group_IT_number 2
_symmetry_cell_setting 'triclinic'
loop_
_space_group_symop_operation_xyz
x,y,z
-x,-y,-z
loop_
_atom_site_type_symbol
_atom_site_label
_atom_site_fract_x
_atom_site_fract_y
_atom_site_fract_z
Si Si1 0.901030 0.875241 0.600497
Si Si2 0.759383 0.678549 0.345791
Si Si3 0.576628 0.404959 0.768429
Si Si4 0.002000 0.397473 0.187110
Si Si5 0.578696 0.787448 0.961626
Si Si6 0.500000 0.500000 0.500000
Si Si7 0.812492 0.255122 0.880450
Si Si8 0.185574 0.089873 0.947976
O O1 0.806926 0.780911 0.500252
O O2 0.965600 0.694044 0.664089
O O3 0.844577 0.053551 0.747365
O O4 0.000000 0.000000 0.500000
O O5 0.627152 0.593099 0.402110
O O6 0.771062 0.848663 0.226803
O O7 0.863638 0.499939 0.245197
O O8 0.467181 0.320989 0.885375
O O9 0.584142 0.353242 0.582737
O O10 0.690944 0.354478 0.842866
O O11 0.553941 0.652358 0.803876
O O12 0.086929 0.581337 0.142053
O O13 0.053536 0.208155 0.039980
O O14 0.719913 0.811195 0.951407
O O15 0.500000 0.000000 0.000000
O O16 0.797629 0.149527 0.039587
#
# Coordination Sequence:
#
# PCOD9058127 Si02
#       8
#     2   2   2   2   2   1   2   2
#     4  11  25  46  74 109 140 192 244 298 361 436
#     4  12  26  48  70 108 153 186 245 305 366 428
#     4  11  24  44  70  99 139 192 238 289 360 432
#     4  11  24  47  76 102 145 194 241 300 365 434
#     4  11  22  44  71  98 139 191 242 288 348 438
#     4  12  28  44  72 108 148 192 236 296 372 428
#     4  11  23  44  76 101 143 192 242 297 362 435
#     4  11  24  45  70 112 139 187 252 300 362 426
#
# _framework density 24.248678999999999
#
# number of rings (size 3 to 8) (size 9 to 14) (size 15 to 20)
#    0.000    0.800    5.333    1.600    3.733    0.533 
#    4.800    1.333    0.000    0.000    0.000    0.000 
#    0.000    0.000    0.000    0.000    0.000    0.000 
#
# Total GULP energy -83597.663344 kJ/mol
# GULP energy per Si atom -5573.177556 kJ/mol
# Density = 2.419349 g / cm^3
# Si number density = 24.248679 Si / 1000 Ang^3
#
#
#
# Elastic Constant Matrix: (Units=GPa)
#
#
# Indices 1 2 3 4 5 6 
#
# 1 128.5560 53.2835 21.0774 -28.9816 -10.6666 4.8996
# 2 53.2835 144.3723 47.2781 -24.2365 0.5869 -1.5429
# 3 21.0774 47.2781 84.8433 -47.2733 -7.5882 3.0103
# 4 -28.9816 -24.2365 -47.2733 56.2355 0.7726 -0.8796
# 5 -10.6666 0.5869 -7.5882 0.7726 26.1484 -6.3513
# 6 4.8996 -1.5429 3.0103 -0.8796 -6.3513 37.9760
#
#
#
# Elastic Compliance Matrix: (Units=1/GPa)
#
#
# Indices 1 2 3 4 5 6 
#
# 1 0.010958 -0.004228 0.004187 0.007258 0.005358 -0.000853
# 2 -0.004228 0.010197 -0.006998 -0.003603 -0.003680 0.000816
# 3 0.004187 -0.006998 0.028102 0.022625 0.009108 -0.001005
# 4 0.007258 -0.003603 0.022625 0.038866 0.008317 -0.000585
# 5 0.005358 -0.003680 0.009108 0.008317 0.044379 0.006052
# 6 -0.000853 0.000816 -0.001005 -0.000585 0.006052 0.027554
#
#
# Mechanical properties :
#
#
# Convention : Reuss Voigt Hill
#
# Bulk Modulus (GPa) = 28.42470 66.78329 47.60400
# Shear Modulus (GPa) = 26.90208 39.81415 33.35812
#
# Velocity S-wave (km/s) = 3.33442 4.05644 3.71302
# Velocity P-wave (km/s) = 5.15481 7.03850 6.16898
#
# Compressibility (1/GPa) = 0.03518067
#
# Stress axis : x y z
#
# Youngs Moduli (GPa) = 91.25767 98.06515 35.58480
#
# Poissons Ratio (x) = 0.41462 -0.14901
# Poissons Ratio (y) = 0.38583 0.24901
# Poissons Ratio (z) = -0.38214 0.68623
#
# Static dielectric constant tensor:
#      x y z
#    x 1.958370 -0.007590 0.069190 
#    y -0.007590 1.957350 -0.008180 
#    z 0.069190 -0.008180 2.056240 
# 
# From -- ./inp_files/229726.got.cif
#   From: 2010.05.17/outbox.cif.g08.bks.cpg/sg2_115_cif.got.tgz:229726.got - 2010.06.03 11:33:40.
