data_PCOD9058867
_publ_section_title
;
Structure prediction by ZEFSAII (Michael W. Deem and Ramdas Pophale) SiO2 
 PCOD9058867
Probable space group: P -1
;
_chemical_formula_sum "Si O2"
_cell_formula_units_Z 16
_cell_length_a 24.315155
_cell_length_b 23.163274
_cell_length_c 8.047459
_cell_angle_alpha 135.972760
_cell_angle_beta 46.280937
_cell_angle_gamma 167.688367
_cell_volume 669.713096
_symmetry_space_group_name_H-M "P -1"
_symmetry_group_IT_number 2
_symmetry_cell_setting 'triclinic'
loop_
_space_group_symop_operation_xyz
x,y,z
-x,-y,-z
loop_
_atom_site_type_symbol
_atom_site_label
_atom_site_fract_x
_atom_site_fract_y
_atom_site_fract_z
Si Si1 0.275293 0.200097 0.475613
Si Si2 0.229277 0.674848 0.843137
Si Si3 0.753008 0.250775 0.382613
Si Si4 0.682993 0.993141 0.949282
Si Si5 0.207741 0.224063 0.326853
Si Si6 0.561519 0.779292 0.063313
Si Si7 0.019141 0.187165 0.153662
Si Si8 0.174710 0.444601 0.678784
O O1 0.249225 0.243397 0.475599
O O2 0.496507 0.450590 0.666224
O O3 0.364979 0.214101 0.213904
O O4 0.988778 0.904558 0.537178
O O5 0.220885 0.653906 0.618346
O O6 0.199875 0.557722 0.758318
O O7 0.000000 0.500000 0.000000
O O8 0.500000 0.000000 0.000000
O O9 0.000000 0.500000 0.500000
O O10 0.500000 0.000000 0.500000
O O11 0.719459 0.127269 0.107305
O O12 0.609281 0.910819 0.127274
O O13 0.444678 0.709914 0.754800
O O14 0.947456 0.223044 0.827313
O O15 0.077633 0.008646 0.067884
O O16 0.272361 0.465263 0.084370
O O17 0.775994 0.989222 0.191402
O O18 0.100694 0.299148 0.397281
#
# Coordination Sequence:
#
# PCOD9058867 Si02
#       8
#     2   2   2   2   2   2   2   2
#     4   9  16  30  55  85 118 155 189 250 306 344
#     4  12  23  45  67  90 119 161 209 241 292 371
#     4  12  26  42  67  95 121 154 200 259 302 346
#     4  12  26  45  61  89 129 166 196 241 315 369
#     4   9  16  30  55  86 119 147 199 251 296 345
#     4  11  23  38  61  93 124 156 206 253 302 356
#     4  11  23  38  62  95 119 158 208 256 294 349
#     4  12  25  44  64  87 125 169 199 243 303 366
#
# _framework density 23.890829
#
# number of rings (size 3 to 8) (size 9 to 14) (size 15 to 20)
#    0.000    1.000    2.500    6.750    3.500    0.000 
#    0.000    0.000    0.000    4.500    0.000    0.000 
#    0.000    0.000    0.000    0.000    0.000    0.000 
#
# Total GULP energy -89552.130671 kJ/mol
# GULP energy per Si atom -5597.008167 kJ/mol
# Density = 2.383645 g / cm^3
# Si number density = 23.890829 Si / 1000 Ang^3
#
#
#
# Elastic Constant Matrix: (Units=GPa)
#
#
# Indices 1 2 3 4 5 6 
#
# 1 73.4902 14.7487 -2.1663 -3.0989 7.6871 -0.9947
# 2 14.7487 164.1885 25.3827 10.8446 4.8891 15.7981
# 3 -2.1663 25.3827 66.2690 14.6739 5.5929 -1.5091
# 4 -3.0989 10.8446 14.6739 38.5914 8.4327 9.7942
# 5 7.6871 4.8891 5.5929 8.4327 25.2973 -2.1209
# 6 -0.9947 15.7981 -1.5091 9.7942 -2.1209 29.4704
#
#
#
# Elastic Compliance Matrix: (Units=1/GPa)
#
#
# Indices 1 2 3 4 5 6 
#
# 1 0.014564 -0.001478 0.000973 0.002275 -0.005096 0.000211
# 2 -0.001478 0.007063 -0.002823 0.000156 -0.000686 -0.004082
# 3 0.000973 -0.002823 0.017926 -0.006913 -0.001016 0.004688
# 4 0.002275 0.000156 -0.006913 0.034458 -0.011741 -0.012657
# 5 -0.005096 -0.000686 -0.001016 -0.011741 0.045966 0.007354
# 6 0.000211 -0.004082 0.004688 -0.012657 0.007354 0.041103
#
#
# Mechanical properties :
#
#
# Convention : Reuss Voigt Hill
#
# Bulk Modulus (GPa) = 30.39651 42.20864 36.30258
# Shear Modulus (GPa) = 27.97977 36.40401 32.19189
#
# Velocity S-wave (km/s) = 3.42592 3.90778 3.67476
# Velocity P-wave (km/s) = 5.32916 6.16982 5.76483
#
# Compressibility (1/GPa) = 0.03289851
#
# Stress axis : x y z
#
# Youngs Moduli (GPa) = 68.66122 141.59170 55.78400
#
# Poissons Ratio (x) = 0.20920 -0.05429
# Poissons Ratio (y) = 0.10145 0.15748
# Poissons Ratio (z) = -0.06682 0.39971
#
# Static dielectric constant tensor:
#      x y z
#    x 1.978690 -0.050230 -0.022300 
#    y -0.050230 1.901240 0.018900 
#    z -0.022300 0.018900 1.871420 
# 
# From -- ./inp_files/358007.got.cif
#   From: 2010.05.17/outbox.cif.g08.bks.cpg/sg2_180_cif.got.tgz:358007.got - 2010.06.03 11:33:40.
