data_PCOD9058997
_publ_section_title
;
Structure prediction by ZEFSAII (Michael W. Deem and Ramdas Pophale) SiO2 
 PCOD9058997
Probable space group: P -1
;
_chemical_formula_sum "Si O2"
_cell_formula_units_Z 16
_cell_length_a 9.070701
_cell_length_b 12.950967
_cell_length_c 12.667499
_cell_angle_alpha 126.711343
_cell_angle_beta 52.225372
_cell_angle_gamma 131.705281
_cell_volume 831.263429
_symmetry_space_group_name_H-M "P -1"
_symmetry_group_IT_number 2
_symmetry_cell_setting 'triclinic'
loop_
_space_group_symop_operation_xyz
x,y,z
-x,-y,-z
loop_
_atom_site_type_symbol
_atom_site_label
_atom_site_fract_x
_atom_site_fract_y
_atom_site_fract_z
Si Si1 0.030542 0.369821 0.859727
Si Si2 0.911431 0.248856 0.617092
Si Si3 0.537202 0.891472 0.341969
Si Si4 0.006936 0.048102 0.146153
Si Si5 0.724936 0.048133 0.876247
Si Si6 0.448659 0.343954 0.653950
Si Si7 0.731566 0.816727 0.584015
Si Si8 0.195646 0.342976 0.362637
O O1 0.256699 0.377845 0.788083
O O2 0.010413 0.363510 0.737629
O O3 0.848580 0.216031 0.889834
O O4 0.000000 0.500000 0.000000
O O5 0.661715 0.171811 0.687388
O O6 0.993914 0.318814 0.507976
O O7 0.019823 0.142194 0.514035
O O8 0.765191 0.980236 0.245898
O O9 0.533346 0.759922 0.330481
O O10 0.500000 0.000000 0.500000
O O11 0.127295 0.983273 0.126661
O O12 0.120475 0.220692 0.229868
O O13 0.000000 0.000000 0.000000
O O14 0.699757 0.947110 0.723885
O O15 0.500000 0.000000 0.000000
O O16 0.386479 0.256946 0.516383
O O17 0.661766 0.494895 0.639783
O O18 0.672282 0.698405 0.633400
#
# Coordination Sequence:
#
# PCOD9058997 Si02
#       8
#     2   2   2   2   2   2   2   2
#     4  11  26  41  63  99 129 168 215 268 324 389
#     4   9  22  40  68  91 132 162 214 270 320 376
#     4  12  23  43  66  98 129 170 220 268 313 392
#     4  11  25  44  63  92 135 174 216 265 324 384
#     4  11  24  41  64  93 126 171 220 265 323 386
#     4  11  23  39  72  92 131 167 210 269 331 375
#     4   8  20  40  67  96 123 161 217 268 319 381
#     4   9  20  42  64  94 125 164 213 260 325 380
#
# _framework density 19.247809
#
# number of rings (size 3 to 8) (size 9 to 14) (size 15 to 20)
#    0.750    1.000    2.500    0.375    7.000    1.500 
#    2.250    1.250    0.000    0.000    0.000    0.000 
#    0.000    0.000    0.000    0.000    0.000    0.000 
#
# Total GULP energy -89299.761217 kJ/mol
# GULP energy per Si atom -5581.235076 kJ/mol
# Density = 1.920400 g / cm^3
# Si number density = 19.247809 Si / 1000 Ang^3
#
#
#
# Elastic Constant Matrix: (Units=GPa)
#
#
# Indices 1 2 3 4 5 6 
#
# 1 78.5580 32.2428 48.7389 9.4273 -7.2803 16.7388
# 2 32.2428 111.4957 56.2411 8.2819 -9.5074 9.2135
# 3 48.7389 56.2411 153.2393 13.4700 -12.7641 4.5395
# 4 9.4273 8.2819 13.4700 29.9617 1.6800 -8.7639
# 5 -7.2803 -9.5074 -12.7641 1.6800 31.9497 -6.2357
# 6 16.7388 9.2135 4.5395 -8.7639 -6.2357 24.1452
#
#
#
# Elastic Compliance Matrix: (Units=1/GPa)
#
#
# Indices 1 2 3 4 5 6 
#
# 1 0.020835 -0.001653 -0.004813 -0.008634 -0.000363 -0.016136
# 2 -0.001653 0.011676 -0.003370 -0.002182 0.001252 -0.003144
# 3 -0.004813 -0.003370 0.009491 -0.001057 0.002345 0.003060
# 4 -0.008634 -0.002182 -0.001057 0.043863 -0.000915 0.022701
# 5 -0.000363 0.001252 0.002345 -0.000915 0.034098 0.007807
# 6 -0.016136 -0.003144 0.003060 0.022701 0.007807 0.063482
#
#
# Mechanical properties :
#
#
# Convention : Reuss Voigt Hill
#
# Bulk Modulus (GPa) = 44.78597 68.63762 56.71179
# Shear Modulus (GPa) = 23.74617 30.94933 27.34775
#
# Velocity S-wave (km/s) = 3.51623 4.01426 3.77347
# Velocity P-wave (km/s) = 6.30902 7.56460 6.96516
#
# Compressibility (1/GPa) = 0.02232842
#
# Stress axis : x y z
#
# Youngs Moduli (GPa) = 47.99654 85.64810 105.36245
#
# Poissons Ratio (x) = 0.14162 0.50712
# Poissons Ratio (y) = 0.07936 0.35507
# Poissons Ratio (z) = 0.23101 0.28864
#
# Static dielectric constant tensor:
#      x y z
#    x 1.833030 0.120790 0.039470 
#    y 0.120790 1.785470 0.007460 
#    z 0.039470 0.007460 1.667870 
# 
# From -- ./inp_files/239972.got.cif
#   From: 2010.05.17/outbox.cif.g08.bks.cpg/sg2_120_cif.got.tgz:239972.got - 2010.06.03 11:33:40.
