data_PCOD9058866
_publ_section_title
;
Structure prediction by ZEFSAII (Michael W. Deem and Ramdas Pophale) SiO2 
 PCOD9058866
Probable space group: P -1
;
_chemical_formula_sum "Si O2"
_cell_formula_units_Z 14
_cell_length_a 11.867550
_cell_length_b 12.285959
_cell_length_c 11.872206
_cell_angle_alpha 145.762432
_cell_angle_beta 135.828557
_cell_angle_gamma 37.647429
_cell_volume 584.889269
_symmetry_space_group_name_H-M "P -1"
_symmetry_group_IT_number 2
_symmetry_cell_setting 'triclinic'
loop_
_space_group_symop_operation_xyz
x,y,z
-x,-y,-z
loop_
_atom_site_type_symbol
_atom_site_label
_atom_site_fract_x
_atom_site_fract_y
_atom_site_fract_z
Si Si1 0.076356 0.029115 0.815375
Si Si2 0.384770 0.832003 0.703356
Si Si3 0.785246 0.910571 0.569245
Si Si4 0.393050 0.174703 0.419228
Si Si5 0.694110 0.772089 0.169550
Si Si6 0.202334 0.372942 0.238698
Si Si7 0.198718 0.633072 0.262228
O O1 0.278519 0.849759 0.757478
O O2 0.054001 0.864717 0.297542
O O3 0.960191 0.947577 0.735222
O O4 0.101683 0.228414 0.052310
O O5 0.598918 0.766072 0.805581
O O6 0.359830 0.663851 0.460269
O O7 0.285067 0.068364 0.768883
O O8 0.734441 0.828691 0.575720
O O9 0.814483 0.741111 0.342600
O O10 0.588504 0.135672 0.580946
O O11 0.482776 0.940678 0.211271
O O12 0.275891 0.375077 0.418972
O O13 0.730080 0.552488 0.943393
O O14 0.107392 0.571515 0.249133
#
# Coordination Sequence:
#
# PCOD9058866 Si02
#       7
#     2   2   2   2   2   2   2
#     4  12  23  36  62  93 128 160 197 248 314 359
#     4  11  23  39  59  92 127 160 196 247 313 359
#     4   9  19  40  65  87 118 168 204 247 297 364
#     4   8  19  41  65  84 122 166 203 249 300 353
#     4   9  19  38  65  87 117 155 202 250 294 359
#     4  11  23  38  61  90 129 156 200 254 302 365
#     4  12  23  37  63  97 120 158 202 251 312 359
#
# _framework density 23.936153000000001
#
# number of rings (size 3 to 8) (size 9 to 14) (size 15 to 20)
#    0.857    0.857    2.857    1.714    2.000    0.571 
#    0.000    0.714    0.000    3.429    0.000    0.000 
#    0.000    0.000    0.000    0.000    0.000    0.000 
#
# Total GULP energy -78159.716309 kJ/mol
# GULP energy per Si atom -5582.836879 kJ/mol
# Density = 2.388167 g / cm^3
# Si number density = 23.936153 Si / 1000 Ang^3
#
#
#
# Elastic Constant Matrix: (Units=GPa)
#
#
# Indices 1 2 3 4 5 6 
#
# 1 163.4025 3.3361 28.9518 -3.1656 2.8982 -5.9055
# 2 3.3361 57.7867 -1.5044 -7.4369 -1.0510 -0.1213
# 3 28.9518 -1.5044 96.5163 5.8191 16.4252 -4.4964
# 4 -3.1656 -7.4369 5.8191 29.9101 -2.3038 -2.6638
# 5 2.8982 -1.0510 16.4252 -2.3038 32.3243 -8.9319
# 6 -5.9055 -0.1213 -4.4964 -2.6638 -8.9319 26.4580
#
#
#
# Elastic Compliance Matrix: (Units=1/GPa)
#
#
# Indices 1 2 3 4 5 6 
#
# 1 0.006570 -0.000250 -0.002152 0.001270 0.001021 0.001572
# 2 -0.000250 0.017937 -0.000092 0.004625 0.001228 0.000891
# 3 -0.002152 -0.000092 0.012267 -0.003222 -0.006529 -0.000924
# 4 0.001270 0.004625 -0.003222 0.036263 0.005735 0.005344
# 5 0.001021 0.001228 -0.006529 0.005735 0.038081 0.012557
# 6 0.001572 0.000891 -0.000924 0.005344 0.012557 0.042771
#
#
# Mechanical properties :
#
#
# Convention : Reuss Voigt Hill
#
# Bulk Modulus (GPa) = 31.45994 42.14137 36.80065
# Shear Modulus (GPa) = 29.50378 36.86661 33.18520
#
# Velocity S-wave (km/s) = 3.51465 3.92880 3.72749
# Velocity P-wave (km/s) = 5.44446 6.18261 5.82524
#
# Compressibility (1/GPa) = 0.03178646
#
# Stress axis : x y z
#
# Youngs Moduli (GPa) = 152.21820 55.75223 81.51816
#
# Poissons Ratio (x) = 0.01393 0.17540
# Poissons Ratio (y) = 0.03804 0.00748
# Poissons Ratio (z) = 0.32752 0.00512
#
# Static dielectric constant tensor:
#      x y z
#    x 1.908010 -0.066670 0.003110 
#    y -0.066670 2.116370 0.000910 
#    z 0.003110 0.000910 1.933090 
# 
# From -- ./inp_files/432140.got.cif
#   From: 2010.05.17/outbox.cif.g08.bks.cpg/sg2_217_cif.got.tgz:432140.got - 2010.06.03 11:33:40.
