data_PCOD9058665
_publ_section_title
;
Structure prediction by ZEFSAII (Michael W. Deem and Ramdas Pophale) SiO2 
 PCOD9058665
Probable space group: P -1
;
_chemical_formula_sum "Si O2"
_cell_formula_units_Z 16
_cell_length_a 6.587794
_cell_length_b 16.977703
_cell_length_c 15.826718
_cell_angle_alpha 146.062578
_cell_angle_beta 48.167854
_cell_angle_gamma 131.910424
_cell_volume 707.836286
_symmetry_space_group_name_H-M "P -1"
_symmetry_group_IT_number 2
_symmetry_cell_setting 'triclinic'
loop_
_space_group_symop_operation_xyz
x,y,z
-x,-y,-z
loop_
_atom_site_type_symbol
_atom_site_label
_atom_site_fract_x
_atom_site_fract_y
_atom_site_fract_z
Si Si1 0.690159 0.656399 0.616106
Si Si2 0.761704 0.190287 0.310756
Si Si3 0.293639 0.840938 0.902695
Si Si4 0.704550 0.864112 0.104011
Si Si5 0.417963 0.838738 0.340968
Si Si6 0.772662 0.701285 0.442645
Si Si7 0.695255 0.599144 0.104472
Si Si8 0.323011 0.585671 0.884421
O O1 0.500000 0.500000 0.500000
O O2 0.471525 0.733317 0.786855
O O3 0.804513 0.730656 0.560291
O O4 0.968076 0.682825 0.618946
O O5 0.765078 0.187283 0.205735
O O6 0.472922 0.225658 0.451717
O O7 0.769193 0.029903 0.198717
O O8 0.997799 0.831682 0.019955
O O9 0.500000 0.000000 0.000000
O O10 0.509937 0.844073 0.222654
O O11 0.556420 0.740849 0.967223
O O12 0.590029 0.744722 0.261982
O O13 0.081365 0.765699 0.374590
O O14 0.500000 0.000000 0.500000
O O15 0.674549 0.528483 0.292882
O O16 0.647414 0.511476 0.127637
O O17 0.500000 0.500000 0.000000
O O18 0.019436 0.618995 0.005909
#
# Coordination Sequence:
#
# PCOD9058665 Si02
#       8
#     2   2   2   2   2   2   2   2
#     4  11  27  47  75 105 141 194 240 298 369 422
#     4  11  27  48  71 104 153 185 239 307 354 434
#     4  11  26  48  73 103 143 184 248 303 354 420
#     4  12  26  45  73 108 137 196 241 291 371 425
#     4  12  27  44  72 107 147 193 234 292 369 437
#     4  11  27  46  69 108 149 187 240 297 362 433
#     4  11  22  47  63  97 151 186 241 293 339 430
#     4  11  25  42  71 103 137 195 241 289 358 422
#
# _framework density 22.604096999999999
#
# number of rings (size 3 to 8) (size 9 to 14) (size 15 to 20)
#    0.000    0.750    3.750    1.875   10.500    2.500 
#    0.000    0.000    0.000    0.000    0.000    0.000 
#    0.000    0.000    0.000    0.000    0.000    0.000 
#
# Total GULP energy -89585.040481 kJ/mol
# GULP energy per Si atom -5599.065030 kJ/mol
# Density = 2.255265 g / cm^3
# Si number density = 22.604097 Si / 1000 Ang^3
#
#
#
# Elastic Constant Matrix: (Units=GPa)
#
#
# Indices 1 2 3 4 5 6 
#
# 1 126.9141 33.0517 45.8084 -0.1531 1.5570 20.6276
# 2 33.0517 70.7846 33.1606 -1.7347 -6.3303 17.9335
# 3 45.8084 33.1606 147.7803 14.7122 -10.6655 18.7072
# 4 -0.1531 -1.7347 14.7122 46.9019 7.5356 5.6115
# 5 1.5570 -6.3303 -10.6655 7.5356 46.6233 1.7877
# 6 20.6276 17.9335 18.7072 5.6115 1.7877 43.2058
#
#
#
# Elastic Compliance Matrix: (Units=1/GPa)
#
#
# Indices 1 2 3 4 5 6 
#
# 1 0.009926 -0.002996 -0.002289 0.001168 -0.001351 -0.002600
# 2 -0.002996 0.018292 -0.002536 0.001797 0.001919 -0.005377
# 3 -0.002289 -0.002536 0.008676 -0.003028 0.002257 -0.001311
# 4 0.001168 0.001797 -0.003028 0.023350 -0.004152 -0.002853
# 5 -0.001351 0.001919 0.002257 -0.004152 0.023001 -0.001541
# 6 -0.002600 -0.005377 -0.001311 -0.002853 -0.001541 0.027620
#
#
# Mechanical properties :
#
#
# Convention : Reuss Voigt Hill
#
# Bulk Modulus (GPa) = 47.05325 63.28004 55.16664
# Shear Modulus (GPa) = 37.42764 42.91010 40.16887
#
# Velocity S-wave (km/s) = 4.07355 4.36171 4.22009
# Velocity P-wave (km/s) = 6.55641 7.30902 6.94292
#
# Compressibility (1/GPa) = 0.02125252
#
# Stress axis : x y z
#
# Youngs Moduli (GPa) = 100.74069 54.66822 115.26432
#
# Poissons Ratio (x) = 0.16378 0.26388
# Poissons Ratio (y) = 0.30182 0.29227
# Poissons Ratio (z) = 0.23063 0.13862
#
# Static dielectric constant tensor:
#      x y z
#    x 1.844720 -0.042270 -0.039840 
#    y -0.042270 1.822070 -0.010380 
#    z -0.039840 -0.010380 1.877400 
# 
# From -- ./inp_files/550563.got.cif
#   From: 2010.05.17/outbox.cif.g08.bks.cpg/sg2_276_cif.got.tgz:550563.got - 2010.06.03 11:33:40.
