data_PCOD9058841
_publ_section_title
;
Structure prediction by ZEFSAII (Michael W. Deem and Ramdas Pophale) SiO2 
 PCOD9058841
Probable space group: P -1
;
_chemical_formula_sum "Si O2"
_cell_formula_units_Z 14
_cell_length_a 6.461676
_cell_length_b 14.536948
_cell_length_c 8.442283
_cell_angle_alpha 70.890793
_cell_angle_beta 125.350356
_cell_angle_gamma 109.591297
_cell_volume 600.108881
_symmetry_space_group_name_H-M "P -1"
_symmetry_group_IT_number 2
_symmetry_cell_setting 'triclinic'
loop_
_space_group_symop_operation_xyz
x,y,z
-x,-y,-z
loop_
_atom_site_type_symbol
_atom_site_label
_atom_site_fract_x
_atom_site_fract_y
_atom_site_fract_z
Si Si1 0.190676 0.205470 0.091807
Si Si2 0.301620 0.782912 0.308600
Si Si3 0.523734 0.381127 0.736623
Si Si4 0.769574 0.250132 0.340661
Si Si5 0.730652 0.589102 0.088891
Si Si6 0.095458 0.450461 0.289377
Si Si7 0.133417 0.111079 0.459853
O O1 0.485133 0.197092 0.186328
O O2 0.111662 0.143054 0.249801
O O3 0.213366 0.324846 0.066027
O O4 0.958449 0.180655 0.877947
O O5 0.359081 0.704486 0.246786
O O6 0.266072 0.734004 0.495637
O O7 0.560756 0.865804 0.382228
O O8 0.356889 0.352967 0.833923
O O9 0.318316 0.413259 0.506988
O O10 0.744826 0.478978 0.813674
O O11 0.875867 0.352186 0.236325
O O12 0.981958 0.182487 0.450637
O O13 0.962316 0.533774 0.267338
O O14 0.500000 0.500000 0.000000
O O15 0.000000 0.000000 0.500000
#
# Coordination Sequence:
#
# PCOD9058841 Si02
#       7
#     2   2   2   2   2   2   2
#     4  11  26  43  71 108 141 182 237 283 352 420
#     4  11  25  46  72 105 141 185 240 288 351 420
#     4  11  25  37  65  98 142 196 238 274 332 415
#     4  11  25  44  73  99 146 185 233 293 350 416
#     4  12  25  38  62 101 149 187 229 277 337 409
#     4  11  23  37  64  94 141 188 234 270 334 406
#     4  11  28  52  77 102 134 180 238 304 368 417
#
# _framework density 23.329101999999999
#
# number of rings (size 3 to 8) (size 9 to 14) (size 15 to 20)
#    0.000    0.857    4.286    1.286    8.000    3.429 
#    0.000    1.429    0.000    0.000    0.000    0.000 
#    0.000    0.000    0.000    0.000    0.000    0.000 
#
# Total GULP energy -78240.204993 kJ/mol
# GULP energy per Si atom -5588.586071 kJ/mol
# Density = 2.327600 g / cm^3
# Si number density = 23.329102 Si / 1000 Ang^3
#
#
#
# Elastic Constant Matrix: (Units=GPa)
#
#
# Indices 1 2 3 4 5 6 
#
# 1 120.5146 35.2158 35.8444 1.8586 3.6246 25.9054
# 2 35.2158 121.4094 27.6605 -17.8227 -9.4814 47.5193
# 3 35.8444 27.6605 84.0151 0.9137 16.9941 26.8981
# 4 1.8586 -17.8227 0.9137 27.9385 18.2299 -0.4262
# 5 3.6246 -9.4814 16.9941 18.2299 43.0641 6.2187
# 6 25.9054 47.5193 26.8981 -0.4262 6.2187 41.6198
#
#
#
# Elastic Compliance Matrix: (Units=1/GPa)
#
#
# Indices 1 2 3 4 5 6 
#
# 1 0.010305 -0.001251 -0.003293 -0.002516 0.001674 -0.003134
# 2 -0.001251 0.018174 0.000457 0.009456 0.002898 -0.020603
# 3 -0.003293 0.000457 0.017273 0.004439 -0.007086 -0.008532
# 4 -0.002516 0.009456 0.004439 0.056083 -0.022010 -0.008237
# 5 0.001674 0.002898 -0.007086 -0.022010 0.036621 -0.005469
# 6 -0.003134 -0.020603 -0.008532 -0.008237 -0.005469 0.055748
#
#
# Mechanical properties :
#
#
# Convention : Reuss Voigt Hill
#
# Bulk Modulus (GPa) = 26.61007 58.15339 42.38173
# Shear Modulus (GPa) = 23.26630 37.67237 30.46933
#
# Velocity S-wave (km/s) = 3.16144 4.02285 3.61787
# Velocity P-wave (km/s) = 4.97569 6.82343 5.97146
#
# Compressibility (1/GPa) = 0.03757975
#
# Stress axis : x y z
#
# Youngs Moduli (GPa) = 97.04365 55.02474 57.89243
#
# Poissons Ratio (x) = 0.06883 0.19062
# Poissons Ratio (y) = 0.12139 -0.02648
# Poissons Ratio (z) = 0.31952 -0.02517
#
# Static dielectric constant tensor:
#      x y z
#    x 1.918830 0.033960 0.011970 
#    y 0.033960 1.859060 0.039440 
#    z 0.011970 0.039440 1.908250 
# 
# From -- ./inp_files/128144.got.cif
#   From: 2010.05.17/outbox.cif.g08.bks.cpg/sg2_65_cif.got.tgz:128144.got - 2010.06.03 11:33:40.
