data_PCOD9058331
_publ_section_title
;
Structure prediction by ZEFSAII (Michael W. Deem and Ramdas Pophale) SiO2 
 PCOD9058331
Probable space group: P -1
;
_chemical_formula_sum "Si O2"
_cell_formula_units_Z 16
_cell_length_a 15.629067
_cell_length_b 9.510609
_cell_length_c 18.548460
_cell_angle_alpha 38.401215
_cell_angle_beta 142.157041
_cell_angle_gamma 150.466620
_cell_volume 790.101600
_symmetry_space_group_name_H-M "P -1"
_symmetry_group_IT_number 2
_symmetry_cell_setting 'triclinic'
loop_
_space_group_symop_operation_xyz
x,y,z
-x,-y,-z
loop_
_atom_site_type_symbol
_atom_site_label
_atom_site_fract_x
_atom_site_fract_y
_atom_site_fract_z
Si Si1 0.752564 0.221176 0.764451
Si Si2 0.163608 0.469318 0.957431
Si Si3 0.440192 0.450698 0.063215
Si Si4 0.709363 0.216467 0.580347
Si Si5 0.340490 0.138536 0.825818
Si Si6 0.035201 0.117329 0.558580
Si Si7 0.714979 0.706526 0.770205
Si Si8 0.687251 0.625699 0.614458
O O1 0.713106 0.302346 0.630232
O O2 0.719454 0.388264 0.730604
O O3 0.960843 0.345769 0.853559
O O4 0.615104 0.863282 0.825484
O O5 0.297476 0.827729 0.914882
O O6 0.263620 0.418270 0.983914
O O7 0.153063 0.318909 0.086055
O O8 0.606275 0.726901 0.112148
O O9 0.500000 0.500000 0.000000
O O10 0.851435 0.527044 0.508213
O O11 0.500000 0.000000 0.500000
O O12 0.764604 0.014058 0.701745
O O13 0.162662 0.072609 0.702104
O O14 0.513915 0.413305 0.783838
O O15 0.000000 0.000000 0.500000
O O16 0.846861 0.920406 0.556759
O O17 0.703123 0.699979 0.679224
O O18 0.500000 0.500000 0.500000
#
# Coordination Sequence:
#
# PCOD9058331 Si02
#       8
#     2   2   2   2   2   2   2   2
#     4  12  24  45  68  98 136 184 223 285 341 414
#     4  11  24  45  70  99 137 183 229 271 352 415
#     4  11  25  42  67 104 138 172 223 283 343 409
#     4  12  22  44  72  94 135 185 228 279 344 410
#     4  11  22  45  69  98 138 183 226 276 345 419
#     4  12  23  44  71 100 131 184 235 280 342 408
#     4  11  24  41  69  99 138 180 221 286 343 407
#     4  12  27  44  67 103 137 178 237 286 340 401
#
# _framework density 20.250561000000001
#
# number of rings (size 3 to 8) (size 9 to 14) (size 15 to 20)
#    0.000    0.500    6.250    3.375    3.500    2.000 
#    0.000    0.000    0.000    0.000    0.000    0.000 
#    0.000    0.000    0.000    0.000    0.000    0.000 
#
# Total GULP energy -89374.570528 kJ/mol
# GULP energy per Si atom -5585.910658 kJ/mol
# Density = 2.020447 g / cm^3
# Si number density = 20.250561 Si / 1000 Ang^3
#
#
#
# Elastic Constant Matrix: (Units=GPa)
#
#
# Indices 1 2 3 4 5 6 
#
# 1 94.4447 30.2500 32.0093 3.4222 -30.9682 -5.5812
# 2 30.2500 110.4230 43.6141 -16.6223 -0.2731 1.8920
# 3 32.0093 43.6141 96.4702 -0.3275 -4.8310 13.0466
# 4 3.4222 -16.6223 -0.3275 65.0889 -6.1709 6.5412
# 5 -30.9682 -0.2731 -4.8310 -6.1709 37.6434 2.7803
# 6 -5.5812 1.8920 13.0466 6.5412 2.7803 28.1011
#
#
#
# Elastic Compliance Matrix: (Units=1/GPa)
#
#
# Indices 1 2 3 4 5 6 
#
# 1 0.017956 -0.003387 -0.004383 -0.001008 0.013672 0.004711
# 2 -0.003387 0.012225 -0.004561 0.002991 -0.002808 0.000204
# 3 -0.004383 -0.004561 0.014800 -0.000249 -0.001244 -0.007254
# 4 -0.001008 0.002991 -0.000249 0.016837 0.002247 -0.004428
# 5 0.013672 -0.002808 -0.001244 0.002247 0.038060 -0.000807
# 6 0.004711 0.000204 -0.007254 -0.004428 -0.000807 0.040986
#
#
# Mechanical properties :
#
#
# Convention : Reuss Voigt Hill
#
# Bulk Modulus (GPa) = 49.21236 57.00942 53.11089
# Shear Modulus (GPa) = 29.01919 39.19764 34.10842
#
# Velocity S-wave (km/s) = 3.78961 4.40435 4.10850
# Velocity P-wave (km/s) = 6.59566 7.35375 6.98499
#
# Compressibility (1/GPa) = 0.02032010
#
# Stress axis : x y z
#
# Youngs Moduli (GPa) = 55.69092 81.79861 67.56718
#
# Poissons Ratio (x) = 0.27702 0.29613
# Poissons Ratio (y) = 0.18861 0.30819
# Poissons Ratio (z) = 0.24408 0.37310
#
# Static dielectric constant tensor:
#      x y z
#    x 1.711160 -0.004480 0.015840 
#    y -0.004480 1.712410 -0.005790 
#    z 0.015840 -0.005790 1.732340 
# 
# From -- ./inp_files/184806.got.cif
#   From: 2010.05.17/outbox.cif.g08.bks.cpg/sg2_93_cif.got.tgz:184806.got - 2010.06.03 11:33:40.
