data_PCOD9058167
_publ_section_title
;
Structure prediction by ZEFSAII (Michael W. Deem and Ramdas Pophale) SiO2 
 PCOD9058167
Probable space group: P -1
;
_chemical_formula_sum "Si O2"
_cell_formula_units_Z 15
_cell_length_a 23.257161
_cell_length_b 16.740285
_cell_length_c 8.510793
_cell_angle_alpha 30.770619
_cell_angle_beta 150.566085
_cell_angle_gamma 160.186646
_cell_volume 535.900549
_symmetry_space_group_name_H-M "P -1"
_symmetry_group_IT_number 2
_symmetry_cell_setting 'triclinic'
loop_
_space_group_symop_operation_xyz
x,y,z
-x,-y,-z
loop_
_atom_site_type_symbol
_atom_site_label
_atom_site_fract_x
_atom_site_fract_y
_atom_site_fract_z
Si Si1 0.425465 0.716386 0.159411
Si Si2 0.348323 0.858361 0.246582
Si Si3 0.403383 0.441608 0.066668
Si Si4 0.000000 0.500000 0.000000
Si Si5 0.848376 0.334969 0.278048
Si Si6 0.826993 0.717260 0.928004
Si Si7 0.237791 0.043435 0.836463
Si Si8 0.182217 0.011558 0.091331
O O1 0.514363 0.642200 0.541330
O O2 0.310309 0.551950 0.008954
O O3 0.281890 0.647423 0.050632
O O4 0.561478 0.984832 0.960079
O O5 0.185874 0.572414 0.329837
O O6 0.500000 0.000000 0.500000
O O7 0.210428 0.859439 0.978597
O O8 0.234010 0.305977 0.004642
O O9 0.558584 0.729626 0.985613
O O10 0.311899 0.296016 0.930929
O O11 0.940053 0.403901 0.210898
O O12 0.732335 0.066256 0.520781
O O13 0.000000 0.500000 0.500000
O O14 0.788976 0.839053 0.537156
O O15 0.022122 0.866628 0.079413
O O16 0.115634 0.926731 0.897527
#
# Coordination Sequence:
#
# PCOD9058167 Si02
#       8
#     2   2   2   1   2   2   2   2
#     4  11  22  46  72  98 143 195 235 301 380 439
#     4  12  25  46  74 106 151 197 249 313 378 447
#     4  11  23  44  68 104 139 189 249 298 370 453
#     4  12  30  48  76 118 146 198 262 304 374 466
#     4  12  26  50  76 111 154 198 252 317 380 443
#     4  11  22  44  72  97 140 195 241 293 369 444
#     4  11  23  45  67 101 143 190 240 297 390 434
#     4  12  25  41  69 107 142 185 250 311 360 452
#
# _framework density 27.990271
#
# number of rings (size 3 to 8) (size 9 to 14) (size 15 to 20)
#    0.000    0.533    4.000    5.200    0.000    3.200 
#    2.400    0.000    0.000    0.000    0.000    0.000 
#    0.000    0.000    0.000    0.000    0.000    0.000 
#
# Total GULP energy -83767.804441 kJ/mol
# GULP energy per Si atom -5584.520296 kJ/mol
# Density = 2.792656 g / cm^3
# Si number density = 27.990271 Si / 1000 Ang^3
#
#
#
# Elastic Constant Matrix: (Units=GPa)
#
#
# Indices 1 2 3 4 5 6 
#
# 1 179.8170 41.8969 39.7159 -15.9623 -2.7158 -1.3551
# 2 41.8969 92.1579 15.5851 -5.6218 -5.3281 20.0190
# 3 39.7159 15.5851 93.8191 -11.4994 -10.3595 9.9077
# 4 -15.9623 -5.6218 -11.4994 38.3063 -1.8377 0.7274
# 5 -2.7158 -5.3281 -10.3595 -1.8377 40.7717 3.1011
# 6 -1.3551 20.0190 9.9077 0.7274 3.1011 53.6643
#
#
#
# Elastic Compliance Matrix: (Units=1/GPa)
#
#
# Indices 1 2 3 4 5 6 
#
# 1 0.006981 -0.003078 -0.002503 0.001641 -0.000636 0.001801
# 2 -0.003078 0.013573 -0.000068 0.000884 0.001991 -0.005255
# 3 -0.002503 -0.000068 0.012749 0.002987 0.003398 -0.002628
# 4 0.001641 0.000884 0.002987 0.027954 0.002347 -0.001354
# 5 -0.000636 0.001991 0.003398 0.002347 0.025936 -0.002917
# 6 0.001801 -0.005255 -0.002628 -0.001354 -0.002917 0.021312
#
#
# Mechanical properties :
#
#
# Convention : Reuss Voigt Hill
#
# Bulk Modulus (GPa) = 45.44951 62.24333 53.84642
# Shear Modulus (GPa) = 39.32731 44.45489 41.89110
#
# Velocity S-wave (km/s) = 3.75245 3.98958 3.87283
# Velocity P-wave (km/s) = 5.92008 6.59607 6.26719
#
# Compressibility (1/GPa) = 0.02200244
#
# Stress axis : x y z
#
# Youngs Moduli (GPa) = 143.24665 73.67798 78.43925
#
# Poissons Ratio (x) = 0.22681 0.19635
# Poissons Ratio (y) = 0.44096 0.00536
# Poissons Ratio (z) = 0.35857 0.00504
#
# Static dielectric constant tensor:
#      x y z
#    x 2.124570 0.085550 0.006280 
#    y 0.085550 1.608790 0.090150 
#    z 0.006280 0.090150 2.213190 
# 
# From -- ./inp_files/160197.got.cif
#   From: 2010.05.17/outbox.cif.g08.bks.cpg/sg2_81_cif.got.tgz:160197.got - 2010.06.03 11:33:40.
