data_PCOD9058153
_publ_section_title
;
Structure prediction by ZEFSAII (Michael W. Deem and Ramdas Pophale) SiO2 
 PCOD9058153
Probable space group: P -1
;
_chemical_formula_sum "Si O2"
_cell_formula_units_Z 14
_cell_length_a 13.431767
_cell_length_b 5.083006
_cell_length_c 13.357983
_cell_angle_alpha 55.570535
_cell_angle_beta 48.897095
_cell_angle_gamma 55.106537
_cell_volume 536.574684
_symmetry_space_group_name_H-M "P -1"
_symmetry_group_IT_number 2
_symmetry_cell_setting 'triclinic'
loop_
_space_group_symop_operation_xyz
x,y,z
-x,-y,-z
loop_
_atom_site_type_symbol
_atom_site_label
_atom_site_fract_x
_atom_site_fract_y
_atom_site_fract_z
Si Si1 0.699947 0.689971 0.799941
Si Si2 0.884546 0.846162 0.384397
Si Si3 0.524756 0.692527 0.277910
Si Si4 0.222313 0.601325 0.975004
Si Si5 0.666326 0.494044 0.429307
Si Si6 0.070504 0.281698 0.834087
Si Si7 0.137119 0.809214 0.363001
O O1 0.749794 0.394318 0.749878
O O2 0.557740 0.963619 0.797621
O O3 0.811223 0.897648 0.688770
O O4 0.702384 0.529450 0.942139
O O5 0.945279 0.880751 0.227998
O O6 0.878707 0.474414 0.490246
O O7 0.990552 0.917651 0.378515
O O8 0.728103 0.098106 0.445383
O O9 0.663044 0.509454 0.163475
O O10 0.571977 0.713332 0.356603
O O11 0.416216 0.486731 0.416598
O O12 0.143497 0.999601 0.928135
O O13 0.083745 0.485513 0.083091
O O14 0.808441 0.574440 0.307893
#
# Coordination Sequence:
#
# PCOD9058153 Si02
#       7
#     2   2   2   2   2   2   2
#     4  12  25  49  67 107 149 197 235 297 364 447
#     4  11  22  44  72 105 140 180 250 309 356 420
#     4  11  25  46  69 105 146 188 241 294 368 434
#     4  11  25  46  69 105 146 188 241 294 368 434
#     4  11  24  45  75 103 139 186 246 303 360 425
#     4  11  24  45  75 103 139 186 246 303 360 425
#     4  11  26  42  78 105 143 189 250 300 366 420
#
# _framework density 26.091426999999999
#
# number of rings (size 3 to 8) (size 9 to 14) (size 15 to 20)
#    0.000    0.857    4.286    2.143    0.000    4.571 
#    0.000    2.143    0.000    0.000    0.000    0.000 
#    0.000    0.000    0.000    0.000    0.000    0.000 
#
# Total GULP energy -78371.660148 kJ/mol
# GULP energy per Si atom -5597.975725 kJ/mol
# Density = 2.603204 g / cm^3
# Si number density = 26.091427 Si / 1000 Ang^3
#
#
#
# Elastic Constant Matrix: (Units=GPa)
#
#
# Indices 1 2 3 4 5 6 
#
# 1 79.7876 49.2289 41.8833 -5.7325 8.4804 -38.0975
# 2 49.2289 93.1808 57.9791 25.3751 14.0521 -34.7851
# 3 41.8833 57.9791 182.8584 27.1522 13.7166 -30.2062
# 4 -5.7325 25.3751 27.1522 52.2739 -19.8378 -2.4972
# 5 8.4804 14.0521 13.7166 -19.8378 53.2196 -12.8247
# 6 -38.0975 -34.7851 -30.2062 -2.4972 -12.8247 52.6651
#
#
#
# Elastic Compliance Matrix: (Units=1/GPa)
#
#
# Indices 1 2 3 4 5 6 
#
# 1 0.029422 -0.014511 -0.003034 0.015855 0.008941 0.012888
# 2 -0.014511 0.026660 -0.001236 -0.017630 -0.010239 0.003073
# 3 -0.003034 -0.001236 0.007525 -0.004675 -0.002774 0.000408
# 4 0.015855 -0.017630 -0.004675 0.039157 0.018791 0.003577
# 5 0.008941 -0.010239 -0.002774 0.018791 0.029266 0.006131
# 6 0.012888 0.003073 0.000408 0.003577 0.006131 0.032237
#
#
# Mechanical properties :
#
#
# Convention : Reuss Voigt Hill
#
# Bulk Modulus (GPa) = 38.39546 72.66770 55.53158
# Shear Modulus (GPa) = 23.75182 45.41409 34.58296
#
# Velocity S-wave (km/s) = 3.02044 4.17655 3.64463
# Velocity P-wave (km/s) = 5.18766 7.15330 6.24826
#
# Compressibility (1/GPa) = 0.02604474
#
# Stress axis : x y z
#
# Youngs Moduli (GPa) = 33.98813 37.51005 132.88934
#
# Poissons Ratio (x) = 0.54432 0.40319
# Poissons Ratio (y) = 0.49321 0.16421
# Poissons Ratio (z) = 0.10312 0.04635
#
# Static dielectric constant tensor:
#      x y z
#    x 2.180910 0.089390 -0.087760 
#    y 0.089390 2.087530 -0.060980 
#    z -0.087760 -0.060980 2.085310 
# 
# From -- ./inp_files/123725.got.cif
#   From: 2010.05.17/outbox.cif.g08.bks.cpg/sg2_62_cif.got.tgz:123725.got - 2010.06.03 11:33:40.
