data_PCOD9058554
_publ_section_title
;
Structure prediction by ZEFSAII (Michael W. Deem and Ramdas Pophale) SiO2 
 PCOD9058554
Probable space group: P -1
;
_chemical_formula_sum "Si O2"
_cell_formula_units_Z 16
_cell_length_a 15.462190
_cell_length_b 8.857552
_cell_length_c 12.025208
_cell_angle_alpha 125.957974
_cell_angle_beta 130.989525
_cell_angle_gamma 37.556149
_cell_volume 749.625180
_symmetry_space_group_name_H-M "P -1"
_symmetry_group_IT_number 2
_symmetry_cell_setting 'triclinic'
loop_
_space_group_symop_operation_xyz
x,y,z
-x,-y,-z
loop_
_atom_site_type_symbol
_atom_site_label
_atom_site_fract_x
_atom_site_fract_y
_atom_site_fract_z
Si Si1 0.299716 0.643624 0.342995
Si Si2 0.859217 0.285335 0.987989
Si Si3 0.062548 0.403055 0.885494
Si Si4 0.870418 0.293290 0.552817
Si Si5 0.383048 0.929636 0.617237
Si Si6 0.437712 0.558847 0.097360
Si Si7 0.626564 0.028056 0.125948
Si Si8 0.419102 0.226596 0.616521
O O1 0.204731 0.675714 0.173030
O O2 0.226551 0.688495 0.420379
O O3 0.312625 0.854276 0.440740
O O4 0.454401 0.351540 0.344619
O O5 0.727031 0.361318 0.993931
O O6 0.919647 0.429500 0.100086
O O7 0.000000 0.000000 0.000000
O O8 0.958792 0.370774 0.716804
O O9 0.238959 0.142622 0.923754
O O10 0.000000 0.500000 0.000000
O O11 0.741762 0.507464 0.448537
O O12 0.000000 0.000000 0.500000
O O13 0.308336 0.033123 0.720458
O O14 0.393305 0.121788 0.655668
O O15 0.546103 0.309038 0.153597
O O16 0.459104 0.742230 0.242122
O O17 0.500000 0.500000 0.000000
O O18 0.500000 0.000000 0.000000
O O19 0.500000 0.000000 0.500000
#
# Coordination Sequence:
#
# PCOD9058554 Si02
#       8
#     2   2   2   2   2   2   2   2
#     4  11  22  46  71 101 147 196 243 302 376 443
#     4  12  28  45  70 109 150 192 241 307 373 442
#     4  12  27  48  75 106 145 198 245 300 377 452
#     4  12  27  48  71 109 155 198 240 309 386 449
#     4  11  23  42  75 107 139 191 253 311 365 430
#     4  12  27  46  75 108 145 192 249 311 369 438
#     4  12  24  48  74 103 146 194 256 305 371 443
#     4  12  26  44  76 112 144 191 259 311 364 449
#
# _framework density 21.343997999999999
#
# number of rings (size 3 to 8) (size 9 to 14) (size 15 to 20)
#    0.000    0.250    5.000    3.750    5.250    1.000 
#    0.000    1.250    0.000    0.000    0.000    0.000 
#    0.000    0.000    0.000    0.000    0.000    0.000 
#
# Total GULP energy -89423.191508 kJ/mol
# GULP energy per Si atom -5588.949469 kJ/mol
# Density = 2.129542 g / cm^3
# Si number density = 21.343998 Si / 1000 Ang^3
#
#
#
# Elastic Constant Matrix: (Units=GPa)
#
#
# Indices 1 2 3 4 5 6 
#
# 1 144.1275 40.5038 30.0007 18.6660 -6.0788 1.8977
# 2 40.5038 84.8308 8.4835 19.4784 -0.3081 -6.8448
# 3 30.0007 8.4835 91.0315 23.1273 9.9178 4.7329
# 4 18.6660 19.4784 23.1273 30.5692 5.4952 1.0692
# 5 -6.0788 -0.3081 9.9178 5.4952 48.9176 12.5814
# 6 1.8977 -6.8448 4.7329 1.0692 12.5814 45.1474
#
#
#
# Elastic Compliance Matrix: (Units=1/GPa)
#
#
# Indices 1 2 3 4 5 6 
#
# 1 0.008756 -0.003677 -0.002297 -0.001587 0.002020 -0.001210
# 2 -0.003677 0.015690 0.002018 -0.009299 -0.000406 0.002655
# 3 -0.002297 0.002018 0.014436 -0.010445 -0.001944 -0.000322
# 4 -0.001587 -0.009299 -0.010445 0.048141 -0.003435 -0.000431
# 5 0.002020 -0.000406 -0.001944 -0.003435 0.023090 -0.006296
# 6 -0.001210 0.002655 -0.000322 -0.000431 -0.006296 0.024402
#
#
# Mechanical properties :
#
#
# Convention : Reuss Voigt Hill
#
# Bulk Modulus (GPa) = 32.28871 53.10731 42.69801
# Shear Modulus (GPa) = 32.73291 40.99362 36.86326
#
# Velocity S-wave (km/s) = 3.92035 4.38724 4.16035
# Velocity P-wave (km/s) = 5.97100 7.11333 6.56705
#
# Compressibility (1/GPa) = 0.03097058
#
# Stress axis : x y z
#
# Youngs Moduli (GPa) = 114.20102 63.73483 69.27037
#
# Poissons Ratio (x) = 0.23436 0.15913
# Poissons Ratio (y) = 0.41994 -0.13981
# Poissons Ratio (z) = 0.26234 -0.12864
#
# Static dielectric constant tensor:
#      x y z
#    x 1.888110 0.004600 0.143910 
#    y 0.004600 1.782970 0.076170 
#    z 0.143910 0.076170 2.003070 
# 
# From -- ./inp_files/448228.got.cif
#   From: 2010.05.17/outbox.cif.g08.bks.cpg/sg2_225_cif.got.tgz:448228.got - 2010.06.03 11:33:40.
