data_PCOD9058090
_publ_section_title
;
Structure prediction by ZEFSAII (Michael W. Deem and Ramdas Pophale) SiO2 
 PCOD9058090
Probable space group: P -1
;
_chemical_formula_sum "Si O2"
_cell_formula_units_Z 16
_cell_length_a 24.555042
_cell_length_b 15.469900
_cell_length_c 17.235405
_cell_angle_alpha 154.539073
_cell_angle_beta 160.540212
_cell_angle_gamma 18.393898
_cell_volume 686.169577
_symmetry_space_group_name_H-M "P -1"
_symmetry_group_IT_number 2
_symmetry_cell_setting 'triclinic'
loop_
_space_group_symop_operation_xyz
x,y,z
-x,-y,-z
loop_
_atom_site_type_symbol
_atom_site_label
_atom_site_fract_x
_atom_site_fract_y
_atom_site_fract_z
Si Si1 0.624988 0.394682 0.497536
Si Si2 0.978070 0.668964 0.538330
Si Si3 0.753489 0.832461 0.217107
Si Si4 0.032596 0.658511 0.313525
Si Si5 0.482728 0.852835 0.430633
Si Si6 0.766851 0.112868 0.737479
Si Si7 0.542963 0.552034 0.017427
Si Si8 0.919759 0.916355 0.215108
O O1 0.500000 0.500000 0.500000
O O2 0.447616 0.572842 0.330279
O O3 0.743579 0.079725 0.406414
O O4 0.855870 0.323181 0.727569
O O5 0.853096 0.675344 0.303610
O O6 0.000000 0.500000 0.500000
O O7 0.841728 0.961784 0.632643
O O8 0.220965 0.539028 0.736889
O O9 0.901333 0.646504 0.192624
O O10 0.500000 0.000000 0.000000
O O11 0.268216 0.360246 0.375598
O O12 0.064323 0.862140 0.553222
O O13 0.913159 0.782885 0.173189
O O14 0.322259 0.978419 0.393162
O O15 0.442986 0.656869 0.187345
O O16 0.500000 0.000000 0.500000
O O17 0.000000 0.000000 0.000000
O O18 0.331905 0.874108 0.984068
O O19 0.500000 0.500000 0.000000
#
# Coordination Sequence:
#
# PCOD9058090 Si02
#       8
#     2   2   2   2   2   2   2   2
#     4  11  22  44  70  99 137 177 234 288 348 421
#     4  12  28  46  69 105 144 184 237 291 348 428
#     4  11  26  43  69  98 137 185 233 285 349 417
#     4   9  19  38  62  93 126 173 229 271 334 409
#     4  11  24  42  69 102 140 182 229 291 351 416
#     4  12  26  44  72 104 143 190 229 291 366 413
#     4  11  24  44  69  99 139 185 234 279 351 415
#     4   9  19  37  69  91 123 177 228 274 332 410
#
# _framework density 23.317851999999998
#
# number of rings (size 3 to 8) (size 9 to 14) (size 15 to 20)
#    0.000    1.250    3.750    2.250    8.750    0.000 
#    0.000    0.000    0.000    3.000    0.000    0.000 
#    0.000    0.000    0.000    0.000    0.000    0.000 
#
# Total GULP energy -89089.072793 kJ/mol
# GULP energy per Si atom -5568.067050 kJ/mol
# Density = 2.326478 g / cm^3
# Si number density = 23.317852 Si / 1000 Ang^3
#
#
#
# Elastic Constant Matrix: (Units=GPa)
#
#
# Indices 1 2 3 4 5 6 
#
# 1 173.5319 37.9224 58.4731 -35.4476 14.9192 8.2367
# 2 37.9224 75.4567 14.6325 -27.9573 -5.5435 9.2506
# 3 58.4731 14.6325 64.9906 -33.4007 9.7646 -6.5587
# 4 -35.4476 -27.9573 -33.4007 42.9137 -2.4531 -2.4967
# 5 14.9192 -5.5435 9.7646 -2.4531 34.0585 -13.9249
# 6 8.2367 9.2506 -6.5587 -2.4967 -13.9249 51.5052
#
#
#
# Elastic Compliance Matrix: (Units=1/GPa)
#
#
# Indices 1 2 3 4 5 6 
#
# 1 0.009476 -0.003525 -0.008049 -0.001118 -0.003710 -0.002964
# 2 -0.003525 0.019628 0.005466 0.014330 0.004004 -0.000488
# 3 -0.008049 0.005466 0.034514 0.024006 -0.001521 0.005453
# 4 -0.001118 0.014330 0.024006 0.050652 0.000969 0.003379
# 5 -0.003710 0.004004 -0.001521 0.000969 0.036013 0.009464
# 6 -0.002964 -0.000488 0.005453 0.003379 0.009464 0.023394
#
#
# Mechanical properties :
#
#
# Convention : Reuss Voigt Hill
#
# Bulk Modulus (GPa) = 19.45401 59.55947 39.50674
# Shear Modulus (GPa) = 24.62738 39.22556 31.92647
#
# Velocity S-wave (km/s) = 3.25339 4.10593 3.70426
# Velocity P-wave (km/s) = 4.74065 6.93369 5.93927
#
# Compressibility (1/GPa) = 0.05140328
#
# Stress axis : x y z
#
# Youngs Moduli (GPa) = 105.52615 50.94836 28.97388
#
# Poissons Ratio (x) = 0.17959 0.23320
# Poissons Ratio (y) = 0.37198 -0.15838
# Poissons Ratio (z) = 0.84933 -0.27850
#
# Static dielectric constant tensor:
#      x y z
#    x 1.824130 0.034170 -0.036870 
#    y 0.034170 1.822450 0.032410 
#    z -0.036870 0.032410 1.899280 
# 
# From -- ./inp_files/508997.got.cif
#   From: 2010.05.17/outbox.cif.g08.bks.cpg/sg2_255_cif.got.tgz:508997.got - 2010.06.03 11:33:40.
