data_PCOD9058463
_publ_section_title
;
Structure prediction by ZEFSAII (Michael W. Deem and Ramdas Pophale) SiO2 
 PCOD9058463
Probable space group: P -1
;
_chemical_formula_sum "Si O2"
_cell_formula_units_Z 15
_cell_length_a 15.828010
_cell_length_b 8.245412
_cell_length_c 11.401470
_cell_angle_alpha 81.238075
_cell_angle_beta 56.348864
_cell_angle_gamma 127.380343
_cell_volume 663.222335
_symmetry_space_group_name_H-M "P -1"
_symmetry_group_IT_number 2
_symmetry_cell_setting 'triclinic'
loop_
_space_group_symop_operation_xyz
x,y,z
-x,-y,-z
loop_
_atom_site_type_symbol
_atom_site_label
_atom_site_fract_x
_atom_site_fract_y
_atom_site_fract_z
Si Si1 0.688145 0.450583 0.612860
Si Si2 0.003856 0.665713 0.899594
Si Si3 0.292786 0.294743 0.202767
Si Si4 0.613613 0.660676 0.515990
Si Si5 0.000000 0.000000 0.000000
Si Si6 0.724709 0.181270 0.966921
Si Si7 0.065384 0.405835 0.448091
Si Si8 0.250422 0.180678 0.995411
O O1 0.689093 0.550856 0.724524
O O2 0.703521 0.603272 0.479798
O O3 0.857570 0.558301 0.491935
O O4 0.488465 0.092957 0.796217
O O5 0.867461 0.445416 0.921885
O O6 0.216997 0.984680 0.658965
O O7 0.000000 0.500000 0.000000
O O8 0.949586 0.756814 0.999923
O O9 0.500000 0.500000 0.000000
O O10 0.230467 0.255820 0.122678
O O11 0.115560 0.941643 0.416709
O O12 0.500000 0.500000 0.500000
O O13 0.462456 0.490945 0.750262
O O14 0.883999 0.946279 0.991269
O O15 0.764441 0.339033 0.802163
O O16 0.758204 0.028310 0.946607
O O17 0.000000 0.500000 0.500000
#
# Coordination Sequence:
#
# PCOD9058463 Si02
#       8
#     2   2   2   2   1   2   2   2
#     4  11  25  45  70 105 146 192 238 301 368 441
#     4  12  25  46  74 101 142 189 243 303 365 431
#     4  12  23  44  70 101 141 187 246 295 365 439
#     4  11  22  45  74  97 141 192 236 295 369 434
#     4  12  26  46  74 106 138 190 246 304 360 438
#     4  11  23  45  68 102 146 189 236 303 367 429
#     4  12  25  42  67 103 146 190 238 299 362 434
#     4  11  24  45  72 101 144 193 237 301 365 433
#
# _framework density 22.616849999999999
#
# number of rings (size 3 to 8) (size 9 to 14) (size 15 to 20)
#    0.000    0.533    6.667    2.400    3.733    0.000 
#    0.000    0.667    0.000    0.000    0.000    0.000 
#    0.000    0.000    0.000    0.000    0.000    0.000 
#
# Total GULP energy -83625.897050 kJ/mol
# GULP energy per Si atom -5575.059803 kJ/mol
# Density = 2.256537 g / cm^3
# Si number density = 22.616850 Si / 1000 Ang^3
#
#
#
# Elastic Constant Matrix: (Units=GPa)
#
#
# Indices 1 2 3 4 5 6 
#
# 1 157.5595 20.5577 28.5457 -14.8782 13.7256 15.8947
# 2 20.5577 100.5212 18.7665 -24.8246 4.6219 12.5769
# 3 28.5457 18.7665 125.4130 -47.7678 14.1587 -1.9945
# 4 -14.8782 -24.8246 -47.7678 34.5067 0.4514 -9.3190
# 5 13.7256 4.6219 14.1587 0.4514 33.6406 -1.8839
# 6 15.8947 12.5769 -1.9945 -9.3190 -1.8839 42.5563
#
#
#
# Elastic Compliance Matrix: (Units=1/GPa)
#
#
# Indices 1 2 3 4 5 6 
#
# 1 0.007156 -0.000747 -0.001185 0.000247 -0.002465 -0.002562
# 2 -0.000747 0.013253 0.004425 0.015322 -0.003597 -0.000234
# 3 -0.001185 0.004425 0.022522 0.036043 -0.009658 0.007656
# 4 0.000247 0.015322 0.036043 0.094841 -0.017694 0.017054
# 5 -0.002465 -0.003597 -0.009658 -0.017694 0.035485 -0.000773
# 6 -0.002562 -0.000234 0.007656 0.017054 -0.000773 0.028584
#
#
# Mechanical properties :
#
#
# Convention : Reuss Voigt Hill
#
# Bulk Modulus (GPa) = 20.86959 57.69262 39.28110
# Shear Modulus (GPa) = 23.49326 43.18231 33.33778
#
# Velocity S-wave (km/s) = 3.22646 4.37429 3.84347
# Velocity P-wave (km/s) = 4.80911 7.14679 6.09115
#
# Compressibility (1/GPa) = 0.04791661
#
# Stress axis : x y z
#
# Youngs Moduli (GPa) = 139.75111 75.45199 44.40172
#
# Poissons Ratio (x) = 0.05637 0.05262
# Poissons Ratio (y) = 0.10441 -0.19649
# Poissons Ratio (z) = 0.16562 -0.33389
#
# Static dielectric constant tensor:
#      x y z
#    x 1.906720 -0.003550 0.002400 
#    y -0.003550 1.806750 0.086750 
#    z 0.002400 0.086750 1.919300 
# 
# From -- ./inp_files/445765.got.cif
#   From: 2010.05.17/outbox.cif.g08.bks.cpg/sg2_223_cif.got.tgz:445765.got - 2010.06.03 11:33:40.
