data_PCOD9058450
_publ_section_title
;
Structure prediction by ZEFSAII (Michael W. Deem and Ramdas Pophale) SiO2 
 PCOD9058450
Probable space group: P -1
;
_chemical_formula_sum "Si O2"
_cell_formula_units_Z 15
_cell_length_a 9.905260
_cell_length_b 16.545705
_cell_length_c 9.445805
_cell_angle_alpha 115.534572
_cell_angle_beta 133.816574
_cell_angle_gamma 99.634053
_cell_volume 704.227868
_symmetry_space_group_name_H-M "P -1"
_symmetry_group_IT_number 2
_symmetry_cell_setting 'triclinic'
loop_
_space_group_symop_operation_xyz
x,y,z
-x,-y,-z
loop_
_atom_site_type_symbol
_atom_site_label
_atom_site_fract_x
_atom_site_fract_y
_atom_site_fract_z
Si Si1 0.279753 0.855333 0.281686
Si Si2 0.977483 0.728133 0.406244
Si Si3 0.556960 0.193341 0.356772
Si Si4 0.000000 0.500000 0.500000
Si Si5 0.670796 0.688998 0.715396
Si Si6 0.738287 0.232269 0.096199
Si Si7 0.785067 0.998273 0.290768
Si Si8 0.563738 0.480859 0.299559
O O1 0.384642 0.840074 0.483448
O O2 0.500000 0.000000 0.500000
O O3 0.244318 0.776845 0.064518
O O4 0.990377 0.800895 0.055886
O O5 0.164194 0.716122 0.459649
O O6 0.040236 0.743040 0.628936
O O7 0.084599 0.859400 0.523400
O O8 0.674638 0.606230 0.052729
O O9 0.454647 0.257378 0.363033
O O10 0.341645 0.072405 0.006171
O O11 0.248386 0.657773 0.777163
O O12 0.178063 0.479873 0.545216
O O13 0.612941 0.598470 0.479754
O O14 0.537888 0.605542 0.698963
O O15 0.461919 0.093640 0.849030
O O16 0.000000 0.000000 0.500000
#
# Coordination Sequence:
#
# PCOD9058450 Si02
#       8
#     2   2   2   1   2   2   2   2
#     4  12  25  47  69 102 149 180 232 297 352 423
#     4  11  22  45  74 103 137 189 240 293 355 421
#     4  11  24  43  75 102 136 191 235 282 358 428
#     4  12  24  46  66 104 144 186 234 296 362 398
#     4  11  25  48  70 105 141 190 239 285 359 425
#     4  11  25  42  67 103 142 180 232 301 345 420
#     4  11  23  44  74 105 136 181 242 293 354 421
#     4  11  24  46  73 101 145 186 238 298 346 431
#
# _framework density 21.299924000000001
#
# number of rings (size 3 to 8) (size 9 to 14) (size 15 to 20)
#    0.000    0.800    2.667    6.400    1.867    2.667 
#    4.800    0.000    0.000    0.000    0.000    0.000 
#    0.000    0.000    0.000    0.000    0.000    0.000 
#
# Total GULP energy -83685.352845 kJ/mol
# GULP energy per Si atom -5579.023523 kJ/mol
# Density = 2.125144 g / cm^3
# Si number density = 21.299924 Si / 1000 Ang^3
#
#
#
# Elastic Constant Matrix: (Units=GPa)
#
#
# Indices 1 2 3 4 5 6 
#
# 1 133.6243 45.9139 56.5915 -12.3501 9.6920 -13.8391
# 2 45.9139 77.9234 29.9389 -6.5686 7.4153 -9.4078
# 3 56.5915 29.9389 131.4798 -14.5820 5.6326 -2.9519
# 4 -12.3501 -6.5686 -14.5820 44.3954 5.3892 -8.6060
# 5 9.6920 7.4153 5.6326 5.3892 30.2141 -3.1197
# 6 -13.8391 -9.4078 -2.9519 -8.6060 -3.1197 40.0826
#
#
#
# Elastic Compliance Matrix: (Units=1/GPa)
#
#
# Indices 1 2 3 4 5 6 
#
# 1 0.011092 -0.004548 -0.003363 0.002084 -0.001896 0.002815
# 2 -0.004548 0.016739 -0.001538 0.001455 -0.002377 0.002373
# 3 -0.003363 -0.001538 0.009649 0.002012 -0.000747 -0.000438
# 4 0.002084 0.001455 0.002012 0.025861 -0.005358 0.006345
# 5 -0.001896 -0.002377 -0.000747 -0.005358 0.035419 0.000339
# 6 0.002815 0.002373 -0.000438 0.006345 0.000339 0.027834
#
#
# Mechanical properties :
#
#
# Convention : Reuss Voigt Hill
#
# Bulk Modulus (GPa) = 53.81355 67.54623 60.67989
# Shear Modulus (GPa) = 32.96318 36.97731 34.97025
#
# Velocity S-wave (km/s) = 3.93819 4.17109 4.05631
# Velocity P-wave (km/s) = 6.78223 7.41472 7.10552
#
# Compressibility (1/GPa) = 0.01858268
#
# Stress axis : x y z
#
# Youngs Moduli (GPa) = 90.15283 59.74146 103.64025
#
# Poissons Ratio (x) = 0.27168 0.34857
# Poissons Ratio (y) = 0.40998 0.15936
# Poissons Ratio (z) = 0.30321 0.09186
#
# Static dielectric constant tensor:
#      x y z
#    x 1.780170 0.024500 -0.022550 
#    y 0.024500 1.756440 0.030170 
#    z -0.022550 0.030170 1.796200 
# 
# From -- ./inp_files/218427.got.cif
#   From: 2010.05.17/outbox.cif.g08.bks.cpg/sg2_110_cif.got.tgz:218427.got - 2010.06.03 11:33:40.
