data_PCOD9058079
_publ_section_title
;
Structure prediction by ZEFSAII (Michael W. Deem and Ramdas Pophale) SiO2 
 PCOD9058079
Probable space group: P -1
;
_chemical_formula_sum "Si O2"
_cell_formula_units_Z 16
_cell_length_a 23.175371
_cell_length_b 9.050067
_cell_length_c 19.733989
_cell_angle_alpha 32.182618
_cell_angle_beta 18.088519
_cell_angle_gamma 32.301343
_cell_volume 663.389088
_symmetry_space_group_name_H-M "P -1"
_symmetry_group_IT_number 2
_symmetry_cell_setting 'triclinic'
loop_
_space_group_symop_operation_xyz
x,y,z
-x,-y,-z
loop_
_atom_site_type_symbol
_atom_site_label
_atom_site_fract_x
_atom_site_fract_y
_atom_site_fract_z
Si Si1 0.608163 0.215146 0.758431
Si Si2 0.287400 0.330031 0.969409
Si Si3 0.909063 0.668164 0.944278
Si Si4 0.235158 0.216957 0.794578
Si Si5 0.998089 0.845404 0.135142
Si Si6 0.897688 0.838192 0.484251
Si Si7 0.493708 0.181188 0.141776
Si Si8 0.578202 0.820780 0.624629
O O1 0.614191 0.488269 0.691684
O O2 0.801217 0.998808 0.598512
O O3 0.474451 0.366231 0.785624
O O4 0.500000 0.000000 0.000000
O O5 0.230724 0.419448 0.920641
O O6 0.104308 0.509387 0.143130
O O7 0.345002 0.993299 0.022025
O O8 0.125398 0.465651 0.770070
O O9 0.819030 0.633298 0.130691
O O10 0.949819 0.981378 0.775249
O O11 0.453366 0.039044 0.624411
O O12 0.117091 0.981116 0.002820
O O13 0.781731 0.886314 0.380513
O O14 0.000000 0.000000 0.000000
O O15 0.711089 0.872452 0.630747
O O16 0.000000 0.500000 0.500000
O O17 0.524284 0.120681 0.210797
O O18 0.500000 0.500000 0.000000
#
# Coordination Sequence:
#
# PCOD9058079 Si02
#       8
#     2   2   2   2   2   2   2   2
#     4  11  26  43  69 106 143 185 237 294 355 424
#     4  11  22  44  70  95 144 178 229 295 341 422
#     4  11  23  45  69 105 135 187 238 285 356 418
#     4  11  25  45  74 101 147 182 236 297 347 430
#     4  12  26  45  70 106 141 186 233 295 358 424
#     4  11  25  43  71 101 138 186 235 288 354 425
#     4  11  24  45  70  99 137 186 234 294 355 421
#     4  12  25  45  73 105 142 189 236 293 364 418
#
# _framework density 24.118575
#
# number of rings (size 3 to 8) (size 9 to 14) (size 15 to 20)
#    0.000    0.750    3.750    3.750    1.750    3.500 
#    0.000    5.000    0.000    0.000    0.000    0.000 
#    0.000    0.000    0.000    0.000    0.000    0.000 
#
# Total GULP energy -89271.365303 kJ/mol
# GULP energy per Si atom -5579.460331 kJ/mol
# Density = 2.406368 g / cm^3
# Si number density = 24.118575 Si / 1000 Ang^3
#
#
#
# Elastic Constant Matrix: (Units=GPa)
#
#
# Indices 1 2 3 4 5 6 
#
# 1 84.6802 6.8866 -1.6617 5.5657 -19.3022 5.5788
# 2 6.8866 165.2843 15.5288 14.4179 -6.6154 1.2290
# 3 -1.6617 15.5288 53.6705 14.7914 -7.3952 0.1191
# 4 5.5657 14.4179 14.7914 34.8288 -4.6033 -9.6153
# 5 -19.3022 -6.6154 -7.3952 -4.6033 32.6073 1.5310
# 6 5.5788 1.2290 0.1191 -9.6153 1.5310 35.0828
#
#
#
# Elastic Compliance Matrix: (Units=1/GPa)
#
#
# Indices 1 2 3 4 5 6 
#
# 1 0.014302 -0.000190 0.002567 -0.003111 0.008735 -0.003510
# 2 -0.000190 0.006396 -0.001137 -0.002282 0.000645 -0.000844
# 3 0.002567 -0.001137 0.022434 -0.009704 0.005163 -0.003329
# 4 -0.003111 -0.002282 -0.009704 0.037295 0.000251 0.010818
# 5 0.008735 0.000645 0.005163 0.000251 0.037316 -0.002989
# 6 -0.003510 -0.000844 -0.003329 0.010818 -0.002989 0.032198
#
#
# Mechanical properties :
#
#
# Convention : Reuss Voigt Hill
#
# Bulk Modulus (GPa) = 21.92424 38.34914 30.13669
# Shear Modulus (GPa) = 30.73799 39.36254 35.05026
#
# Velocity S-wave (km/s) = 3.57382 4.04424 3.81628
# Velocity P-wave (km/s) = 5.11268 6.14350 5.65164
#
# Compressibility (1/GPa) = 0.04561161
#
# Stress axis : x y z
#
# Youngs Moduli (GPa) = 69.92102 156.34608 44.57582
#
# Poissons Ratio (x) = 0.02969 -0.11441
# Poissons Ratio (y) = 0.01328 0.05067
# Poissons Ratio (z) = -0.17946 0.17773
#
# Static dielectric constant tensor:
#      x y z
#    x 2.011930 -0.053700 -0.007220 
#    y -0.053700 1.993810 0.016480 
#    z -0.007220 0.016480 1.937190 
# 
# From -- ./inp_files/601910.got.cif
#   From: 2010.05.17/outbox.cif.g08.bks.cpg/sg2_301_cif.got.tgz:601910.got - 2010.06.03 11:33:40.
