data_PCOD9058151
_publ_section_title
;
Structure prediction by ZEFSAII (Michael W. Deem and Ramdas Pophale) SiO2 
 PCOD9058151
Probable space group: P -1
;
_chemical_formula_sum "Si O2"
_cell_formula_units_Z 16
_cell_length_a 11.850326
_cell_length_b 8.281354
_cell_length_c 12.051905
_cell_angle_alpha 59.429507
_cell_angle_beta 79.948874
_cell_angle_gamma 120.347119
_cell_volume 715.441716
_symmetry_space_group_name_H-M "P -1"
_symmetry_group_IT_number 2
_symmetry_cell_setting 'triclinic'
loop_
_space_group_symop_operation_xyz
x,y,z
-x,-y,-z
loop_
_atom_site_type_symbol
_atom_site_label
_atom_site_fract_x
_atom_site_fract_y
_atom_site_fract_z
Si Si1 0.759828 0.273372 0.598736
Si Si2 0.363119 0.999343 0.516914
Si Si3 0.106001 0.258023 0.309373
Si Si4 0.080753 0.624598 0.823747
Si Si5 0.892803 0.728818 0.173291
Si Si6 0.933282 0.136036 0.687089
Si Si7 0.432676 0.434977 0.661366
Si Si8 0.444219 0.775362 0.174384
O O1 0.912558 0.581980 0.495110
O O2 0.609253 0.195283 0.709210
O O3 0.785207 0.101140 0.708384
O O4 0.742074 0.198674 0.498863
O O5 0.449326 0.295481 0.381506
O O6 0.500000 0.000000 0.500000
O O7 0.256299 0.916547 0.673976
O O8 0.281806 0.498622 0.245515
O O9 0.027802 0.365096 0.241799
O O10 0.000000 0.000000 0.500000
O O11 0.105490 0.117857 0.253214
O O12 0.132311 0.475334 0.829574
O O13 0.000000 0.500000 0.000000
O O14 0.009044 0.787643 0.226363
O O15 0.736841 0.649727 0.279425
O O16 0.000000 0.000000 0.000000
O O17 0.500000 0.500000 0.500000
O O18 0.431140 0.240596 0.800071
O O19 0.500000 0.000000 0.000000
#
# Coordination Sequence:
#
# PCOD9058151 Si02
#       8
#     2   2   2   2   2   2   2   2
#     4  11  23  44  74 103 144 193 241 304 363 450
#     4  12  24  48  73 109 148 196 251 302 377 448
#     4  12  25  46  77 108 145 196 252 302 367 454
#     4  12  27  46  76 112 147 192 250 313 370 439
#     4  12  27  47  72 107 149 193 246 313 370 437
#     4  11  22  44  72 105 136 189 252 292 358 438
#     4  12  28  49  77 107 150 201 250 302 377 458
#     4  12  28  48  72 113 154 191 243 315 381 439
#
# _framework density 22.363807000000001
#
# number of rings (size 3 to 8) (size 9 to 14) (size 15 to 20)
#    0.000    0.250    3.750    5.250    7.000    1.000 
#    2.250    1.250    0.000    0.000    0.000    0.000 
#    0.000    0.000    0.000    0.000    0.000    0.000 
#
# Total GULP energy -89222.022388 kJ/mol
# GULP energy per Si atom -5576.376399 kJ/mol
# Density = 2.231291 g / cm^3
# Si number density = 22.363807 Si / 1000 Ang^3
#
#
#
# Elastic Constant Matrix: (Units=GPa)
#
#
# Indices 1 2 3 4 5 6 
#
# 1 109.7681 6.6895 27.0923 11.1724 18.0710 -8.0028
# 2 6.6895 80.1118 12.6260 -8.7701 -6.2025 -2.8805
# 3 27.0923 12.6260 99.4298 3.8678 10.3258 -3.7362
# 4 11.1724 -8.7701 3.8678 32.1701 -8.6234 2.1154
# 5 18.0710 -6.2025 10.3258 -8.6234 37.8217 2.6082
# 6 -8.0028 -2.8805 -3.7362 2.1154 2.6082 35.5288
#
#
#
# Elastic Compliance Matrix: (Units=1/GPa)
#
#
# Indices 1 2 3 4 5 6 
#
# 1 0.011741 -0.001830 -0.001858 -0.006466 -0.007098 0.003207
# 2 -0.001830 0.014018 -0.002061 0.006099 0.005142 -0.000233
# 3 -0.001858 -0.002061 0.011266 -0.002161 -0.003085 0.000954
# 4 -0.006466 0.006099 -0.002161 0.039292 0.013952 -0.004553
# 5 -0.007098 0.005142 -0.003085 0.013952 0.035036 -0.004909
# 6 0.003207 -0.000233 0.000954 -0.004553 -0.004909 0.029581
#
#
# Mechanical properties :
#
#
# Convention : Reuss Voigt Hill
#
# Bulk Modulus (GPa) = 39.17536 42.45838 40.81687
# Shear Modulus (GPa) = 31.06744 37.29759 34.18252
#
# Velocity S-wave (km/s) = 3.73122 4.08826 3.91381
# Velocity P-wave (km/s) = 6.00982 6.42742 6.22212
#
# Compressibility (1/GPa) = 0.02552625
#
# Stress axis : x y z
#
# Youngs Moduli (GPa) = 85.17448 71.33878 88.76648
#
# Poissons Ratio (x) = 0.13053 0.16488
# Poissons Ratio (y) = 0.15585 0.18299
# Poissons Ratio (z) = 0.15821 0.14706
#
# Static dielectric constant tensor:
#      x y z
#    x 1.822310 -0.026090 -0.006620 
#    y -0.026090 1.861070 -0.053970 
#    z -0.006620 -0.053970 2.034400 
# 
# From -- ./inp_files/418925.got.cif
#   From: 2010.05.17/outbox.cif.g08.bks.cpg/sg2_210_cif.got.tgz:418925.got - 2010.06.03 11:33:40.
