data_PCOD9058487
_publ_section_title
;
Structure prediction by ZEFSAII (Michael W. Deem and Ramdas Pophale) SiO2 
 PCOD9058487
Probable space group: P -1
;
_chemical_formula_sum "Si O2"
_cell_formula_units_Z 12
_cell_length_a 11.341365
_cell_length_b 10.072831
_cell_length_c 5.422156
_cell_angle_alpha 66.184650
_cell_angle_beta 67.169029
_cell_angle_gamma 56.245407
_cell_volume 460.119312
_symmetry_space_group_name_H-M "P -1"
_symmetry_group_IT_number 2
_symmetry_cell_setting 'triclinic'
loop_
_space_group_symop_operation_xyz
x,y,z
-x,-y,-z
loop_
_atom_site_type_symbol
_atom_site_label
_atom_site_fract_x
_atom_site_fract_y
_atom_site_fract_z
Si Si1 0.936001 0.708523 0.012246
Si Si2 0.914352 0.363512 0.554393
Si Si3 0.362570 0.160063 0.098217
Si Si4 0.322438 0.892354 0.563792
Si Si5 0.416332 0.397167 0.217151
Si Si6 0.153610 0.921931 0.181018
O O1 0.034030 0.611317 0.772765
O O2 0.769679 0.761352 0.044042
O O3 0.994639 0.633152 0.286459
O O4 0.939534 0.882668 0.880608
O O5 0.744409 0.482000 0.648082
O O6 0.934263 0.178595 0.674085
O O7 0.399740 0.294683 0.080067
O O8 0.312873 0.072466 0.418219
O O9 0.500000 0.000000 0.000000
O O10 0.485130 0.743460 0.563179
O O11 0.251553 0.872051 0.385528
O O12 0.247447 0.881210 0.885221
O O13 0.500000 0.500000 0.000000
#
# Coordination Sequence:
#
# PCOD9058487 Si02
#       6
#     2   2   2   2   2   2
#     4  11  25  46  74 109 150 203 251 303 385 454
#     4  12  26  44  75 113 157 194 245 320 380 444
#     4  11  27  52  81 109 150 205 260 313 373 465
#     4  11  24  46  79 107 148 201 260 302 374 448
#     4  12  27  48  77 114 158 197 254 319 383 445
#     4  11  22  45  76 110 151 196 254 311 368 453
#
# _framework density 26.080190000000002
#
# number of rings (size 3 to 8) (size 9 to 14) (size 15 to 20)
#    0.000    0.667    1.667    6.500    0.000    6.000 
#    0.000    0.000    0.000    0.000    0.000    0.000 
#    0.000    0.000    0.000    0.000    0.000    0.000 
#
# Total GULP energy -67415.007052 kJ/mol
# GULP energy per Si atom -5617.917254 kJ/mol
# Density = 2.602083 g / cm^3
# Si number density = 26.080190 Si / 1000 Ang^3
#
#
#
# Elastic Constant Matrix: (Units=GPa)
#
#
# Indices 1 2 3 4 5 6 
#
# 1 175.2359 91.1436 103.4990 -5.7349 23.2739 1.8937
# 2 91.1436 135.1297 76.0055 -3.3890 14.6176 -5.2051
# 3 103.4990 76.0055 219.5645 -1.7381 15.6585 -15.1006
# 4 -5.7349 -3.3890 -1.7381 47.0148 -4.2334 -3.3780
# 5 23.2739 14.6176 15.6585 -4.2334 49.0923 -2.7158
# 6 1.8937 -5.2051 -15.1006 -3.3780 -2.7158 72.5362
#
#
#
# Elastic Compliance Matrix: (Units=1/GPa)
#
#
# Indices 1 2 3 4 5 6 
#
# 1 0.010601 -0.005162 -0.003120 0.000480 -0.002528 -0.001369
# 2 -0.005162 0.011862 -0.001590 0.000165 -0.000528 0.000643
# 3 -0.003120 -0.001590 0.006675 -0.000162 -0.000116 0.001345
# 4 0.000480 0.000165 -0.000162 0.021561 0.001692 0.001033
# 5 -0.002528 -0.000528 -0.000116 0.001692 0.021958 0.000905
# 6 -0.001369 0.000643 0.001345 0.001033 0.000905 0.014230
#
#
# Mechanical properties :
#
#
# Convention : Reuss Voigt Hill
#
# Bulk Modulus (GPa) = 106.45295 119.02514 112.73904
# Shear Modulus (GPa) = 45.55275 51.01412 48.28343
#
# Velocity S-wave (km/s) = 4.18382 4.42752 4.30739
# Velocity P-wave (km/s) = 8.01532 8.47788 8.24984
#
# Compressibility (1/GPa) = 0.00939382
#
# Stress axis : x y z
#
# Youngs Moduli (GPa) = 94.33408 84.29958 149.81267
#
# Poissons Ratio (x) = 0.43519 0.46742
# Poissons Ratio (y) = 0.48699 0.23816
# Poissons Ratio (z) = 0.29432 0.13401
#
# Static dielectric constant tensor:
#      x y z
#    x 2.032870 0.010820 -0.049250 
#    y 0.010820 2.050850 -0.000600 
#    z -0.049250 -0.000600 2.041810 
# 
# From -- ./inp_files/70402.got.cif
#   From: 2010.05.17/outbox.cif.g08.bks.cpg/sg2_36_cif.got.tgz:70402.got - 2010.06.03 11:33:40.
