data_PCOD9058686
_publ_section_title
;
Structure prediction by ZEFSAII (Michael W. Deem and Ramdas Pophale) SiO2 
 PCOD9058686
Probable space group: P -1
;
_chemical_formula_sum "Si O2"
_cell_formula_units_Z 14
_cell_length_a 11.257454
_cell_length_b 9.865655
_cell_length_c 8.997555
_cell_angle_alpha 42.103915
_cell_angle_beta 56.078341
_cell_angle_gamma 71.559998
_cell_volume 547.322294
_symmetry_space_group_name_H-M "P -1"
_symmetry_group_IT_number 2
_symmetry_cell_setting 'triclinic'
loop_
_space_group_symop_operation_xyz
x,y,z
-x,-y,-z
loop_
_atom_site_type_symbol
_atom_site_label
_atom_site_fract_x
_atom_site_fract_y
_atom_site_fract_z
Si Si1 0.560602 0.830127 0.496712
Si Si2 0.158976 0.994840 0.686256
Si Si3 0.081551 0.299181 0.290563
Si Si4 0.621805 0.583227 0.141151
Si Si5 0.379004 0.862930 0.056918
Si Si6 0.876110 0.356237 0.793936
Si Si7 0.239089 0.753470 0.545067
O O1 0.464213 0.604742 0.749009
O O2 0.500000 0.000000 0.500000
O O3 0.720018 0.839380 0.449824
O O4 0.575699 0.928028 0.240153
O O5 0.239052 0.875740 0.601517
O O6 0.049772 0.108109 0.580100
O O7 0.084505 0.839652 0.988852
O O8 0.150341 0.500130 0.169335
O O9 0.932869 0.324075 0.298046
O O10 0.222539 0.275920 0.118125
O O11 0.491477 0.262204 0.901467
O O12 0.675078 0.438512 0.348767
O O13 0.260910 0.723921 0.147085
O O14 0.302418 0.879350 0.254393
O O15 0.000000 0.500000 0.500000
#
# Coordination Sequence:
#
# PCOD9058686 Si02
#       7
#     2   2   2   2   2   2   2
#     4  11  22  47  70 101 140 181 241 291 343 418
#     4  11  25  45  73 104 140 188 231 289 355 418
#     4  12  25  46  75 102 141 187 239 285 354 419
#     4  12  25  45  76 102 136 195 236 286 351 416
#     4  11  26  46  73 104 144 181 237 296 349 414
#     4  11  23  47  74 105 141 183 237 293 344 420
#     4  12  25  49  67 107 147 184 230 296 351 420
#
# _framework density 25.579079
#
# number of rings (size 3 to 8) (size 9 to 14) (size 15 to 20)
#    0.000    0.571    4.286    3.857    0.000    2.857 
#    5.143    0.000    0.000    0.000    0.000    0.000 
#    0.000    0.000    0.000    0.000    0.000    0.000 
#
# Total GULP energy -78321.470470 kJ/mol
# GULP energy per Si atom -5594.390748 kJ/mol
# Density = 2.552086 g / cm^3
# Si number density = 25.579079 Si / 1000 Ang^3
#
#
#
# Elastic Constant Matrix: (Units=GPa)
#
#
# Indices 1 2 3 4 5 6 
#
# 1 147.6147 39.5320 67.5614 -4.1027 1.5741 10.5972
# 2 39.5320 82.0980 28.4291 -4.8187 -3.9936 11.9126
# 3 67.5614 28.4291 142.2958 2.6155 -5.7826 11.3050
# 4 -4.1027 -4.8187 2.6155 30.0790 3.9326 1.4951
# 5 1.5741 -3.9936 -5.7826 3.9326 38.2712 -1.5329
# 6 10.5972 11.9126 11.3050 1.4951 -1.5329 35.4518
#
#
#
# Elastic Compliance Matrix: (Units=1/GPa)
#
#
# Indices 1 2 3 4 5 6 
#
# 1 0.009505 -0.003114 -0.003923 0.001365 -0.001476 -0.000665
# 2 -0.003114 0.014803 -0.001177 0.002085 0.001132 -0.003707
# 3 -0.003923 -0.001177 0.009321 -0.001676 0.001568 -0.001265
# 4 0.001365 0.002085 -0.001676 0.034508 -0.003725 -0.002191
# 5 -0.001476 0.001132 0.001568 -0.003725 0.026963 0.000884
# 6 -0.000665 -0.003707 -0.001265 -0.002191 0.000884 0.030186
#
#
# Mechanical properties :
#
#
# Convention : Reuss Voigt Hill
#
# Bulk Modulus (GPa) = 58.13555 71.45040 64.79297
# Shear Modulus (GPa) = 33.91058 36.52613 35.21835
#
# Velocity S-wave (km/s) = 3.64499 3.78295 3.71461
# Velocity P-wave (km/s) = 6.36331 6.86110 6.61689
#
# Compressibility (1/GPa) = 0.01720118
#
# Stress axis : x y z
#
# Youngs Moduli (GPa) = 105.20502 67.55505 107.28990
#
# Poissons Ratio (x) = 0.21034 0.42092
# Poissons Ratio (y) = 0.32756 0.12627
# Poissons Ratio (z) = 0.41274 0.07951
#
# Static dielectric constant tensor:
#      x y z
#    x 2.019430 -0.039480 -0.006310 
#    y -0.039480 2.091640 0.060230 
#    z -0.006310 0.060230 2.045540 
# 
# From -- ./inp_files/255784.got.cif
#   From: 2010.05.17/outbox.cif.g08.bks.cpg/sg2_128_cif.got.tgz:255784.got - 2010.06.03 11:33:40.
