data_PCOD9058653
_publ_section_title
;
Structure prediction by ZEFSAII (Michael W. Deem and Ramdas Pophale) SiO2 
 PCOD9058653
Probable space group: P -1
;
_chemical_formula_sum "Si O2"
_cell_formula_units_Z 16
_cell_length_a 9.293002
_cell_length_b 9.581814
_cell_length_c 13.774915
_cell_angle_alpha 71.840823
_cell_angle_beta 146.691630
_cell_angle_gamma 106.223462
_cell_volume 639.596854
_symmetry_space_group_name_H-M "P -1"
_symmetry_group_IT_number 2
_symmetry_cell_setting 'triclinic'
loop_
_space_group_symop_operation_xyz
x,y,z
-x,-y,-z
loop_
_atom_site_type_symbol
_atom_site_label
_atom_site_fract_x
_atom_site_fract_y
_atom_site_fract_z
Si Si1 0.123488 0.366656 0.944341
Si Si2 0.350164 0.744983 0.725589
Si Si3 0.310027 0.086458 0.589317
Si Si4 0.778680 0.653342 0.376750
Si Si5 0.402969 0.668282 0.994309
Si Si6 0.129766 0.922117 0.182765
Si Si7 0.614893 0.521325 0.668739
Si Si8 0.930633 0.822753 0.755937
O O1 0.241134 0.512935 0.929027
O O2 0.018100 0.232826 0.847854
O O3 0.869603 0.419814 0.847879
O O4 0.374507 0.303294 0.155188
O O5 0.092205 0.651169 0.567502
O O6 0.411782 0.728181 0.878084
O O7 0.295682 0.914024 0.638293
O O8 0.291505 0.189014 0.649684
O O9 0.580845 0.113270 0.679166
O O10 0.098024 0.137370 0.381837
O O11 0.610945 0.535844 0.372928
O O12 0.670239 0.648490 0.207378
O O13 0.224027 0.766853 0.941203
O O14 0.120619 0.034989 0.240761
O O15 0.000000 0.000000 0.000000
O O16 0.500000 0.500000 0.500000
O O17 0.730923 0.687997 0.698779
#
# Coordination Sequence:
#
# PCOD9058653 Si02
#       8
#     2   2   2   2   2   2   2   2
#     4  11  25  47  73 105 147 188 241 307 363 428
#     4  12  27  48  72 104 157 190 248 299 360 439
#     4  12  24  47  72 105 150 194 241 306 362 433
#     4  12  25  45  76 108 146 195 242 301 370 430
#     4  11  27  46  74 108 144 196 247 295 368 438
#     4  12  24  44  71 107 145 184 239 305 366 425
#     4  11  22  46  79 109 145 187 245 307 363 435
#     4  11  25  44  74 112 142 188 250 301 367 436
#
# _framework density 25.015756
#
# number of rings (size 3 to 8) (size 9 to 14) (size 15 to 20)
#    0.000    0.500    5.000    2.625    1.750    3.000 
#    0.000    1.250    0.000    0.000    0.000    0.000 
#    0.000    0.000    0.000    0.000    0.000    0.000 
#
# Total GULP energy -89685.026219 kJ/mol
# GULP energy per Si atom -5605.314139 kJ/mol
# Density = 2.495882 g / cm^3
# Si number density = 25.015756 Si / 1000 Ang^3
#
#
#
# Elastic Constant Matrix: (Units=GPa)
#
#
# Indices 1 2 3 4 5 6 
#
# 1 116.1774 48.5055 70.0320 8.1119 15.8307 9.7377
# 2 48.5055 150.2991 42.3288 5.9523 9.7705 10.3408
# 3 70.0320 42.3288 151.8936 13.6472 7.6968 5.8664
# 4 8.1119 5.9523 13.6472 47.3826 -2.6701 2.7913
# 5 15.8307 9.7705 7.6968 -2.6701 54.8786 -7.5229
# 6 9.7377 10.3408 5.8664 2.7913 -7.5229 36.8901
#
#
#
# Elastic Compliance Matrix: (Units=1/GPa)
#
#
# Indices 1 2 3 4 5 6 
#
# 1 0.013460 -0.002474 -0.005212 -0.000512 -0.003096 -0.002623
# 2 -0.002474 0.007882 -0.000934 -0.000251 -0.000783 -0.001549
# 3 -0.005212 -0.000934 0.009369 -0.001691 0.000320 0.000341
# 4 -0.000512 -0.000251 -0.001691 0.021841 0.001369 -0.000899
# 5 -0.003096 -0.000783 0.000320 0.001369 0.019955 0.004952
# 6 -0.002623 -0.001549 0.000341 -0.000899 0.004952 0.029258
#
#
# Mechanical properties :
#
#
# Convention : Reuss Voigt Hill
#
# Bulk Modulus (GPa) = 74.23089 82.23362 78.23226
# Shear Modulus (GPa) = 40.48723 44.99717 42.74220
#
# Velocity S-wave (km/s) = 4.02738 4.24577 4.13802
# Velocity P-wave (km/s) = 7.16690 7.54848 7.36016
#
# Compressibility (1/GPa) = 0.01347148
#
# Stress axis : x y z
#
# Youngs Moduli (GPa) = 74.29545 126.86800 106.72970
#
# Poissons Ratio (x) = 0.31386 0.55629
# Poissons Ratio (y) = 0.18380 0.09968
# Poissons Ratio (z) = 0.38724 0.11849
#
# Static dielectric constant tensor:
#      x y z
#    x 2.039050 -0.069460 0.067110 
#    y -0.069460 2.002510 -0.027620 
#    z 0.067110 -0.027620 1.992980 
# 
# From -- ./inp_files/286109.got.cif
#   From: 2010.05.17/outbox.cif.g08.bks.cpg/sg2_144_cif.got.tgz:286109.got - 2010.06.03 11:33:40.
