data_PCOD9058540
_publ_section_title
;
Structure prediction by ZEFSAII (Michael W. Deem and Ramdas Pophale) SiO2 
 PCOD9058540
Probable space group: P -1
;
_chemical_formula_sum "Si O2"
_cell_formula_units_Z 16
_cell_length_a 8.494396
_cell_length_b 20.492058
_cell_length_c 11.766111
_cell_angle_alpha 29.396162
_cell_angle_beta 135.982163
_cell_angle_gamma 127.320527
_cell_volume 697.331704
_symmetry_space_group_name_H-M "P -1"
_symmetry_group_IT_number 2
_symmetry_cell_setting 'triclinic'
loop_
_space_group_symop_operation_xyz
x,y,z
-x,-y,-z
loop_
_atom_site_type_symbol
_atom_site_label
_atom_site_fract_x
_atom_site_fract_y
_atom_site_fract_z
Si Si1 0.209714 0.473308 0.403349
Si Si2 0.339659 0.130356 0.743825
Si Si3 0.714864 0.529902 0.141798
Si Si4 0.910259 0.060198 0.479543
Si Si5 0.484538 0.227796 0.041129
Si Si6 0.393332 0.178700 0.313471
Si Si7 0.739219 0.977444 0.894389
Si Si8 0.475543 0.591177 0.541528
O O1 0.291814 0.595976 0.336453
O O2 0.301122 0.468415 0.326944
O O3 0.944221 0.463624 0.305337
O O4 0.349130 0.352607 0.725213
O O5 0.451678 0.270668 0.576050
O O6 0.110453 0.109359 0.587046
O O7 0.500000 0.000000 0.000000
O O8 0.302037 0.117229 0.878093
O O9 0.647572 0.482825 0.305827
O O10 0.500000 0.500000 0.000000
O O11 0.738087 0.689121 0.909494
O O12 0.725120 0.181525 0.183174
O O13 0.771225 0.934895 0.637778
O O14 0.000000 0.000000 0.500000
O O15 0.522826 0.230511 0.191633
O O16 0.327671 0.105796 0.121968
O O17 0.571622 0.109825 0.600052
O O18 0.000000 0.000000 0.000000
#
# Coordination Sequence:
#
# PCOD9058540 Si02
#       8
#     2   2   2   2   2   2   2   2
#     4  11  26  52  78 110 153 206 255 310 382 467
#     4  12  26  44  72 110 146 190 254 315 379 448
#     4  12  30  48  77 115 152 203 256 316 382 457
#     4  11  26  44  71 106 149 197 244 317 382 453
#     4  11  22  46  70 103 143 195 251 301 387 446
#     4  11  25  46  69 106 148 191 248 306 382 449
#     4  11  23  42  72 103 142 192 244 310 370 444
#     4  11  27  52  77 111 151 202 256 314 385 452
#
# _framework density 22.944604000000002
#
# number of rings (size 3 to 8) (size 9 to 14) (size 15 to 20)
#    0.000    0.750    2.500    4.875    7.000    2.500 
#    0.000    0.000    0.000    0.000    0.000    0.000 
#    0.000    0.000    0.000    0.000    0.000    0.000 
#
# Total GULP energy -89287.822216 kJ/mol
# GULP energy per Si atom -5580.488888 kJ/mol
# Density = 2.289238 g / cm^3
# Si number density = 22.944604 Si / 1000 Ang^3
#
#
#
# Elastic Constant Matrix: (Units=GPa)
#
#
# Indices 1 2 3 4 5 6 
#
# 1 126.4922 23.0394 43.2701 17.8724 7.8767 7.0632
# 2 23.0394 124.5465 42.9707 5.9884 23.1011 13.9212
# 3 43.2701 42.9707 116.3627 0.4349 22.3530 17.0554
# 4 17.8724 5.9884 0.4349 39.5309 3.9435 -1.2925
# 5 7.8767 23.1011 22.3530 3.9435 38.9140 8.2975
# 6 7.0632 13.9212 17.0554 -1.2925 8.2975 38.3448
#
#
#
# Elastic Compliance Matrix: (Units=1/GPa)
#
#
# Indices 1 2 3 4 5 6 
#
# 1 0.009804 -0.000494 -0.003560 -0.004419 0.000883 -0.000383
# 2 -0.000494 0.009931 -0.002492 -0.000913 -0.003933 -0.001586
# 3 -0.003560 -0.002492 0.012078 0.002199 -0.004365 -0.002793
# 4 -0.004419 -0.000913 0.002199 0.027767 -0.003014 0.001756
# 5 0.000883 -0.003933 -0.004365 -0.003014 0.031456 -0.003702
# 6 -0.000383 -0.001586 -0.002793 0.001756 -0.003702 0.028828
#
#
# Mechanical properties :
#
#
# Convention : Reuss Voigt Hill
#
# Bulk Modulus (GPa) = 53.41890 65.10686 59.26288
# Shear Modulus (GPa) = 35.92033 40.56604 38.24318
#
# Velocity S-wave (km/s) = 3.96096 4.20932 4.08703
# Velocity P-wave (km/s) = 6.65216 7.21538 6.93949
#
# Compressibility (1/GPa) = 0.01871997
#
# Stress axis : x y z
#
# Youngs Moduli (GPa) = 101.99582 100.69406 82.79680
#
# Poissons Ratio (x) = 0.04972 0.29479
# Poissons Ratio (y) = 0.05036 0.20636
# Poissons Ratio (z) = 0.36315 0.25097
#
# Static dielectric constant tensor:
#      x y z
#    x 2.150750 0.058430 -0.016520 
#    y 0.058430 1.949000 -0.057150 
#    z -0.016520 -0.057150 1.858560 
# 
# From -- ./inp_files/405349.got.cif
#   From: 2010.05.17/outbox.cif.g08.bks.cpg/sg2_203_cif.got.tgz:405349.got - 2010.06.03 11:33:40.
