data_PCOD9058053
_publ_section_title
;
Structure prediction by ZEFSAII (Michael W. Deem and Ramdas Pophale) SiO2 
 PCOD9058053
Probable space group: P -1
;
_chemical_formula_sum "Si O2"
_cell_formula_units_Z 16
_cell_length_a 10.183496
_cell_length_b 18.727329
_cell_length_c 15.671334
_cell_angle_alpha 24.330247
_cell_angle_beta 35.193493
_cell_angle_gamma 35.599940
_cell_volume 679.513878
_symmetry_space_group_name_H-M "P -1"
_symmetry_group_IT_number 2
_symmetry_cell_setting 'triclinic'
loop_
_space_group_symop_operation_xyz
x,y,z
-x,-y,-z
loop_
_atom_site_type_symbol
_atom_site_label
_atom_site_fract_x
_atom_site_fract_y
_atom_site_fract_z
Si Si1 0.221476 0.161133 0.410291
Si Si2 0.731964 0.046968 0.216984
Si Si3 0.212186 0.816890 0.605639
Si Si4 0.251346 0.263109 0.561357
Si Si5 0.245121 0.875180 0.342855
Si Si6 0.623194 0.764419 0.131952
Si Si7 0.048707 0.456996 0.921310
Si Si8 0.983372 0.661490 0.212949
O O1 0.279224 0.091786 0.549891
O O2 0.038977 0.052114 0.595823
O O3 0.061248 0.365191 0.267720
O O4 0.451838 0.150987 0.242219
O O5 0.837947 0.905399 0.239795
O O6 0.867205 0.191956 0.014957
O O7 0.463363 0.811455 0.517870
O O8 0.282012 0.751226 0.541826
O O9 0.000000 0.000000 0.500000
O O10 0.098571 0.686003 0.860126
O O11 0.145842 0.452751 0.360702
O O12 0.179780 0.305820 0.651179
O O13 0.371737 0.781700 0.291410
O O14 0.363781 0.036443 0.118622
O O15 0.690961 0.639500 0.149060
O O16 0.820014 0.698658 0.174519
O O17 0.000000 0.500000 0.000000
#
# Coordination Sequence:
#
# PCOD9058053 Si02
#       8
#     2   2   2   2   2   2   2   2
#     4  11  24  44  65  98 137 177 237 281 352 419
#     4  11  24  44  71  99 139 187 234 296 345 421
#     4  12  23  44  70  99 141 187 230 286 354 422
#     4  11  25  42  71 105 140 186 237 295 353 417
#     4  11  22  44  69  98 132 188 231 279 356 421
#     4  11  24  43  71  98 137 185 233 289 350 426
#     4  12  26  41  66 105 138 178 230 293 352 419
#     4  11  23  46  69 104 141 184 242 287 356 425
#
# _framework density 23.546244000000002
#
# number of rings (size 3 to 8) (size 9 to 14) (size 15 to 20)
#    0.000    0.750    5.000    2.625    0.000    0.500 
#    0.000    3.125    0.000    0.000    0.000    0.000 
#    0.000    0.000    0.000    0.000    0.000    0.000 
#
# Total GULP energy -89345.740290 kJ/mol
# GULP energy per Si atom -5584.108768 kJ/mol
# Density = 2.349265 g / cm^3
# Si number density = 23.546244 Si / 1000 Ang^3
#
#
#
# Elastic Constant Matrix: (Units=GPa)
#
#
# Indices 1 2 3 4 5 6 
#
# 1 55.3523 22.5601 1.9069 1.7918 -2.9114 -0.4725
# 2 22.5601 117.8926 28.4050 -6.9129 -3.2116 3.3987
# 3 1.9069 28.4050 111.3581 -6.3609 2.4294 -11.9984
# 4 1.7918 -6.9129 -6.3609 29.8103 5.2882 -0.1757
# 5 -2.9114 -3.2116 2.4294 5.2882 28.3650 3.5617
# 6 -0.4725 3.3987 -11.9984 -0.1757 3.5617 38.7816
#
#
#
# Elastic Compliance Matrix: (Units=1/GPa)
#
#
# Indices 1 2 3 4 5 6 
#
# 1 0.019876 -0.004046 0.000580 -0.002342 0.001895 0.000592
# 2 -0.004046 0.010068 -0.002605 0.001865 0.000827 -0.001805
# 3 0.000580 -0.002605 0.010168 0.001890 -0.001906 0.003565
# 4 -0.002342 0.001865 0.001890 0.035773 -0.007011 0.001199
# 5 0.001895 0.000827 -0.001906 -0.007011 0.037530 -0.004118
# 6 0.000592 -0.001805 0.003565 0.001199 -0.004118 0.027437
#
#
# Mechanical properties :
#
#
# Convention : Reuss Voigt Hill
#
# Bulk Modulus (GPa) = 35.75150 43.37191 39.56171
# Shear Modulus (GPa) = 30.80400 34.84013 32.82207
#
# Velocity S-wave (km/s) = 3.62088 3.85079 3.73760
# Velocity P-wave (km/s) = 5.71817 6.18315 5.95520
#
# Compressibility (1/GPa) = 0.02797085
#
# Stress axis : x y z
#
# Youngs Moduli (GPa) = 50.31282 99.32394 98.34606
#
# Poissons Ratio (x) = 0.40187 -0.05708
# Poissons Ratio (y) = 0.20357 0.25618
# Poissons Ratio (z) = -0.02920 0.25872
#
# Static dielectric constant tensor:
#      x y z
#    x 1.991270 0.047680 -0.066410 
#    y 0.047680 1.977840 -0.007610 
#    z -0.066410 -0.007610 1.882390 
# 
# From -- ./inp_files/570657.got.cif
#   From: 2010.05.17/outbox.cif.g08.bks.cpg/sg2_286_cif.got.tgz:570657.got - 2010.06.03 11:33:40.
