data_PCOD9058787
_publ_section_title
;
Structure prediction by ZEFSAII (Michael W. Deem and Ramdas Pophale) SiO2 
 PCOD9058787
Probable space group: P -1
;
_chemical_formula_sum "Si O2"
_cell_formula_units_Z 14
_cell_length_a 9.894878
_cell_length_b 20.300946
_cell_length_c 11.056300
_cell_angle_alpha 31.533575
_cell_angle_beta 40.628122
_cell_angle_gamma 25.609057
_cell_volume 501.595451
_symmetry_space_group_name_H-M "P -1"
_symmetry_group_IT_number 2
_symmetry_cell_setting 'triclinic'
loop_
_space_group_symop_operation_xyz
x,y,z
-x,-y,-z
loop_
_atom_site_type_symbol
_atom_site_label
_atom_site_fract_x
_atom_site_fract_y
_atom_site_fract_z
Si Si1 0.128447 0.823128 0.116671
Si Si2 0.875604 0.808844 0.533365
Si Si3 0.059457 0.669081 0.222434
Si Si4 0.641533 0.243738 0.564010
Si Si5 0.796324 0.762726 0.996763
Si Si6 0.726535 0.604558 0.911245
Si Si7 0.543236 0.157587 0.522987
O O1 0.029508 0.759637 0.374276
O O2 0.993365 0.836493 0.060415
O O3 0.930703 0.180587 0.532771
O O4 0.000000 0.000000 0.000000
O O5 0.898178 0.649655 0.773934
O O6 0.500000 0.000000 0.500000
O O7 0.514841 0.322855 0.933001
O O8 0.396104 0.465720 0.349543
O O9 0.002875 0.698794 0.073711
O O10 0.805264 0.691422 0.417943
O O11 0.451315 0.232383 0.798404
O O12 0.722121 0.143194 0.537098
O O13 0.032306 0.600916 0.991680
O O14 0.647118 0.963887 0.743664
O O15 0.509561 0.749518 0.714633
#
# Coordination Sequence:
#
# PCOD9058787 Si02
#       7
#     2   2   2   2   2   2   2
#     4  12  28  49  84 115 171 230 276 346 435 499
#     4  12  28  53  83 120 170 228 291 347 424 514
#     4  11  22  49  82 124 174 220 281 356 422 515
#     4  11  23  49  87 125 171 228 281 358 426 505
#     4  11  24  46  89 131 170 219 283 355 435 501
#     4  12  26  55  85 123 180 214 283 360 416 521
#     4  11  23  48  89 127 168 222 284 349 432 506
#
# _framework density 27.910938999999999
#
# number of rings (size 3 to 8) (size 9 to 14) (size 15 to 20)
#    0.000    0.571    5.714    2.571    4.000    2.857 
#    2.571    4.286    3.143    0.000    0.000    0.000 
#    0.000    0.000    0.000    0.000    0.000    0.000 
#
# Total GULP energy -78532.848684 kJ/mol
# GULP energy per Si atom -5609.489192 kJ/mol
# Density = 2.784741 g / cm^3
# Si number density = 27.910939 Si / 1000 Ang^3
#
#
#
# Elastic Constant Matrix: (Units=GPa)
#
#
# Indices 1 2 3 4 5 6 
#
# 1 244.7682 102.7439 44.6766 -3.6060 -1.4844 23.6260
# 2 102.7439 269.6705 92.6901 -2.2579 -5.6847 8.9808
# 3 44.6766 92.6901 130.5386 -20.4700 -6.4321 3.1607
# 4 -3.6060 -2.2579 -20.4700 62.1066 5.9674 -5.1629
# 5 -1.4844 -5.6847 -6.4321 5.9674 54.6804 -2.5428
# 6 23.6260 8.9808 3.1607 -5.1629 -2.5428 56.5859
#
#
#
# Elastic Compliance Matrix: (Units=1/GPa)
#
#
# Indices 1 2 3 4 5 6 
#
# 1 0.005066 -0.001701 -0.000501 -0.000068 -0.000176 -0.001831
# 2 -0.001701 0.005567 -0.003528 -0.001087 0.000233 -0.000065
# 3 -0.000501 -0.003528 0.010888 0.003420 0.000550 0.000498
# 4 -0.000068 -0.001087 0.003420 0.017461 -0.001547 0.001534
# 5 -0.000176 0.000233 0.000550 -0.001547 0.018574 0.000699
# 6 -0.001831 -0.000065 0.000498 0.001534 0.000699 0.018591
#
#
# Mechanical properties :
#
#
# Convention : Reuss Voigt Hill
#
# Bulk Modulus (GPa) = 99.39316 125.02204 112.20760
# Shear Modulus (GPa) = 54.96901 61.66571 58.31736
#
# Velocity S-wave (km/s) = 4.44266 4.70550 4.57596
# Velocity P-wave (km/s) = 7.87429 8.62628 8.25885
#
# Compressibility (1/GPa) = 0.01006105
#
# Stress axis : x y z
#
# Youngs Moduli (GPa) = 197.40702 179.62983 91.84035
#
# Poissons Ratio (x) = 0.30558 0.04599
# Poissons Ratio (y) = 0.33582 0.32402
# Poissons Ratio (z) = 0.09886 0.63375
#
# Static dielectric constant tensor:
#      x y z
#    x 2.227970 -0.045090 0.056260 
#    y -0.045090 2.095300 -0.011510 
#    z 0.056260 -0.011510 2.296850 
# 
# From -- ./inp_files/428424.got.cif
#   From: 2010.05.17/outbox.cif.g08.bks.cpg/sg2_215_cif.got.tgz:428424.got - 2010.06.03 11:33:40.
