data_PCOD9058534
_publ_section_title
;
Structure prediction by ZEFSAII (Michael W. Deem and Ramdas Pophale) SiO2 
 PCOD9058534
Probable space group: P -1
;
_chemical_formula_sum "Si O2"
_cell_formula_units_Z 13
_cell_length_a 8.053524
_cell_length_b 7.290481
_cell_length_c 14.205707
_cell_angle_alpha 38.673080
_cell_angle_beta 64.234589
_cell_angle_gamma 74.110585
_cell_volume 466.177951
_symmetry_space_group_name_H-M "P -1"
_symmetry_group_IT_number 2
_symmetry_cell_setting 'triclinic'
loop_
_space_group_symop_operation_xyz
x,y,z
-x,-y,-z
loop_
_atom_site_type_symbol
_atom_site_label
_atom_site_fract_x
_atom_site_fract_y
_atom_site_fract_z
Si Si1 0.056212 0.893406 0.928246
Si Si2 0.247192 0.851361 0.644392
Si Si3 0.701623 0.561090 0.693630
Si Si4 0.655236 0.659845 0.048390
Si Si5 0.712312 0.507544 0.415853
Si Si6 0.000000 0.500000 0.500000
Si Si7 0.820595 0.740624 0.799037
O O1 0.197777 0.152250 0.747483
O O2 0.138304 0.587908 0.047099
O O3 0.857929 0.821270 0.956773
O O4 0.000000 0.000000 0.000000
O O5 0.315778 0.673154 0.786961
O O6 0.253617 0.649684 0.629622
O O7 0.030358 0.911989 0.689770
O O8 0.347299 0.177210 0.468516
O O9 0.532943 0.316635 0.857540
O O10 0.763382 0.720891 0.712620
O O11 0.875369 0.444516 0.649126
O O12 0.644967 0.763243 0.901457
O O13 0.500000 0.500000 0.500000
O O14 0.817723 0.373107 0.529919
#
# Coordination Sequence:
#
# PCOD9058534 Si02
#       7
#     2   2   2   2   2   1   2
#     4  11  22  46  69  99 150 184 245 297 362 445
#     4  11  23  47  72 103 147 194 245 307 372 441
#     4  12  26  47  71 111 148 187 255 307 371 448
#     4  11  25  44  75 108 140 200 243 302 381 441
#     4  12  27  47  74 108 147 200 245 305 376 440
#     4  12  28  46  74 110 150 192 252 306 376 428
#     4  11  24  45  69 107 145 196 238 308 377 430
#
# _framework density 27.886348000000002
#
# number of rings (size 3 to 8) (size 9 to 14) (size 15 to 20)
#    0.000    0.615    4.615    4.154    6.462    0.000 
#    2.769    1.538    0.000    0.000    0.000    0.000 
#    0.000    0.000    0.000    0.000    0.000    0.000 
#
# Total GULP energy -72642.724337 kJ/mol
# GULP energy per Si atom -5587.901872 kJ/mol
# Density = 2.782288 g / cm^3
# Si number density = 27.886348 Si / 1000 Ang^3
#
#
#
# Elastic Constant Matrix: (Units=GPa)
#
#
# Indices 1 2 3 4 5 6 
#
# 1 99.6350 6.8693 34.7085 28.3790 -21.2889 -4.6871
# 2 6.8693 63.1429 51.5156 34.9874 -13.2904 5.1514
# 3 34.7085 51.5156 233.0754 29.4665 -40.2063 -7.4451
# 4 28.3790 34.9874 29.4665 62.4606 6.5481 2.8787
# 5 -21.2889 -13.2904 -40.2063 6.5481 60.2953 16.2671
# 6 -4.6871 5.1514 -7.4451 2.8787 16.2671 42.6525
#
#
#
# Elastic Compliance Matrix: (Units=1/GPa)
#
#
# Indices 1 2 3 4 5 6 
#
# 1 0.014513 0.006946 -0.001102 -0.010679 0.007506 -0.001578
# 2 0.006946 0.032388 -0.003953 -0.020275 0.010950 -0.006646
# 3 -0.001102 -0.003953 0.005820 -0.000317 0.002540 0.000425
# 4 -0.010679 -0.020275 -0.000317 0.033566 -0.013169 0.003977
# 5 0.007506 0.010950 0.002540 -0.013169 0.027363 -0.009602
# 6 -0.001578 -0.006646 0.000425 0.003977 -0.009602 0.027542
#
#
# Mechanical properties :
#
#
# Convention : Reuss Voigt Hill
#
# Bulk Modulus (GPa) = 17.69816 64.67113 41.18465
# Shear Modulus (GPa) = 32.00117 53.26569 42.63343
#
# Velocity S-wave (km/s) = 3.39124 4.37521 3.91426
# Velocity P-wave (km/s) = 4.65771 6.98316 5.93544
#
# Compressibility (1/GPa) = 0.05650306
#
# Stress axis : x y z
#
# Youngs Moduli (GPa) = 68.90439 30.87577 171.81870
#
# Poissons Ratio (x) = -0.21447 0.18934
# Poissons Ratio (y) = -0.47861 0.67920
# Poissons Ratio (z) = 0.07593 0.12205
#
# Static dielectric constant tensor:
#      x y z
#    x 2.185420 0.355230 -0.067350 
#    y 0.355230 3.155840 -0.216390 
#    z -0.067350 -0.216390 2.236800 
# 
# From -- ./inp_files/180159.got.cif
#   From: 2010.05.17/outbox.cif.g08.bks.cpg/sg2_91_cif.got.tgz:180159.got - 2010.06.03 11:33:40.
