data_PCOD9058524
_publ_section_title
;
Structure prediction by ZEFSAII (Michael W. Deem and Ramdas Pophale) SiO2 
 PCOD9058524
Probable space group: P -1
;
_chemical_formula_sum "Si O2"
_cell_formula_units_Z 16
_cell_length_a 7.695451
_cell_length_b 11.390968
_cell_length_c 20.356214
_cell_angle_alpha 40.030999
_cell_angle_beta 45.579372
_cell_angle_gamma 73.972070
_cell_volume 676.026984
_symmetry_space_group_name_H-M "P -1"
_symmetry_group_IT_number 2
_symmetry_cell_setting 'triclinic'
loop_
_space_group_symop_operation_xyz
x,y,z
-x,-y,-z
loop_
_atom_site_type_symbol
_atom_site_label
_atom_site_fract_x
_atom_site_fract_y
_atom_site_fract_z
Si Si1 0.373287 0.853723 0.814778
Si Si2 0.761098 0.948822 0.423965
Si Si3 0.701171 0.355106 0.730395
Si Si4 0.236294 0.876797 0.526921
Si Si5 0.746028 0.377908 0.855887
Si Si6 0.276691 0.399337 0.041047
Si Si7 0.057937 0.207650 0.938681
Si Si8 0.153168 0.813996 0.354685
O O1 0.270691 0.605949 0.931606
O O2 0.543077 0.002122 0.643289
O O3 0.626161 0.971062 0.753368
O O4 0.111503 0.854206 0.919596
O O5 0.422075 0.832490 0.547711
O O6 0.875803 0.822173 0.409761
O O7 0.818180 0.968786 0.479100
O O8 0.962932 0.196815 0.235555
O O9 0.720925 0.291399 0.826215
O O10 0.408888 0.355134 0.797627
O O11 0.687985 0.193936 0.747765
O O12 0.007112 0.589555 0.531719
O O13 0.942439 0.646497 0.685315
O O14 0.427548 0.316401 0.989030
O O15 0.916272 0.313788 0.887923
O O16 0.500000 0.500000 0.000000
O O17 0.000000 0.000000 0.000000
#
# Coordination Sequence:
#
# PCOD9058524 Si02
#       8
#     2   2   2   2   2   2   2   2
#     4  12  24  45  71 102 143 177 234 289 356 407
#     4  11  24  44  69 101 142 181 234 289 355 416
#     4  11  27  44  72 104 138 191 237 283 349 413
#     4  11  25  43  71 105 136 184 231 294 352 418
#     4  12  25  48  72 103 142 188 236 283 357 416
#     4  12  23  43  71 101 139 183 225 294 353 416
#     4  12  26  47  69 104 144 181 233 294 340 414
#     4  11  22  46  69 100 138 182 240 289 332 423
#
# _framework density 23.667694000000001
#
# number of rings (size 3 to 8) (size 9 to 14) (size 15 to 20)
#    0.000    0.500    6.250    0.750    3.500    4.000 
#    0.000    2.500    0.000    0.000    0.000    0.000 
#    0.000    0.000    0.000    0.000    0.000    0.000 
#
# Total GULP energy -89470.982192 kJ/mol
# GULP energy per Si atom -5591.936387 kJ/mol
# Density = 2.361383 g / cm^3
# Si number density = 23.667694 Si / 1000 Ang^3
#
#
#
# Elastic Constant Matrix: (Units=GPa)
#
#
# Indices 1 2 3 4 5 6 
#
# 1 69.2878 23.0446 28.1175 14.5165 -8.1381 11.2981
# 2 23.0446 106.8063 48.7469 36.5587 11.9252 -11.5818
# 3 28.1175 48.7469 123.2353 32.4996 3.9758 6.7420
# 4 14.5165 36.5587 32.4996 53.3642 -0.7099 -2.0031
# 5 -8.1381 11.9252 3.9758 -0.7099 36.3893 8.4156
# 6 11.2981 -11.5818 6.7420 -2.0031 8.4156 27.9813
#
#
#
# Elastic Compliance Matrix: (Units=1/GPa)
#
#
# Indices 1 2 3 4 5 6 
#
# 1 0.020609 -0.005902 -0.001719 -0.000887 0.009804 -0.013362
# 2 -0.005902 0.017582 -0.003986 -0.007654 -0.009807 0.013023
# 3 -0.001719 -0.003986 0.011301 -0.003832 0.000566 -0.004123
# 4 -0.000887 -0.007654 -0.003832 0.026565 0.003486 -0.001033
# 5 0.009804 -0.009807 0.000566 0.003486 0.037317 -0.019128
# 6 -0.013362 0.013023 -0.004123 -0.001033 -0.019128 0.053196
#
#
# Mechanical properties :
#
#
# Convention : Reuss Voigt Hill
#
# Bulk Modulus (GPa) = 38.05276 55.46082 46.75679
# Shear Modulus (GPa) = 25.18321 36.84164 31.01242
#
# Velocity S-wave (km/s) = 3.26549 3.94968 3.62377
# Velocity P-wave (km/s) = 5.50734 6.65462 6.10798
#
# Compressibility (1/GPa) = 0.02627930
#
# Stress axis : x y z
#
# Youngs Moduli (GPa) = 48.52154 56.87504 88.48653
#
# Poissons Ratio (x) = 0.33569 0.15210
# Poissons Ratio (y) = 0.28638 0.35269
# Poissons Ratio (z) = 0.08340 0.22669
#
# Static dielectric constant tensor:
#      x y z
#    x 1.920290 -0.020600 0.024460 
#    y -0.020600 1.949800 -0.002390 
#    z 0.024460 -0.002390 1.895340 
# 
# From -- ./inp_files/399313.got.cif
#   From: 2010.05.17/outbox.cif.g08.bks.cpg/sg2_200_cif.got.tgz:399313.got - 2010.06.03 11:33:40.
