data_PCOD9058309
_publ_section_title
;
Structure prediction by ZEFSAII (Michael W. Deem and Ramdas Pophale) SiO2 
 PCOD9058309
Probable space group: P -1
;
_chemical_formula_sum "Si O2"
_cell_formula_units_Z 16
_cell_length_a 16.000790
_cell_length_b 9.203822
_cell_length_c 20.022997
_cell_angle_alpha 31.769135
_cell_angle_beta 26.975680
_cell_angle_gamma 36.798758
_cell_volume 692.693722
_symmetry_space_group_name_H-M "P -1"
_symmetry_group_IT_number 2
_symmetry_cell_setting 'triclinic'
loop_
_space_group_symop_operation_xyz
x,y,z
-x,-y,-z
loop_
_atom_site_type_symbol
_atom_site_label
_atom_site_fract_x
_atom_site_fract_y
_atom_site_fract_z
Si Si1 0.264261 0.081323 0.964488
Si Si2 0.300195 0.412983 0.673825
Si Si3 0.059376 0.907079 0.706435
Si Si4 0.299085 0.060070 0.584206
Si Si5 0.111023 0.139613 0.812702
Si Si6 0.212524 0.487223 0.174314
Si Si7 0.410482 0.019237 0.130717
Si Si8 0.085001 0.696033 0.457261
O O1 0.264180 0.245648 0.831439
O O2 0.438354 0.136244 0.863838
O O3 0.087112 0.162313 0.107762
O O4 0.271212 0.754505 0.065150
O O5 0.500000 0.500000 0.500000
O O6 0.127403 0.674716 0.693292
O O7 0.284391 0.228122 0.692103
O O8 0.250177 0.917757 0.606907
O O9 0.960088 0.193363 0.629385
O O10 0.171995 0.965809 0.770879
O O11 0.210812 0.387041 0.501784
O O12 0.500000 0.000000 0.500000
O O13 0.966637 0.401432 0.786897
O O14 0.000000 0.000000 0.000000
O O15 0.120682 0.300068 0.365818
O O16 0.363219 0.325390 0.079064
O O17 0.217866 0.900139 0.312115
O O18 0.500000 0.000000 0.000000
#
# Coordination Sequence:
#
# PCOD9058309 Si02
#       8
#     2   2   2   2   2   2   2   2
#     4  12  26  49  69 107 148 194 243 302 367 439
#     4  12  28  45  72 106 145 190 251 301 366 431
#     4  12  24  49  75 105 147 200 238 304 367 438
#     4  11  25  44  73 108 145 182 244 305 356 430
#     4  11  22  45  68  98 138 187 236 286 363 428
#     4  11  25  48  74 101 147 194 241 297 366 442
#     4  12  27  45  72 111 145 186 245 306 363 431
#     4  11  25  47  78 106 148 192 249 293 373 434
#
# _framework density 23.098230000000001
#
# number of rings (size 3 to 8) (size 9 to 14) (size 15 to 20)
#    0.000    0.500    5.000    3.000    7.000    1.000 
#    2.250    0.000    0.000    0.000    0.000    0.000 
#    0.000    0.000    0.000    0.000    0.000    0.000 
#
# Total GULP energy -89328.362777 kJ/mol
# GULP energy per Si atom -5583.022674 kJ/mol
# Density = 2.304566 g / cm^3
# Si number density = 23.098230 Si / 1000 Ang^3
#
#
#
# Elastic Constant Matrix: (Units=GPa)
#
#
# Indices 1 2 3 4 5 6 
#
# 1 144.5617 6.4893 30.2201 -2.3086 -9.8425 -14.3346
# 2 6.4893 54.9341 25.6027 16.3731 5.0571 8.7945
# 3 30.2201 25.6027 99.7743 -3.6850 5.5344 0.3274
# 4 -2.3086 16.3731 -3.6850 28.0902 0.6357 -0.7621
# 5 -9.8425 5.0571 5.5344 0.6357 43.7717 -2.5079
# 6 -14.3346 8.7945 0.3274 -0.7621 -2.5079 39.3956
#
#
#
# Elastic Compliance Matrix: (Units=1/GPa)
#
#
# Indices 1 2 3 4 5 6 
#
# 1 0.007933 -0.000880 -0.002285 0.000901 0.002349 0.003269
# 2 -0.000880 0.028523 -0.007538 -0.017819 -0.002691 -0.007141
# 3 -0.002285 -0.007538 0.012939 0.005954 -0.001321 0.000775
# 4 0.000901 -0.017819 0.005954 0.046958 0.001127 0.005236
# 5 0.002349 -0.002691 -0.001321 0.001127 0.024008 0.003016
# 6 0.003269 -0.007141 0.000775 0.005236 0.003016 0.028454
#
#
# Mechanical properties :
#
#
# Convention : Reuss Voigt Hill
#
# Bulk Modulus (GPa) = 35.72784 47.09937 41.41360
# Shear Modulus (GPa) = 27.84724 38.04869 32.94797
#
# Velocity S-wave (km/s) = 3.47594 4.06304 3.78091
# Velocity P-wave (km/s) = 5.62236 6.51508 6.08511
#
# Compressibility (1/GPa) = 0.02798938
#
# Stress axis : x y z
#
# Youngs Moduli (GPa) = 126.05549 35.05977 77.28279
#
# Poissons Ratio (x) = 0.03087 0.17656
# Poissons Ratio (y) = 0.11099 0.58255
# Poissons Ratio (z) = 0.28798 0.26428
#
# Static dielectric constant tensor:
#      x y z
#    x 1.760850 -0.007470 -0.150710 
#    y -0.007470 1.946880 0.012770 
#    z -0.150710 0.012770 1.717020 
# 
# From -- ./inp_files/572817.got.cif
#   From: 2010.05.17/outbox.cif.g08.bks.cpg/sg2_287_cif.got.tgz:572817.got - 2010.06.03 11:33:40.
