data_PCOD9058303
_publ_section_title
;
Structure prediction by ZEFSAII (Michael W. Deem and Ramdas Pophale) SiO2 
 PCOD9058303
Probable space group: P -1
;
_chemical_formula_sum "Si O2"
_cell_formula_units_Z 16
_cell_length_a 9.702290
_cell_length_b 11.490127
_cell_length_c 15.140833
_cell_angle_alpha 25.753520
_cell_angle_beta 99.623987
_cell_angle_gamma 86.454437
_cell_volume 627.921766
_symmetry_space_group_name_H-M "P -1"
_symmetry_group_IT_number 2
_symmetry_cell_setting 'triclinic'
loop_
_space_group_symop_operation_xyz
x,y,z
-x,-y,-z
loop_
_atom_site_type_symbol
_atom_site_label
_atom_site_fract_x
_atom_site_fract_y
_atom_site_fract_z
Si Si1 0.397440 0.581197 0.042614
Si Si2 0.854696 0.587135 0.304924
Si Si3 0.621116 0.783952 0.979874
Si Si4 0.583007 0.616962 0.359099
Si Si5 0.742069 0.785702 0.814317
Si Si6 0.063169 0.203565 0.321245
Si Si7 0.303222 0.718938 0.137502
Si Si8 0.809149 0.745025 0.516410
O O1 0.574718 0.536393 0.107096
O O2 0.308578 0.896000 0.761103
O O3 0.374360 0.314774 0.178380
O O4 0.318358 0.641071 0.089539
O O5 0.765003 0.477578 0.440082
O O6 0.039462 0.358870 0.461212
O O7 0.762202 0.650958 0.157202
O O8 0.822881 0.923609 0.101474
O O9 0.662361 0.932699 0.798436
O O10 0.465633 0.053124 0.827673
O O11 0.500000 0.500000 0.500000
O O12 0.473635 0.664319 0.229481
O O13 0.805356 0.939140 0.645427
O O14 0.904099 0.481507 0.070874
O O15 0.133049 0.302583 0.343116
O O16 0.000000 0.000000 0.500000
O O17 0.261603 0.485134 0.344676
#
# Coordination Sequence:
#
# PCOD9058303 Si02
#       8
#     2   2   2   2   2   2   2   2
#     4  12  23  43  69  99 139 171 218 284 335 393
#     4  11  23  45  70  95 137 182 221 276 332 404
#     4  11  22  45  68  96 131 183 220 271 337 397
#     4  11  23  45  71  99 136 178 230 272 328 408
#     4  11  24  42  71  95 133 177 224 271 339 392
#     4  11  23  44  65  97 134 176 223 276 328 400
#     4  11  23  44  68  99 139 174 220 280 336 392
#     4  12  25  42  70 101 136 175 224 278 337 396
#
# _framework density 25.480881
#
# number of rings (size 3 to 8) (size 9 to 14) (size 15 to 20)
#    0.000    0.750    6.250    2.250    0.000    1.500 
#    4.500    0.625    0.000    0.000    0.000    0.000 
#    0.000    0.000    0.000    0.000    0.000    0.000 
#
# Total GULP energy -89618.316128 kJ/mol
# GULP energy per Si atom -5601.144758 kJ/mol
# Density = 2.542288 g / cm^3
# Si number density = 25.480881 Si / 1000 Ang^3
#
#
#
# Elastic Constant Matrix: (Units=GPa)
#
#
# Indices 1 2 3 4 5 6 
#
# 1 126.8991 55.8204 31.2236 11.0635 -36.6557 -27.4517
# 2 55.8204 119.1638 14.4602 20.2125 -16.8070 -15.7997
# 3 31.2236 14.4602 67.7972 16.8263 -30.6795 -17.9113
# 4 11.0635 20.2125 16.8263 27.9584 -8.0167 -8.0695
# 5 -36.6557 -16.8070 -30.6795 -8.0167 45.5665 9.2575
# 6 -27.4517 -15.7997 -17.9113 -8.0695 9.2575 50.7946
#
#
#
# Elastic Compliance Matrix: (Units=1/GPa)
#
#
# Indices 1 2 3 4 5 6 
#
# 1 0.013175 -0.004791 -0.001015 0.002288 0.007691 0.004234
# 2 -0.004791 0.011793 0.001813 -0.007498 0.000302 0.000472
# 3 -0.001015 0.001813 0.024949 -0.010626 0.013846 0.004601
# 4 0.002288 -0.007498 -0.010626 0.047383 -0.000300 0.002739
# 5 0.007691 0.000302 0.013846 -0.000300 0.037039 0.002334
# 6 0.004234 0.000472 0.004601 0.002739 0.002334 0.023755
#
#
# Mechanical properties :
#
#
# Convention : Reuss Voigt Hill
#
# Bulk Modulus (GPa) = 23.84773 57.42984 40.63878
# Shear Modulus (GPa) = 27.76910 39.02096 33.39503
#
# Velocity S-wave (km/s) = 3.30480 3.91753 3.62414
# Velocity P-wave (km/s) = 4.89302 6.56126 5.78756
#
# Compressibility (1/GPa) = 0.04193270
#
# Stress axis : x y z
#
# Youngs Moduli (GPa) = 75.89940 84.79679 40.08174
#
# Poissons Ratio (x) = 0.40622 0.04068
# Poissons Ratio (y) = 0.36360 -0.07268
# Poissons Ratio (z) = 0.07704 -0.15376
#
# Static dielectric constant tensor:
#      x y z
#    x 2.000690 0.022200 -0.043160 
#    y 0.022200 2.072170 -0.002950 
#    z -0.043160 -0.002950 2.055120 
# 
# From -- ./inp_files/382619.got.cif
#   From: 2010.05.17/outbox.cif.g08.bks.cpg/sg2_192_cif.got.tgz:382619.got - 2010.06.03 11:33:40.
