data_PCOD9058740
_publ_section_title
;
Structure prediction by ZEFSAII (Michael W. Deem and Ramdas Pophale) SiO2 
 PCOD9058740
Probable space group: P -1
;
_chemical_formula_sum "Si O2"
_cell_formula_units_Z 16
_cell_length_a 12.086243
_cell_length_b 12.937547
_cell_length_c 8.530561
_cell_angle_alpha 127.460582
_cell_angle_beta 39.629196
_cell_angle_gamma 131.171318
_cell_volume 626.033259
_symmetry_space_group_name_H-M "P -1"
_symmetry_group_IT_number 2
_symmetry_cell_setting 'triclinic'
loop_
_space_group_symop_operation_xyz
x,y,z
-x,-y,-z
loop_
_atom_site_type_symbol
_atom_site_label
_atom_site_fract_x
_atom_site_fract_y
_atom_site_fract_z
Si Si1 0.522605 0.116604 0.213459
Si Si2 0.392069 0.813824 0.460585
Si Si3 0.052362 0.866040 0.769846
Si Si4 0.403626 0.549890 0.338730
Si Si5 0.173868 0.134434 0.490977
Si Si6 0.815321 0.653556 0.083555
Si Si7 0.783667 0.428156 0.127070
Si Si8 0.300867 0.235416 0.119133
O O1 0.588240 0.118792 0.324274
O O2 0.307125 0.104764 0.446076
O O3 0.675593 0.261684 0.109660
O O4 0.500000 0.000000 0.000000
O O5 0.313940 0.645513 0.430986
O O6 0.737784 0.129471 0.451122
O O7 0.584218 0.832623 0.176540
O O8 0.921876 0.815694 0.714438
O O9 0.962581 0.739240 0.874886
O O10 0.000000 0.000000 0.000000
O O11 0.617199 0.646073 0.228137
O O12 0.318410 0.517397 0.576156
O O13 0.380693 0.401509 0.156162
O O14 0.120047 0.253405 0.743441
O O15 0.310645 0.197455 0.253536
O O16 0.000000 0.000000 0.500000
O O17 0.775139 0.493613 0.027405
O O18 0.000000 0.500000 0.000000
#
# Coordination Sequence:
#
# PCOD9058740 Si02
#       8
#     2   2   2   2   2   2   2   2
#     4  11  26  49  77 117 157 203 268 333 400 478
#     4  11  26  52  78 112 158 209 261 331 410 483
#     4  12  29  51  75 109 158 216 267 330 408 486
#     4  11  22  47  77 114 154 204 261 338 408 471
#     4  12  26  46  78 113 155 208 269 332 402 478
#     4  12  22  49  77 106 158 204 270 341 394 474
#     4  11  23  43  75 117 156 205 267 332 401 475
#     4  12  26  50  77 114 160 205 264 330 407 492
#
# _framework density 25.557748
#
# number of rings (size 3 to 8) (size 9 to 14) (size 15 to 20)
#    0.000    0.500    5.000    3.750    5.250    1.000 
#    9.000    0.000    0.000    0.000    0.000    0.000 
#    0.000    0.000    0.000    0.000    0.000    0.000 
#
# Total GULP energy -89463.927068 kJ/mol
# GULP energy per Si atom -5591.495442 kJ/mol
# Density = 2.549958 g / cm^3
# Si number density = 25.557748 Si / 1000 Ang^3
#
#
#
# Elastic Constant Matrix: (Units=GPa)
#
#
# Indices 1 2 3 4 5 6 
#
# 1 144.2488 38.3297 24.9643 10.5115 -20.6758 0.1588
# 2 38.3297 155.3643 32.8113 9.6443 -15.4192 6.6365
# 3 24.9643 32.8113 80.5376 4.9671 3.5338 3.2605
# 4 10.5115 9.6443 4.9671 49.1829 0.0646 8.7661
# 5 -20.6758 -15.4192 3.5338 0.0646 43.5594 -2.9251
# 6 0.1588 6.6365 3.2605 8.7661 -2.9251 51.8615
#
#
#
# Elastic Compliance Matrix: (Units=1/GPa)
#
#
# Indices 1 2 3 4 5 6 
#
# 1 0.008258 -0.001142 -0.002198 -0.001451 0.003744 0.000716
# 2 -0.001142 0.007614 -0.002776 -0.000880 0.002345 -0.000515
# 3 -0.002198 -0.002776 0.014418 -0.000318 -0.003240 -0.000674
# 4 -0.001451 -0.000880 -0.000318 0.021484 -0.001246 -0.003565
# 5 0.003744 0.002345 -0.003240 -0.001246 0.025934 0.001565
# 6 0.000716 -0.000515 -0.000674 -0.003565 0.001565 0.020079
#
#
# Mechanical properties :
#
#
# Convention : Reuss Voigt Hill
#
# Bulk Modulus (GPa) = 55.37760 63.59569 59.48665
# Shear Modulus (GPa) = 43.08939 47.85712 45.47326
#
# Velocity S-wave (km/s) = 4.11050 4.33194 4.22267
# Velocity P-wave (km/s) = 6.65154 7.06811 6.86298
#
# Compressibility (1/GPa) = 0.01805784
#
# Stress axis : x y z
#
# Youngs Moduli (GPa) = 121.09515 131.34109 69.35869
#
# Poissons Ratio (x) = 0.14999 0.15247
# Poissons Ratio (y) = 0.13829 0.19252
# Poissons Ratio (z) = 0.26619 0.36456
#
# Static dielectric constant tensor:
#      x y z
#    x 2.136960 -0.146180 -0.001860 
#    y -0.146180 2.307250 -0.127680 
#    z -0.001860 -0.127680 2.124650 
# 
# From -- ./inp_files/314092.got.cif
#   From: 2010.05.17/outbox.cif.g08.bks.cpg/sg2_158_cif.got.tgz:314092.got - 2010.06.03 11:33:40.
