data_PCOD9058395
_publ_section_title
;
Structure prediction by ZEFSAII (Michael W. Deem and Ramdas Pophale) SiO2 
 PCOD9058395
Probable space group: P -1
;
_chemical_formula_sum "Si O2"
_cell_formula_units_Z 14
_cell_length_a 9.346582
_cell_length_b 8.616704
_cell_length_c 13.251101
_cell_angle_alpha 85.865404
_cell_angle_beta 35.663022
_cell_angle_gamma 85.700555
_cell_volume 620.330036
_symmetry_space_group_name_H-M "P -1"
_symmetry_group_IT_number 2
_symmetry_cell_setting 'triclinic'
loop_
_space_group_symop_operation_xyz
x,y,z
-x,-y,-z
loop_
_atom_site_type_symbol
_atom_site_label
_atom_site_fract_x
_atom_site_fract_y
_atom_site_fract_z
Si Si1 0.325372 0.249332 0.888805
Si Si2 0.934524 0.806682 0.160896
Si Si3 0.872985 0.137483 0.258944
Si Si4 0.236864 0.572289 0.414140
Si Si5 0.372052 0.278757 0.475465
Si Si6 0.518664 0.114348 0.192941
Si Si7 0.967031 0.883704 0.618196
O O1 0.212763 0.274117 0.840339
O O2 0.536142 0.369732 0.786018
O O3 0.433182 0.071334 0.834192
O O4 0.091889 0.247206 0.095924
O O5 0.851755 0.743097 0.318924
O O6 0.860926 0.992226 0.195402
O O7 0.224446 0.802367 0.974179
O O8 0.615870 0.229869 0.400647
O O9 0.951250 0.058673 0.322830
O O10 0.347701 0.450503 0.436299
O O11 0.000000 0.500000 0.500000
O O12 0.132971 0.730284 0.515113
O O13 0.399737 0.171219 0.364277
O O14 0.318494 0.156492 0.220456
O O15 0.000000 0.000000 0.500000
#
# Coordination Sequence:
#
# PCOD9058395 Si02
#       7
#     2   2   2   2   2   2   2
#     4  11  23  45  71 105 139 183 243 289 344 425
#     4  11  23  41  76 110 137 180 244 291 341 424
#     4  11  24  43  76 109 135 185 243 288 352 415
#     4  12  28  45  68 103 145 188 235 286 358 427
#     4  12  24  45  73 102 148 186 226 294 355 413
#     4  11  22  45  72 103 141 180 236 295 346 410
#     4  12  25  46  72 101 142 190 236 291 352 414
#
# _framework density 22.568632000000001
#
# number of rings (size 3 to 8) (size 9 to 14) (size 15 to 20)
#    0.000    0.571    5.714    3.000    0.000    6.286 
#    2.571    1.429    0.000    0.000    0.000    0.000 
#    0.000    0.000    0.000    0.000    0.000    0.000 
#
# Total GULP energy -78284.569649 kJ/mol
# GULP energy per Si atom -5591.754975 kJ/mol
# Density = 2.251727 g / cm^3
# Si number density = 22.568632 Si / 1000 Ang^3
#
#
#
# Elastic Constant Matrix: (Units=GPa)
#
#
# Indices 1 2 3 4 5 6 
#
# 1 121.6623 19.8397 31.8540 -4.8432 -7.2637 -6.2500
# 2 19.8397 42.9847 29.0933 -16.1198 -3.5307 -11.3074
# 3 31.8540 29.0933 116.7533 -26.1871 -5.0711 4.2137
# 4 -4.8432 -16.1198 -26.1871 30.9862 4.3352 -8.0174
# 5 -7.2637 -3.5307 -5.0711 4.3352 35.7031 -4.7425
# 6 -6.2500 -11.3074 4.2137 -8.0174 -4.7425 33.5842
#
#
#
# Elastic Compliance Matrix: (Units=1/GPa)
#
#
# Indices 1 2 3 4 5 6 
#
# 1 0.009378 -0.003421 -0.002153 -0.002213 0.001607 0.000562
# 2 -0.003421 0.041848 -0.005267 0.021485 0.002692 0.019623
# 3 -0.002153 -0.005267 0.011997 0.006550 -0.000337 -0.002163
# 4 -0.002213 0.021485 0.006550 0.053655 -0.001439 0.018606
# 5 0.001607 0.002692 -0.000337 -0.001439 0.029400 0.005056
# 6 0.000562 0.019623 -0.002163 0.018606 0.005056 0.041915
#
#
# Mechanical properties :
#
#
# Convention : Reuss Voigt Hill
#
# Bulk Modulus (GPa) = 24.07212 49.21937 36.64575
# Shear Modulus (GPa) = 22.34909 33.42891 27.88900
#
# Velocity S-wave (km/s) = 3.15027 3.85283 3.51913
# Velocity P-wave (km/s) = 4.89097 6.45356 5.72582
#
# Compressibility (1/GPa) = 0.04154183
#
# Stress axis : x y z
#
# Youngs Moduli (GPa) = 106.63494 23.89578 83.35079
#
# Poissons Ratio (x) = 0.08175 0.17944
# Poissons Ratio (y) = 0.36482 0.43899
# Poissons Ratio (z) = 0.22957 0.12586
#
# Static dielectric constant tensor:
#      x y z
#    x 1.875130 0.026940 -0.004460 
#    y 0.026940 1.843940 -0.013290 
#    z -0.004460 -0.013290 1.865190 
# 
# From -- ./inp_files/186866.got.cif
#   From: 2010.05.17/outbox.cif.g08.bks.cpg/sg2_94_cif.got.tgz:186866.got - 2010.06.03 11:33:40.
