data_PCOD9058031
_publ_section_title
;
Structure prediction by ZEFSAII (Michael W. Deem and Ramdas Pophale) SiO2 
 PCOD9058031
Probable space group: P -1
;
_chemical_formula_sum "Si O2"
_cell_formula_units_Z 16
_cell_length_a 9.469157
_cell_length_b 12.844558
_cell_length_c 9.485025
_cell_angle_alpha 55.680908
_cell_angle_beta 79.433668
_cell_angle_gamma 56.397811
_cell_volume 779.586488
_symmetry_space_group_name_H-M "P -1"
_symmetry_group_IT_number 2
_symmetry_cell_setting 'triclinic'
loop_
_space_group_symop_operation_xyz
x,y,z
-x,-y,-z
loop_
_atom_site_type_symbol
_atom_site_label
_atom_site_fract_x
_atom_site_fract_y
_atom_site_fract_z
Si Si1 0.770531 0.132290 0.560515
Si Si2 0.583713 0.850634 0.403779
Si Si3 0.120127 0.835193 0.789741
Si Si4 0.352910 0.536940 0.607561
Si Si5 0.375085 0.192686 0.249701
Si Si6 0.143242 0.389963 0.671619
Si Si7 0.465622 0.629703 0.014626
Si Si8 0.038747 0.349817 0.029650
O O1 0.587568 0.149874 0.595858
O O2 0.806425 0.127576 0.389358
O O3 0.760211 0.282333 0.494783
O O4 0.928230 0.986510 0.722656
O O5 0.656624 0.777174 0.600637
O O6 0.719515 0.763363 0.321054
O O7 0.526459 0.021591 0.314383
O O8 0.265768 0.770643 0.932776
O O9 0.095287 0.696733 0.880295
O O10 0.500000 0.500000 0.500000
O O11 0.241449 0.469494 0.639936
O O12 0.462428 0.453647 0.789265
O O13 0.422322 0.305469 0.098573
O O14 0.212322 0.220308 0.173831
O O15 0.068062 0.361486 0.848938
O O16 0.000000 0.500000 0.500000
O O17 0.500000 0.500000 0.000000
O O18 0.000000 0.500000 0.000000
#
# Coordination Sequence:
#
# PCOD9058031 Si02
#       8
#     2   2   2   2   2   2   2   2
#     4  11  22  44  69 104 139 178 229 289 349 408
#     4  11  23  45  70 100 144 180 228 290 356 412
#     4  11  24  40  72 100 136 176 234 288 337 404
#     4  12  25  44  71  98 141 188 227 282 360 414
#     4  11  23  42  71 102 129 188 232 280 353 413
#     4  12  28  46  69 104 142 182 229 293 353 414
#     4  12  23  44  70 104 134 182 239 285 337 417
#     4  12  24  43  68 102 135 176 237 286 341 413
#
# _framework density 20.523700999999999
#
# number of rings (size 3 to 8) (size 9 to 14) (size 15 to 20)
#    0.000    0.500    6.250    2.250    1.750    1.500 
#    2.250    0.625    0.000    0.000    0.000    0.000 
#    0.000    0.000    0.000    0.000    0.000    0.000 
#
# Total GULP energy -89400.528909 kJ/mol
# GULP energy per Si atom -5587.533057 kJ/mol
# Density = 2.047699 g / cm^3
# Si number density = 20.523701 Si / 1000 Ang^3
#
#
#
# Elastic Constant Matrix: (Units=GPa)
#
#
# Indices 1 2 3 4 5 6 
#
# 1 82.3142 0.5833 28.8876 2.2187 18.1702 -3.6002
# 2 0.5833 84.1762 44.6435 3.6452 8.8830 -2.3133
# 3 28.8876 44.6435 101.0231 6.9071 14.4764 -7.5898
# 4 2.2187 3.6452 6.9071 31.7991 0.5298 -1.0187
# 5 18.1702 8.8830 14.4764 0.5298 41.8126 -5.4510
# 6 -3.6002 -2.3133 -7.5898 -1.0187 -5.4510 31.6097
#
#
#
# Elastic Compliance Matrix: (Units=1/GPa)
#
#
# Indices 1 2 3 4 5 6 
#
# 1 0.015053 0.003064 -0.004863 -0.000259 -0.005530 -0.000191
# 2 0.003064 0.016195 -0.007749 -0.000374 -0.002178 -0.000714
# 3 -0.004863 -0.007749 0.015188 -0.001979 -0.001179 0.002259
# 4 -0.000259 -0.000374 -0.001979 0.031948 0.000550 0.000592
# 5 -0.005530 -0.002178 -0.001179 0.000550 0.027668 0.003717
# 6 -0.000191 -0.000714 0.002259 0.000592 0.003717 0.032764
#
#
# Mechanical properties :
#
#
# Convention : Reuss Voigt Hill
#
# Bulk Modulus (GPa) = 36.57582 46.19357 41.38469
# Shear Modulus (GPa) = 29.93592 33.93756 31.93674
#
# Velocity S-wave (km/s) = 3.82331 4.07083 3.94901
# Velocity P-wave (km/s) = 6.11148 6.68221 6.40321
#
# Compressibility (1/GPa) = 0.02734047
#
# Stress axis : x y z
#
# Youngs Moduli (GPa) = 66.43282 61.74870 65.84341
#
# Poissons Ratio (x) = -0.18921 0.32017
# Poissons Ratio (y) = -0.20356 0.51021
# Poissons Ratio (z) = 0.32303 0.47848
#
# Static dielectric constant tensor:
#      x y z
#    x 1.879300 -0.147740 0.047070 
#    y -0.147740 1.838610 -0.054080 
#    z 0.047070 -0.054080 1.693160 
# 
# From -- ./inp_files/185069.got.cif
#   From: 2010.05.17/outbox.cif.g08.bks.cpg/sg2_93_cif.got.tgz:185069.got - 2010.06.03 11:33:40.
