data_PCOD9058920
_publ_section_title
;
Structure prediction by ZEFSAII (Michael W. Deem and Ramdas Pophale) SiO2 
 PCOD9058920
Probable space group: P -1
;
_chemical_formula_sum "Si O2"
_cell_formula_units_Z 16
_cell_length_a 12.437067
_cell_length_b 14.400555
_cell_length_c 14.128523
_cell_angle_alpha 150.049808
_cell_angle_beta 31.274308
_cell_angle_gamma 141.828288
_cell_volume 645.595467
_symmetry_space_group_name_H-M "P -1"
_symmetry_group_IT_number 2
_symmetry_cell_setting 'triclinic'
loop_
_space_group_symop_operation_xyz
x,y,z
-x,-y,-z
loop_
_atom_site_type_symbol
_atom_site_label
_atom_site_fract_x
_atom_site_fract_y
_atom_site_fract_z
Si Si1 0.031501 0.506166 0.370331
Si Si2 0.951294 0.091034 0.017554
Si Si3 0.989460 0.015569 0.333221
Si Si4 0.946545 0.396930 0.047867
Si Si5 0.709976 0.595497 0.543251
Si Si6 0.586721 0.504121 0.167835
Si Si7 0.510412 0.923810 0.595386
Si Si8 0.541696 0.304376 0.841652
O O1 0.214727 0.670320 0.346423
O O2 0.000000 0.500000 0.500000
O O3 0.073918 0.303952 0.125407
O O4 0.826588 0.538877 0.499415
O O5 0.702103 0.097586 0.202405
O O6 0.011365 0.004086 0.798020
O O7 0.000000 0.000000 0.000000
O O8 0.064813 0.827048 0.148569
O O9 0.741925 0.003333 0.536048
O O10 0.160239 0.197057 0.394793
O O11 0.161490 0.468797 0.008609
O O12 0.000000 0.500000 0.000000
O O13 0.755967 0.458624 0.303887
O O14 0.478471 0.559270 0.731413
O O15 0.529894 0.709093 0.363383
O O16 0.493771 0.342818 0.021378
O O17 0.465338 0.080480 0.690962
O O18 0.500000 0.500000 0.000000
#
# Coordination Sequence:
#
# PCOD9058920 Si02
#       8
#     2   2   2   2   2   2   2   2
#     4  12  22  40  58  91 134 172 211 268 315 379
#     4  12  24  39  60  95 131 173 223 267 320 389
#     4  11  23  43  68  93 128 173 214 272 336 387
#     4  11  25  46  68  98 133 169 223 280 331 395
#     4  12  22  44  69  93 132 166 217 270 325 396
#     4  11  23  43  68  93 128 173 214 272 336 387
#     4  11  23  39  61  87 124 169 217 262 323 387
#     4  12  24  39  60  95 131 173 223 267 320 389
#
# _framework density 24.78332
#
# number of rings (size 3 to 8) (size 9 to 14) (size 15 to 20)
#    0.000    0.500    5.000    3.750    0.000    2.000 
#    0.000    0.625    0.000    0.000    0.000    0.000 
#    0.000    0.000    0.000    0.000    0.000    0.000 
#
# Total GULP energy -89392.290746 kJ/mol
# GULP energy per Si atom -5587.018172 kJ/mol
# Density = 2.472691 g / cm^3
# Si number density = 24.783320 Si / 1000 Ang^3
#
#
#
# Elastic Constant Matrix: (Units=GPa)
#
#
# Indices 1 2 3 4 5 6 
#
# 1 43.3824 14.2967 17.6443 3.6085 8.0730 -26.7090
# 2 14.2967 153.3204 47.3926 13.5896 -1.2513 -8.8476
# 3 17.6443 47.3926 112.1485 -1.1284 5.1488 -13.6231
# 4 3.6085 13.5896 -1.1284 60.1573 -2.0052 -5.0515
# 5 8.0730 -1.2513 5.1488 -2.0052 12.4549 -8.1483
# 6 -26.7090 -8.8476 -13.6231 -5.0515 -8.1483 37.7235
#
#
#
# Elastic Compliance Matrix: (Units=1/GPa)
#
#
# Indices 1 2 3 4 5 6 
#
# 1 0.043087 -0.001796 -0.002287 -0.000252 -0.009414 0.027192
# 2 -0.001796 0.007838 -0.003201 -0.001642 0.002889 -0.000185
# 3 -0.002287 -0.003201 0.010895 0.001085 -0.002387 0.001194
# 4 -0.000252 -0.001642 0.001085 0.017437 0.004393 0.003112
# 5 -0.009414 0.002889 -0.002387 0.004393 0.098150 0.014939
# 6 0.027192 -0.000185 0.001194 0.003112 0.014939 0.049793
#
#
# Mechanical properties :
#
#
# Convention : Reuss Voigt Hill
#
# Bulk Modulus (GPa) = 21.16368 51.94651 36.55509
# Shear Modulus (GPa) = 19.41611 37.36832 28.39221
#
# Velocity S-wave (km/s) = 2.80203 3.88725 3.38837
# Velocity P-wave (km/s) = 4.36194 6.41509 5.48543
#
# Compressibility (1/GPa) = 0.04725076
#
# Stress axis : x y z
#
# Youngs Moduli (GPa) = 23.20893 127.58785 91.78569
#
# Poissons Ratio (x) = 0.22916 0.20992
# Poissons Ratio (y) = 0.04169 0.29383
# Poissons Ratio (z) = 0.05308 0.40844
#
# Static dielectric constant tensor:
#      x y z
#    x 2.089080 0.023400 -0.123820 
#    y 0.023400 1.971290 -0.039160 
#    z -0.123820 -0.039160 2.055590 
# 
# From -- ./inp_files/533899.got.cif
#   From: 2010.05.17/outbox.cif.g08.bks.cpg/sg2_267_cif.got.tgz:533899.got - 2010.06.03 11:33:40.
