data_PCOD9058060
_publ_section_title
;
Structure prediction by ZEFSAII (Michael W. Deem and Ramdas Pophale) SiO2 
 PCOD9058060
Probable space group: P -1
;
_chemical_formula_sum "Si O2"
_cell_formula_units_Z 16
_cell_length_a 9.477012
_cell_length_b 14.775063
_cell_length_c 9.143243
_cell_angle_alpha 39.031449
_cell_angle_beta 69.194970
_cell_angle_gamma 70.138388
_cell_volume 749.228771
_symmetry_space_group_name_H-M "P -1"
_symmetry_group_IT_number 2
_symmetry_cell_setting 'triclinic'
loop_
_space_group_symop_operation_xyz
x,y,z
-x,-y,-z
loop_
_atom_site_type_symbol
_atom_site_label
_atom_site_fract_x
_atom_site_fract_y
_atom_site_fract_z
Si Si1 0.209358 0.048752 0.945565
Si Si2 0.658000 0.957728 0.581895
Si Si3 0.107368 0.895896 0.883332
Si Si4 0.849216 0.419907 0.630199
Si Si5 0.774520 0.639478 0.852602
Si Si6 0.872646 0.358964 0.355550
Si Si7 0.349184 0.860667 0.355047
Si Si8 0.651056 0.663771 0.550680
O O1 0.157426 0.964462 0.930814
O O2 0.345909 0.948668 0.094834
O O3 0.248905 0.203879 0.684057
O O4 0.074522 0.072095 0.085270
O O5 0.701500 0.785818 0.773005
O O6 0.500000 0.000000 0.500000
O O7 0.640656 0.025154 0.663370
O O8 0.795854 0.032018 0.363469
O O9 0.144270 0.723775 0.094093
O O10 0.844075 0.374565 0.519808
O O11 0.709089 0.531169 0.592683
O O12 0.000000 0.500000 0.500000
O O13 0.679140 0.620026 0.764375
O O14 0.946957 0.657176 0.716970
O O15 0.794493 0.501490 0.123919
O O16 0.801668 0.221301 0.490685
O O17 0.483654 0.733671 0.487673
#
# Coordination Sequence:
#
# PCOD9058060 Si02
#       8
#     2   2   2   2   2   2   2   2
#     4  11  22  44  70 101 136 173 230 287 336 395
#     4  12  26  45  69 101 139 183 225 274 348 411
#     4  11  23  42  74  98 135 181 228 282 338 402
#     4  12  24  44  72 101 135 179 234 275 341 403
#     4  11  24  46  70  96 143 182 227 278 341 405
#     4  11  26  45  68 104 136 177 233 285 329 408
#     4  12  27  44  68 103 139 176 227 284 339 403
#     4  12  25  45  70  98 140 186 216 283 348 399
#
# _framework density 21.355294000000001
#
# number of rings (size 3 to 8) (size 9 to 14) (size 15 to 20)
#    0.000    0.500    6.250    1.125    3.500    4.000 
#    0.000    0.000    0.000    0.000    0.000    0.000 
#    0.000    0.000    0.000    0.000    0.000    0.000 
#
# Total GULP energy -89538.571370 kJ/mol
# GULP energy per Si atom -5596.160711 kJ/mol
# Density = 2.130669 g / cm^3
# Si number density = 21.355294 Si / 1000 Ang^3
#
#
#
# Elastic Constant Matrix: (Units=GPa)
#
#
# Indices 1 2 3 4 5 6 
#
# 1 44.9257 -6.2735 2.3457 2.3253 19.2638 4.9127
# 2 -6.2735 89.8082 -4.3236 -16.2051 12.4254 -0.0600
# 3 2.3457 -4.3236 62.7954 -20.2339 10.6702 -3.3552
# 4 2.3253 -16.2051 -20.2339 35.8423 -4.0899 2.3369
# 5 19.2638 12.4254 10.6702 -4.0899 34.9667 -8.0235
# 6 4.9127 -0.0600 -3.3552 2.3369 -8.0235 32.8674
#
#
#
# Elastic Compliance Matrix: (Units=1/GPa)
#
#
# Indices 1 2 3 4 5 6 
#
# 1 0.034650 0.005898 0.002637 -0.000180 -0.024505 -0.010869
# 2 0.005898 0.014578 0.004855 0.008055 -0.009728 -0.003307
# 3 0.002637 0.004855 0.021896 0.013487 -0.008557 -0.001198
# 4 -0.000180 0.008055 0.013487 0.038982 -0.002785 -0.002033
# 5 -0.024505 -0.009728 -0.008557 -0.002785 0.051402 0.015518
# 6 -0.010869 -0.003307 -0.001198 -0.002033 0.015518 0.035854
#
#
# Mechanical properties :
#
#
# Convention : Reuss Voigt Hill
#
# Bulk Modulus (GPa) = 10.21414 20.11407 15.16411
# Shear Modulus (GPa) = 24.60428 34.45397 29.52912
#
# Velocity S-wave (km/s) = 3.39800 4.02103 3.72257
# Velocity P-wave (km/s) = 4.49317 5.56754 5.05896
#
# Compressibility (1/GPa) = 0.09790349
#
# Stress axis : x y z
#
# Youngs Moduli (GPa) = 28.85975 68.59851 45.67014
#
# Poissons Ratio (x) = -0.40459 -0.12042
# Poissons Ratio (y) = -0.17021 -0.22173
# Poissons Ratio (z) = -0.07610 -0.33304
#
# Static dielectric constant tensor:
#      x y z
#    x 1.788130 -0.029620 -0.014720 
#    y -0.029620 1.757510 -0.002470 
#    z -0.014720 -0.002470 1.769440 
# 
# From -- ./inp_files/187547.got.cif
#   From: 2010.05.17/outbox.cif.g08.bks.cpg/sg2_94_cif.got.tgz:187547.got - 2010.06.03 11:33:40.
