data_PCOD9058125
_publ_section_title
;
Structure prediction by ZEFSAII (Michael W. Deem and Ramdas Pophale) SiO2 
 PCOD9058125
Probable space group: P -1
;
_chemical_formula_sum "Si O2"
_cell_formula_units_Z 16
_cell_length_a 8.835923
_cell_length_b 12.594820
_cell_length_c 8.046901
_cell_angle_alpha 84.987386
_cell_angle_beta 104.711692
_cell_angle_gamma 130.518867
_cell_volume 654.765560
_symmetry_space_group_name_H-M "P -1"
_symmetry_group_IT_number 2
_symmetry_cell_setting 'triclinic'
loop_
_space_group_symop_operation_xyz
x,y,z
-x,-y,-z
loop_
_atom_site_type_symbol
_atom_site_label
_atom_site_fract_x
_atom_site_fract_y
_atom_site_fract_z
Si Si1 0.217336 0.295702 0.908659
Si Si2 0.757793 0.007827 0.874867
Si Si3 0.569587 0.804228 0.140031
Si Si4 0.878841 0.383782 0.122930
Si Si5 0.656246 0.746489 0.702107
Si Si6 0.438393 0.023088 0.654149
Si Si7 0.982196 0.748580 0.629665
Si Si8 0.791287 0.511342 0.336070
O O1 0.344134 0.276263 0.820245
O O2 0.246548 0.429031 0.842564
O O3 0.305020 0.302812 0.110592
O O4 0.977017 0.155224 0.869580
O O5 0.705337 0.890019 0.745755
O O6 0.582576 0.019703 0.819205
O O7 0.741919 0.945769 0.060416
O O8 0.529943 0.840969 0.301161
O O9 0.360870 0.721920 0.984231
O O10 0.898038 0.456737 0.291063
O O11 0.970422 0.307541 0.191892
O O12 0.000000 0.500000 0.000000
O O13 0.813074 0.762934 0.616406
O O14 0.417061 0.621212 0.616681
O O15 0.199013 0.895179 0.624724
O O16 0.500000 0.000000 0.500000
O O17 0.910865 0.641199 0.475365
#
# Coordination Sequence:
#
# PCOD9058125 Si02
#       8
#     2   2   2   2   2   2   2   2
#     4  11  23  41  74 101 134 174 236 279 332 402
#     4  11  22  44  71  98 134 180 227 283 331 403
#     4  11  24  45  68 100 133 179 232 281 331 401
#     4  12  27  44  71 100 135 183 234 278 335 408
#     4  11  23  44  69  98 135 181 231 276 339 401
#     4  12  26  43  68 102 141 176 222 283 348 404
#     4  12  26  45  69 101 142 179 222 283 345 405
#     4  12  25  46  67 104 140 181 222 282 343 404
#
# _framework density 24.436229000000001
#
# number of rings (size 3 to 8) (size 9 to 14) (size 15 to 20)
#    0.000    0.500    3.750    6.000    7.000    1.000 
#    0.000    2.500    0.000    0.000    0.000    0.000 
#    0.000    0.000    0.000    0.000    0.000    0.000 
#
# Total GULP energy -89665.218692 kJ/mol
# GULP energy per Si atom -5604.076168 kJ/mol
# Density = 2.438061 g / cm^3
# Si number density = 24.436229 Si / 1000 Ang^3
#
#
#
# Elastic Constant Matrix: (Units=GPa)
#
#
# Indices 1 2 3 4 5 6 
#
# 1 117.5877 9.5133 6.4303 7.3571 -25.6575 -11.1983
# 2 9.5133 65.1790 -2.2749 10.0663 -4.3734 8.5328
# 3 6.4303 -2.2749 58.6660 18.6469 -21.9916 -0.5864
# 4 7.3571 10.0663 18.6469 44.8570 -7.4384 0.5947
# 5 -25.6575 -4.3734 -21.9916 -7.4384 35.7198 7.6093
# 6 -11.1983 8.5328 -0.5864 0.5947 7.6093 38.0682
#
#
#
# Elastic Compliance Matrix: (Units=1/GPa)
#
#
# Indices 1 2 3 4 5 6 
#
# 1 0.010481 -0.000953 0.002260 -0.001106 0.008209 0.001708
# 2 -0.000953 0.017163 0.003521 -0.004490 0.003658 -0.004734
# 3 0.002260 0.003521 0.026151 -0.009195 0.016868 -0.002950
# 4 -0.001106 -0.004490 -0.009195 0.027057 -0.001458 0.000408
# 5 0.008209 0.003658 0.016868 -0.001458 0.045980 -0.007313
# 6 0.001708 -0.004734 -0.002950 0.000408 -0.007313 0.029242
#
#
# Mechanical properties :
#
#
# Convention : Reuss Voigt Hill
#
# Bulk Modulus (GPa) = 15.76009 29.86334 22.81171
# Shear Modulus (GPa) = 29.83865 38.91325 34.37595
#
# Velocity S-wave (km/s) = 3.49819 3.99487 3.75475
# Velocity P-wave (km/s) = 4.77283 5.79017 5.30594
#
# Compressibility (1/GPa) = 0.06345143
#
# Stress axis : x y z
#
# Youngs Moduli (GPa) = 95.41212 58.26514 38.23944
#
# Poissons Ratio (x) = 0.05552 -0.08643
# Poissons Ratio (y) = 0.09091 -0.13464
# Poissons Ratio (z) = -0.21565 -0.20515
#
# Static dielectric constant tensor:
#      x y z
#    x 1.958930 -0.051270 0.005870 
#    y -0.051270 1.956050 0.009500 
#    z 0.005870 0.009500 2.008150 
# 
# From -- ./inp_files/184350.got.cif
#   From: 2010.05.17/outbox.cif.g08.bks.cpg/sg2_93_cif.got.tgz:184350.got - 2010.06.03 11:33:40.
