data_PCOD9058903
_publ_section_title
;
Structure prediction by ZEFSAII (Michael W. Deem and Ramdas Pophale) SiO2 
 PCOD9058903
Probable space group: P -1
;
_chemical_formula_sum "Si O2"
_cell_formula_units_Z 14
_cell_length_a 13.275991
_cell_length_b 9.738975
_cell_length_c 7.740427
_cell_angle_alpha 43.500412
_cell_angle_beta 103.789833
_cell_angle_gamma 77.793534
_cell_volume 547.430437
_symmetry_space_group_name_H-M "P -1"
_symmetry_group_IT_number 2
_symmetry_cell_setting 'triclinic'
loop_
_space_group_symop_operation_xyz
x,y,z
-x,-y,-z
loop_
_atom_site_type_symbol
_atom_site_label
_atom_site_fract_x
_atom_site_fract_y
_atom_site_fract_z
Si Si1 0.106145 0.804390 0.017213
Si Si2 0.238065 0.007565 0.722676
Si Si3 0.855069 0.334852 0.457439
Si Si4 0.557231 0.231015 0.692046
Si Si5 0.542868 0.024165 0.307007
Si Si6 0.995516 0.515709 0.270897
Si Si7 0.613696 0.430311 0.234716
O O1 0.202018 0.814169 0.919474
O O2 0.176590 0.656671 0.358074
O O3 0.018871 0.708732 0.029350
O O4 0.996637 0.089593 0.741137
O O5 0.110242 0.271314 0.451523
O O6 0.324656 0.000821 0.612175
O O7 0.332969 0.959957 0.961808
O O8 0.752296 0.324455 0.320629
O O9 0.866254 0.535075 0.184501
O O10 0.500000 0.500000 0.500000
O O11 0.626241 0.235411 0.546914
O O12 0.463571 0.161004 0.652749
O O13 0.500000 0.000000 0.500000
O O14 0.437584 0.303296 0.949224
O O15 0.000000 0.500000 0.500000
O O16 0.500000 0.500000 0.000000
#
# Coordination Sequence:
#
# PCOD9058903 Si02
#       7
#     2   2   2   2   2   2   2
#     4   9  18  36  61 101 131 179 227 303 348 400
#     4  11  23  38  68 103 137 177 241 298 347 421
#     4   9  19  35  61  98 139 173 238 283 352 420
#     4  12  26  42  68 104 137 186 246 297 350 422
#     4  12  28  46  65 103 147 193 234 290 371 435
#     4   9  20  34  63 103 139 174 223 302 359 401
#     4  12  25  44  68 102 146 194 230 289 366 432
#
# _framework density 25.574024000000001
#
# number of rings (size 3 to 8) (size 9 to 14) (size 15 to 20)
#    0.000    1.429    4.286    1.286    6.000    0.000 
#    0.000    0.000    0.000    6.857    0.000    0.000 
#    0.000    0.000    0.000    0.000    0.000    0.000 
#
# Total GULP energy -78073.130904 kJ/mol
# GULP energy per Si atom -5576.652207 kJ/mol
# Density = 2.551582 g / cm^3
# Si number density = 25.574024 Si / 1000 Ang^3
#
#
#
# Elastic Constant Matrix: (Units=GPa)
#
#
# Indices 1 2 3 4 5 6 
#
# 1 248.3770 44.3651 27.8675 13.1554 -44.5317 29.2581
# 2 44.3651 79.6983 14.9915 -0.1969 -15.0555 15.2039
# 3 27.8675 14.9915 41.1359 -0.2036 -17.9278 1.5239
# 4 13.1554 -0.1969 -0.2036 27.4497 11.8613 -6.9799
# 5 -44.5317 -15.0555 -17.9278 11.8613 45.8561 -2.4357
# 6 29.2581 15.2039 1.5239 -6.9799 -2.4357 45.7304
#
#
#
# Elastic Compliance Matrix: (Units=1/GPa)
#
#
# Indices 1 2 3 4 5 6 
#
# 1 0.006595 -0.001305 -0.000617 -0.007541 0.007446 -0.004520
# 2 -0.001305 0.015189 -0.003393 -0.001456 0.002547 -0.004188
# 3 -0.000617 -0.003393 0.030958 -0.004376 0.011545 0.000438
# 4 -0.007541 -0.001456 -0.004376 0.052873 -0.022534 0.012325
# 5 0.007446 0.002547 0.011545 -0.022534 0.039828 -0.007313
# 6 -0.004520 -0.004188 0.000438 0.012325 -0.007313 0.027628
#
#
# Mechanical properties :
#
#
# Convention : Reuss Voigt Hill
#
# Bulk Modulus (GPa) = 23.74695 60.40662 42.07678
# Shear Modulus (GPa) = 25.28580 42.60636 33.94608
#
# Velocity S-wave (km/s) = 3.14782 4.08610 3.64726
# Velocity P-wave (km/s) = 4.74525 6.77740 5.85024
#
# Compressibility (1/GPa) = 0.04211067
#
# Stress axis : x y z
#
# Youngs Moduli (GPa) = 151.62374 65.83871 32.30171
#
# Poissons Ratio (x) = 0.08593 0.01994
# Poissons Ratio (y) = 0.19789 0.10961
# Poissons Ratio (z) = 0.09360 0.22341
#
# Static dielectric constant tensor:
#      x y z
#    x 2.047930 0.031000 -0.144230 
#    y 0.031000 2.197690 0.041290 
#    z -0.144230 0.041290 1.853740 
# 
# From -- ./inp_files/256051.got.cif
#   From: 2010.05.17/outbox.cif.g08.bks.cpg/sg2_129_cif.got.tgz:256051.got - 2010.06.03 11:33:40.
