data_PCOD9058656
_publ_section_title
;
Structure prediction by ZEFSAII (Michael W. Deem and Ramdas Pophale) SiO2 
 PCOD9058656
Probable space group: P -1
;
_chemical_formula_sum "Si O2"
_cell_formula_units_Z 12
_cell_length_a 8.532721
_cell_length_b 7.728554
_cell_length_c 13.646630
_cell_angle_alpha 83.963528
_cell_angle_beta 131.610559
_cell_angle_gamma 128.335003
_cell_volume 449.850413
_symmetry_space_group_name_H-M "P -1"
_symmetry_group_IT_number 2
_symmetry_cell_setting 'triclinic'
loop_
_space_group_symop_operation_xyz
x,y,z
-x,-y,-z
loop_
_atom_site_type_symbol
_atom_site_label
_atom_site_fract_x
_atom_site_fract_y
_atom_site_fract_z
Si Si1 0.316525 0.829195 0.714172
Si Si2 0.716995 0.399409 0.100460
Si Si3 0.269406 0.493319 0.252766
Si Si4 0.961567 0.774346 0.021740
Si Si5 0.280715 0.953642 0.493483
Si Si6 0.078674 0.977045 0.749041
O O1 0.265324 0.631060 0.774993
O O2 0.218845 0.777688 0.563881
O O3 0.149371 0.885365 0.696695
O O4 0.690458 0.087058 0.852307
O O5 0.953422 0.405197 0.150544
O O6 0.831513 0.647140 0.082088
O O7 0.373694 0.149791 0.933152
O O8 0.266491 0.452597 0.138998
O O9 0.537209 0.775752 0.392291
O O10 0.221239 0.280561 0.301015
O O11 0.000000 0.000000 0.000000
O O12 0.500000 0.000000 0.500000
O O13 0.994739 0.879239 0.331598
#
# Coordination Sequence:
#
# PCOD9058656 Si02
#       6
#     2   2   2   2   2   2
#     4  11  23  47  76 108 151 195 254 303 377 443
#     4  11  22  46  80 108 145 198 255 310 370 447
#     4  11  22  47  77 105 152 202 244 309 375 444
#     4  12  25  43  81 119 148 190 254 319 375 437
#     4  12  28  47  76 110 159 202 251 308 383 448
#     4  11  23  46  76 115 150 198 253 311 378 449
#
# _framework density 26.675533999999999
#
# number of rings (size 3 to 8) (size 9 to 14) (size 15 to 20)
#    0.000    0.667    5.000    3.500    2.333    0.667 
#    6.000    3.333    0.000    0.000    0.000    0.000 
#    0.000    0.000    0.000    0.000    0.000    0.000 
#
# Total GULP energy -67337.471927 kJ/mol
# GULP energy per Si atom -5611.455994 kJ/mol
# Density = 2.661482 g / cm^3
# Si number density = 26.675534 Si / 1000 Ang^3
#
#
#
# Elastic Constant Matrix: (Units=GPa)
#
#
# Indices 1 2 3 4 5 6 
#
# 1 86.0082 35.0012 49.7242 -16.3456 -18.7055 10.4545
# 2 35.0012 205.2872 69.6546 -40.8317 -20.9843 7.3231
# 3 49.7242 69.6546 170.1577 -36.9308 -27.1612 3.4436
# 4 -16.3456 -40.8317 -36.9308 52.8051 11.0181 -14.4001
# 5 -18.7055 -20.9843 -27.1612 11.0181 45.0899 -7.2212
# 6 10.4545 7.3231 3.4436 -14.4001 -7.2212 36.4685
#
#
#
# Elastic Compliance Matrix: (Units=1/GPa)
#
#
# Indices 1 2 3 4 5 6 
#
# 1 0.015094 -0.000967 -0.003439 -0.000022 0.003237 -0.003176
# 2 -0.000967 0.006290 -0.001373 0.003615 0.000937 0.000757
# 3 -0.003439 -0.001373 0.008698 0.004122 0.002580 0.002579
# 4 -0.000022 0.003615 0.004122 0.027416 -0.001019 0.009515
# 5 0.003237 0.000937 0.002580 -0.001019 0.026312 0.003448
# 6 -0.003176 0.000757 0.002579 0.009515 0.003448 0.032376
#
#
# Mechanical properties :
#
#
# Convention : Reuss Voigt Hill
#
# Bulk Modulus (GPa) = 53.98458 85.57924 69.78191
# Shear Modulus (GPa) = 37.33598 47.34425 42.34011
#
# Velocity S-wave (km/s) = 3.74523 4.21743 3.98832
# Velocity P-wave (km/s) = 6.24369 7.47441 6.88660
#
# Compressibility (1/GPa) = 0.01852381
#
# Stress axis : x y z
#
# Youngs Moduli (GPa) = 66.25021 158.98725 114.96600
#
# Poissons Ratio (x) = 0.15372 0.39535
# Poissons Ratio (y) = 0.06406 0.15791
# Poissons Ratio (z) = 0.22783 0.21837
#
# Static dielectric constant tensor:
#      x y z
#    x 2.019390 -0.007260 -0.001850 
#    y -0.007260 2.152550 -0.027580 
#    z -0.001850 -0.027580 2.061040 
# 
# From -- ./inp_files/376243.got.cif
#   From: 2010.05.17/outbox.cif.g08.bks.cpg/sg2_189_cif.got.tgz:376243.got - 2010.06.03 11:33:40.
