data_PCOD9058897
_publ_section_title
;
Structure prediction by ZEFSAII (Michael W. Deem and Ramdas Pophale) SiO2 
 PCOD9058897
Probable space group: P -1
;
_chemical_formula_sum "Si O2"
_cell_formula_units_Z 16
_cell_length_a 11.320231
_cell_length_b 17.062699
_cell_length_c 9.221353
_cell_angle_alpha 54.733269
_cell_angle_beta 83.253270
_cell_angle_gamma 39.246292
_cell_volume 708.304201
_symmetry_space_group_name_H-M "P -1"
_symmetry_group_IT_number 2
_symmetry_cell_setting 'triclinic'
loop_
_space_group_symop_operation_xyz
x,y,z
-x,-y,-z
loop_
_atom_site_type_symbol
_atom_site_label
_atom_site_fract_x
_atom_site_fract_y
_atom_site_fract_z
Si Si1 0.839045 0.539806 0.575360
Si Si2 0.956797 0.753003 0.350296
Si Si3 0.534623 0.552007 0.312420
Si Si4 0.671391 0.117146 0.855651
Si Si5 0.895814 0.129478 0.157196
Si Si6 0.880431 0.728906 0.671519
Si Si7 0.714551 0.643145 0.807508
Si Si8 0.165844 0.016963 0.512618
O O1 0.924666 0.377538 0.669651
O O2 0.555914 0.752989 0.349573
O O3 0.860128 0.527643 0.758695
O O4 0.000000 0.500000 0.500000
O O5 0.177428 0.641167 0.533076
O O6 0.848855 0.751613 0.478052
O O7 0.761374 0.966715 0.101476
O O8 0.500000 0.500000 0.500000
O O9 0.428793 0.726967 0.197940
O O10 0.365926 0.649403 0.095570
O O11 0.902301 0.990682 0.865531
O O12 0.890889 0.019581 0.313142
O O13 0.983189 0.121625 0.297392
O O14 0.720080 0.752963 0.726412
O O15 0.834249 0.869778 0.576779
O O16 0.147061 0.510112 0.921748
O O17 0.442571 0.798676 0.661677
#
# Coordination Sequence:
#
# PCOD9058897 Si02
#       8
#     2   2   2   2   2   2   2   2
#     4  11  24  46  70 100 136 174 232 287 340 402
#     4  11  24  43  68 105 134 179 226 278 344 406
#     4  11  23  38  66  96 136 175 218 275 336 396
#     4  11  24  42  69  98 141 175 224 284 339 407
#     4  11  23  44  65 100 136 179 226 276 334 408
#     4  11  25  44  71  96 136 181 227 279 345 404
#     4  11  24  47  69  98 137 178 229 285 337 406
#     4  11  25  44  67  97 138 180 228 275 340 409
#
# _framework density 22.589162999999999
#
# number of rings (size 3 to 8) (size 9 to 14) (size 15 to 20)
#    0.000    1.000    3.750    2.250    3.500    1.500 
#    2.250    1.875    0.000    0.000    0.000    0.000 
#    0.000    0.000    0.000    0.000    0.000    0.000 
#
# Total GULP energy -89460.930778 kJ/mol
# GULP energy per Si atom -5591.308174 kJ/mol
# Density = 2.253775 g / cm^3
# Si number density = 22.589163 Si / 1000 Ang^3
#
#
#
# Elastic Constant Matrix: (Units=GPa)
#
#
# Indices 1 2 3 4 5 6 
#
# 1 72.1165 9.6920 35.1474 -2.3255 -1.7693 2.9604
# 2 9.6920 43.6440 17.3604 1.0651 -15.3948 11.2633
# 3 35.1474 17.3604 148.2497 1.0462 -16.4791 16.2736
# 4 -2.3255 1.0651 1.0462 31.8458 -2.2740 0.9984
# 5 -1.7693 -15.3948 -16.4791 -2.2740 40.6081 3.7782
# 6 2.9604 11.2633 16.2736 0.9984 3.7782 31.0442
#
#
#
# Elastic Compliance Matrix: (Units=1/GPa)
#
#
# Indices 1 2 3 4 5 6 
#
# 1 0.016125 -0.003367 -0.003906 0.001194 -0.002276 0.001970
# 2 -0.003367 0.031523 -0.000063 0.000024 0.012958 -0.012661
# 3 -0.003906 -0.000063 0.008592 -0.000158 0.003708 -0.004555
# 4 0.001194 0.000024 -0.000158 0.031668 0.001890 -0.001288
# 5 -0.002276 0.012958 0.003708 0.001890 0.032015 -0.010385
# 6 0.001970 -0.012661 -0.004555 -0.001288 -0.010385 0.040311
#
#
# Mechanical properties :
#
#
# Convention : Reuss Voigt Hill
#
# Bulk Modulus (GPa) = 24.05801 43.15664 33.60733
# Shear Modulus (GPa) = 26.48830 34.15364 30.32097
#
# Velocity S-wave (km/s) = 3.42806 3.89260 3.66769
# Velocity P-wave (km/s) = 5.13246 6.27292 5.73113
#
# Compressibility (1/GPa) = 0.04156620
#
# Stress axis : x y z
#
# Youngs Moduli (GPa) = 62.01721 31.72297 116.38624
#
# Poissons Ratio (x) = 0.10682 0.45463
# Poissons Ratio (y) = 0.20883 0.00735
# Poissons Ratio (z) = 0.24225 0.00200
#
# Static dielectric constant tensor:
#      x y z
#    x 1.891620 -0.012130 0.011140 
#    y -0.012130 1.883950 0.018300 
#    z 0.011140 0.018300 1.793650 
# 
# From -- ./inp_files/279020.got.cif
#   From: 2010.05.17/outbox.cif.g08.bks.cpg/sg2_140_cif.got.tgz:279020.got - 2010.06.03 11:33:40.
