data_PCOD9058545
_publ_section_title
;
Structure prediction by ZEFSAII (Michael W. Deem and Ramdas Pophale) SiO2 
 PCOD9058545
Probable space group: P -1
;
_chemical_formula_sum "Si O2"
_cell_formula_units_Z 14
_cell_length_a 17.923431
_cell_length_b 14.825336
_cell_length_c 8.678788
_cell_angle_alpha 40.470943
_cell_angle_beta 39.199680
_cell_angle_gamma 30.832908
_cell_volume 713.969713
_symmetry_space_group_name_H-M "P -1"
_symmetry_group_IT_number 2
_symmetry_cell_setting 'triclinic'
loop_
_space_group_symop_operation_xyz
x,y,z
-x,-y,-z
loop_
_atom_site_type_symbol
_atom_site_label
_atom_site_fract_x
_atom_site_fract_y
_atom_site_fract_z
Si Si1 0.456966 0.137913 0.526749
Si Si2 0.269978 0.051115 0.415644
Si Si3 0.849000 0.712281 0.000252
Si Si4 0.101542 0.046888 0.211625
Si Si5 0.401940 0.701766 0.043821
Si Si6 0.986318 0.160465 0.901323
Si Si7 0.670382 0.308742 0.170430
O O1 0.283599 0.250726 0.724457
O O2 0.500000 0.000000 0.500000
O O3 0.589579 0.017580 0.604152
O O4 0.481090 0.272004 0.242787
O O5 0.100756 0.175367 0.609128
O O6 0.304014 0.861111 0.571679
O O7 0.244923 0.168195 0.158076
O O8 0.909600 0.807463 0.857957
O O9 0.000000 0.500000 0.000000
O O10 0.281273 0.861222 0.147672
O O11 0.000000 0.000000 0.500000
O O12 0.045788 0.114835 0.038823
O O13 0.498457 0.501172 0.220377
O O14 0.315837 0.721179 0.998714
O O15 0.800338 0.319794 0.995886
O O16 0.000000 0.000000 0.000000
#
# Coordination Sequence:
#
# PCOD9058545 Si02
#       7
#     2   2   2   2   2   2   2
#     4  11  21  45  68  89 133 176 222 269 335 404
#     4  10  21  41  64  90 132 174 220 272 333 392
#     4  12  28  44  65  98 137 184 225 277 333 397
#     4  12  23  41  66  98 134 172 224 281 329 394
#     4  10  20  37  64  98 124 170 214 267 330 404
#     4  10  17  37  61  95 129 168 213 272 339 384
#     4   9  19  35  66  95 125 161 214 269 335 391
#
# _framework density 19.608675000000002
#
# number of rings (size 3 to 8) (size 9 to 14) (size 15 to 20)
#    0.000    1.429    5.714    2.143    2.000    2.286 
#    2.571    4.286    0.000    0.000    0.000    0.000 
#    0.000    0.000    0.000    0.000    0.000    0.000 
#
# Total GULP energy -78097.292856 kJ/mol
# GULP energy per Si atom -5578.378061 kJ/mol
# Density = 1.956404 g / cm^3
# Si number density = 19.608675 Si / 1000 Ang^3
#
#
#
# Elastic Constant Matrix: (Units=GPa)
#
#
# Indices 1 2 3 4 5 6 
#
# 1 78.0870 39.7849 13.6644 0.4199 -13.2607 4.5468
# 2 39.7849 142.5495 44.4662 0.3854 -2.7286 0.2322
# 3 13.6644 44.4662 101.3464 18.0780 -6.7428 -1.2308
# 4 0.4199 0.3854 18.0780 30.2441 -9.0333 1.8550
# 5 -13.2607 -2.7286 -6.7428 -9.0333 28.3276 2.7401
# 6 4.5468 0.2322 -1.2308 1.8550 2.7401 27.5663
#
#
#
# Elastic Compliance Matrix: (Units=1/GPa)
#
#
# Indices 1 2 3 4 5 6 
#
# 1 0.016784 -0.004430 -0.000292 0.002806 0.008622 -0.003790
# 2 -0.004430 0.009455 -0.003973 0.001813 -0.001580 0.000509
# 3 -0.000292 -0.003973 0.013060 -0.007832 -0.000024 0.001194
# 4 0.002806 0.001813 -0.007832 0.042025 0.013509 -0.004998
# 5 0.008622 -0.001580 -0.000024 0.013509 0.044136 -0.006706
# 6 -0.003790 0.000509 0.001194 -0.004998 -0.006706 0.037953
#
#
# Mechanical properties :
#
#
# Convention : Reuss Voigt Hill
#
# Bulk Modulus (GPa) = 45.64535 57.53489 51.59012
# Shear Modulus (GPa) = 26.58068 32.16543 29.37305
#
# Velocity S-wave (km/s) = 3.68578 4.05454 3.87455
# Velocity P-wave (km/s) = 6.43755 7.16410 6.81052
#
# Compressibility (1/GPa) = 0.02190804
#
# Stress axis : x y z
#
# Youngs Moduli (GPa) = 59.58052 105.76571 76.57012
#
# Poissons Ratio (x) = 0.46849 0.02239
# Poissons Ratio (y) = 0.26391 0.30425
# Poissons Ratio (z) = 0.01742 0.42026
#
# Static dielectric constant tensor:
#      x y z
#    x 1.712840 -0.021450 -0.048420 
#    y -0.021450 1.730660 0.041900 
#    z -0.048420 0.041900 1.855880 
# 
# From -- ./inp_files/174817.got.cif
#   From: 2010.05.17/outbox.cif.g08.bks.cpg/sg2_88_cif.got.tgz:174817.got - 2010.06.03 11:33:40.
