data_PCOD9058055
_publ_section_title
;
Structure prediction by ZEFSAII (Michael W. Deem and Ramdas Pophale) SiO2 
 PCOD9058055
Probable space group: P -1
;
_chemical_formula_sum "Si O2"
_cell_formula_units_Z 16
_cell_length_a 13.666034
_cell_length_b 10.582588
_cell_length_c 9.568982
_cell_angle_alpha 61.479223
_cell_angle_beta 119.397509
_cell_angle_gamma 70.058172
_cell_volume 698.641217
_symmetry_space_group_name_H-M "P -1"
_symmetry_group_IT_number 2
_symmetry_cell_setting 'triclinic'
loop_
_space_group_symop_operation_xyz
x,y,z
-x,-y,-z
loop_
_atom_site_type_symbol
_atom_site_label
_atom_site_fract_x
_atom_site_fract_y
_atom_site_fract_z
Si Si1 0.235426 0.860127 0.468752
Si Si2 0.852756 0.330020 0.310128
Si Si3 0.584813 0.125904 0.919284
Si Si4 0.890487 0.673855 0.452563
Si Si5 0.695607 0.265523 0.739943
Si Si6 0.711814 0.720722 0.546862
Si Si7 0.113901 0.689363 0.968977
Si Si8 0.491219 0.787910 0.860930
O O1 0.169679 0.779227 0.541484
O O2 0.266538 0.801744 0.358888
O O3 0.404612 0.752418 0.720422
O O4 0.088409 0.120624 0.251928
O O5 0.024864 0.254808 0.489984
O O6 0.848809 0.282986 0.172087
O O7 0.692421 0.590535 0.082297
O O8 0.704886 0.114937 0.920666
O O9 0.418358 0.253890 0.645215
O O10 0.541436 0.220090 0.994984
O O11 0.697213 0.876289 0.156311
O O12 0.869644 0.606185 0.616317
O O13 0.000000 0.500000 0.500000
O O14 0.500000 0.500000 0.500000
O O15 0.816439 0.270572 0.885140
O O16 0.787440 0.556071 0.813766
O O17 0.604083 0.969662 0.366935
#
# Coordination Sequence:
#
# PCOD9058055 Si02
#       8
#     2   2   2   2   2   2   2   2
#     4  12  27  45  72 101 138 178 229 286 338 402
#     4  12  25  46  72 100 135 182 231 282 337 403
#     4  11  22  44  69  98 137 179 227 275 336 402
#     4  11  24  40  70 100 134 181 224 275 337 406
#     4  12  24  43  70 102 134 177 227 280 339 395
#     4  11  25  44  69 100 143 179 223 281 339 408
#     4  12  26  45  69 102 143 177 225 282 343 402
#     4  11  24  46  71 100 136 181 230 277 340 407
#
# _framework density 22.901596999999999
#
# number of rings (size 3 to 8) (size 9 to 14) (size 15 to 20)
#    0.000    0.500    1.250    8.625    3.500    2.500 
#    0.000    0.000    0.000    0.000    0.000    0.000 
#    0.000    0.000    0.000    0.000    0.000    0.000 
#
# Total GULP energy -89585.429720 kJ/mol
# GULP energy per Si atom -5599.089357 kJ/mol
# Density = 2.284947 g / cm^3
# Si number density = 22.901597 Si / 1000 Ang^3
#
#
#
# Elastic Constant Matrix: (Units=GPa)
#
#
# Indices 1 2 3 4 5 6 
#
# 1 91.9771 14.7055 26.1197 9.1664 -11.8199 -4.1662
# 2 14.7055 104.1540 22.7802 12.3263 -9.5824 -28.3353
# 3 26.1197 22.7802 91.6599 1.1262 1.2280 -10.6445
# 4 9.1664 12.3263 1.1262 36.2225 -0.8067 4.2714
# 5 -11.8199 -9.5824 1.2280 -0.8067 39.0409 4.6770
# 6 -4.1662 -28.3353 -10.6445 4.2714 4.6770 42.9779
#
#
#
# Elastic Compliance Matrix: (Units=1/GPa)
#
#
# Indices 1 2 3 4 5 6 
#
# 1 0.012716 -0.000316 -0.003559 -0.002917 0.003822 0.000017
# 2 -0.000316 0.013247 -0.002183 -0.005311 0.002101 0.008462
# 3 -0.003559 -0.002183 0.012655 0.001026 -0.002168 0.001484
# 4 -0.002917 -0.005311 0.001026 0.030871 -0.000801 -0.006511
# 5 0.003822 0.002101 -0.002168 -0.000801 0.027542 -0.001699
# 6 0.000017 0.008462 0.001484 -0.006511 -0.001699 0.030048
#
#
# Mechanical properties :
#
#
# Convention : Reuss Voigt Hill
#
# Bulk Modulus (GPa) = 37.72898 46.11131 41.92014
# Shear Modulus (GPa) = 33.77763 38.59396 36.18580
#
# Velocity S-wave (km/s) = 3.84461 4.10958 3.97930
# Velocity P-wave (km/s) = 6.01816 6.53425 6.28151
#
# Compressibility (1/GPa) = 0.02650483
#
# Stress axis : x y z
#
# Youngs Moduli (GPa) = 78.64182 75.48881 79.01898
#
# Poissons Ratio (x) = 0.02382 0.28119
# Poissons Ratio (y) = 0.02481 0.17247
# Poissons Ratio (z) = 0.27985 0.16476
#
# Static dielectric constant tensor:
#      x y z
#    x 1.869270 0.041400 -0.054640 
#    y 0.041400 1.850400 -0.029070 
#    z -0.054640 -0.029070 1.889740 
# 
# From -- ./inp_files/208316.got.cif
#   From: 2010.05.17/outbox.cif.g08.bks.cpg/sg2_105_cif.got.tgz:208316.got - 2010.06.03 11:33:40.
