data_PCOD9058639
_publ_section_title
;
Structure prediction by ZEFSAII (Michael W. Deem and Ramdas Pophale) SiO2 
 PCOD9058639
Probable space group: P -1
;
_chemical_formula_sum "Si O2"
_cell_formula_units_Z 14
_cell_length_a 7.675279
_cell_length_b 12.250009
_cell_length_c 8.762566
_cell_angle_alpha 116.897985
_cell_angle_beta 124.452830
_cell_angle_gamma 52.456135
_cell_volume 531.303236
_symmetry_space_group_name_H-M "P -1"
_symmetry_group_IT_number 2
_symmetry_cell_setting 'triclinic'
loop_
_space_group_symop_operation_xyz
x,y,z
-x,-y,-z
loop_
_atom_site_type_symbol
_atom_site_label
_atom_site_fract_x
_atom_site_fract_y
_atom_site_fract_z
Si Si1 0.857191 0.777728 0.925581
Si Si2 0.354128 0.532657 0.699024
Si Si3 0.476824 0.760253 0.535390
Si Si4 0.796072 0.529410 0.086006
Si Si5 0.321189 0.162258 0.798938
Si Si6 0.947562 0.164655 0.390787
Si Si7 0.782773 0.108490 0.825942
O O1 0.674334 0.802295 0.714562
O O2 0.080141 0.803568 0.015596
O O3 0.728663 0.861953 0.067825
O O4 0.966145 0.614381 0.917639
O O5 0.417323 0.406997 0.532632
O O6 0.590321 0.542872 0.874033
O O7 0.152741 0.681487 0.632464
O O8 0.273392 0.490560 0.789000
O O9 0.264613 0.819992 0.592227
O O10 0.376124 0.818384 0.356075
O O11 0.807510 0.670732 0.180618
O O12 0.597369 0.109660 0.859499
O O13 0.184275 0.116114 0.581540
O O14 0.022509 0.045414 0.226431
#
# Coordination Sequence:
#
# PCOD9058639 Si02
#       7
#     2   2   2   2   2   2   2
#     4  12  27  48  81 113 155 199 255 317 377 452
#     4  11  23  46  78 116 147 201 256 316 377 450
#     4  12  25  50  81 112 150 206 254 310 384 447
#     4  11  22  46  76 111 158 191 257 323 373 442
#     4  12  25  49  78 111 155 200 253 318 377 449
#     4  12  27  47  80 113 158 197 259 313 380 457
#     4  12  27  55  75 113 160 202 250 315 380 456
#
# _framework density 26.350304000000001
#
# number of rings (size 3 to 8) (size 9 to 14) (size 15 to 20)
#    0.000    0.286    4.286    4.286    2.000    1.714 
#    2.571    3.571    0.000    0.000    0.000    0.000 
#    0.000    0.000    0.000    0.000    0.000    0.000 
#
# Total GULP energy -78689.496071 kJ/mol
# GULP energy per Si atom -5620.678291 kJ/mol
# Density = 2.629033 g / cm^3
# Si number density = 26.350304 Si / 1000 Ang^3
#
#
#
# Elastic Constant Matrix: (Units=GPa)
#
#
# Indices 1 2 3 4 5 6 
#
# 1 125.7803 10.5504 42.2976 3.9470 -1.5246 -21.9377
# 2 10.5504 133.8992 29.8445 7.8975 0.3860 -11.9493
# 3 42.2976 29.8445 124.7828 -20.6695 29.9678 -5.0990
# 4 3.9470 7.8975 -20.6695 48.6615 -9.3266 2.0838
# 5 -1.5246 0.3860 29.9678 -9.3266 47.1810 6.6624
# 6 -21.9377 -11.9493 -5.0990 2.0838 6.6624 34.7380
#
#
#
# Elastic Compliance Matrix: (Units=1/GPa)
#
#
# Indices 1 2 3 4 5 6 
#
# 1 0.010538 0.000859 -0.004400 -0.002799 0.001707 0.006145
# 2 0.000859 0.008451 -0.002813 -0.002613 0.000800 0.003040
# 3 -0.004400 -0.002813 0.012650 0.004866 -0.007076 -0.000824
# 4 -0.002799 -0.002613 0.004866 0.023830 0.002085 -0.003782
# 5 0.001707 0.000800 -0.007076 0.002085 0.026850 -0.004960
# 6 0.006145 0.003040 -0.000824 -0.003782 -0.004960 0.034771
#
#
# Mechanical properties :
#
#
# Convention : Reuss Voigt Hill
#
# Bulk Modulus (GPa) = 52.82471 61.09414 56.95943
# Shear Modulus (GPa) = 36.73557 46.23410 41.48483
#
# Velocity S-wave (km/s) = 3.73785 4.19333 3.97212
# Velocity P-wave (km/s) = 6.22248 6.83236 6.53454
#
# Compressibility (1/GPa) = 0.01893054
#
# Stress axis : x y z
#
# Youngs Moduli (GPa) = 94.89131 118.33365 79.05258
#
# Poissons Ratio (x) = -0.10165 0.34785
# Poissons Ratio (y) = -0.08151 0.22237
# Poissons Ratio (z) = 0.41754 0.33287
#
# Static dielectric constant tensor:
#      x y z
#    x 2.022370 -0.010720 -0.022880 
#    y -0.010720 2.067780 -0.005340 
#    z -0.022880 -0.005340 2.001430 
# 
# From -- ./inp_files/190323.got.cif
#   From: 2010.05.17/outbox.cif.g08.bks.cpg/sg2_96_cif.got.tgz:190323.got - 2010.06.03 11:33:40.
