data_PCOD9058578
_publ_section_title
;
Structure prediction by ZEFSAII (Michael W. Deem and Ramdas Pophale) SiO2 
 PCOD9058578
Probable space group: P -1
;
_chemical_formula_sum "Si O2"
_cell_formula_units_Z 16
_cell_length_a 12.386603
_cell_length_b 11.927841
_cell_length_c 12.300637
_cell_angle_alpha 153.847027
_cell_angle_beta 125.574744
_cell_angle_gamma 56.739668
_cell_volume 649.782255
_symmetry_space_group_name_H-M "P -1"
_symmetry_group_IT_number 2
_symmetry_cell_setting 'triclinic'
loop_
_space_group_symop_operation_xyz
x,y,z
-x,-y,-z
loop_
_atom_site_type_symbol
_atom_site_label
_atom_site_fract_x
_atom_site_fract_y
_atom_site_fract_z
Si Si1 0.719815 0.122417 0.068905
Si Si2 0.652922 0.073561 0.416992
Si Si3 0.113366 0.158221 0.757826
Si Si4 0.027789 0.567669 0.889814
Si Si5 0.445945 0.746698 0.117235
Si Si6 0.227850 0.939841 0.298167
Si Si7 0.989548 0.311503 0.430569
Si Si8 0.424211 0.411081 0.483771
O O1 0.878921 0.116435 0.165439
O O2 0.659343 0.338545 0.304345
O O3 0.671040 0.252115 0.039215
O O4 0.659387 0.843673 0.800054
O O5 0.754148 0.097538 0.595499
O O6 0.546562 0.311809 0.548144
O O7 0.743900 0.997962 0.300825
O O8 0.566308 0.846585 0.206769
O O9 0.108859 0.390903 0.872255
O O10 0.000000 0.000000 0.500000
O O11 0.070048 0.255814 0.936410
O O12 0.952200 0.426513 0.628245
O O13 0.137982 0.712809 0.016548
O O14 0.371628 0.933930 0.324561
O O15 0.500000 0.500000 0.000000
O O16 0.136614 0.184766 0.426114
O O17 0.000000 0.500000 0.500000
O O18 0.500000 0.500000 0.500000
#
# Coordination Sequence:
#
# PCOD9058578 Si02
#       8
#     2   2   2   2   2   2   2   2
#     4  11  28  52  76 117 161 211 276 320 411 486
#     4  11  24  46  77 112 153 197 267 332 408 483
#     4  11  22  46  72 110 152 193 258 334 400 478
#     4  11  24  44  74 109 152 202 258 329 403 477
#     4  11  25  45  80 111 153 207 266 334 400 484
#     4  12  25  47  75 113 152 200 266 326 411 474
#     4  12  29  47  76 112 167 211 264 337 405 495
#     4  11  27  54  80 111 157 213 268 335 404 487
#
# _framework density 24.623633999999999
#
# number of rings (size 3 to 8) (size 9 to 14) (size 15 to 20)
#    0.000    0.750    2.500    3.000    7.000    4.000 
#    4.500    0.000    0.000    0.000    0.000    0.000 
#    0.000    0.000    0.000    0.000    0.000    0.000 
#
# Total GULP energy -89513.321041 kJ/mol
# GULP energy per Si atom -5594.582565 kJ/mol
# Density = 2.456759 g / cm^3
# Si number density = 24.623634 Si / 1000 Ang^3
#
#
#
# Elastic Constant Matrix: (Units=GPa)
#
#
# Indices 1 2 3 4 5 6 
#
# 1 141.3689 30.2303 46.9616 3.2742 -10.9922 -10.8119
# 2 30.2303 133.3753 36.5437 -1.8347 4.4970 3.7068
# 3 46.9616 36.5437 94.1017 1.8962 -1.1697 -4.1063
# 4 3.2742 -1.8347 1.8962 32.4527 -4.8638 -1.2612
# 5 -10.9922 4.4970 -1.1697 -4.8638 28.2241 7.6712
# 6 -10.8119 3.7068 -4.1063 -1.2612 7.6712 43.9165
#
#
#
# Elastic Compliance Matrix: (Units=1/GPa)
#
#
# Indices 1 2 3 4 5 6 
#
# 1 0.008971 -0.001098 -0.003948 -0.000219 0.003091 0.001386
# 2 -0.001098 0.008620 -0.002872 0.000493 -0.001569 -0.000978
# 3 -0.003948 -0.002872 0.013745 -0.000662 -0.000809 0.000678
# 4 -0.000219 0.000493 -0.000662 0.031693 0.005318 -0.000176
# 5 0.003091 -0.001569 -0.000809 0.005318 0.039373 -0.005907
# 6 0.001386 -0.000978 0.000678 -0.000176 -0.005907 0.024284
#
#
# Mechanical properties :
#
#
# Convention : Reuss Voigt Hill
#
# Bulk Modulus (GPa) = 64.50671 66.25746 65.38208
# Shear Modulus (GPa) = 33.85514 37.92599 35.89057
#
# Velocity S-wave (km/s) = 3.71199 3.92883 3.82195
# Velocity P-wave (km/s) = 6.68025 6.89546 6.78871
#
# Compressibility (1/GPa) = 0.01550226
#
# Stress axis : x y z
#
# Youngs Moduli (GPa) = 111.46885 116.00705 72.75373
#
# Poissons Ratio (x) = 0.12732 0.28720
# Poissons Ratio (y) = 0.12234 0.20895
# Poissons Ratio (z) = 0.44003 0.33317
#
# Static dielectric constant tensor:
#      x y z
#    x 2.548790 -0.129340 0.257900 
#    y -0.129340 2.010210 -0.071340 
#    z 0.257900 -0.071340 2.248750 
# 
# From -- ./inp_files/429281.got.cif
#   From: 2010.05.17/outbox.cif.g08.bks.cpg/sg2_215_cif.got.tgz:429281.got - 2010.06.03 11:33:40.
