data_PCOD9058546
_publ_section_title
;
Structure prediction by ZEFSAII (Michael W. Deem and Ramdas Pophale) SiO2 
 PCOD9058546
Probable space group: P -1
;
_chemical_formula_sum "Si O2"
_cell_formula_units_Z 14
_cell_length_a 9.475915
_cell_length_b 8.886652
_cell_length_c 12.288033
_cell_angle_alpha 75.548054
_cell_angle_beta 57.152800
_cell_angle_gamma 115.412286
_cell_volume 606.187966
_symmetry_space_group_name_H-M "P -1"
_symmetry_group_IT_number 2
_symmetry_cell_setting 'triclinic'
loop_
_space_group_symop_operation_xyz
x,y,z
-x,-y,-z
loop_
_atom_site_type_symbol
_atom_site_label
_atom_site_fract_x
_atom_site_fract_y
_atom_site_fract_z
Si Si1 0.923609 0.717041 0.315625
Si Si2 0.039185 0.069171 0.094905
Si Si3 0.150150 0.634260 0.087993
Si Si4 0.663969 0.240913 0.578657
Si Si5 0.572949 0.335721 0.833237
Si Si6 0.785773 0.215021 0.201523
Si Si7 0.016543 0.192754 0.484282
O O1 0.750226 0.463497 0.458706
O O2 0.096661 0.764382 0.142566
O O3 0.041449 0.824423 0.361776
O O4 0.857062 0.844475 0.278441
O O5 0.986370 0.215177 0.103804
O O6 0.305611 0.205731 0.988923
O O7 0.000000 0.000000 0.000000
O O8 0.308175 0.650734 0.108248
O O9 0.895530 0.395423 0.213660
O O10 0.251623 0.719350 0.909236
O O11 0.602689 0.238862 0.733132
O O12 0.856792 0.227212 0.493428
O O13 0.446020 0.032740 0.642527
O O14 0.721229 0.582215 0.691313
O O15 0.000000 0.000000 0.500000
#
# Coordination Sequence:
#
# PCOD9058546 Si02
#       7
#     2   2   2   2   2   2   2
#     4  11  23  43  72  94 135 183 223 272 343 405
#     4  12  25  44  68 107 136 176 232 283 329 395
#     4  11  23  45  68 101 133 189 225 269 343 404
#     4  11  22  46  70  98 136 182 224 275 344 408
#     4  11  23  46  73  95 138 183 227 273 339 411
#     4  11  27  43  69 104 144 173 228 283 330 404
#     4  11  25  44  68 108 131 171 234 287 333 400
#
# _framework density 23.095147999999998
#
# number of rings (size 3 to 8) (size 9 to 14) (size 15 to 20)
#    0.000    0.857    5.714    0.857    4.000    5.143 
#    0.000    0.000    0.000    0.000    0.000    0.000 
#    0.000    0.000    0.000    0.000    0.000    0.000 
#
# Total GULP energy -78173.057167 kJ/mol
# GULP energy per Si atom -5583.789798 kJ/mol
# Density = 2.304258 g / cm^3
# Si number density = 23.095148 Si / 1000 Ang^3
#
#
#
# Elastic Constant Matrix: (Units=GPa)
#
#
# Indices 1 2 3 4 5 6 
#
# 1 91.9873 41.4586 44.3171 -9.9225 11.9487 10.8513
# 2 41.4586 130.1429 27.6432 -15.0265 -8.7063 -4.8789
# 3 44.3171 27.6432 67.0650 -13.7303 7.8723 -0.9103
# 4 -9.9225 -15.0265 -13.7303 40.4662 4.6900 8.3775
# 5 11.9487 -8.7063 7.8723 4.6900 36.7909 -2.6065
# 6 10.8513 -4.8789 -0.9103 8.3775 -2.6065 34.9741
#
#
#
# Elastic Compliance Matrix: (Units=1/GPa)
#
#
# Indices 1 2 3 4 5 6 
#
# 1 0.019823 -0.004636 -0.010145 0.002076 -0.006197 -0.008020
# 2 -0.004636 0.009940 -0.001274 0.001044 0.004199 0.002854
# 3 -0.010145 -0.001274 0.023448 0.004819 -0.002480 0.002241
# 4 0.002076 0.001044 0.004819 0.029545 -0.005783 -0.007881
# 5 -0.006197 0.004199 -0.002480 -0.005783 0.031894 0.006206
# 6 -0.008020 0.002854 0.002241 -0.007881 0.006206 0.033888
#
#
# Mechanical properties :
#
#
# Convention : Reuss Voigt Hill
#
# Bulk Modulus (GPa) = 47.39053 57.33701 52.36377
# Shear Modulus (GPa) = 26.64095 34.16466 30.40281
#
# Velocity S-wave (km/s) = 3.40005 3.85034 3.63218
# Velocity P-wave (km/s) = 5.99817 6.68185 6.34922
#
# Compressibility (1/GPa) = 0.02110126
#
# Stress axis : x y z
#
# Youngs Moduli (GPa) = 50.44711 100.60635 42.64774
#
# Poissons Ratio (x) = 0.46636 0.43265
# Poissons Ratio (y) = 0.23385 0.05434
# Poissons Ratio (z) = 0.51178 0.12819
#
# Static dielectric constant tensor:
#      x y z
#    x 1.920680 0.014460 0.026910 
#    y 0.014460 1.891280 -0.011100 
#    z 0.026910 -0.011100 1.949130 
# 
# From -- ./inp_files/158441.got.cif
#   From: 2010.05.17/outbox.cif.g08.bks.cpg/sg2_80_cif.got.tgz:158441.got - 2010.06.03 11:33:40.
