data_PCOD9058503
_publ_section_title
;
Structure prediction by ZEFSAII (Michael W. Deem and Ramdas Pophale) SiO2 
 PCOD9058503
Probable space group: P -1
;
_chemical_formula_sum "Si O2"
_cell_formula_units_Z 16
_cell_length_a 7.662712
_cell_length_b 11.608531
_cell_length_c 18.905795
_cell_angle_alpha 137.402973
_cell_angle_beta 144.494234
_cell_angle_gamma 58.013959
_cell_volume 650.654235
_symmetry_space_group_name_H-M "P -1"
_symmetry_group_IT_number 2
_symmetry_cell_setting 'triclinic'
loop_
_space_group_symop_operation_xyz
x,y,z
-x,-y,-z
loop_
_atom_site_type_symbol
_atom_site_label
_atom_site_fract_x
_atom_site_fract_y
_atom_site_fract_z
Si Si1 0.918663 0.902490 0.244546
Si Si2 0.789096 0.850431 0.724737
Si Si3 0.649534 0.443798 0.332431
Si Si4 0.264034 0.769567 0.616493
Si Si5 0.855121 0.796810 0.014398
Si Si6 0.058043 0.494245 0.317563
Si Si7 0.344759 0.666843 0.011071
Si Si8 0.395339 0.755747 0.426841
O O1 0.907275 0.812318 0.123068
O O2 0.630782 0.813839 0.156406
O O3 0.205443 0.868162 0.369472
O O4 0.880709 0.102417 0.324410
O O5 0.508949 0.876169 0.693187
O O6 0.662630 0.864641 0.610501
O O7 0.813714 0.651276 0.658859
O O8 0.076565 0.002809 0.899258
O O9 0.533253 0.338134 0.317880
O O10 0.515303 0.615577 0.354799
O O11 0.000000 0.500000 0.500000
O O12 0.488608 0.306380 0.159718
O O13 0.023489 0.634834 0.430482
O O14 0.102705 0.707233 0.009940
O O15 0.210169 0.630026 0.368668
O O16 0.817604 0.371456 0.135268
O O17 0.500000 0.500000 0.000000
#
# Coordination Sequence:
#
# PCOD9058503 Si02
#       8
#     2   2   2   2   2   2   2   2
#     4  12  29  47  75 121 160 203 256 319 391 469
#     4  11  23  46  80 111 152 203 260 328 382 451
#     4  12  27  49  74 111 152 205 264 317 384 467
#     4  11  24  46  77 114 147 205 263 311 389 461
#     4  12  29  50  76 116 163 197 256 329 387 456
#     4  11  22  45  81 109 147 207 266 315 378 459
#     4  12  25  49  79 112 154 213 255 314 395 465
#     4  11  23  49  72 111 155 201 261 314 387 456
#
# _framework density 24.590634000000001
#
# number of rings (size 3 to 8) (size 9 to 14) (size 15 to 20)
#    0.000    0.500    6.250    0.750    5.250    7.000 
#    0.000    0.000    0.000    0.000    0.000    0.000 
#    0.000    0.000    0.000    0.000    0.000    0.000 
#
# Total GULP energy -89245.150744 kJ/mol
# GULP energy per Si atom -5577.821921 kJ/mol
# Density = 2.453466 g / cm^3
# Si number density = 24.590634 Si / 1000 Ang^3
#
#
#
# Elastic Constant Matrix: (Units=GPa)
#
#
# Indices 1 2 3 4 5 6 
#
# 1 126.0654 16.1994 20.3016 -5.5717 -14.5540 -14.8009
# 2 16.1994 67.1068 28.0469 -4.1945 -13.2691 -16.4584
# 3 20.3016 28.0469 125.8058 -0.6059 -6.1147 -7.4706
# 4 -5.5717 -4.1945 -0.6059 39.6572 9.1351 -9.6535
# 5 -14.5540 -13.2691 -6.1147 9.1351 43.7568 3.4117
# 6 -14.8009 -16.4584 -7.4706 -9.6535 3.4117 22.8205
#
#
#
# Elastic Compliance Matrix: (Units=1/GPa)
#
#
# Indices 1 2 3 4 5 6 
#
# 1 0.009171 0.000410 -0.001068 0.002474 0.001991 0.006643
# 2 0.000410 0.021374 -0.003663 0.005343 0.003729 0.016185
# 3 -0.001068 -0.003663 0.008894 -0.000545 -0.000059 -0.000645
# 4 0.002474 0.005343 -0.000545 0.032314 -0.005926 0.019835
# 5 0.001991 0.003729 -0.000059 -0.005926 0.026066 -0.002442
# 6 0.006643 0.016185 -0.000645 0.019835 -0.002442 0.068347
#
#
# Mechanical properties :
#
#
# Convention : Reuss Voigt Hill
#
# Bulk Modulus (GPa) = 32.47098 49.78597 41.12848
# Shear Modulus (GPa) = 27.01626 38.20889 32.61258
#
# Velocity S-wave (km/s) = 3.31817 3.94610 3.64568
# Velocity P-wave (km/s) = 5.28333 6.40720 5.87221
#
# Compressibility (1/GPa) = 0.03079673
#
# Stress axis : x y z
#
# Youngs Moduli (GPa) = 109.04126 46.78475 112.43499
#
# Poissons Ratio (x) = -0.01919 0.12010
# Poissons Ratio (y) = -0.04473 0.41188
# Poissons Ratio (z) = 0.11648 0.17139
#
# Static dielectric constant tensor:
#      x y z
#    x 2.080460 0.004730 0.057230 
#    y 0.004730 1.933990 0.019930 
#    z 0.057230 0.019930 2.003640 
# 
# From -- ./inp_files/589674.got.cif
#   From: 2010.05.17/outbox.cif.g08.bks.cpg/sg2_295_cif.got.tgz:589674.got - 2010.06.03 11:33:40.
