data_PCOD9058635
_publ_section_title
;
Structure prediction by ZEFSAII (Michael W. Deem and Ramdas Pophale) SiO2 
 PCOD9058635
Probable space group: P -1
;
_chemical_formula_sum "Si O2"
_cell_formula_units_Z 15
_cell_length_a 7.866399
_cell_length_b 11.927754
_cell_length_c 10.953749
_cell_angle_alpha 52.407503
_cell_angle_beta 123.938057
_cell_angle_gamma 125.130425
_cell_volume 631.051997
_symmetry_space_group_name_H-M "P -1"
_symmetry_group_IT_number 2
_symmetry_cell_setting 'triclinic'
loop_
_space_group_symop_operation_xyz
x,y,z
-x,-y,-z
loop_
_atom_site_type_symbol
_atom_site_label
_atom_site_fract_x
_atom_site_fract_y
_atom_site_fract_z
Si Si1 0.814619 0.840359 0.048696
Si Si2 0.817773 0.284003 0.771964
Si Si3 0.500000 0.000000 0.000000
Si Si4 0.382294 0.861108 0.788063
Si Si5 0.750662 0.881813 0.490442
Si Si6 0.267427 0.295240 0.647146
Si Si7 0.081468 0.603878 0.683473
Si Si8 0.577803 0.385396 0.387572
O O1 0.735302 0.823403 0.169275
O O2 0.950638 0.733039 0.154222
O O3 0.605764 0.826527 0.894019
O O4 0.000000 0.000000 0.000000
O O5 0.707305 0.315991 0.582177
O O6 0.898812 0.448309 0.759368
O O7 0.664690 0.137879 0.880445
O O8 0.362539 0.909022 0.886545
O O9 0.183937 0.717865 0.757522
O O10 0.382194 0.006028 0.615254
O O11 0.695808 0.781669 0.410571
O O12 0.660881 0.744080 0.641637
O O13 0.000000 0.000000 0.500000
O O14 0.421666 0.458985 0.652294
O O15 0.042660 0.321321 0.509915
O O16 0.278833 0.583783 0.697797
#
# Coordination Sequence:
#
# PCOD9058635 Si02
#       8
#     2   2   1   2   2   2   2   2
#     4  12  23  42  72 103 137 192 235 278 353 430
#     4  11  23  46  74 103 143 186 237 291 350 432
#     4  12  24  48  68 102 148 192 226 280 364 428
#     4  12  27  45  69 106 145 188 234 292 355 423
#     4  12  25  44  65 106 145 180 233 296 354 406
#     4  11  23  45  75 101 139 187 236 291 356 422
#     4  11  24  48  73 108 140 181 242 300 347 411
#     4  11  22  46  76 106 137 184 243 292 353 423
#
# _framework density 23.769831
#
# number of rings (size 3 to 8) (size 9 to 14) (size 15 to 20)
#    0.000    0.533    6.667    2.000    0.000    2.667 
#    0.000    0.000    0.000    0.000    0.000    0.000 
#    0.000    0.000    0.000    0.000    0.000    0.000 
#
# Total GULP energy -83530.219622 kJ/mol
# GULP energy per Si atom -5568.681308 kJ/mol
# Density = 2.371573 g / cm^3
# Si number density = 23.769831 Si / 1000 Ang^3
#
#
#
# Elastic Constant Matrix: (Units=GPa)
#
#
# Indices 1 2 3 4 5 6 
#
# 1 86.0710 21.2644 8.2031 -2.1168 -3.7605 6.3376
# 2 21.2644 146.1344 34.3458 10.1891 -15.1411 3.3041
# 3 8.2031 34.3458 47.1316 -10.1390 -7.1466 14.1376
# 4 -2.1168 10.1891 -10.1390 29.4802 6.5438 -0.7612
# 5 -3.7605 -15.1411 -7.1466 6.5438 33.8004 -0.2190
# 6 6.3376 3.3041 14.1376 -0.7612 -0.2190 32.4086
#
#
#
# Elastic Compliance Matrix: (Units=1/GPa)
#
#
# Indices 1 2 3 4 5 6 
#
# 1 0.012273 -0.001878 0.000288 0.001508 0.000278 -0.002297
# 2 -0.001878 0.010078 -0.008970 -0.007484 0.003878 0.003103
# 3 0.000288 -0.008970 0.035196 0.014748 0.000509 -0.014146
# 4 0.001508 -0.007484 0.014748 0.043448 -0.008510 -0.005002
# 5 0.000278 0.003878 0.000509 -0.008510 0.033105 -0.000648
# 6 -0.002297 0.003103 -0.014146 -0.005002 -0.000648 0.037038
#
#
# Mechanical properties :
#
#
# Convention : Reuss Voigt Hill
#
# Bulk Modulus (GPa) = 27.45133 45.21817 36.33475
# Shear Modulus (GPa) = 24.46188 33.50610 28.98399
#
# Velocity S-wave (km/s) = 3.21146 3.75855 3.49572
# Velocity P-wave (km/s) = 5.03241 6.15631 5.62252
#
# Compressibility (1/GPa) = 0.03642811
#
# Stress axis : x y z
#
# Youngs Moduli (GPa) = 81.47822 99.22732 28.41202
#
# Poissons Ratio (x) = 0.18635 -0.00819
# Poissons Ratio (y) = 0.15302 0.25485
# Poissons Ratio (z) = -0.02348 0.89005
#
# Static dielectric constant tensor:
#      x y z
#    x 2.276290 -0.238230 0.237070 
#    y -0.238230 2.119340 -0.255220 
#    z 0.237070 -0.255220 2.226680 
# 
# From -- ./inp_files/389218.got.cif
#   From: 2010.05.17/outbox.cif.g08.bks.cpg/sg2_195_cif.got.tgz:389218.got - 2010.06.03 11:33:40.
