data_PCOD9058162
_publ_section_title
;
Structure prediction by ZEFSAII (Michael W. Deem and Ramdas Pophale) SiO2 
 PCOD9058162
Probable space group: P -1
;
_chemical_formula_sum "Si O2"
_cell_formula_units_Z 12
_cell_length_a 12.752238
_cell_length_b 9.415522
_cell_length_c 5.315065
_cell_angle_alpha 109.617423
_cell_angle_beta 86.205548
_cell_angle_gamma 63.680662
_cell_volume 521.048335
_symmetry_space_group_name_H-M "P -1"
_symmetry_group_IT_number 2
_symmetry_cell_setting 'triclinic'
loop_
_space_group_symop_operation_xyz
x,y,z
-x,-y,-z
loop_
_atom_site_type_symbol
_atom_site_label
_atom_site_fract_x
_atom_site_fract_y
_atom_site_fract_z
Si Si1 0.489948 0.833902 0.502347
Si Si2 0.133436 0.094929 0.452289
Si Si3 0.286811 0.538897 0.707039
Si Si4 0.900473 0.128133 0.296900
Si Si5 0.918857 0.545458 0.284343
Si Si6 0.361479 0.803126 0.006271
O O1 0.616958 0.662789 0.452043
O O2 0.433310 0.795467 0.242017
O O3 0.500000 0.000000 0.500000
O O4 0.413781 0.850213 0.778370
O O5 0.163384 0.247313 0.565202
O O6 0.991702 0.170505 0.463378
O O7 0.145510 0.990507 0.637887
O O8 0.223447 0.955460 0.157555
O O9 0.222380 0.687240 0.593644
O O10 0.163330 0.541924 0.806891
O O11 0.354796 0.626056 0.890705
O O12 0.000000 0.000000 0.000000
O O13 0.000000 0.500000 0.500000
O O14 0.000000 0.500000 0.000000
#
# Coordination Sequence:
#
# PCOD9058162 Si02
#       6
#     2   2   2   2   2   2
#     4  12  29  53  78 112 149 201 256 316 382 450
#     4  11  25  43  74 106 154 195 253 306 380 445
#     4  12  26  48  77 109 155 198 255 315 376 451
#     4  11  22  44  72 109 149 200 246 312 376 444
#     4  12  28  45  70 111 154 197 249 306 377 448
#     4  12  27  49  80 110 150 201 256 311 378 453
#
# _framework density 23.030493
#
# number of rings (size 3 to 8) (size 9 to 14) (size 15 to 20)
#    0.000    0.333    3.333    4.500    2.333    5.333 
#    0.000    0.000    0.000    0.000    0.000    0.000 
#    0.000    0.000    0.000    0.000    0.000    0.000 
#
# Total GULP energy -66846.174535 kJ/mol
# GULP energy per Si atom -5570.514545 kJ/mol
# Density = 2.297807 g / cm^3
# Si number density = 23.030493 Si / 1000 Ang^3
#
#
#
# Elastic Constant Matrix: (Units=GPa)
#
#
# Indices 1 2 3 4 5 6 
#
# 1 104.2384 42.7249 37.5746 -17.4665 -7.6445 -8.4029
# 2 42.7249 155.5875 46.8076 5.5113 -10.9879 3.8303
# 3 37.5746 46.8076 114.3106 -29.0109 -24.6821 4.3554
# 4 -17.4665 5.5113 -29.0109 38.7539 1.6378 0.3878
# 5 -7.6445 -10.9879 -24.6821 1.6378 29.8180 -1.1311
# 6 -8.4029 3.8303 4.3554 0.3878 -1.1311 62.5229
#
#
#
# Elastic Compliance Matrix: (Units=1/GPa)
#
#
# Indices 1 2 3 4 5 6 
#
# 1 0.012444 -0.003141 -0.001514 0.004877 0.000585 0.001951
# 2 -0.003141 0.008689 -0.004095 -0.005680 -0.000705 -0.000647
# 3 -0.001514 -0.004095 0.016259 0.011621 0.010887 -0.000960
# 4 0.004877 -0.005680 0.011621 0.037224 0.006735 0.000085
# 5 0.000585 -0.000705 0.010887 0.006735 0.042072 0.000083
# 6 0.001951 -0.000647 -0.000960 0.000085 0.000083 0.016364
#
#
# Mechanical properties :
#
#
# Convention : Reuss Voigt Hill
#
# Bulk Modulus (GPa) = 50.27170 69.81675 60.04422
# Shear Modulus (GPa) = 31.81013 42.68757 37.24885
#
# Velocity S-wave (km/s) = 3.72051 4.30993 4.02602
# Velocity P-wave (km/s) = 6.35074 7.42617 6.90941
#
# Compressibility (1/GPa) = 0.01989191
#
# Stress axis : x y z
#
# Youngs Moduli (GPa) = 80.35871 115.08788 61.50411
#
# Poissons Ratio (x) = 0.36150 0.09314
# Poissons Ratio (y) = 0.25241 0.25184
# Poissons Ratio (z) = 0.12169 0.47126
#
# Static dielectric constant tensor:
#      x y z
#    x 1.961400 -0.054780 0.094320 
#    y -0.054780 2.125810 0.002290 
#    z 0.094320 0.002290 1.866670 
# 
# From -- ./inp_files/59862.got.cif
#   From: 2010.05.17/outbox.cif.g08.bks.cpg/sg2_30_cif.got.tgz:59862.got - 2010.06.03 11:33:40.
