data_PCOD9058715
_publ_section_title
;
Structure prediction by ZEFSAII (Michael W. Deem and Ramdas Pophale) SiO2 
 PCOD9058715
Probable space group: P -1
;
_chemical_formula_sum "Si O2"
_cell_formula_units_Z 14
_cell_length_a 13.441115
_cell_length_b 7.666099
_cell_length_c 9.516241
_cell_angle_alpha 84.146958
_cell_angle_beta 100.237506
_cell_angle_gamma 135.889608
_cell_volume 671.177090
_symmetry_space_group_name_H-M "P -1"
_symmetry_group_IT_number 2
_symmetry_cell_setting 'triclinic'
loop_
_space_group_symop_operation_xyz
x,y,z
-x,-y,-z
loop_
_atom_site_type_symbol
_atom_site_label
_atom_site_fract_x
_atom_site_fract_y
_atom_site_fract_z
Si Si1 0.911860 0.106367 0.347357
Si Si2 0.751089 0.383423 0.005279
Si Si3 0.794952 0.601727 0.447726
Si Si4 0.952929 0.135917 0.028536
Si Si5 0.305349 0.850888 0.714457
Si Si6 0.648096 0.637886 0.947931
Si Si7 0.382032 0.631698 0.291818
O O1 0.821791 0.169699 0.341534
O O2 0.043863 0.253496 0.475821
O O3 0.969136 0.168874 0.197180
O O4 0.808948 0.810807 0.367352
O O5 0.925618 0.589196 0.032741
O O6 0.705402 0.522673 0.032998
O O7 0.693218 0.318848 0.836341
O O8 0.681932 0.161591 0.113037
O O9 0.733545 0.381462 0.345667
O O10 0.700411 0.489028 0.574240
O O11 0.000000 0.000000 0.000000
O O12 0.782372 0.938791 0.968621
O O13 0.453873 0.107737 0.670348
O O14 0.622834 0.553259 0.786087
O O15 0.500000 0.500000 0.000000
#
# Coordination Sequence:
#
# PCOD9058715 Si02
#       7
#     2   2   2   2   2   2   2
#     4  11  24  41  67  92 124 165 218 260 306 380
#     4   9  21  38  61  88 129 165 202 262 314 362
#     4  11  23  45  65  88 129 169 207 262 314 371
#     4  10  17  37  62  90 125 162 204 257 313 365
#     4  12  24  41  66  93 128 168 210 257 319 372
#     4   9  18  34  61  94 124 157 209 255 311 369
#     4  10  22  40  62  90 131 166 204 263 316 371
#
# _framework density 20.858878000000001
#
# number of rings (size 3 to 8) (size 9 to 14) (size 15 to 20)
#    0.857    0.857    1.429    3.857    0.000    2.286 
#    0.000    1.429    0.000    0.000    0.000    0.000 
#    0.000    0.000    0.000    0.000    0.000    0.000 
#
# Total GULP energy -78151.819018 kJ/mol
# GULP energy per Si atom -5582.272787 kJ/mol
# Density = 2.081140 g / cm^3
# Si number density = 20.858878 Si / 1000 Ang^3
#
#
#
# Elastic Constant Matrix: (Units=GPa)
#
#
# Indices 1 2 3 4 5 6 
#
# 1 61.4351 8.3811 20.8401 -21.0486 -24.2909 17.5320
# 2 8.3811 29.4918 7.2975 -8.9619 -12.6672 23.4460
# 3 20.8401 7.2975 65.9020 -6.9936 -17.3965 -3.9881
# 4 -21.0486 -8.9619 -6.9936 36.7651 -2.7767 -4.7095
# 5 -24.2909 -12.6672 -17.3965 -2.7767 15.2784 -0.9669
# 6 17.5320 23.4460 -3.9881 -4.7095 -0.9669 27.9848
#
#
#
# Elastic Compliance Matrix: (Units=1/GPa)
#
#
# Indices 1 2 3 4 5 6 
#
# 1 0.001642 -0.032676 -0.003701 -0.006843 -0.028440 0.023686
# 2 -0.032676 0.003971 -0.008093 -0.022623 -0.061348 0.010064
# 3 -0.003701 -0.008093 0.021972 0.002816 0.013770 0.013180
# 4 -0.006843 -0.022623 0.002816 0.020076 -0.021117 0.026291
# 5 -0.028440 -0.061348 0.013770 -0.021117 -0.014538 0.067121
# 6 0.023686 0.010064 0.013180 0.026291 0.067121 0.021085
#
#
# Mechanical properties :
#
#
# Convention : Reuss Voigt Hill
#
# Bulk Modulus (GPa) = -16.29875 25.54071 4.62098
# Shear Modulus (GPa) = 40.75125 24.02633 32.38879
#
# Velocity S-wave (km/s) = 4.42482 3.39758 3.94478
# Velocity P-wave (km/s) = 4.27488 5.25951 4.79255
#
# Compressibility (1/GPa) = -0.06135441
#
# Stress axis : x y z
#
# Youngs Moduli (GPa) = 609.02745 251.82766 45.51263
#
# Poissons Ratio (x) = 8.22868 0.16845
# Poissons Ratio (y) = 19.90048 0.36832
# Poissons Ratio (z) = 2.25408 2.03796
#
# Static dielectric constant tensor:
#      x y z
#    x 1.753110 -0.001790 0.019010 
#    y -0.001790 1.750480 0.024820 
#    z 0.019010 0.024820 1.732080 
# 
# From -- ./inp_files/290389.got.cif
#   From: 2010.05.17/outbox.cif.g08.bks.cpg/sg2_146_cif.got.tgz:290389.got - 2010.06.03 11:33:40.
