data_PCOD9058846
_publ_section_title
;
Structure prediction by ZEFSAII (Michael W. Deem and Ramdas Pophale) SiO2 
 PCOD9058846
Probable space group: P -1
;
_chemical_formula_sum "Si O2"
_cell_formula_units_Z 16
_cell_length_a 17.980041
_cell_length_b 11.463894
_cell_length_c 7.850825
_cell_angle_alpha 77.508369
_cell_angle_beta 42.081013
_cell_angle_gamma 45.474218
_cell_volume 596.284241
_symmetry_space_group_name_H-M "P -1"
_symmetry_group_IT_number 2
_symmetry_cell_setting 'triclinic'
loop_
_space_group_symop_operation_xyz
x,y,z
-x,-y,-z
loop_
_atom_site_type_symbol
_atom_site_label
_atom_site_fract_x
_atom_site_fract_y
_atom_site_fract_z
Si Si1 0.878468 0.696528 0.844826
Si Si2 0.194422 0.899489 0.740869
Si Si3 0.785511 0.208478 0.881073
Si Si4 0.496580 0.897522 0.855437
Si Si5 0.687915 0.960430 0.438375
Si Si6 0.630178 0.464444 0.610855
Si Si7 0.689139 0.629890 0.257766
Si Si8 0.271696 0.494913 0.232490
O O1 0.089718 0.566609 0.499843
O O2 0.862559 0.566747 0.931809
O O3 0.722194 0.875828 0.908540
O O4 0.800982 0.816129 0.121115
O O5 0.188999 0.045288 0.681257
O O6 0.345734 0.694765 0.428661
O O7 0.233994 0.840192 0.890728
O O8 0.000000 0.000000 0.000000
O O9 0.749290 0.382751 0.909281
O O10 0.605797 0.311136 0.045947
O O11 0.000000 0.000000 0.500000
O O12 0.599731 0.759104 0.547725
O O13 0.543265 0.754042 0.958401
O O14 0.624829 0.902184 0.672951
O O15 0.482275 0.198930 0.643118
O O16 0.714072 0.470456 0.313320
O O17 0.742606 0.409150 0.603295
#
# Coordination Sequence:
#
# PCOD9058846 Si02
#       8
#     2   2   2   2   2   2   2   2
#     4   9  17  34  58  95 127 162 213 275 323 372
#     4  12  25  41  65  99 131 178 224 268 327 391
#     4  12  26  43  65  93 138 180 216 273 328 391
#     4   8  18  33  57  92 122 162 212 270 323 367
#     4   9  16  33  58  86 126 162 213 271 313 372
#     4  11  23  42  65 100 130 176 223 265 330 395
#     4   8  16  31  61  90 123 163 215 276 319 370
#     4  11  23  37  66  98 133 167 211 270 335 398
#
# _framework density 26.832841999999999
#
# number of rings (size 3 to 8) (size 9 to 14) (size 15 to 20)
#    0.000    2.000    1.250    4.500    3.500    5.500 
#    0.000    0.000    0.000    3.750    0.000    0.000 
#    0.000    0.000    0.000    0.000    0.000    0.000 
#
# Total GULP energy -89638.654864 kJ/mol
# GULP energy per Si atom -5602.415929 kJ/mol
# Density = 2.677177 g / cm^3
# Si number density = 26.832842 Si / 1000 Ang^3
#
#
#
# Elastic Constant Matrix: (Units=GPa)
#
#
# Indices 1 2 3 4 5 6 
#
# 1 121.5392 33.8432 58.9709 -11.3463 -9.9715 12.0994
# 2 33.8432 150.2185 40.6247 -28.6932 -11.6986 21.6916
# 3 58.9709 40.6247 112.4573 -9.6405 -35.5742 -4.0060
# 4 -11.3463 -28.6932 -9.6405 42.0037 5.3799 -6.5500
# 5 -9.9715 -11.6986 -35.5742 5.3799 57.5083 -10.5558
# 6 12.0994 21.6916 -4.0060 -6.5500 -10.5558 41.3558
#
#
#
# Elastic Compliance Matrix: (Units=1/GPa)
#
#
# Indices 1 2 3 4 5 6 
#
# 1 0.012267 -0.000011 -0.007661 0.001226 -0.003659 -0.005065
# 2 -0.000011 0.009117 -0.003576 0.004875 -0.001694 -0.004785
# 3 -0.007661 -0.003576 0.017802 -0.000458 0.010552 0.008462
# 4 0.001226 0.004875 -0.000458 0.027717 -0.001479 0.001052
# 5 -0.003659 -0.001694 0.010552 -0.001479 0.024739 0.009061
# 6 -0.005065 -0.004785 0.008462 0.001052 0.009061 0.031471
#
#
# Mechanical properties :
#
#
# Convention : Reuss Voigt Hill
#
# Bulk Modulus (GPa) = 59.92071 72.34364 66.13217
# Shear Modulus (GPa) = 33.07503 44.89196 38.98349
#
# Velocity S-wave (km/s) = 3.51470 4.09470 3.81573
# Velocity P-wave (km/s) = 6.23301 7.02672 6.64173
#
# Compressibility (1/GPa) = 0.01668872
#
# Stress axis : x y z
#
# Youngs Moduli (GPa) = 81.52249 109.68818 56.17459
#
# Poissons Ratio (x) = 0.00121 0.43036
# Poissons Ratio (y) = 0.00090 0.20088
# Poissons Ratio (z) = 0.62455 0.39224
#
# Static dielectric constant tensor:
#      x y z
#    x 2.187960 0.073920 0.134860 
#    y 0.073920 2.137220 0.071570 
#    z 0.134860 0.071570 2.185290 
# 
# From -- ./inp_files/333203.got.cif
#   From: 2010.05.17/outbox.cif.g08.bks.cpg/sg2_167_cif.got.tgz:333203.got - 2010.06.03 11:33:40.
