data_PCOD9058937
_publ_section_title
;
Structure prediction by ZEFSAII (Michael W. Deem and Ramdas Pophale) SiO2 
 PCOD9058937
Probable space group: P -1
;
_chemical_formula_sum "Si O2"
_cell_formula_units_Z 12
_cell_length_a 14.658361
_cell_length_b 7.072324
_cell_length_c 14.480548
_cell_angle_alpha 137.842176
_cell_angle_beta 29.110678
_cell_angle_gamma 138.552870
_cell_volume 465.689219
_symmetry_space_group_name_H-M "P -1"
_symmetry_group_IT_number 2
_symmetry_cell_setting 'triclinic'
loop_
_space_group_symop_operation_xyz
x,y,z
-x,-y,-z
loop_
_atom_site_type_symbol
_atom_site_label
_atom_site_fract_x
_atom_site_fract_y
_atom_site_fract_z
Si Si1 0.306221 0.216318 0.012505
Si Si2 0.077795 0.689161 0.380763
Si Si3 0.380725 0.655465 0.373037
Si Si4 0.573704 0.656231 0.394374
Si Si5 0.995016 0.241731 0.015466
Si Si6 0.908866 0.122181 0.763176
O O1 0.201411 0.468904 0.210068
O O2 0.283116 0.043270 0.066860
O O3 0.498891 0.357961 0.831868
O O4 0.174684 0.945825 0.968271
O O5 0.149613 0.500590 0.506194
O O6 0.154253 0.857658 0.278860
O O7 0.059821 0.927641 0.558662
O O8 0.459720 0.543829 0.357058
O O9 0.419230 0.003914 0.479890
O O10 0.500000 0.500000 0.500000
O O11 0.797098 0.662315 0.184659
O O12 0.980544 0.543892 0.180905
O O13 0.000000 0.000000 0.000000
#
# Coordination Sequence:
#
# PCOD9058937 Si02
#       6
#     2   2   2   2   2   2
#     4  12  24  44  71  97 131 176 220 269 330 385
#     4  11  25  47  65  97 139 170 219 271 324 399
#     4  11  24  41  68  96 132 173 214 274 325 381
#     4  11  23  39  64 103 130 167 223 266 326 387
#     4  12  21  44  70  94 135 167 220 278 318 386
#     4  11  25  43  69  98 131 179 217 266 336 387
#
# _framework density 25.768259
#
# number of rings (size 3 to 8) (size 9 to 14) (size 15 to 20)
#    0.000    0.667    5.000    2.000    4.667    0.667 
#    0.000    7.500    0.000    0.000    0.000    0.000 
#    0.000    0.000    0.000    0.000    0.000    0.000 
#
# Total GULP energy -67282.761381 kJ/mol
# GULP energy per Si atom -5606.896782 kJ/mol
# Density = 2.570961 g / cm^3
# Si number density = 25.768259 Si / 1000 Ang^3
#
#
#
# Elastic Constant Matrix: (Units=GPa)
#
#
# Indices 1 2 3 4 5 6 
#
# 1 91.7883 62.3697 37.9785 -18.4461 12.3794 6.8311
# 2 62.3697 145.6685 74.1312 -10.0695 28.1846 -18.3502
# 3 37.9785 74.1312 150.3734 -10.0232 17.6993 4.0358
# 4 -18.4461 -10.0695 -10.0232 77.6681 1.4219 21.1473
# 5 12.3794 28.1846 17.6993 1.4219 29.6999 -7.8656
# 6 6.8311 -18.3502 4.0358 21.1473 -7.8656 48.4503
#
#
#
# Elastic Compliance Matrix: (Units=1/GPa)
#
#
# Indices 1 2 3 4 5 6 
#
# 1 0.018587 -0.008322 0.000344 0.005817 -0.002656 -0.008772
# 2 -0.008322 0.014734 -0.004885 -0.002612 -0.005516 0.007405
# 3 0.000344 -0.004885 0.009453 0.001747 -0.002234 -0.003811
# 4 0.005817 -0.002612 0.001747 0.016972 -0.004471 -0.010089
# 5 -0.002656 -0.005516 -0.002234 -0.004471 0.043541 0.007492
# 6 -0.008772 0.007405 -0.003811 -0.010089 0.007492 0.030618
#
#
# Mechanical properties :
#
#
# Convention : Reuss Voigt Hill
#
# Bulk Modulus (GPa) = 58.66032 81.86547 70.26289
# Shear Modulus (GPa) = 30.24513 45.38703 37.81608
#
# Velocity S-wave (km/s) = 3.42970 4.20140 3.83501
# Velocity P-wave (km/s) = 6.20466 7.44141 6.85100
#
# Compressibility (1/GPa) = 0.01704730
#
# Stress axis : x y z
#
# Youngs Moduli (GPa) = 53.80011 67.87069 105.78416
#
# Poissons Ratio (x) = 0.56485 -0.03641
# Poissons Ratio (y) = 0.44775 0.51678
# Poissons Ratio (z) = -0.01852 0.33157
#
# Static dielectric constant tensor:
#      x y z
#    x 2.045170 -0.023110 0.037320 
#    y -0.023110 2.021810 -0.009540 
#    z 0.037320 -0.009540 2.072260 
# 
# From -- ./inp_files/126965.got.cif
#   From: 2010.05.17/outbox.cif.g08.bks.cpg/sg2_64_cif.got.tgz:126965.got - 2010.06.03 11:33:40.
