data_PCOD9058023
_publ_section_title
;
Structure prediction by ZEFSAII (Michael W. Deem and Ramdas Pophale) SiO2 
 PCOD9058023
Probable space group: P -1
;
_chemical_formula_sum "Si O2"
_cell_formula_units_Z 16
_cell_length_a 16.975958
_cell_length_b 7.365997
_cell_length_c 10.398990
_cell_angle_alpha 60.731359
_cell_angle_beta 33.770741
_cell_angle_gamma 67.187285
_cell_volume 630.075463
_symmetry_space_group_name_H-M "P -1"
_symmetry_group_IT_number 2
_symmetry_cell_setting 'triclinic'
loop_
_space_group_symop_operation_xyz
x,y,z
-x,-y,-z
loop_
_atom_site_type_symbol
_atom_site_label
_atom_site_fract_x
_atom_site_fract_y
_atom_site_fract_z
Si Si1 0.125815 0.371426 0.314122
Si Si2 0.440581 0.904828 0.929023
Si Si3 0.565813 0.730405 0.339943
Si Si4 0.670575 0.417953 0.606308
Si Si5 0.231938 0.200284 0.492858
Si Si6 0.108322 0.326635 0.073955
Si Si7 0.604297 0.323181 0.184799
Si Si8 0.888842 0.234097 0.181957
O O1 0.176057 0.234735 0.412679
O O2 0.081074 0.256880 0.281981
O O3 0.000000 0.500000 0.500000
O O4 0.257369 0.527888 0.039498
O O5 0.603510 0.849056 0.726876
O O6 0.370591 0.824298 0.918835
O O7 0.434324 0.150322 0.836373
O O8 0.366498 0.779793 0.185865
O O9 0.500000 0.500000 0.500000
O O10 0.451110 0.809084 0.571215
O O11 0.728822 0.721636 0.163677
O O12 0.765582 0.589427 0.498445
O O13 0.529077 0.538679 0.722472
O O14 0.753425 0.324699 0.407990
O O15 0.150514 0.997483 0.732796
O O16 0.009266 0.231642 0.129320
O O17 0.080997 0.576296 0.022616
#
# Coordination Sequence:
#
# PCOD9058023 Si02
#       8
#     2   2   2   2   2   2   2   2
#     4  12  25  44  72 102 145 182 233 295 349 417
#     4  11  24  41  72 104 139 183 234 290 357 411
#     4  12  24  42  70 105 139 182 235 294 347 416
#     4  11  22  46  73 105 141 183 237 294 353 419
#     4  11  24  45  70 106 138 185 239 283 353 429
#     4  11  26  47  67 104 145 185 237 292 353 423
#     4  11  22  44  69 101 142 180 235 291 347 420
#     4  11  26  47  72  99 146 191 232 292 357 421
#
# _framework density 25.393782000000002
#
# number of rings (size 3 to 8) (size 9 to 14) (size 15 to 20)
#    0.000    0.750    5.000    2.625    1.750    2.000 
#    0.000    5.625    0.000    0.000    0.000    0.000 
#    0.000    0.000    0.000    0.000    0.000    0.000 
#
# Total GULP energy -89635.126957 kJ/mol
# GULP energy per Si atom -5602.195435 kJ/mol
# Density = 2.533599 g / cm^3
# Si number density = 25.393782 Si / 1000 Ang^3
#
#
#
# Elastic Constant Matrix: (Units=GPa)
#
#
# Indices 1 2 3 4 5 6 
#
# 1 98.3895 20.8655 14.0643 -5.2507 -1.5570 -8.1175
# 2 20.8655 76.6897 45.0633 -23.9248 -8.1695 -6.7806
# 3 14.0643 45.0633 108.9893 2.6439 -5.5698 -9.4813
# 4 -5.2507 -23.9248 2.6439 45.3747 -8.2469 -3.5426
# 5 -1.5570 -8.1695 -5.5698 -8.2469 37.7228 5.7452
# 6 -8.1175 -6.7806 -9.4813 -3.5426 5.7452 33.4869
#
#
#
# Elastic Compliance Matrix: (Units=1/GPa)
#
#
# Indices 1 2 3 4 5 6 
#
# 1 0.010937 -0.002858 -0.000068 -0.000169 -0.000539 0.002128
# 2 -0.002858 0.025186 -0.009882 0.014924 0.006833 0.002016
# 3 -0.000068 -0.009882 0.013457 -0.006205 -0.001731 0.001433
# 4 -0.000169 0.014924 -0.006205 0.032101 0.008855 0.003101
# 5 -0.000539 0.006833 -0.001731 0.008855 0.030177 -0.003478
# 6 0.002128 0.002016 0.001433 0.003101 -0.003478 0.032117
#
#
# Mechanical properties :
#
#
# Convention : Reuss Voigt Hill
#
# Bulk Modulus (GPa) = 41.72934 49.33941 45.53437
# Shear Modulus (GPa) = 28.15646 36.92191 32.53919
#
# Velocity S-wave (km/s) = 3.33347 3.81724 3.58353
# Velocity P-wave (km/s) = 5.59326 6.23701 5.92389
#
# Compressibility (1/GPa) = 0.02396395
#
# Stress axis : x y z
#
# Youngs Moduli (GPa) = 91.42864 39.70463 74.31230
#
# Poissons Ratio (x) = 0.11346 0.00507
# Poissons Ratio (y) = 0.26127 0.73437
# Poissons Ratio (z) = 0.00623 0.39237
#
# Static dielectric constant tensor:
#      x y z
#    x 2.078730 0.068890 0.033040 
#    y 0.068890 2.109140 -0.019380 
#    z 0.033040 -0.019380 2.032040 
# 
# From -- ./inp_files/461889.got.cif
#   From: 2010.05.17/outbox.cif.g08.bks.cpg/sg2_231_cif.got.tgz:461889.got - 2010.06.03 11:33:40.
