data_PCOD9058425
_publ_section_title
;
Structure prediction by ZEFSAII (Michael W. Deem and Ramdas Pophale) SiO2 
 PCOD9058425
Probable space group: P -1
;
_chemical_formula_sum "Si O2"
_cell_formula_units_Z 16
_cell_length_a 7.796030
_cell_length_b 13.180340
_cell_length_c 10.898549
_cell_angle_alpha 84.908985
_cell_angle_beta 139.488434
_cell_angle_gamma 111.874106
_cell_volume 638.986837
_symmetry_space_group_name_H-M "P -1"
_symmetry_group_IT_number 2
_symmetry_cell_setting 'triclinic'
loop_
_space_group_symop_operation_xyz
x,y,z
-x,-y,-z
loop_
_atom_site_type_symbol
_atom_site_label
_atom_site_fract_x
_atom_site_fract_y
_atom_site_fract_z
Si Si1 0.346639 0.680758 0.634340
Si Si2 0.522187 0.969377 0.195723
Si Si3 0.654256 0.844597 0.006507
Si Si4 0.762641 0.484062 0.710519
Si Si5 0.778987 0.525364 0.236064
Si Si6 0.340351 0.252778 0.463102
Si Si7 0.833180 0.271900 0.065293
Si Si8 0.124698 0.986954 0.402105
O O1 0.537771 0.779543 0.823551
O O2 0.324371 0.567192 0.701038
O O3 0.526301 0.710053 0.603630
O O4 0.003182 0.646803 0.412489
O O5 0.649385 0.032879 0.387231
O O6 0.423023 0.049052 0.056640
O O7 0.260984 0.836870 0.064548
O O8 0.811364 0.961557 0.300657
O O9 0.466278 0.752344 0.020681
O O10 0.004704 0.907464 0.225498
O O11 0.500000 0.500000 0.500000
O O12 0.576170 0.351949 0.670215
O O13 0.994497 0.490796 0.731655
O O14 0.960467 0.598712 0.884912
O O15 0.500000 0.500000 0.000000
O O16 0.285448 0.124548 0.462556
O O17 0.026415 0.254528 0.283078
#
# Coordination Sequence:
#
# PCOD9058425 Si02
#       8
#     2   2   2   2   2   2   2   2
#     4  10  23  38  63  88 122 169 201 250 318 374
#     4  10  20  35  60  85 115 159 205 254 314 356
#     4  11  19  37  63  84 113 163 210 247 301 377
#     4   9  19  35  67  91 120 161 203 257 311 363
#     4  10  21  43  63  90 130 167 208 252 308 382
#     4  10  19  38  58  85 123 158 196 259 313 361
#     4  10  17  37  61  84 118 155 207 256 306 364
#     4  10  20  36  56  84 120 154 201 259 305 359
#
# _framework density 25.039639000000001
#
# number of rings (size 3 to 8) (size 9 to 14) (size 15 to 20)
#    0.000    2.000    3.750    0.750    0.000    1.500 
#    6.750    1.250    0.000    0.000    0.000    0.000 
#    0.000    0.000    0.000    0.000    0.000    0.000 
#
# Total GULP energy -89272.233990 kJ/mol
# GULP energy per Si atom -5579.514624 kJ/mol
# Density = 2.498265 g / cm^3
# Si number density = 25.039639 Si / 1000 Ang^3
#
#
#
# Elastic Constant Matrix: (Units=GPa)
#
#
# Indices 1 2 3 4 5 6 
#
# 1 35.5147 -1.1252 21.7785 9.1385 11.0629 0.8434
# 2 -1.1252 90.9107 61.4484 48.5337 -0.1467 8.1853
# 3 21.7785 61.4484 227.6568 36.5363 -21.6574 -1.4296
# 4 9.1385 48.5337 36.5363 54.0917 -10.5019 -6.1622
# 5 11.0629 -0.1467 -21.6574 -10.5019 27.2234 13.8307
# 6 0.8434 8.1853 -1.4296 -6.1622 13.8307 18.6315
#
#
#
# Elastic Compliance Matrix: (Units=1/GPa)
#
#
# Indices 1 2 3 4 5 6 
#
# 1 0.064247 0.027677 -0.013223 -0.036329 -0.058148 0.015067
# 2 0.027677 0.042066 -0.009943 -0.042788 -0.028633 -0.013394
# 3 -0.013223 -0.009943 0.008700 0.008193 0.017922 -0.004960
# 4 -0.036329 -0.042788 0.008193 0.066777 0.039953 0.013499
# 5 -0.058148 -0.028633 0.017922 0.039953 0.119993 -0.059273
# 6 0.015067 -0.013394 -0.004960 0.013499 -0.059273 0.106959
#
#
# Mechanical properties :
#
#
# Convention : Reuss Voigt Hill
#
# Bulk Modulus (GPa) = 8.06227 57.58727 32.82477
# Shear Modulus (GPa) = 11.33623 38.12135 24.72879
#
# Velocity S-wave (km/s) = 2.13006 3.90608 3.14600
# Velocity P-wave (km/s) = 3.04570 6.58723 5.13166
#
# Compressibility (1/GPa) = 0.12403457
#
# Stress axis : x y z
#
# Youngs Moduli (GPa) = 15.56503 23.77230 114.93966
#
# Poissons Ratio (x) = -0.65795 1.51989
# Poissons Ratio (y) = -0.43080 1.14284
# Poissons Ratio (z) = 0.20582 0.23637
#
# Static dielectric constant tensor:
#      x y z
#    x 2.030160 -0.046240 -0.044410 
#    y -0.046240 2.043750 0.057600 
#    z -0.044410 0.057600 2.100500 
# 
# From -- ./inp_files/397405.got.cif
#   From: 2010.05.17/outbox.cif.g08.bks.cpg/sg2_199_cif.got.tgz:397405.got - 2010.06.03 11:33:40.
