data_PCOD9058756
_publ_section_title
;
Structure prediction by ZEFSAII (Michael W. Deem and Ramdas Pophale) SiO2 
 PCOD9058756
Probable space group: P -1
;
_chemical_formula_sum "Si O2"
_cell_formula_units_Z 16
_cell_length_a 9.274594
_cell_length_b 21.330539
_cell_length_c 15.840917
_cell_angle_alpha 17.835753
_cell_angle_beta 132.577911
_cell_angle_gamma 132.364565
_cell_volume 700.617487
_symmetry_space_group_name_H-M "P -1"
_symmetry_group_IT_number 2
_symmetry_cell_setting 'triclinic'
loop_
_space_group_symop_operation_xyz
x,y,z
-x,-y,-z
loop_
_atom_site_type_symbol
_atom_site_label
_atom_site_fract_x
_atom_site_fract_y
_atom_site_fract_z
Si Si1 0.808611 0.838839 0.155994
Si Si2 0.071816 0.422917 0.305176
Si Si3 0.223304 0.439959 0.661937
Si Si4 0.476446 0.171492 0.200709
Si Si5 0.342107 0.531750 0.966900
Si Si6 0.519724 0.110704 0.776173
Si Si7 0.850873 0.763282 0.599723
Si Si8 0.163026 0.854456 0.725810
O O1 0.848550 0.714145 0.416588
O O2 0.754038 0.663881 0.287512
O O3 0.647289 0.986890 0.924114
O O4 0.000000 0.000000 0.000000
O O5 0.153287 0.383047 0.295488
O O6 0.834982 0.368044 0.275196
O O7 0.131344 0.668440 0.019476
O O8 0.373013 0.651139 0.472029
O O9 0.000000 0.500000 0.500000
O O10 0.275076 0.252452 0.984041
O O11 0.564635 0.364176 0.045718
O O12 0.604224 0.109833 0.249769
O O13 0.500000 0.000000 0.500000
O O14 0.500000 0.500000 0.000000
O O15 0.235811 0.325703 0.231927
O O16 0.299641 0.086206 0.681778
O O17 0.500000 0.000000 0.000000
O O18 0.079679 0.812946 0.649504
O O19 0.000000 0.000000 0.500000
#
# Coordination Sequence:
#
# PCOD9058756 Si02
#       8
#     2   2   2   2   2   2   2   2
#     4  12  29  47  77 111 154 206 259 308 387 473
#     4  11  23  48  72 100 143 198 244 309 376 447
#     4  12  29  52  76 112 165 201 255 327 383 466
#     4  12  28  46  73 111 149 192 252 317 385 449
#     4  11  24  40  73 100 135 182 242 300 369 434
#     4  12  26  48  77 111 146 206 259 309 390 459
#     4  11  22  48  72  98 147 190 243 314 370 451
#     4  11  25  45  71 108 146 192 247 313 383 455
#
# _framework density 22.836998000000001
#
# number of rings (size 3 to 8) (size 9 to 14) (size 15 to 20)
#    0.000    0.500    6.250    0.750   10.500    2.500 
#    0.000    0.000    0.000    0.000    0.000    0.000 
#    0.000    0.000    0.000    0.000    0.000    0.000 
#
# Total GULP energy -89127.227602 kJ/mol
# GULP energy per Si atom -5570.451725 kJ/mol
# Density = 2.278502 g / cm^3
# Si number density = 22.836998 Si / 1000 Ang^3
#
#
#
# Elastic Constant Matrix: (Units=GPa)
#
#
# Indices 1 2 3 4 5 6 
#
# 1 136.4068 16.8783 29.3197 -0.5723 31.1645 -10.5096
# 2 16.8783 73.9029 32.9937 9.5059 6.7470 -11.5237
# 3 29.3197 32.9937 124.5134 17.7140 13.0537 3.4166
# 4 -0.5723 9.5059 17.7140 40.4132 3.7730 15.4839
# 5 31.1645 6.7470 13.0537 3.7730 42.6530 1.7644
# 6 -10.5096 -11.5237 3.4166 15.4839 1.7644 36.1197
#
#
#
# Elastic Compliance Matrix: (Units=1/GPa)
#
#
# Indices 1 2 3 4 5 6 
#
# 1 0.009431 -0.000475 -0.001554 0.000433 -0.006497 0.002872
# 2 -0.000475 0.017431 -0.003841 -0.005455 -0.001091 0.008178
# 3 -0.001554 -0.003841 0.009966 -0.002882 -0.000997 -0.001336
# 4 0.000433 -0.005455 -0.002882 0.033354 -0.000877 -0.015597
# 5 -0.006497 -0.001091 -0.000997 -0.000877 0.028879 -0.003179
# 6 0.002872 0.008178 -0.001336 -0.015597 -0.003179 0.038098
#
#
# Mechanical properties :
#
#
# Convention : Reuss Voigt Hill
#
# Bulk Modulus (GPa) = 39.85954 54.80073 47.33014
# Shear Modulus (GPa) = 31.79383 40.87929 36.33656
#
# Velocity S-wave (km/s) = 3.73528 4.23548 3.99322
# Velocity P-wave (km/s) = 6.00790 6.92587 6.48315
#
# Compressibility (1/GPa) = 0.02508810
#
# Stress axis : x y z
#
# Youngs Moduli (GPa) = 106.02981 57.36926 100.33899
#
# Poissons Ratio (x) = 0.02724 0.15595
# Poissons Ratio (y) = 0.05035 0.38541
# Poissons Ratio (z) = 0.16479 0.22036
#
# Static dielectric constant tensor:
#      x y z
#    x 1.881820 -0.020740 0.101150 
#    y -0.020740 1.615890 0.192530 
#    z 0.101150 0.192530 1.686860 
# 
# From -- ./inp_files/507838.got.cif
#   From: 2010.05.17/outbox.cif.g08.bks.cpg/sg2_254_cif.got.tgz:507838.got - 2010.06.03 11:33:40.
