data_PCOD9058311
_publ_section_title
;
Structure prediction by ZEFSAII (Michael W. Deem and Ramdas Pophale) SiO2 
 PCOD9058311
Probable space group: P -1
;
_chemical_formula_sum "Si O2"
_cell_formula_units_Z 16
_cell_length_a 9.628315
_cell_length_b 12.182874
_cell_length_c 17.060009
_cell_angle_alpha 35.162734
_cell_angle_beta 39.600387
_cell_angle_gamma 60.007872
_cell_volume 686.988365
_symmetry_space_group_name_H-M "P -1"
_symmetry_group_IT_number 2
_symmetry_cell_setting 'triclinic'
loop_
_space_group_symop_operation_xyz
x,y,z
-x,-y,-z
loop_
_atom_site_type_symbol
_atom_site_label
_atom_site_fract_x
_atom_site_fract_y
_atom_site_fract_z
Si Si1 0.740377 0.116628 0.001423
Si Si2 0.203911 0.087002 0.751478
Si Si3 0.003589 0.781362 0.598591
Si Si4 0.871022 0.872834 0.887344
Si Si5 0.932747 0.614050 0.888863
Si Si6 0.413141 0.482974 0.349286
Si Si7 0.388533 0.481132 0.187106
Si Si8 0.307989 0.809299 0.295953
O O1 0.715193 0.036836 0.147293
O O2 0.578151 0.931472 0.127122
O O3 0.649108 0.302481 0.925729
O O4 0.005799 0.161345 0.833953
O O5 0.404400 0.284942 0.515964
O O6 0.070309 0.939021 0.826304
O O7 0.046344 0.659696 0.726990
O O8 0.755875 0.657095 0.738657
O O9 0.180090 0.791488 0.445101
O O10 0.000000 0.000000 0.500000
O O11 0.967858 0.831547 0.786081
O O12 0.771693 0.050525 0.810125
O O13 0.662494 0.661232 0.122516
O O14 0.658375 0.508191 0.051812
O O15 0.000000 0.500000 0.000000
O O16 0.306373 0.405613 0.355371
O O17 0.274306 0.598265 0.391518
#
# Coordination Sequence:
#
# PCOD9058311 Si02
#       8
#     2   2   2   2   2   2   2   2
#     4  11  23  44  64 106 142 184 221 296 355 417
#     4  11  25  40  67 104 148 177 233 283 359 423
#     4  12  25  45  70 104 139 189 245 286 352 425
#     4  11  22  45  68  98 144 181 230 300 347 423
#     4  11  26  47  71 100 134 186 240 296 353 413
#     4  11  23  42  74 108 133 188 235 284 361 418
#     4  11  24  47  75  98 143 185 237 293 356 425
#     4  12  22  43  73 100 147 181 238 292 347 430
#
# _framework density 23.290058999999999
#
# number of rings (size 3 to 8) (size 9 to 14) (size 15 to 20)
#    0.000    0.750    5.000    3.000    1.750    4.000 
#    0.000    0.625    0.000    0.000    0.000    0.000 
#    0.000    0.000    0.000    0.000    0.000    0.000 
#
# Total GULP energy -89521.990641 kJ/mol
# GULP energy per Si atom -5595.124415 kJ/mol
# Density = 2.323705 g / cm^3
# Si number density = 23.290059 Si / 1000 Ang^3
#
#
#
# Elastic Constant Matrix: (Units=GPa)
#
#
# Indices 1 2 3 4 5 6 
#
# 1 120.6438 26.3859 43.8384 5.0367 11.4241 17.6129
# 2 26.3859 58.6880 22.8626 16.8793 7.3042 22.8508
# 3 43.8384 22.8626 113.4213 14.2950 26.8660 7.7463
# 4 5.0367 16.8793 14.2950 31.7205 15.3507 -1.3751
# 5 11.4241 7.3042 26.8660 15.3507 32.5519 4.9252
# 6 17.6129 22.8508 7.7463 -1.3751 4.9252 44.3169
#
#
#
# Elastic Compliance Matrix: (Units=1/GPa)
#
#
# Indices 1 2 3 4 5 6 
#
# 1 0.010443 -0.003111 -0.003323 0.001802 -0.000799 -0.001821
# 2 -0.003111 0.029957 -0.003414 -0.018539 0.008215 -0.015102
# 3 -0.003323 -0.003414 0.012741 0.001274 -0.009478 0.001947
# 4 0.001802 -0.018539 0.001274 0.052922 -0.024445 0.012979
# 5 -0.000799 0.008215 -0.009478 -0.024445 0.049802 -0.008555
# 6 -0.001821 -0.015102 0.001947 0.012979 -0.008555 0.032088
#
#
# Mechanical properties :
#
#
# Convention : Reuss Voigt Hill
#
# Bulk Modulus (GPa) = 29.89905 53.21412 41.55658
# Shear Modulus (GPa) = 22.85218 35.02895 28.94057
#
# Velocity S-wave (km/s) = 3.13581 3.88239 3.52890
# Velocity P-wave (km/s) = 5.09673 6.55708 5.87247
#
# Compressibility (1/GPa) = 0.03344588
#
# Stress axis : x y z
#
# Youngs Moduli (GPa) = 95.75963 33.38079 78.48802
#
# Poissons Ratio (x) = 0.10383 0.26080
# Poissons Ratio (y) = 0.29786 0.26798
# Poissons Ratio (z) = 0.31819 0.11397
#
# Static dielectric constant tensor:
#      x y z
#    x 1.864190 -0.036170 -0.019920 
#    y -0.036170 1.905860 0.055690 
#    z -0.019920 0.055690 1.921110 
# 
# From -- ./inp_files/499850.got.cif
#   From: 2010.05.17/outbox.cif.g08.bks.cpg/sg2_250_cif.got.tgz:499850.got - 2010.06.03 11:33:40.
