data_PCOD9058216
_publ_section_title
;
Structure prediction by ZEFSAII (Michael W. Deem and Ramdas Pophale) SiO2 
 PCOD9058216
Probable space group: P -1
;
_chemical_formula_sum "Si O2"
_cell_formula_units_Z 16
_cell_length_a 8.672467
_cell_length_b 10.810378
_cell_length_c 14.194713
_cell_angle_alpha 146.167789
_cell_angle_beta 71.018663
_cell_angle_gamma 96.424006
_cell_volume 668.226558
_symmetry_space_group_name_H-M "P -1"
_symmetry_group_IT_number 2
_symmetry_cell_setting 'triclinic'
loop_
_space_group_symop_operation_xyz
x,y,z
-x,-y,-z
loop_
_atom_site_type_symbol
_atom_site_label
_atom_site_fract_x
_atom_site_fract_y
_atom_site_fract_z
Si Si1 0.958613 0.065270 0.940539
Si Si2 0.301928 0.887814 0.645421
Si Si3 0.004028 0.511218 0.709547
Si Si4 0.698852 0.605639 0.714969
Si Si5 0.618004 0.244660 0.007950
Si Si6 0.360356 0.201073 0.361519
Si Si7 0.963657 0.260028 0.716835
Si Si8 0.747697 0.631906 0.149937
O O1 0.969706 0.323513 0.109575
O O2 0.771879 0.110943 0.963644
O O3 0.116856 0.933931 0.761354
O O4 0.000000 0.000000 0.000000
O O5 0.312306 0.127628 0.746621
O O6 0.310063 0.656948 0.439980
O O7 0.461286 0.804338 0.631669
O O8 0.189175 0.356827 0.543891
O O9 0.892786 0.388880 0.715109
O O10 0.887815 0.618004 0.710936
O O11 0.559472 0.752483 0.907917
O O12 0.650148 0.697482 0.677627
O O13 0.625741 0.501572 0.142942
O O14 0.646513 0.063771 0.802337
O O15 0.142495 0.284409 0.738352
O O16 0.000000 0.000000 0.500000
O O17 0.846486 0.413830 0.922317
#
# Coordination Sequence:
#
# PCOD9058216 Si02
#       8
#     2   2   2   2   2   2   2   2
#     4  12  22  41  70 100 134 179 228 292 356 421
#     4  12  25  45  69 101 144 185 235 297 360 429
#     4  12  23  44  70 101 133 181 239 285 367 423
#     4  12  26  46  70 104 141 186 242 300 361 430
#     4  12  25  45  69 101 144 185 235 297 360 429
#     4  12  26  46  70 104 141 186 242 300 361 430
#     4  11  22  44  74 105 141 187 243 295 355 432
#     4  11  24  46  70 105 150 186 240 301 360 433
#
# _framework density 23.943975999999999
#
# number of rings (size 3 to 8) (size 9 to 14) (size 15 to 20)
#    0.000    0.250    2.500    7.875    0.000    1.000 
#    2.250    0.000    0.000    0.000    0.000    0.000 
#    0.000    0.000    0.000    0.000    0.000    0.000 
#
# Total GULP energy -89156.832943 kJ/mol
# GULP energy per Si atom -5572.302059 kJ/mol
# Density = 2.388948 g / cm^3
# Si number density = 23.943976 Si / 1000 Ang^3
#
#
#
# Elastic Constant Matrix: (Units=GPa)
#
#
# Indices 1 2 3 4 5 6 
#
# 1 182.7263 33.3970 157.3964 -43.6885 29.0953 -9.2787
# 2 33.3970 77.8649 46.9111 -20.4650 4.8416 -2.9917
# 3 157.3964 46.9111 284.8282 -51.4963 53.9808 11.7844
# 4 -43.6885 -20.4650 -51.4963 47.4945 -9.0072 2.1020
# 5 29.0953 4.8416 53.9808 -9.0072 58.9150 0.9859
# 6 -9.2787 -2.9917 11.7844 2.1020 0.9859 30.7067
#
#
#
# Elastic Compliance Matrix: (Units=1/GPa)
#
#
# Indices 1 2 3 4 5 6 
#
# 1 0.012055 -0.000165 -0.006173 0.004120 0.000251 0.005706
# 2 -0.000165 0.015242 -0.001918 0.004491 0.001243 0.001824
# 3 -0.006173 -0.001918 0.008707 0.002356 -0.004321 -0.005416
# 4 0.004120 0.004491 0.002356 0.029379 -0.000050 -0.001231
# 5 0.000251 0.001243 -0.004321 -0.000050 0.020679 0.001194
# 6 0.005706 0.001824 -0.005416 -0.001231 0.001194 0.036593
#
#
# Mechanical properties :
#
#
# Convention : Reuss Voigt Hill
#
# Bulk Modulus (GPa) = 51.30396 113.42539 82.36467
# Shear Modulus (GPa) = 34.32525 47.93757 41.13141
#
# Velocity S-wave (km/s) = 3.79035 4.47931 4.14915
# Velocity P-wave (km/s) = 6.37408 8.61547 7.57810
#
# Compressibility (1/GPa) = 0.01949167
#
# Stress axis : x y z
#
# Youngs Moduli (GPa) = 82.95248 65.60645 114.84922
#
# Poissons Ratio (x) = 0.01082 0.70899
# Poissons Ratio (y) = 0.01369 0.22030
# Poissons Ratio (z) = 0.51209 0.12585
#
# Static dielectric constant tensor:
#      x y z
#    x 1.845600 -0.088290 -0.104760 
#    y -0.088290 1.993090 0.073420 
#    z -0.104760 0.073420 1.885390 
# 
# From -- ./inp_files/501101.got.cif
#   From: 2010.05.17/outbox.cif.g08.bks.cpg/sg2_251_cif.got.tgz:501101.got - 2010.06.03 11:33:40.
