data_PCOD9058400
_publ_section_title
;
Structure prediction by ZEFSAII (Michael W. Deem and Ramdas Pophale) SiO2 
 PCOD9058400
Probable space group: P -1
;
_chemical_formula_sum "Si O2"
_cell_formula_units_Z 16
_cell_length_a 6.577172
_cell_length_b 23.969429
_cell_length_c 18.015151
_cell_angle_alpha 18.557512
_cell_angle_beta 96.407356
_cell_angle_gamma 107.784861
_cell_volume 696.641551
_symmetry_space_group_name_H-M "P -1"
_symmetry_group_IT_number 2
_symmetry_cell_setting 'triclinic'
loop_
_space_group_symop_operation_xyz
x,y,z
-x,-y,-z
loop_
_atom_site_type_symbol
_atom_site_label
_atom_site_fract_x
_atom_site_fract_y
_atom_site_fract_z
Si Si1 0.858201 0.031649 0.241821
Si Si2 0.858967 0.378395 0.031279
Si Si3 0.917845 0.812025 0.794603
Si Si4 0.643093 0.966126 0.984919
Si Si5 0.398007 0.646882 0.804257
Si Si6 0.739083 0.645698 0.459378
Si Si7 0.208545 0.672823 0.226333
Si Si8 0.662957 0.617771 0.657992
O O1 0.583699 0.864179 0.486231
O O2 0.818603 0.866814 0.383796
O O3 0.056962 0.100002 0.231629
O O4 0.911989 0.246691 0.934832
O O5 0.633453 0.280067 0.208488
O O6 0.876912 0.234246 0.154111
O O7 0.844494 0.550109 0.769273
O O8 0.116349 0.489675 0.951557
O O9 0.624029 0.574126 0.075913
O O10 0.000000 0.000000 0.500000
O O11 0.650618 0.762767 0.259123
O O12 0.465400 0.896595 0.993099
O O13 0.500000 0.000000 0.000000
O O14 0.948423 0.182028 0.726454
O O15 0.500000 0.500000 0.000000
O O16 0.696423 0.443128 0.669974
O O17 0.608852 0.600470 0.590751
O O18 0.000000 0.500000 0.500000
#
# Coordination Sequence:
#
# PCOD9058400 Si02
#       8
#     2   2   2   2   2   2   2   2
#     4  12  27  46  75 106 150 199 243 308 376 432
#     4  11  23  43  75  99 146 192 236 300 371 428
#     4  12  28  47  74 109 154 194 245 311 371 441
#     4  11  24  48  78 102 145 194 245 306 376 436
#     4  11  22  45  72 104 141 188 245 302 357 437
#     4  11  27  46  75 110 144 199 246 305 378 441
#     4  12  27  47  76 110 152 192 248 311 373 444
#     4  12  27  47  72 108 151 190 256 302 362 455
#
# _framework density 22.967334999999999
#
# number of rings (size 3 to 8) (size 9 to 14) (size 15 to 20)
#    0.000    0.500    3.750    3.375    7.000    6.000 
#    0.000    0.000    0.000    0.000    0.000    0.000 
#    0.000    0.000    0.000    0.000    0.000    0.000 
#
# Total GULP energy -89459.605006 kJ/mol
# GULP energy per Si atom -5591.225313 kJ/mol
# Density = 2.291506 g / cm^3
# Si number density = 22.967335 Si / 1000 Ang^3
#
#
#
# Elastic Constant Matrix: (Units=GPa)
#
#
# Indices 1 2 3 4 5 6 
#
# 1 70.2944 0.0301 17.6172 -8.0959 7.0350 -4.9198
# 2 0.0301 100.8863 6.6860 -7.7793 8.4364 -5.9927
# 3 17.6172 6.6860 72.8166 5.8950 9.8563 -6.2283
# 4 -8.0959 -7.7793 5.8950 43.6644 -5.2314 5.0436
# 5 7.0350 8.4364 9.8563 -5.2314 33.5835 -5.9392
# 6 -4.9198 -5.9927 -6.2283 5.0436 -5.9392 44.4651
#
#
#
# Elastic Compliance Matrix: (Units=1/GPa)
#
#
# Indices 1 2 3 4 5 6 
#
# 1 0.015791 0.000689 -0.003858 0.003286 -0.001713 0.000698
# 2 0.000689 0.010329 -0.000905 0.001744 -0.002048 0.000870
# 3 -0.003858 -0.000905 0.015700 -0.003638 -0.003865 0.001547
# 4 0.003286 0.001744 -0.003638 0.024988 0.003429 -0.002287
# 5 -0.001713 -0.002048 -0.003865 0.003429 0.032848 0.002991
# 6 0.000698 0.000870 0.001547 -0.002287 0.002991 0.023560
#
#
# Mechanical properties :
#
#
# Convention : Reuss Voigt Hill
#
# Bulk Modulus (GPa) = 29.69769 32.51824 31.10797
# Shear Modulus (GPa) = 35.06617 38.98684 37.02651
#
# Velocity S-wave (km/s) = 3.91165 4.12453 4.01950
# Velocity P-wave (km/s) = 5.77579 6.07220 5.92585
#
# Compressibility (1/GPa) = 0.03367265
#
# Stress axis : x y z
#
# Youngs Moduli (GPa) = 63.32614 96.81144 63.69568
#
# Poissons Ratio (x) = -0.06671 0.24575
# Poissons Ratio (y) = -0.04364 0.05763
# Poissons Ratio (z) = 0.24432 0.08759
#
# Static dielectric constant tensor:
#      x y z
#    x 1.615100 0.128350 0.166800 
#    y 0.128350 1.822640 -0.127400 
#    z 0.166800 -0.127400 1.691990 
# 
# From -- ./inp_files/551229.got.cif
#   From: 2010.05.17/outbox.cif.g08.bks.cpg/sg2_276_cif.got.tgz:551229.got - 2010.06.03 11:33:40.
