data_PCOD9058404
_publ_section_title
;
Structure prediction by ZEFSAII (Michael W. Deem and Ramdas Pophale) SiO2 
 PCOD9058404
Probable space group: P -1
;
_chemical_formula_sum "Si O2"
_cell_formula_units_Z 12
_cell_length_a 5.023927
_cell_length_b 16.218338
_cell_length_c 9.874220
_cell_angle_alpha 135.837749
_cell_angle_beta 108.960133
_cell_angle_gamma 96.884272
_cell_volume 447.643397
_symmetry_space_group_name_H-M "P -1"
_symmetry_group_IT_number 2
_symmetry_cell_setting 'triclinic'
loop_
_space_group_symop_operation_xyz
x,y,z
-x,-y,-z
loop_
_atom_site_type_symbol
_atom_site_label
_atom_site_fract_x
_atom_site_fract_y
_atom_site_fract_z
Si Si1 0.949638 0.796565 0.058324
Si Si2 0.256973 0.009115 0.828482
Si Si3 0.439767 0.625323 0.113176
Si Si4 0.748697 0.480123 0.316340
Si Si5 0.798619 0.198354 0.622962
Si Si6 0.042030 0.793876 0.750497
O O1 0.623105 0.642155 0.849190
O O2 0.007603 0.796930 0.908866
O O3 0.876735 0.919314 0.205664
O O4 0.230474 0.830167 0.254674
O O5 0.383022 0.929955 0.660947
O O6 0.007651 0.896545 0.765003
O O7 0.558968 0.137880 0.113498
O O8 0.200729 0.574368 0.881747
O O9 0.500000 0.500000 0.000000
O O10 0.288029 0.682098 0.263606
O O11 0.816134 0.747510 0.281818
O O12 0.000000 0.500000 0.500000
O O13 0.814548 0.633182 0.481742
#
# Coordination Sequence:
#
# PCOD9058404 Si02
#       6
#     2   2   2   2   2   2
#     4  11  24  44  74 105 144 196 245 303 364 438
#     4  11  25  45  67 108 148 193 238 301 369 443
#     4  11  25  47  73 107 146 193 245 307 370 436
#     4  11  22  45  72 106 142 188 250 306 362 431
#     4  11  26  45  75 105 144 192 249 301 365 439
#     4  11  24  43  69 103 146 190 246 296 372 433
#
# _framework density 26.807051999999999
#
# number of rings (size 3 to 8) (size 9 to 14) (size 15 to 20)
#    0.000    1.000    1.667    4.000    4.667    2.000 
#    6.000    0.000    0.000    0.000    0.000    0.000 
#    0.000    0.000    0.000    0.000    0.000    0.000 
#
# Total GULP energy -67149.311138 kJ/mol
# GULP energy per Si atom -5595.775928 kJ/mol
# Density = 2.674604 g / cm^3
# Si number density = 26.807052 Si / 1000 Ang^3
#
#
#
# Elastic Constant Matrix: (Units=GPa)
#
#
# Indices 1 2 3 4 5 6 
#
# 1 83.8899 31.8635 35.4290 8.0482 -20.9530 -2.3892
# 2 31.8635 124.3572 64.1345 21.9927 -3.7256 0.6756
# 3 35.4290 64.1345 153.2702 18.9016 -13.0524 14.3022
# 4 8.0482 21.9927 18.9016 59.6876 0.5951 0.2804
# 5 -20.9530 -3.7256 -13.0524 0.5951 48.0553 -1.4614
# 6 -2.3892 0.6756 14.3022 0.2804 -1.4614 44.4175
#
#
#
# Elastic Compliance Matrix: (Units=1/GPa)
#
#
# Indices 1 2 3 4 5 6 
#
# 1 0.015379 -0.002624 -0.002041 -0.000529 0.006007 0.001725
# 2 -0.002624 0.011147 -0.003947 -0.002495 -0.001293 0.000934
# 3 -0.002041 -0.003947 0.009172 -0.001173 0.001220 -0.002956
# 4 -0.000529 -0.002495 -0.001173 0.018124 -0.000960 0.000241
# 5 0.006007 -0.001293 0.001220 -0.000960 0.023694 0.000736
# 6 0.001725 0.000934 -0.002956 0.000241 0.000736 0.023567
#
#
# Mechanical properties :
#
#
# Convention : Reuss Voigt Hill
#
# Bulk Modulus (GPa) = 54.13136 69.37461 61.75298
# Shear Modulus (GPa) = 40.17165 45.77142 42.97154
#
# Velocity S-wave (km/s) = 3.87531 4.13660 4.00808
# Velocity P-wave (km/s) = 6.34514 6.98217 6.67126
#
# Compressibility (1/GPa) = 0.01847358
#
# Stress axis : x y z
#
# Youngs Moduli (GPa) = 65.02283 89.71210 109.02277
#
# Poissons Ratio (x) = 0.23538 0.22256
# Poissons Ratio (y) = 0.17060 0.43035
# Poissons Ratio (z) = 0.13274 0.35412
#
# Static dielectric constant tensor:
#      x y z
#    x 2.186780 -0.025190 -0.015150 
#    y -0.025190 2.166760 0.044520 
#    z -0.015150 0.044520 2.103190 
# 
# From -- ./inp_files/65979.got.cif
#   From: 2010.05.17/outbox.cif.g08.bks.cpg/sg2_33_cif.got.tgz:65979.got - 2010.06.03 11:33:40.
