data_PCOD9058191
_publ_section_title
;
Structure prediction by ZEFSAII (Michael W. Deem and Ramdas Pophale) SiO2 
 PCOD9058191
Probable space group: P -1
;
_chemical_formula_sum "Si O2"
_cell_formula_units_Z 14
_cell_length_a 12.588096
_cell_length_b 8.485622
_cell_length_c 8.983438
_cell_angle_alpha 51.135983
_cell_angle_beta 71.368324
_cell_angle_gamma 47.806360
_cell_volume 544.851713
_symmetry_space_group_name_H-M "P -1"
_symmetry_group_IT_number 2
_symmetry_cell_setting 'triclinic'
loop_
_space_group_symop_operation_xyz
x,y,z
-x,-y,-z
loop_
_atom_site_type_symbol
_atom_site_label
_atom_site_fract_x
_atom_site_fract_y
_atom_site_fract_z
Si Si1 0.187938 0.529264 0.185192
Si Si2 0.830902 0.714499 0.933366
Si Si3 0.587330 0.048088 0.045242
Si Si4 0.427316 0.506738 0.377244
Si Si5 0.643651 0.986636 0.398532
Si Si6 0.112142 0.904369 0.371244
Si Si7 0.898640 0.968252 0.187000
O O1 0.223697 0.393483 0.089279
O O2 0.288592 0.291006 0.392960
O O3 0.017314 0.697376 0.206241
O O4 0.194312 0.764638 0.027375
O O5 0.819898 0.950008 0.729786
O O6 0.752791 0.799852 0.075102
O O7 0.000000 0.500000 0.000000
O O8 0.573565 0.045896 0.229663
O O9 0.500000 0.000000 0.000000
O O10 0.570249 0.298700 0.848124
O O11 0.500000 0.500000 0.500000
O O12 0.531726 0.223919 0.419339
O O13 0.264914 0.616849 0.434481
O O14 0.784181 0.968436 0.325872
O O15 0.002749 0.984717 0.235954
O O16 0.000000 0.000000 0.500000
#
# Coordination Sequence:
#
# PCOD9058191 Si02
#       7
#     2   2   2   2   2   2   2
#     4  11  25  45  75 113 154 204 263 320 394 462
#     4  11  22  44  73 108 150 194 260 320 373 462
#     4  11  28  48  74 112 156 207 257 322 399 467
#     4  11  26  49  77 114 160 207 263 317 394 478
#     4  12  26  51  79 111 162 206 264 327 395 477
#     4  11  24  45  77 113 151 200 256 323 392 461
#     4  11  25  45  79 111 153 203 263 325 400 454
#
# _framework density 25.695066000000001
#
# number of rings (size 3 to 8) (size 9 to 14) (size 15 to 20)
#    0.000    0.857    1.429    5.143    8.000    4.571 
#    0.000    2.143    0.000    0.000    0.000    0.000 
#    0.000    0.000    0.000    0.000    0.000    0.000 
#
# Total GULP energy -78339.751803 kJ/mol
# GULP energy per Si atom -5595.696557 kJ/mol
# Density = 2.563658 g / cm^3
# Si number density = 25.695066 Si / 1000 Ang^3
#
#
#
# Elastic Constant Matrix: (Units=GPa)
#
#
# Indices 1 2 3 4 5 6 
#
# 1 128.1319 51.0539 41.4822 0.9846 14.0114 -9.6810
# 2 51.0539 230.5129 86.0262 14.1209 10.1448 -12.6687
# 3 41.4822 86.0262 131.9226 9.2650 26.5231 -6.3734
# 4 0.9846 14.1209 9.2650 45.3460 -6.8572 3.2603
# 5 14.0114 10.1448 26.5231 -6.8572 43.1007 17.9129
# 6 -9.6810 -12.6687 -6.3734 3.2603 17.9129 43.8539
#
#
#
# Elastic Compliance Matrix: (Units=1/GPa)
#
#
# Indices 1 2 3 4 5 6 
#
# 1 0.009285 -0.001260 -0.001329 -0.000204 -0.003087 0.002769
# 2 -0.001260 0.006021 -0.003563 -0.001065 0.000711 0.000732
# 3 -0.001329 -0.003563 0.012480 -0.003027 -0.008658 0.004253
# 4 -0.000204 -0.001065 -0.003027 0.024766 0.008689 -0.006183
# 5 -0.003087 0.000711 -0.008658 0.008689 0.038227 -0.017995
# 6 0.002769 0.000732 0.004253 -0.006183 -0.017995 0.032054
#
#
# Mechanical properties :
#
#
# Convention : Reuss Voigt Hill
#
# Bulk Modulus (GPa) = 64.59114 94.18800 79.38957
# Shear Modulus (GPa) = 35.63845 47.26045 41.44945
#
# Velocity S-wave (km/s) = 3.72825 4.29334 4.02073
# Velocity P-wave (km/s) = 6.61251 7.83024 7.24700
#
# Compressibility (1/GPa) = 0.01548200
#
# Stress axis : x y z
#
# Youngs Moduli (GPa) = 107.69893 166.08461 80.12534
#
# Poissons Ratio (x) = 0.20924 0.10652
# Poissons Ratio (y) = 0.13568 0.28549
# Poissons Ratio (z) = 0.14318 0.59176
#
# Static dielectric constant tensor:
#      x y z
#    x 2.195970 0.238500 -0.263700 
#    y 0.238500 2.538450 -0.500650 
#    z -0.263700 -0.500650 2.523620 
# 
# From -- ./inp_files/241929.got.cif
#   From: 2010.05.17/outbox.cif.g08.bks.cpg/sg2_121_cif.got.tgz:241929.got - 2010.06.03 11:33:40.
