data_PCOD9058140
_publ_section_title
;
Structure prediction by ZEFSAII (Michael W. Deem and Ramdas Pophale) SiO2 
 PCOD9058140
Probable space group: P -1
;
_chemical_formula_sum "Si O2"
_cell_formula_units_Z 16
_cell_length_a 15.197099
_cell_length_b 14.946104
_cell_length_c 8.966730
_cell_angle_alpha 139.704469
_cell_angle_beta 38.839344
_cell_angle_gamma 142.997593
_cell_volume 713.342274
_symmetry_space_group_name_H-M "P -1"
_symmetry_group_IT_number 2
_symmetry_cell_setting 'triclinic'
loop_
_space_group_symop_operation_xyz
x,y,z
-x,-y,-z
loop_
_atom_site_type_symbol
_atom_site_label
_atom_site_fract_x
_atom_site_fract_y
_atom_site_fract_z
Si Si1 0.815905 0.928780 0.533099
Si Si2 0.148245 0.667750 0.455062
Si Si3 0.025348 0.140470 0.031939
Si Si4 0.445079 0.713222 0.319420
Si Si5 0.715761 0.644519 0.820686
Si Si6 0.098842 0.247935 0.588093
Si Si7 0.840835 0.430891 0.017362
Si Si8 0.477542 0.842252 0.749383
O O1 0.814393 0.844699 0.580677
O O2 0.642326 0.846046 0.581782
O O3 0.937005 0.904701 0.234507
O O4 0.906033 0.120555 0.680489
O O5 0.312565 0.698627 0.357774
O O6 0.000000 0.500000 0.500000
O O7 0.111289 0.810064 0.720360
O O8 0.151942 0.648073 0.246981
O O9 0.187099 0.294123 0.075825
O O10 0.000000 0.000000 0.000000
O O11 0.382204 0.546507 0.281801
O O12 0.471405 0.839760 0.574590
O O13 0.606064 0.727096 0.051683
O O14 0.842034 0.696008 0.585341
O O15 0.156647 0.404182 0.810771
O O16 0.682491 0.307673 0.161427
O O17 0.000000 0.500000 0.000000
O O18 0.500000 0.000000 0.000000
#
# Coordination Sequence:
#
# PCOD9058140 Si02
#       8
#     2   2   2   2   2   2   2   2
#     4  11  26  45  70 108 145 190 238 305 362 438
#     4  12  26  45  74 108 141 189 251 307 354 435
#     4  12  24  44  73  97 141 192 241 290 365 432
#     4  11  25  45  72 108 142 187 249 307 362 437
#     4  11  22  44  72 101 144 192 239 298 366 434
#     4  11  24  44  72 105 143 190 244 293 364 440
#     4  12  26  46  75 104 143 192 240 295 369 442
#     4  12  27  47  72 103 148 187 236 306 375 427
#
# _framework density 22.429625999999999
#
# number of rings (size 3 to 8) (size 9 to 14) (size 15 to 20)
#    0.000    0.500    5.000    3.000    3.500    2.500 
#    0.000    1.250    0.000    0.000    0.000    0.000 
#    0.000    0.000    0.000    0.000    0.000    0.000 
#
# Total GULP energy -89502.868157 kJ/mol
# GULP energy per Si atom -5593.929260 kJ/mol
# Density = 2.237857 g / cm^3
# Si number density = 22.429626 Si / 1000 Ang^3
#
#
#
# Elastic Constant Matrix: (Units=GPa)
#
#
# Indices 1 2 3 4 5 6 
#
# 1 132.9538 6.3026 45.3348 -9.3184 -8.7457 21.1948
# 2 6.3026 75.2207 19.2772 4.2438 -7.6739 6.0361
# 3 45.3348 19.2772 123.1223 11.4068 -3.8414 3.6676
# 4 -9.3184 4.2438 11.4068 31.6894 4.6401 -0.4973
# 5 -8.7457 -7.6739 -3.8414 4.6401 39.6907 0.6214
# 6 21.1948 6.0361 3.6676 -0.4973 0.6214 35.8832
#
#
#
# Elastic Compliance Matrix: (Units=1/GPa)
#
#
# Indices 1 2 3 4 5 6 
#
# 1 0.010135 0.000556 -0.003974 0.004017 0.001575 -0.005645
# 2 0.000556 0.014387 -0.002155 -0.001454 0.002906 -0.002599
# 3 -0.003974 -0.002155 0.010308 -0.004597 0.000218 0.001589
# 4 0.004017 -0.001454 -0.004597 0.035146 -0.003932 -0.001103
# 5 0.001575 0.002906 0.000218 -0.003932 0.026615 -0.001957
# 6 -0.005645 -0.002599 0.001589 -0.001103 -0.001957 0.031496
#
#
# Mechanical properties :
#
#
# Convention : Reuss Voigt Hill
#
# Bulk Modulus (GPa) = 42.21959 52.56957 47.39458
# Shear Modulus (GPa) = 33.98440 38.81147 36.39794
#
# Velocity S-wave (km/s) = 3.89672 4.16428 4.03272
# Velocity P-wave (km/s) = 6.25379 6.82716 6.54676
#
# Compressibility (1/GPa) = 0.02368569
#
# Stress axis : x y z
#
# Youngs Moduli (GPa) = 98.66663 69.50800 97.01248
#
# Poissons Ratio (x) = -0.03866 0.38551
# Poissons Ratio (y) = -0.05488 0.20902
# Poissons Ratio (z) = 0.39208 0.14976
#
# Static dielectric constant tensor:
#      x y z
#    x 1.827660 -0.008720 -0.033230 
#    y -0.008720 1.880490 0.058610 
#    z -0.033230 0.058610 1.883700 
# 
# From -- ./inp_files/316030.got.cif
#   From: 2010.05.17/outbox.cif.g08.bks.cpg/sg2_159_cif.got.tgz:316030.got - 2010.06.03 11:33:40.
