data_PCOD9058452
_publ_section_title
;
Structure prediction by ZEFSAII (Michael W. Deem and Ramdas Pophale) SiO2 
 PCOD9058452
Probable space group: P -1
;
_chemical_formula_sum "Si O2"
_cell_formula_units_Z 16
_cell_length_a 14.268769
_cell_length_b 11.288556
_cell_length_c 14.587430
_cell_angle_alpha 111.365007
_cell_angle_beta 28.615513
_cell_angle_gamma 131.063293
_cell_volume 686.266956
_symmetry_space_group_name_H-M "P -1"
_symmetry_group_IT_number 2
_symmetry_cell_setting 'triclinic'
loop_
_space_group_symop_operation_xyz
x,y,z
-x,-y,-z
loop_
_atom_site_type_symbol
_atom_site_label
_atom_site_fract_x
_atom_site_fract_y
_atom_site_fract_z
Si Si1 0.591703 0.530580 0.325394
Si Si2 0.710120 0.840434 0.824802
Si Si3 0.584480 0.800924 0.713618
Si Si4 0.362002 0.894411 0.229820
Si Si5 0.195605 0.444957 0.481516
Si Si6 0.721187 0.717091 0.960276
Si Si7 0.189721 0.729924 0.533177
Si Si8 0.866411 0.022323 0.041898
O O1 0.500000 0.500000 0.500000
O O2 0.586467 0.383433 0.253387
O O3 0.351492 0.484611 0.453318
O O4 0.910574 0.753035 0.101298
O O5 0.583864 0.758928 0.808525
O O6 0.626403 0.692129 0.929413
O O7 0.578500 0.905482 0.996135
O O8 0.068161 0.023361 0.564915
O O9 0.481664 0.896225 0.822100
O O10 0.223078 0.763673 0.403961
O O11 0.081056 0.779307 0.371352
O O12 0.084703 0.536907 0.596538
O O13 0.449770 0.560109 0.217999
O O14 0.975346 0.735299 0.754011
O O15 0.844014 0.915807 0.944359
O O16 0.534036 0.905026 0.319211
O O17 0.000000 0.000000 0.000000
#
# Coordination Sequence:
#
# PCOD9058452 Si02
#       8
#     2   2   2   2   2   2   2   2
#     4  12  27  50  78 102 150 201 248 305 369 436
#     4  11  22  45  74 103 158 189 237 311 370 445
#     4  11  26  46  70 108 145 203 243 294 379 445
#     4  12  24  45  75 111 152 189 242 306 383 442
#     4  11  25  47  70 112 150 189 242 315 368 440
#     4  11  23  44  76 108 147 192 245 306 372 436
#     4  11  24  42  77 111 143 195 248 296 381 436
#     4  11  23  51  72 103 151 194 247 308 352 429
#
# _framework density 23.314543
#
# number of rings (size 3 to 8) (size 9 to 14) (size 15 to 20)
#    0.000    0.750    6.250    3.000    0.000    3.000 
#    0.000    1.875    0.000    0.000    0.000    0.000 
#    0.000    0.000    0.000    0.000    0.000    0.000 
#
# Total GULP energy -89716.396253 kJ/mol
# GULP energy per Si atom -5607.274766 kJ/mol
# Density = 2.326148 g / cm^3
# Si number density = 23.314543 Si / 1000 Ang^3
#
#
#
# Elastic Constant Matrix: (Units=GPa)
#
#
# Indices 1 2 3 4 5 6 
#
# 1 123.5388 25.4038 35.2812 6.2840 17.0103 -0.3480
# 2 25.4038 178.0708 50.4896 10.5470 -0.5363 -4.4579
# 3 35.2812 50.4896 119.9463 24.3493 -6.6643 -5.1276
# 4 6.2840 10.5470 24.3493 41.8150 -6.8197 -3.3250
# 5 17.0103 -0.5363 -6.6643 -6.8197 41.8349 2.6662
# 6 -0.3480 -4.4579 -5.1276 -3.3250 2.6662 34.1958
#
#
#
# Elastic Compliance Matrix: (Units=1/GPa)
#
#
# Indices 1 2 3 4 5 6 
#
# 1 0.009631 -0.000585 -0.002750 -0.000427 -0.004426 -0.000087
# 2 -0.000585 0.006425 -0.002508 -0.000055 -0.000118 0.000459
# 3 -0.002750 -0.002508 0.011400 -0.005210 0.002009 0.000691
# 4 -0.000427 -0.000055 -0.005210 0.027770 0.003767 0.001614
# 5 -0.004426 -0.000118 0.002009 0.003767 0.026730 -0.001477
# 6 -0.000087 0.000459 0.000691 0.001614 -0.001477 0.029678
#
#
# Mechanical properties :
#
#
# Convention : Reuss Voigt Hill
#
# Bulk Modulus (GPa) = 63.40623 71.54504 67.47563
# Shear Modulus (GPa) = 38.88765 44.26120 41.57443
#
# Velocity S-wave (km/s) = 4.08849 4.36183 4.22737
# Velocity P-wave (km/s) = 7.03866 7.49139 7.26855
#
# Compressibility (1/GPa) = 0.01577132
#
# Stress axis : x y z
#
# Youngs Moduli (GPa) = 103.83170 155.64936 87.71557
#
# Poissons Ratio (x) = 0.09098 0.24119
# Poissons Ratio (y) = 0.06069 0.22001
# Poissons Ratio (z) = 0.28550 0.39041
#
# Static dielectric constant tensor:
#      x y z
#    x 1.905920 -0.013700 0.002820 
#    y -0.013700 1.928380 -0.010590 
#    z 0.002820 -0.010590 1.845140 
# 
# From -- ./inp_files/531865.got.cif
#   From: 2010.05.17/outbox.cif.g08.bks.cpg/sg2_266_cif.got.tgz:531865.got - 2010.06.03 11:33:40.
