data_PCOD9058736
_publ_section_title
;
Structure prediction by ZEFSAII (Michael W. Deem and Ramdas Pophale) SiO2 
 PCOD9058736
Probable space group: P -1
;
_chemical_formula_sum "Si O2"
_cell_formula_units_Z 10
_cell_length_a 7.462351
_cell_length_b 9.100356
_cell_length_c 11.764033
_cell_angle_alpha 34.068154
_cell_angle_beta 75.287442
_cell_angle_gamma 63.599488
_cell_volume 390.300819
_symmetry_space_group_name_H-M "P -1"
_symmetry_group_IT_number 2
_symmetry_cell_setting 'triclinic'
loop_
_space_group_symop_operation_xyz
x,y,z
-x,-y,-z
loop_
_atom_site_type_symbol
_atom_site_label
_atom_site_fract_x
_atom_site_fract_y
_atom_site_fract_z
Si Si1 0.470468 0.393870 0.201274
Si Si2 0.501264 0.325208 0.498964
Si Si3 0.997766 0.713994 0.128512
Si Si4 0.883392 0.827496 0.851145
Si Si5 0.836112 0.839676 0.416508
O O1 0.496694 0.469931 0.282725
O O2 0.224188 0.518055 0.163896
O O3 0.652062 0.066191 0.379980
O O4 0.500000 0.500000 0.000000
O O5 0.500000 0.500000 0.500000
O O6 0.306120 0.248716 0.585226
O O7 0.703335 0.022133 0.672869
O O8 0.996272 0.467775 0.368481
O O9 0.820691 0.805990 0.004320
O O10 0.000000 0.000000 0.000000
O O11 0.033212 0.984154 0.744830
O O12 0.000000 0.500000 0.000000
#
# Coordination Sequence:
#
# PCOD9058736 Si02
#       5
#     2   2   2   2   2
#     4  11  22  47  76 105 150 210 248 307 383 456
#     4  11  26  46  74 111 152 195 255 313 382 456
#     4  11  24  44  73 108 150 197 248 312 388 448
#     4  12  25  45  75 111 142 196 266 308 371 459
#     4  11  25  49  75 103 158 203 245 318 380 451
#
# _framework density 25.621264
#
# number of rings (size 3 to 8) (size 9 to 14) (size 15 to 20)
#    0.000    0.800    2.000    7.200    0.000    6.400 
#    0.000    1.000    0.000    0.000    0.000    0.000 
#    0.000    0.000    0.000    0.000    0.000    0.000 
#
# Total GULP energy -55710.023759 kJ/mol
# GULP energy per Si atom -5571.002376 kJ/mol
# Density = 2.556295 g / cm^3
# Si number density = 25.621264 Si / 1000 Ang^3
#
#
#
# Elastic Constant Matrix: (Units=GPa)
#
#
# Indices 1 2 3 4 5 6 
#
# 1 87.4103 26.9557 55.3397 43.4279 -16.5106 14.8138
# 2 26.9557 172.0726 64.1580 13.3021 -5.5497 19.1114
# 3 55.3397 64.1580 186.7718 -4.7974 19.2526 29.7957
# 4 43.4279 13.3021 -4.7974 26.2332 28.1720 11.5549
# 5 -16.5106 -5.5497 19.2526 28.1720 41.7003 0.4772
# 6 14.8138 19.1114 29.7957 11.5549 0.4772 57.7294
#
#
#
# Elastic Compliance Matrix: (Units=1/GPa)
#
#
# Indices 1 2 3 4 5 6 
#
# 1 0.000439 -0.002431 0.003068 0.016350 -0.012566 -0.004060
# 2 -0.002431 0.006556 -0.001130 0.002322 -0.001121 -0.001419
# 3 0.003068 -0.001130 0.004242 -0.008677 0.004978 -0.000907
# 4 0.016350 0.002322 -0.008677 -0.015966 0.021546 0.002532
# 5 -0.012566 -0.001121 0.004978 0.021546 0.002039 -0.003303
# 6 -0.004060 -0.001419 -0.000907 0.002532 -0.003303 0.018822
#
#
# Mechanical properties :
#
#
# Convention : Reuss Voigt Hill
#
# Bulk Modulus (GPa) = 97.55995 82.12903 89.84449
# Shear Modulus (GPa) = 243.48679 45.11933 144.30306
#
# Velocity S-wave (km/s) = 9.75907 4.20099 7.51291
# Velocity P-wave (km/s) = 12.85092 7.46028 10.50719
#
# Compressibility (1/GPa) = 0.01025011
#
# Stress axis : x y z
#
# Youngs Moduli (GPa) = 2279.17497 152.54077 235.74278
#
# Poissons Ratio (x) = 0.37083 -0.72327
# Poissons Ratio (y) = 5.54065 0.26643
# Poissons Ratio (z) = -6.99263 0.17239
#
# Static dielectric constant tensor:
#      x y z
#    x 2.080830 -0.067180 -0.276130 
#    y -0.067180 2.224860 0.331190 
#    z -0.276130 0.331190 2.682450 
# 
# From -- ./inp_files/185179.got.cif
#   From: 2010.05.17/outbox.cif.g08.bks.cpg/sg2_93_cif.got.tgz:185179.got - 2010.06.03 11:33:40.
