data_PCOD9058004
_publ_section_title
;
Structure prediction by ZEFSAII (Michael W. Deem and Ramdas Pophale) SiO2 
 PCOD9058004
Probable space group: P -1
;
_chemical_formula_sum "Si O2"
_cell_formula_units_Z 10
_cell_length_a 4.849079
_cell_length_b 12.059486
_cell_length_c 10.869848
_cell_angle_alpha 46.050299
_cell_angle_beta 62.024836
_cell_angle_gamma 71.648701
_cell_volume 404.098032
_symmetry_space_group_name_H-M "P -1"
_symmetry_group_IT_number 2
_symmetry_cell_setting 'triclinic'
loop_
_space_group_symop_operation_xyz
x,y,z
-x,-y,-z
loop_
_atom_site_type_symbol
_atom_site_label
_atom_site_fract_x
_atom_site_fract_y
_atom_site_fract_z
Si Si1 0.725381 0.871330 0.160645
Si Si2 0.421254 0.415757 0.452749
Si Si3 0.744210 0.877772 0.879017
Si Si4 0.125818 0.438116 0.251986
Si Si5 0.362956 0.737928 0.843659
O O1 0.763326 0.740570 0.353150
O O2 0.719438 0.801464 0.078508
O O3 0.598110 0.044023 0.806752
O O4 0.000000 0.000000 0.000000
O O5 0.500000 0.500000 0.500000
O O6 0.223086 0.493256 0.326506
O O7 0.769979 0.385932 0.354076
O O8 0.526985 0.795085 0.889674
O O9 0.189924 0.575833 0.036173
O O10 0.098544 0.860491 0.773548
O O11 0.363247 0.301443 0.276999
#
# Coordination Sequence:
#
# PCOD9058004 Si02
#       5
#     2   2   2   2   2
#     4  11  25  43  70  98 134 173 224 268 330 398
#     4  12  26  43  69 101 133 167 222 280 329 378
#     4  11  23  40  71  94 126 181 222 263 323 399
#     4  11  25  42  67  99 136 170 223 270 326 396
#     4  11  22  44  68  96 132 181 216 266 332 394
#
# _framework density 24.746469999999999
#
# number of rings (size 3 to 8) (size 9 to 14) (size 15 to 20)
#    0.000    0.800    2.000    5.400    5.600    3.200 
#    0.000    6.000    0.000    0.000    0.000    0.000 
#    0.000    0.000    0.000    0.000    0.000    0.000 
#
# Total GULP energy -55992.319737 kJ/mol
# GULP energy per Si atom -5599.231974 kJ/mol
# Density = 2.469015 g / cm^3
# Si number density = 24.746470 Si / 1000 Ang^3
#
#
#
# Elastic Constant Matrix: (Units=GPa)
#
#
# Indices 1 2 3 4 5 6 
#
# 1 138.3972 30.5746 13.4231 -6.8407 -15.6181 -14.2209
# 2 30.5746 99.0188 -18.6276 -6.7245 -9.1004 -24.1942
# 3 13.4231 -18.6276 53.1783 8.1238 -13.9456 0.7744
# 4 -6.8407 -6.7245 8.1238 10.3990 0.3166 5.7873
# 5 -15.6181 -9.1004 -13.9456 0.3166 30.6492 -1.8060
# 6 -14.2209 -24.1942 0.7744 5.7873 -1.8060 58.0470
#
#
#
# Elastic Compliance Matrix: (Units=1/GPa)
#
#
# Indices 1 2 3 4 5 6 
#
# 1 0.008759 -0.002633 -0.003616 0.006541 0.001999 0.000507
# 2 -0.002633 0.014184 0.007568 -0.001763 0.006658 0.005549
# 3 -0.003616 0.007568 0.029717 -0.023749 0.014447 0.004689
# 4 0.006541 -0.001763 -0.023749 0.124610 -0.009964 -0.011549
# 5 0.001999 0.006658 0.014447 -0.009964 0.042617 0.005391
# 6 0.000507 0.005549 0.004689 -0.011549 0.005391 0.020921
#
#
# Mechanical properties :
#
#
# Convention : Reuss Voigt Hill
#
# Bulk Modulus (GPa) = 18.08422 37.92607 28.00514
# Shear Modulus (GPa) = 19.48542 37.50064 28.49303
#
# Velocity S-wave (km/s) = 2.80911 3.89703 3.39691
# Velocity P-wave (km/s) = 4.22435 5.96726 5.16979
#
# Compressibility (1/GPa) = 0.05529684
#
# Stress axis : x y z
#
# Youngs Moduli (GPa) = 114.16999 70.50344 33.65114
#
# Poissons Ratio (x) = 0.18564 0.12167
# Poissons Ratio (y) = 0.30061 -0.25466
# Poissons Ratio (z) = 0.41280 -0.53354
#
# Static dielectric constant tensor:
#      x y z
#    x 1.921990 -0.020450 0.009340 
#    y -0.020450 2.043650 0.002800 
#    z 0.009340 0.002800 1.937510 
# 
# From -- ./inp_files/481386.got.cif
#   From: 2010.05.17/outbox.cif.g08.bks.cpg/sg2_241_cif.got.tgz:481386.got - 2010.06.03 11:33:40.
