data_PCOD9058862
_publ_section_title
;
Structure prediction by ZEFSAII (Michael W. Deem and Ramdas Pophale) SiO2 
 PCOD9058862
Probable space group: P -1
;
_chemical_formula_sum "Si O2"
_cell_formula_units_Z 16
_cell_length_a 5.094627
_cell_length_b 21.177481
_cell_length_c 11.001415
_cell_angle_alpha 149.280338
_cell_angle_beta 93.826909
_cell_angle_gamma 83.626745
_cell_volume 601.633033
_symmetry_space_group_name_H-M "P -1"
_symmetry_group_IT_number 2
_symmetry_cell_setting 'triclinic'
loop_
_space_group_symop_operation_xyz
x,y,z
-x,-y,-z
loop_
_atom_site_type_symbol
_atom_site_label
_atom_site_fract_x
_atom_site_fract_y
_atom_site_fract_z
Si Si1 0.866772 0.708491 0.679122
Si Si2 0.624106 0.309477 0.196609
Si Si3 0.875044 0.427337 0.985792
Si Si4 0.752079 0.997642 0.096781
Si Si5 0.243229 0.969396 0.367266
Si Si6 0.576113 0.612485 0.934578
Si Si7 0.989377 0.756402 0.505574
Si Si8 0.557927 0.843147 0.467303
O O1 0.968295 0.673290 0.487578
O O2 0.586429 0.685994 0.691647
O O3 0.097689 0.654407 0.686345
O O4 0.850018 0.857722 0.907689
O O5 0.500917 0.389196 0.211005
O O6 0.698651 0.166983 0.915742
O O7 0.113257 0.401717 0.047951
O O8 0.603069 0.466130 0.113786
O O9 0.833623 0.305283 0.700347
O O10 0.000000 0.500000 0.000000
O O11 0.928520 0.105863 0.236263
O O12 0.651251 0.054479 0.316255
O O13 0.500000 0.000000 0.000000
O O14 0.216377 0.075272 0.439198
O O15 0.500000 0.000000 0.500000
O O16 0.000000 0.000000 0.500000
O O17 0.485071 0.752839 0.210271
O O18 0.697118 0.767915 0.459428
#
# Coordination Sequence:
#
# PCOD9058862 Si02
#       8
#     2   2   2   2   2   2   2   2
#     4  12  25  39  60  91 137 181 217 252 302 387
#     4  12  25  40  59  91 133 180 214 252 314 389
#     4  11  25  47  76 100 123 157 214 290 349 387
#     4  12  22  39  56  94 136 182 219 259 313 378
#     4  12  25  36  54  85 131 179 222 254 298 372
#     4  11  24  43  68  97 130 166 213 272 336 391
#     4  11  25  40  64  94 131 170 225 272 328 377
#     4  11  23  38  60  90 134 174 224 274 315 368
#
# _framework density 26.594282
#
# number of rings (size 3 to 8) (size 9 to 14) (size 15 to 20)
#    0.000    0.500    5.000    3.750    5.250    0.000 
#    0.000    0.000    0.000    4.500    0.000    0.000 
#    0.000    0.000    0.000    0.000    0.000    0.000 
#
# Total GULP energy -89522.160424 kJ/mol
# GULP energy per Si atom -5595.135026 kJ/mol
# Density = 2.653375 g / cm^3
# Si number density = 26.594282 Si / 1000 Ang^3
#
#
#
# Elastic Constant Matrix: (Units=GPa)
#
#
# Indices 1 2 3 4 5 6 
#
# 1 137.3049 4.2823 15.3087 -11.4719 9.2648 2.9903
# 2 4.2823 84.7468 27.0429 -9.4484 9.9952 1.4928
# 3 15.3087 27.0429 81.2602 -4.8621 -6.8367 -7.8201
# 4 -11.4719 -9.4484 -4.8621 39.1073 1.3204 10.3988
# 5 9.2648 9.9952 -6.8367 1.3204 39.5332 -15.8141
# 6 2.9903 1.4928 -7.8201 10.3988 -15.8141 48.3459
#
#
#
# Elastic Compliance Matrix: (Units=1/GPa)
#
#
# Indices 1 2 3 4 5 6 
#
# 1 0.008104 0.001210 -0.002337 0.003278 -0.003874 -0.002889
# 2 0.001210 0.015167 -0.006079 0.004828 -0.007314 -0.004957
# 3 -0.002337 -0.006079 0.015797 -0.001930 0.007136 0.005637
# 4 0.003278 0.004828 -0.001930 0.030225 -0.007132 -0.009498
# 5 -0.003874 -0.007314 0.007136 -0.007132 0.035421 0.014740
# 6 -0.002889 -0.004957 0.005637 -0.009498 0.014740 0.028792
#
#
# Mechanical properties :
#
#
# Convention : Reuss Voigt Hill
#
# Bulk Modulus (GPa) = 40.55975 44.06440 42.31207
# Shear Modulus (GPa) = 32.02315 42.50913 37.26614
#
# Velocity S-wave (km/s) = 3.47383 4.00238 3.74743
# Velocity P-wave (km/s) = 5.60129 6.16148 5.88805
#
# Compressibility (1/GPa) = 0.02465498
#
# Stress axis : x y z
#
# Youngs Moduli (GPa) = 123.39358 65.93387 63.30419
#
# Poissons Ratio (x) = -0.07975 0.14795
# Poissons Ratio (y) = -0.14926 0.38481
# Poissons Ratio (z) = 0.28839 0.40080
#
# Static dielectric constant tensor:
#      x y z
#    x 2.065870 0.053120 -0.007860 
#    y 0.053120 2.198700 0.017750 
#    z -0.007860 0.017750 2.246090 
# 
# From -- ./inp_files/139565.got.cif
#   From: 2010.05.17/outbox.cif.g08.bks.cpg/sg2_70_cif.got.tgz:139565.got - 2010.06.03 11:33:40.
