data_PCOD9058822
_publ_section_title
;
Structure prediction by ZEFSAII (Michael W. Deem and Ramdas Pophale) SiO2 
 PCOD9058822
Probable space group: P -1
;
_chemical_formula_sum "Si O2"
_cell_formula_units_Z 10
_cell_length_a 17.157065
_cell_length_b 7.307901
_cell_length_c 6.220016
_cell_angle_alpha 123.077943
_cell_angle_beta 122.724916
_cell_angle_gamma 38.022839
_cell_volume 393.169303
_symmetry_space_group_name_H-M "P -1"
_symmetry_group_IT_number 2
_symmetry_cell_setting 'triclinic'
loop_
_space_group_symop_operation_xyz
x,y,z
-x,-y,-z
loop_
_atom_site_type_symbol
_atom_site_label
_atom_site_fract_x
_atom_site_fract_y
_atom_site_fract_z
Si Si1 0.897248 0.717773 0.671571
Si Si2 0.324006 0.237323 0.961006
Si Si3 0.563455 0.746434 0.247186
Si Si4 0.272813 0.724099 0.477222
Si Si5 0.913265 0.344435 0.832466
O O1 0.898856 0.517467 0.713073
O O2 0.000000 0.500000 0.500000
O O3 0.765590 0.998596 0.532530
O O4 0.948546 0.841517 0.969180
O O5 0.341301 0.450586 0.233798
O O6 0.191587 0.392577 0.981349
O O7 0.444379 0.897121 0.006359
O O8 0.335885 0.275284 0.754386
O O9 0.641758 0.426681 0.278036
O O10 0.500000 0.000000 0.500000
O O11 0.137132 0.817723 0.387369
#
# Coordination Sequence:
#
# PCOD9058822 Si02
#       5
#     2   2   2   2   2
#     4  11  23  37  54  83 113 144 189 228 260 324
#     4   8  18  34  58  80 113 141 177 227 273 325
#     4   9  16  32  60  88 102 139 186 223 271 329
#     4   9  20  36  59  79 110 149 180 219 281 320
#     4   9  22  37  54  80 114 146 182 222 276 319
#
# _framework density 25.434336999999999
#
# number of rings (size 3 to 8) (size 9 to 14) (size 15 to 20)
#    1.200    1.600    0.000    0.600    2.800    4.000 
#    0.000    1.000    0.000    7.200    0.000    0.000 
#    0.000    0.000    0.000    0.000    0.000    0.000 
#
# Total GULP energy -55794.170026 kJ/mol
# GULP energy per Si atom -5579.417003 kJ/mol
# Density = 2.537645 g / cm^3
# Si number density = 25.434337 Si / 1000 Ang^3
#
#
#
# Elastic Constant Matrix: (Units=GPa)
#
#
# Indices 1 2 3 4 5 6 
#
# 1 110.7949 31.5282 37.5535 5.1788 -43.7676 19.8791
# 2 31.5282 117.2898 41.8115 -47.0635 -18.1965 18.5926
# 3 37.5535 41.8115 78.8777 -22.5832 -37.9630 5.7763
# 4 5.1788 -47.0635 -22.5832 45.6165 2.4349 -5.9582
# 5 -43.7676 -18.1965 -37.9630 2.4349 51.2614 -4.9418
# 6 19.8791 18.5926 5.7763 -5.9582 -4.9418 35.9195
#
#
#
# Elastic Compliance Matrix: (Units=1/GPa)
#
#
# Indices 1 2 3 4 5 6 
#
# 1 0.017272 -0.004834 -0.002772 -0.009778 0.010792 -0.006748
# 2 -0.004834 0.018275 -0.002256 0.017852 -0.000500 -0.003529
# 3 -0.002772 -0.002256 0.025221 0.009971 0.015269 0.002401
# 4 -0.009778 0.017852 0.009971 0.046565 0.003428 0.002763
# 5 0.010792 -0.000500 0.015269 0.003428 0.039480 -0.002169
# 6 -0.006748 -0.003529 0.002401 0.002763 -0.002169 0.033175
#
#
# Mechanical properties :
#
#
# Convention : Reuss Voigt Hill
#
# Bulk Modulus (GPa) = 24.36475 58.74985 41.55730
# Shear Modulus (GPa) = 23.43079 39.63075 31.53077
#
# Velocity S-wave (km/s) = 3.03846 3.95164 3.52475
# Velocity P-wave (km/s) = 4.68081 6.63094 5.73931
#
# Compressibility (1/GPa) = 0.04104291
#
# Stress axis : x y z
#
# Youngs Moduli (GPa) = 57.89770 54.71977 39.64905
#
# Poissons Ratio (x) = 0.26453 0.10990
# Poissons Ratio (y) = 0.27989 0.08947
# Poissons Ratio (z) = 0.16048 0.12347
#
# Static dielectric constant tensor:
#      x y z
#    x 2.105660 -0.002850 0.141040 
#    y -0.002850 1.993940 -0.007490 
#    z 0.141040 -0.007490 2.078670 
# 
# From -- ./inp_files/4801.got.cif
#   From: 2010.05.17/outbox.cif.g08.bks.cpg/sg2_3_cif.got.tgz:4801.got - 2010.06.03 11:33:40.
