data_PCOD9058668
_publ_section_title
;
Structure prediction by ZEFSAII (Michael W. Deem and Ramdas Pophale) SiO2 
 PCOD9058668
Probable space group: P -1
;
_chemical_formula_sum "Si O2"
_cell_formula_units_Z 14
_cell_length_a 13.934880
_cell_length_b 9.411080
_cell_length_c 8.224806
_cell_angle_alpha 77.487772
_cell_angle_beta 142.479703
_cell_angle_gamma 120.125971
_cell_volume 533.426783
_symmetry_space_group_name_H-M "P -1"
_symmetry_group_IT_number 2
_symmetry_cell_setting 'triclinic'
loop_
_space_group_symop_operation_xyz
x,y,z
-x,-y,-z
loop_
_atom_site_type_symbol
_atom_site_label
_atom_site_fract_x
_atom_site_fract_y
_atom_site_fract_z
Si Si1 0.430223 0.658643 0.561030
Si Si2 0.491514 0.143512 0.722493
Si Si3 0.077728 0.595108 0.309164
Si Si4 0.756204 0.004134 0.066874
Si Si5 0.008781 0.700422 0.511174
Si Si6 0.083404 0.885064 0.101020
Si Si7 0.561285 0.457069 0.923864
O O1 0.443983 0.735182 0.383147
O O2 0.249727 0.628876 0.421374
O O3 0.448725 0.495063 0.630734
O O4 0.616149 0.803643 0.878813
O O5 0.617137 0.064243 0.917366
O O6 0.504502 0.261499 0.860732
O O7 0.280160 0.984157 0.439207
O O8 0.973263 0.396903 0.283479
O O9 0.979802 0.681180 0.063623
O O10 0.124625 0.689091 0.523542
O O11 0.865105 0.091571 0.023813
O O12 0.915030 0.100800 0.395140
O O13 0.789031 0.585333 0.192646
O O14 0.000000 0.000000 0.000000
O O15 0.500000 0.500000 0.000000
#
# Coordination Sequence:
#
# PCOD9058668 Si02
#       7
#     2   2   2   2   2   2   2
#     4  11  23  46  72 102 136 188 232 289 352 410
#     4  11  23  47  72 101 138 185 236 290 348 417
#     4  11  22  47  67 101 143 184 233 279 355 416
#     4  11  24  47  72 102 142 180 240 285 353 424
#     4  11  27  44  66 105 143 186 231 283 347 422
#     4  11  25  43  73 107 137 180 241 294 348 407
#     4  12  27  45  68 102 147 184 236 284 348 419
#
# _framework density 26.245401999999999
#
# number of rings (size 3 to 8) (size 9 to 14) (size 15 to 20)
#    0.000    0.857    4.286    3.000    6.000    2.857 
#    5.143    0.000    0.000    0.000    0.000    0.000 
#    0.000    0.000    0.000    0.000    0.000    0.000 
#
# Total GULP energy -78373.338559 kJ/mol
# GULP energy per Si atom -5598.095611 kJ/mol
# Density = 2.618567 g / cm^3
# Si number density = 26.245402 Si / 1000 Ang^3
#
#
#
# Elastic Constant Matrix: (Units=GPa)
#
#
# Indices 1 2 3 4 5 6 
#
# 1 144.8899 47.2298 16.1222 6.6321 -12.0043 -14.4248
# 2 47.2298 91.0533 -3.7817 -30.6763 5.8280 -16.1318
# 3 16.1222 -3.7817 58.7341 11.8009 -0.1982 -10.7662
# 4 6.6321 -30.6763 11.8009 36.8968 -18.1582 -8.7028
# 5 -12.0043 5.8280 -0.1982 -18.1582 29.3173 -0.6364
# 6 -14.4248 -16.1318 -10.7662 -8.7028 -0.6364 55.9180
#
#
#
# Elastic Compliance Matrix: (Units=1/GPa)
#
#
# Indices 1 2 3 4 5 6 
#
# 1 0.010145 -0.008397 -0.001946 -0.008169 0.000719 -0.001443
# 2 -0.008397 0.027636 -0.000497 0.033021 0.011755 0.010984
# 3 -0.001946 -0.000497 0.019606 -0.008919 -0.006053 0.001672
# 4 -0.008169 0.033021 -0.008919 0.084494 0.042783 0.019339
# 5 0.000719 0.011755 -0.006053 0.042783 0.058736 0.009738
# 6 -0.001443 0.010984 0.001672 0.019339 0.009738 0.024122
#
#
# Mechanical properties :
#
#
# Convention : Reuss Voigt Hill
#
# Bulk Modulus (GPa) = 28.00621 45.97975 36.99298
# Shear Modulus (GPa) = 19.35547 40.10021 29.72784
#
# Velocity S-wave (km/s) = 2.71861 3.91307 3.36919
# Velocity P-wave (km/s) = 4.53304 6.16225 5.40934
#
# Compressibility (1/GPa) = 0.03570637
#
# Stress axis : x y z
#
# Youngs Moduli (GPa) = 98.56617 36.18430 51.00408
#
# Poissons Ratio (x) = 0.30385 0.09927
# Poissons Ratio (y) = 0.82769 0.02536
# Poissons Ratio (z) = 0.19184 0.01799
#
# Static dielectric constant tensor:
#      x y z
#    x 1.979490 0.030100 0.001510 
#    y 0.030100 2.066760 -0.011310 
#    z 0.001510 -0.011310 2.104230 
# 
# From -- ./inp_files/156798.got.cif
#   From: 2010.05.17/outbox.cif.g08.bks.cpg/sg2_79_cif.got.tgz:156798.got - 2010.06.03 11:33:40.
