data_PCOD9058211
_publ_section_title
;
Structure prediction by ZEFSAII (Michael W. Deem and Ramdas Pophale) SiO2 
 PCOD9058211
Probable space group: P -1
;
_chemical_formula_sum "Si O2"
_cell_formula_units_Z 14
_cell_length_a 9.459995
_cell_length_b 8.934859
_cell_length_c 9.467080
_cell_angle_alpha 93.371543
_cell_angle_beta 88.546046
_cell_angle_gamma 58.382680
_cell_volume 678.751193
_symmetry_space_group_name_H-M "P -1"
_symmetry_group_IT_number 2
_symmetry_cell_setting 'triclinic'
loop_
_space_group_symop_operation_xyz
x,y,z
-x,-y,-z
loop_
_atom_site_type_symbol
_atom_site_label
_atom_site_fract_x
_atom_site_fract_y
_atom_site_fract_z
Si Si1 0.832480 0.135375 0.593693
Si Si2 0.491522 0.178410 0.547092
Si Si3 0.650107 0.831421 0.165866
Si Si4 0.028404 0.594063 0.134064
Si Si5 0.153694 0.850721 0.078290
Si Si6 0.282077 0.463251 0.338293
Si Si7 0.483054 0.776694 0.906492
O O1 0.674408 0.144593 0.527614
O O2 0.846360 0.086828 0.757528
O O3 0.788834 0.336321 0.605011
O O4 0.000000 0.000000 0.500000
O O5 0.436838 0.214979 0.712847
O O6 0.357207 0.334642 0.461248
O O7 0.500000 0.000000 0.500000
O O8 0.843076 0.743432 0.192294
O O9 0.572360 0.040360 0.162597
O O10 0.615704 0.762109 0.017514
O O11 0.124937 0.688786 0.085897
O O12 0.132700 0.468764 0.254821
O O13 0.000000 0.500000 0.000000
O O14 0.324523 0.797694 0.992555
O O15 0.000000 0.000000 0.000000
O O16 0.432495 0.382665 0.215489
#
# Coordination Sequence:
#
# PCOD9058211 Si02
#       7
#     2   2   2   2   2   2   2
#     4  11  28  50  67 101 145 185 230 292 347 418
#     4  12  26  46  71 101 136 190 233 282 356 417
#     4  11  23  43  70 102 144 177 230 297 347 408
#     4  11  24  43  66 105 141 171 227 296 344 405
#     4  11  24  43  74 101 133 184 232 278 352 411
#     4  11  26  45  73 100 139 185 238 284 348 420
#     4  11  22  44  74 103 137 184 235 290 344 417
#
# _framework density 20.626114000000001
#
# number of rings (size 3 to 8) (size 9 to 14) (size 15 to 20)
#    0.000    0.857    5.714    0.429    6.000    5.143 
#    2.571    0.000    0.000    0.000    0.000    0.000 
#    0.000    0.000    0.000    0.000    0.000    0.000 
#
# Total GULP energy -78261.341889 kJ/mol
# GULP energy per Si atom -5590.095849 kJ/mol
# Density = 2.057917 g / cm^3
# Si number density = 20.626114 Si / 1000 Ang^3
#
#
#
# Elastic Constant Matrix: (Units=GPa)
#
#
# Indices 1 2 3 4 5 6 
#
# 1 120.0676 48.7481 37.7517 -8.4451 5.6915 -20.0240
# 2 48.7481 120.2019 69.0412 -1.0469 3.9925 -22.7143
# 3 37.7517 69.0412 109.4010 -6.1888 1.0826 -19.0706
# 4 -8.4451 -1.0469 -6.1888 42.0258 -8.3692 11.1814
# 5 5.6915 3.9925 1.0826 -8.3692 42.2742 2.3879
# 6 -20.0240 -22.7143 -19.0706 11.1814 2.3879 36.3050
#
#
#
# Elastic Compliance Matrix: (Units=1/GPa)
#
#
# Indices 1 2 3 4 5 6 
#
# 1 0.010535 -0.002965 -0.001154 0.000803 -0.001129 0.003176
# 2 -0.002965 0.014837 -0.007684 -0.002913 -0.001643 0.004616
# 3 -0.001154 -0.007684 0.014782 0.001397 0.000675 0.001847
# 4 0.000803 -0.002913 0.001397 0.027889 0.006197 -0.009643
# 5 -0.001129 -0.001643 0.000675 0.006197 0.025447 -0.004879
# 6 0.003176 0.004616 0.001847 -0.009643 -0.004879 0.036445
#
#
# Mechanical properties :
#
#
# Convention : Reuss Voigt Hill
#
# Bulk Modulus (GPa) = 60.42889 73.41692 66.92290
# Shear Modulus (GPa) = 31.43510 37.06296 34.24903
#
# Velocity S-wave (km/s) = 3.90814 4.24358 4.07931
# Velocity P-wave (km/s) = 7.05164 7.72542 7.39620
#
# Compressibility (1/GPa) = 0.01654838
#
# Stress axis : x y z
#
# Youngs Moduli (GPa) = 94.92168 67.39998 67.64844
#
# Poissons Ratio (x) = 0.19984 0.07806
# Poissons Ratio (y) = 0.28144 0.51981
# Poissons Ratio (z) = 0.10953 0.51790
#
# Static dielectric constant tensor:
#      x y z
#    x 1.724320 -0.013130 0.006880 
#    y -0.013130 1.737270 0.005600 
#    z 0.006880 0.005600 1.766340 
# 
# From -- ./inp_files/158584.got.cif
#   From: 2010.05.17/outbox.cif.g08.bks.cpg/sg2_80_cif.got.tgz:158584.got - 2010.06.03 11:33:40.
