data_PCOD9058710
_publ_section_title
;
Structure prediction by ZEFSAII (Michael W. Deem and Ramdas Pophale) SiO2 
 PCOD9058710
Probable space group: P -1
;
_chemical_formula_sum "Si O2"
_cell_formula_units_Z 12
_cell_length_a 8.512073
_cell_length_b 5.194891
_cell_length_c 15.386255
_cell_angle_alpha 60.095264
_cell_angle_beta 112.808901
_cell_angle_gamma 75.545156
_cell_volume 452.516272
_symmetry_space_group_name_H-M "P -1"
_symmetry_group_IT_number 2
_symmetry_cell_setting 'triclinic'
loop_
_space_group_symop_operation_xyz
x,y,z
-x,-y,-z
loop_
_atom_site_type_symbol
_atom_site_label
_atom_site_fract_x
_atom_site_fract_y
_atom_site_fract_z
Si Si1 0.349879 0.591598 0.035312
Si Si2 0.996808 0.707829 0.204668
Si Si3 0.321095 0.464299 0.789426
Si Si4 0.023690 0.753610 0.396611
Si Si5 0.382452 0.633989 0.594525
Si Si6 0.376150 0.139205 0.273416
O O1 0.444798 0.736648 0.099748
O O2 0.376958 0.271101 0.153501
O O3 0.500000 0.500000 0.000000
O O4 0.113559 0.876053 0.913388
O O5 0.089117 0.611730 0.337281
O O6 0.157723 0.433202 0.216838
O O7 0.799893 0.686782 0.171089
O O8 0.303156 0.495896 0.677657
O O9 0.195271 0.877272 0.722221
O O10 0.185277 0.835431 0.456692
O O11 0.000000 0.500000 0.500000
O O12 0.468162 0.836179 0.630756
O O13 0.557558 0.267487 0.648093
#
# Coordination Sequence:
#
# PCOD9058710 Si02
#       6
#     2   2   2   2   2   2
#     4  11  22  47  73 102 139 185 239 290 349 423
#     4  12  26  43  71 107 140 185 233 295 356 413
#     4  11  24  44  75 102 136 186 243 292 347 418
#     4  12  24  44  74 104 140 183 245 289 345 421
#     4  11  25  47  72 101 143 191 232 287 348 424
#     4  11  28  47  71 106 148 183 233 292 360 415
#
# _framework density 26.518386
#
# number of rings (size 3 to 8) (size 9 to 14) (size 15 to 20)
#    0.000    0.667    3.333    4.500    4.667    2.667 
#    0.000    5.000    0.000    0.000    0.000    0.000 
#    0.000    0.000    0.000    0.000    0.000    0.000 
#
# Total GULP energy -67194.728227 kJ/mol
# GULP energy per Si atom -5599.560686 kJ/mol
# Density = 2.645803 g / cm^3
# Si number density = 26.518386 Si / 1000 Ang^3
#
#
#
# Elastic Constant Matrix: (Units=GPa)
#
#
# Indices 1 2 3 4 5 6 
#
# 1 52.0082 7.3185 9.1292 -0.6520 -7.0191 -15.2627
# 2 7.3185 113.5084 25.5464 3.7395 -10.3955 -16.1805
# 3 9.1292 25.5464 130.6488 9.9964 -4.0373 -3.1423
# 4 -0.6520 3.7395 9.9964 35.9996 -3.6501 2.0453
# 5 -7.0191 -10.3955 -4.0373 -3.6501 27.1701 -0.9619
# 6 -15.2627 -16.1805 -3.1423 2.0453 -0.9619 50.9177
#
#
#
# Elastic Compliance Matrix: (Units=1/GPa)
#
#
# Indices 1 2 3 4 5 6 
#
# 1 0.022229 0.000357 -0.001347 0.000968 0.006049 0.006769
# 2 0.000357 0.010001 -0.001760 -0.000351 0.003725 0.003261
# 3 -0.001347 -0.001760 0.008243 -0.002119 -0.000094 -0.000371
# 4 0.000968 -0.000351 -0.002119 0.028849 0.003640 -0.001042
# 5 0.006049 0.003725 -0.000094 0.003640 0.040396 0.003608
# 6 0.006769 0.003261 -0.000371 -0.001042 0.003608 0.022792
#
#
# Mechanical properties :
#
#
# Convention : Reuss Voigt Hill
#
# Bulk Modulus (GPa) = 28.59488 42.23928 35.41708
# Shear Modulus (GPa) = 33.40761 39.76223 36.58492
#
# Velocity S-wave (km/s) = 3.55320 3.87644 3.71833
# Velocity P-wave (km/s) = 5.25739 5.99988 5.64086
#
# Compressibility (1/GPa) = 0.03497129
#
# Stress axis : x y z
#
# Youngs Moduli (GPa) = 44.98640 99.99415 121.31975
#
# Poissons Ratio (x) = -0.03570 0.16347
# Poissons Ratio (y) = -0.01606 0.21352
# Poissons Ratio (z) = 0.06062 0.17599
#
# Static dielectric constant tensor:
#      x y z
#    x 2.077030 0.022740 -0.013320 
#    y 0.022740 2.101130 -0.012580 
#    z -0.013320 -0.012580 2.129560 
# 
# From -- ./inp_files/18800.got.cif
#   From: 2010.05.17/outbox.cif.g08.bks.cpg/sg2_10_cif.got.tgz:18800.got - 2010.06.03 11:33:40.
