data_PCOD9058887
_publ_section_title
;
Structure prediction by ZEFSAII (Michael W. Deem and Ramdas Pophale) SiO2 
 PCOD9058887
Probable space group: P -1
;
_chemical_formula_sum "Si O2"
_cell_formula_units_Z 16
_cell_length_a 9.051899
_cell_length_b 10.509782
_cell_length_c 13.951495
_cell_angle_alpha 114.947099
_cell_angle_beta 128.830200
_cell_angle_gamma 105.998294
_cell_volume 604.180057
_symmetry_space_group_name_H-M "P -1"
_symmetry_group_IT_number 2
_symmetry_cell_setting 'triclinic'
loop_
_space_group_symop_operation_xyz
x,y,z
-x,-y,-z
loop_
_atom_site_type_symbol
_atom_site_label
_atom_site_fract_x
_atom_site_fract_y
_atom_site_fract_z
Si Si1 0.732989 0.624072 0.807540
Si Si2 0.558191 0.441112 0.152233
Si Si3 0.809104 0.341594 0.492755
Si Si4 0.713450 0.103489 0.749495
Si Si5 0.347435 0.135176 0.518352
Si Si6 0.373622 0.977873 0.817042
Si Si7 0.997944 0.742901 0.757937
Si Si8 0.727004 0.814849 0.246347
O O1 0.601541 0.660357 0.842032
O O2 0.496780 0.364327 0.617285
O O3 0.838128 0.727659 0.776592
O O4 0.025334 0.734669 0.016620
O O5 0.590853 0.626312 0.203730
O O6 0.876490 0.549780 0.322101
O O7 0.409058 0.302056 0.950774
O O8 0.724583 0.234081 0.319677
O O9 0.810798 0.507484 0.566166
O O10 0.563877 0.133986 0.393924
O O11 0.608107 0.188152 0.685831
O O12 0.796810 0.043170 0.679429
O O13 0.077588 0.001158 0.439105
O O14 0.134849 0.898484 0.771636
O O15 0.360519 0.071923 0.750806
O O16 0.700828 0.154888 0.045449
#
# Coordination Sequence:
#
# PCOD9058887 Si02
#       8
#     2   2   2   2   2   2   2   2
#     4  12  24  42  66 101 136 174 220 277 332 394
#     4  11  25  40  71 104 137 172 220 273 341 403
#     4  12  22  45  70 100 131 175 224 276 334 400
#     4  11  23  38  65 101 134 174 215 271 338 394
#     4  11  23  39  64  97 141 171 216 268 337 405
#     4  11  25  43  72  92 133 183 225 274 327 396
#     4  11  25  45  67 100 130 177 234 274 322 394
#     4  11  23  44  66  99 141 177 216 274 338 404
#
# _framework density 26.482173
#
# number of rings (size 3 to 8) (size 9 to 14) (size 15 to 20)
#    0.000    0.750    6.250    1.500    1.750    2.000 
#    0.000    3.125    0.000    0.000    0.000    0.000 
#    0.000    0.000    0.000    0.000    0.000    0.000 
#
# Total GULP energy -89680.763740 kJ/mol
# GULP energy per Si atom -5605.047734 kJ/mol
# Density = 2.642190 g / cm^3
# Si number density = 26.482173 Si / 1000 Ang^3
#
#
#
# Elastic Constant Matrix: (Units=GPa)
#
#
# Indices 1 2 3 4 5 6 
#
# 1 103.4054 16.2404 7.1595 3.1505 -0.1360 31.8700
# 2 16.2404 82.1542 4.8795 4.3572 -1.6909 9.7736
# 3 7.1595 4.8795 99.6210 -4.5199 -4.1189 -9.3455
# 4 3.1505 4.3572 -4.5199 31.8802 1.0812 2.5136
# 5 -0.1360 -1.6909 -4.1189 1.0812 54.2612 -1.7918
# 6 31.8700 9.7736 -9.3455 2.5136 -1.7918 47.2381
#
#
#
# Elastic Compliance Matrix: (Units=1/GPa)
#
#
# Indices 1 2 3 4 5 6 
#
# 1 0.012664 -0.001358 -0.001693 -0.000616 -0.000410 -0.008581
# 2 -0.001358 0.012788 -0.000755 -0.001591 0.000311 -0.001783
# 3 -0.001693 -0.000755 0.010614 0.001482 0.000859 0.003352
# 4 -0.000616 -0.001591 0.001482 0.031930 -0.000597 -0.000684
# 5 -0.000410 0.000311 0.000859 -0.000597 0.018552 0.001118
# 6 -0.008581 -0.001783 0.003352 -0.000684 0.001118 0.028070
#
#
# Mechanical properties :
#
#
# Convention : Reuss Voigt Hill
#
# Bulk Modulus (GPa) = 35.14565 37.97106 36.55836
# Shear Modulus (GPa) = 37.96052 43.80265 40.88159
#
# Velocity S-wave (km/s) = 3.79018 4.07140 3.93331
# Velocity P-wave (km/s) = 5.69686 6.03914 5.87050
#
# Compressibility (1/GPa) = 0.02845302
#
# Stress axis : x y z
#
# Youngs Moduli (GPa) = 78.96355 78.19602 94.21517
#
# Poissons Ratio (x) = 0.10618 0.15955
# Poissons Ratio (y) = 0.10722 0.07117
# Poissons Ratio (z) = 0.13372 0.05907
#
# Static dielectric constant tensor:
#      x y z
#    x 2.140490 0.053650 -0.063550 
#    y 0.053650 2.006300 -0.035110 
#    z -0.063550 -0.035110 2.046730 
# 
# From -- ./inp_files/282773.got.cif
#   From: 2010.05.17/outbox.cif.g08.bks.cpg/sg2_142_cif.got.tgz:282773.got - 2010.06.03 11:33:40.
