data_PCOD9058394
_publ_section_title
;
Structure prediction by ZEFSAII (Michael W. Deem and Ramdas Pophale) SiO2 
 PCOD9058394
Probable space group: P -1
;
_chemical_formula_sum "Si O2"
_cell_formula_units_Z 14
_cell_length_a 9.610739
_cell_length_b 8.856832
_cell_length_c 25.408093
_cell_angle_alpha 149.720222
_cell_angle_beta 146.337505
_cell_angle_gamma 48.012448
_cell_volume 594.797478
_symmetry_space_group_name_H-M "P -1"
_symmetry_group_IT_number 2
_symmetry_cell_setting 'triclinic'
loop_
_space_group_symop_operation_xyz
x,y,z
-x,-y,-z
loop_
_atom_site_type_symbol
_atom_site_label
_atom_site_fract_x
_atom_site_fract_y
_atom_site_fract_z
Si Si1 0.028671 0.239929 0.971734
Si Si2 0.199821 0.120658 0.805430
Si Si3 0.491659 0.384644 0.734125
Si Si4 0.243840 0.846835 0.048106
Si Si5 0.325122 0.739432 0.533741
Si Si6 0.132765 0.738835 0.776355
Si Si7 0.011380 0.226640 0.460422
O O1 0.228834 0.433583 0.134046
O O2 0.767400 0.104743 0.878200
O O3 0.000000 0.500000 0.000000
O O4 0.119190 0.962351 0.887199
O O5 0.220926 0.480570 0.927217
O O6 0.094075 0.922785 0.764673
O O7 0.038237 0.048793 0.679197
O O8 0.482573 0.039125 0.858622
O O9 0.392452 0.616217 0.813038
O O10 0.284323 0.302509 0.597966
O O11 0.475550 0.060595 0.658678
O O12 0.000000 0.000000 0.000000
O O13 0.500000 0.500000 0.500000
O O14 0.208210 0.778383 0.566373
O O15 0.064563 0.578342 0.374173
O O16 0.000000 0.500000 0.500000
#
# Coordination Sequence:
#
# PCOD9058394 Si02
#       7
#     2   2   2   2   2   2   2
#     4  12  25  45  74 104 143 184 237 301 354 426
#     4  11  24  47  72 104 145 189 233 299 360 429
#     4  11  25  44  72 109 139 186 241 289 366 438
#     4  11  27  45  72 108 143 183 247 294 361 427
#     4  11  25  43  68 106 143 180 237 293 352 433
#     4  11  22  45  72 102 139 188 237 287 358 423
#     4  11  23  45  73  96 143 187 231 290 362 418
#
# _framework density 23.537424000000001
#
# number of rings (size 3 to 8) (size 9 to 14) (size 15 to 20)
#    0.000    0.857    4.286    3.857    4.000    2.286 
#    0.000    1.429    0.000    0.000    0.000    0.000 
#    0.000    0.000    0.000    0.000    0.000    0.000 
#
# Total GULP energy -78097.035476 kJ/mol
# GULP energy per Si atom -5578.359677 kJ/mol
# Density = 2.348385 g / cm^3
# Si number density = 23.537424 Si / 1000 Ang^3
#
#
#
# Elastic Constant Matrix: (Units=GPa)
#
#
# Indices 1 2 3 4 5 6 
#
# 1 103.2406 25.7944 47.6746 -2.4743 2.2860 -2.2587
# 2 25.7944 82.6026 18.9535 10.7311 -6.6762 -2.9739
# 3 47.6746 18.9535 120.8210 7.5011 -6.4904 -2.2357
# 4 -2.4743 10.7311 7.5011 42.8264 -4.1411 5.5661
# 5 2.2860 -6.6762 -6.4904 -4.1411 36.2597 2.7830
# 6 -2.2587 -2.9739 -2.2357 5.5661 2.7830 32.3959
#
#
#
# Elastic Compliance Matrix: (Units=1/GPa)
#
#
# Indices 1 2 3 4 5 6 
#
# 1 0.012834 -0.003361 -0.004783 0.002218 -0.002035 0.000050
# 2 -0.003361 0.013963 -0.000498 -0.003583 0.002174 0.001442
# 3 -0.004783 -0.000498 0.010466 -0.001874 0.001830 0.000508
# 4 0.002218 -0.003583 -0.001874 0.025547 0.002157 -0.004878
# 5 -0.002035 0.002174 0.001830 0.002157 0.028886 -0.002668
# 6 0.000050 0.001442 0.000508 -0.004878 -0.002668 0.032106
#
#
# Mechanical properties :
#
#
# Convention : Reuss Voigt Hill
#
# Bulk Modulus (GPa) = 50.05340 54.61212 52.33276
# Shear Modulus (GPa) = 33.84180 36.57919 35.21049
#
# Velocity S-wave (km/s) = 3.79593 3.94647 3.87193
# Velocity P-wave (km/s) = 6.36582 6.63466 6.50163
#
# Compressibility (1/GPa) = 0.01997866
#
# Stress axis : x y z
#
# Youngs Moduli (GPa) = 77.91913 71.61738 95.54560
#
# Poissons Ratio (x) = 0.24070 0.45699
# Poissons Ratio (y) = 0.26188 0.04761
# Poissons Ratio (z) = 0.37268 0.03569
#
# Static dielectric constant tensor:
#      x y z
#    x 2.242130 -0.049600 -0.068460 
#    y -0.049600 1.992780 -0.059790 
#    z -0.068460 -0.059790 2.063790 
# 
# From -- ./inp_files/606964.got.cif
#   From: 2010.05.17/outbox.cif.g08.bks.cpg/sg2_304_cif.got.tgz:606964.got - 2010.06.03 11:33:40.
