data_PCOD9058373
_publ_section_title
;
Structure prediction by ZEFSAII (Michael W. Deem and Ramdas Pophale) SiO2 
 PCOD9058373
Probable space group: P -1
;
_chemical_formula_sum "Si O2"
_cell_formula_units_Z 14
_cell_length_a 19.550673
_cell_length_b 13.239165
_cell_length_c 9.619129
_cell_angle_alpha 136.967418
_cell_angle_beta 152.906590
_cell_angle_gamma 33.007878
_cell_volume 616.497594
_symmetry_space_group_name_H-M "P -1"
_symmetry_group_IT_number 2
_symmetry_cell_setting 'triclinic'
loop_
_space_group_symop_operation_xyz
x,y,z
-x,-y,-z
loop_
_atom_site_type_symbol
_atom_site_label
_atom_site_fract_x
_atom_site_fract_y
_atom_site_fract_z
Si Si1 0.826025 0.170047 0.275947
Si Si2 0.816279 0.128591 0.896261
Si Si3 0.342891 0.498535 0.139728
Si Si4 0.491229 0.208121 0.866370
Si Si5 0.590650 0.986677 0.302240
Si Si6 0.988267 0.596491 0.714006
Si Si7 0.129622 0.504584 0.350577
O O1 0.836053 0.343072 0.463198
O O2 0.839626 0.095946 0.070280
O O3 0.650127 0.212473 0.087555
O O4 0.000000 0.000000 0.500000
O O5 0.761729 0.331154 0.984654
O O6 0.639859 0.131020 0.532891
O O7 0.000000 0.000000 0.000000
O O8 0.500000 0.500000 0.500000
O O9 0.422725 0.323679 0.005981
O O10 0.187864 0.558707 0.038941
O O11 0.537402 0.014941 0.811490
O O12 0.327840 0.309650 0.555828
O O13 0.800517 0.806164 0.557176
O O14 0.500000 0.000000 0.000000
O O15 0.000000 0.500000 0.500000
O O16 0.982773 0.471352 0.690657
O O17 0.000000 0.500000 0.000000
#
# Coordination Sequence:
#
# PCOD9058373 Si02
#       7
#     2   2   2   2   2   2   2
#     4  12  30  49  72 105 148 191 236 301 366 422
#     4  12  27  46  73 106 149 186 238 297 356 423
#     4  12  25  43  76 106 137 190 240 294 350 426
#     4  11  26  50  69 104 147 187 247 292 352 437
#     4  11  25  44  73 106 144 186 237 299 353 420
#     4  11  22  45  71 103 140 180 244 291 343 419
#     4  11  26  47  76 102 143 192 235 295 356 430
#
# _framework density 22.708929000000001
#
# number of rings (size 3 to 8) (size 9 to 14) (size 15 to 20)
#    0.000    0.571    5.714    1.286   10.000    0.571 
#    0.000    0.000    0.000    0.000    0.000    0.000 
#    0.000    0.000    0.000    0.000    0.000    0.000 
#
# Total GULP energy -78006.352396 kJ/mol
# GULP energy per Si atom -5571.882314 kJ/mol
# Density = 2.265724 g / cm^3
# Si number density = 22.708929 Si / 1000 Ang^3
#
#
#
# Elastic Constant Matrix: (Units=GPa)
#
#
# Indices 1 2 3 4 5 6 
#
# 1 167.7455 33.4913 71.9152 3.2807 21.0365 34.1722
# 2 33.4913 52.0927 14.1580 5.0834 8.2321 22.1931
# 3 71.9152 14.1580 169.2528 4.7725 13.1735 14.0248
# 4 3.2807 5.0834 4.7725 32.0066 6.5692 1.8680
# 5 21.0365 8.2321 13.1735 6.5692 50.2205 9.6156
# 6 34.1722 22.1931 14.0248 1.8680 9.6156 37.7407
#
#
#
# Elastic Compliance Matrix: (Units=1/GPa)
#
#
# Indices 1 2 3 4 5 6 
#
# 1 0.009042 -0.002585 -0.003089 0.000582 -0.001648 -0.005128
# 2 -0.002585 0.026838 0.000068 -0.003156 -0.000392 -0.013210
# 3 -0.003089 0.000068 0.007259 -0.000672 -0.000580 0.000240
# 4 0.000582 -0.003156 -0.000672 0.032548 -0.003997 0.000986
# 5 -0.001648 -0.000392 -0.000580 -0.003997 0.022006 -0.003471
# 6 -0.005128 -0.013210 0.000240 0.000986 -0.003471 0.039654
#
#
# Mechanical properties :
#
#
# Convention : Reuss Voigt Hill
#
# Bulk Modulus (GPa) = 31.32247 69.80223 50.56235
# Shear Modulus (GPa) = 31.40663 41.96197 36.68430
#
# Velocity S-wave (km/s) = 3.72292 4.30329 4.02358
# Velocity P-wave (km/s) = 5.68358 7.44954 6.62566
#
# Compressibility (1/GPa) = 0.03192597
#
# Stress axis : x y z
#
# Youngs Moduli (GPa) = 110.59950 37.26030 137.75586
#
# Poissons Ratio (x) = 0.09633 0.42550
# Poissons Ratio (y) = 0.28595 -0.00932
# Poissons Ratio (z) = 0.34162 -0.00252
#
# Static dielectric constant tensor:
#      x y z
#    x 1.565630 0.095190 -0.157150 
#    y 0.095190 1.854900 0.144650 
#    z -0.157150 0.144650 1.534960 
# 
# From -- ./inp_files/280230.got.cif
#   From: 2010.05.17/outbox.cif.g08.bks.cpg/sg2_141_cif.got.tgz:280230.got - 2010.06.03 11:33:40.
