data_PCOD9058761
_publ_section_title
;
Structure prediction by ZEFSAII (Michael W. Deem and Ramdas Pophale) SiO2 
 PCOD9058761
Probable space group: P -1
;
_chemical_formula_sum "Si O2"
_cell_formula_units_Z 16
_cell_length_a 16.601499
_cell_length_b 9.638374
_cell_length_c 7.681137
_cell_angle_alpha 120.300146
_cell_angle_beta 128.163595
_cell_angle_gamma 90.049174
_cell_volume 740.612618
_symmetry_space_group_name_H-M "P -1"
_symmetry_group_IT_number 2
_symmetry_cell_setting 'triclinic'
loop_
_space_group_symop_operation_xyz
x,y,z
-x,-y,-z
loop_
_atom_site_type_symbol
_atom_site_label
_atom_site_fract_x
_atom_site_fract_y
_atom_site_fract_z
Si Si1 0.709911 0.936595 0.559859
Si Si2 0.315594 0.441187 0.817565
Si Si3 0.034200 0.848003 0.010624
Si Si4 0.545843 0.696188 0.487826
Si Si5 0.089283 0.422258 0.602309
Si Si6 0.417849 0.858884 0.659609
Si Si7 0.297216 0.469029 0.396328
Si Si8 0.043847 0.203568 0.753472
O O1 0.715708 0.773215 0.351718
O O2 0.645154 0.841294 0.588708
O O3 0.641678 0.034279 0.446729
O O4 0.965206 0.185114 0.804533
O O5 0.228055 0.497851 0.839739
O O6 0.313984 0.479832 0.634328
O O7 0.441683 0.558869 0.140159
O O8 0.933627 0.681717 0.676842
O O9 0.160153 0.909265 0.140581
O O10 0.000000 0.000000 0.000000
O O11 0.496488 0.801253 0.607798
O O12 0.607853 0.587031 0.588162
O O13 0.044206 0.312512 0.651724
O O14 0.000000 0.500000 0.500000
O O15 0.323690 0.667470 0.491984
O O16 0.500000 0.000000 0.000000
O O17 0.173158 0.311549 0.072617
O O18 0.000000 0.000000 0.500000
#
# Coordination Sequence:
#
# PCOD9058761 Si02
#       8
#     2   2   2   2   2   2   2   2
#     4  11  24  43  70  95 137 184 234 287 359 418
#     4  11  22  48  73  98 139 189 238 293 358 432
#     4  12  23  48  70 102 143 187 240 297 349 433
#     4  11  24  44  72 100 139 191 235 284 366 430
#     4  12  28  45  72 106 145 186 240 298 366 421
#     4  12  26  43  65 107 144 176 233 297 355 422
#     4  11  24  45  73 104 143 184 238 299 356 426
#     4  12  25  45  76 108 140 195 247 290 362 432
#
# _framework density 21.603733999999999
#
# number of rings (size 3 to 8) (size 9 to 14) (size 15 to 20)
#    0.000    0.500    3.750    5.250    3.500    3.500 
#    0.000    0.000    0.000    0.000    0.000    0.000 
#    0.000    0.000    0.000    0.000    0.000    0.000 
#
# Total GULP energy -89311.400827 kJ/mol
# GULP energy per Si atom -5581.962552 kJ/mol
# Density = 2.155456 g / cm^3
# Si number density = 21.603734 Si / 1000 Ang^3
#
#
#
# Elastic Constant Matrix: (Units=GPa)
#
#
# Indices 1 2 3 4 5 6 
#
# 1 83.9104 38.4144 17.2061 -2.7908 10.5670 -0.3603
# 2 38.4144 91.0421 -10.0238 -15.2152 -5.5196 -0.4306
# 3 17.2061 -10.0238 91.6734 12.0111 -1.9917 6.4527
# 4 -2.7908 -15.2152 12.0111 21.2547 5.9778 4.0939
# 5 10.5670 -5.5196 -1.9917 5.9778 39.0744 -1.2795
# 6 -0.3603 -0.4306 6.4527 4.0939 -1.2795 38.0489
#
#
#
# Elastic Compliance Matrix: (Units=1/GPa)
#
#
# Indices 1 2 3 4 5 6 
#
# 1 0.017288 -0.008044 -0.004374 0.000596 -0.006108 0.000545
# 2 -0.008044 0.016257 0.002312 0.008575 0.003242 -0.001098
# 3 -0.004374 0.002312 0.013056 -0.006929 0.003190 -0.001377
# 4 0.000596 0.008575 -0.006929 0.060717 -0.008774 -0.005550
# 5 -0.006108 0.003242 0.003190 -0.008774 0.029252 0.001366
# 6 0.000545 -0.001098 -0.001377 -0.005550 0.001366 0.027151
#
#
# Mechanical properties :
#
#
# Convention : Reuss Voigt Hill
#
# Bulk Modulus (GPa) = 37.89458 39.75770 38.82614
# Shear Modulus (GPa) = 25.94300 34.41088 30.17694
#
# Velocity S-wave (km/s) = 3.46910 3.99535 3.74149
# Velocity P-wave (km/s) = 5.79871 6.30292 6.05607
#
# Compressibility (1/GPa) = 0.02638900
#
# Stress axis : x y z
#
# Youngs Moduli (GPa) = 57.84251 61.51164 76.59318
#
# Poissons Ratio (x) = 0.49482 0.33498
# Poissons Ratio (y) = 0.46531 -0.17706
# Poissons Ratio (z) = 0.25298 -0.14219
#
# Static dielectric constant tensor:
#      x y z
#    x 1.868250 -0.071560 0.040840 
#    y -0.071560 1.820750 -0.015380 
#    z 0.040840 -0.015380 1.827240 
# 
# From -- ./inp_files/329500.got.cif
#   From: 2010.05.17/outbox.cif.g08.bks.cpg/sg2_165_cif.got.tgz:329500.got - 2010.06.03 11:33:40.
