data_PCOD9058585
_publ_section_title
;
Structure prediction by ZEFSAII (Michael W. Deem and Ramdas Pophale) SiO2 
 PCOD9058585
Probable space group: P -1
;
_chemical_formula_sum "Si O2"
_cell_formula_units_Z 14
_cell_length_a 23.183024
_cell_length_b 11.165462
_cell_length_c 15.446820
_cell_angle_alpha 26.877130
_cell_angle_beta 162.630209
_cell_angle_gamma 152.810376
_cell_volume 517.570047
_symmetry_space_group_name_H-M "P -1"
_symmetry_group_IT_number 2
_symmetry_cell_setting 'triclinic'
loop_
_space_group_symop_operation_xyz
x,y,z
-x,-y,-z
loop_
_atom_site_type_symbol
_atom_site_label
_atom_site_fract_x
_atom_site_fract_y
_atom_site_fract_z
Si Si1 0.763314 0.786264 0.296049
Si Si2 0.000880 0.605845 0.203624
Si Si3 0.055500 0.804052 0.843783
Si Si4 0.901484 0.900137 0.117133
Si Si5 0.617985 0.626333 0.747454
Si Si6 0.376103 0.859817 0.671044
Si Si7 0.349071 0.091302 0.663101
O O1 0.891289 0.607822 0.546556
O O2 0.842070 0.824592 0.482553
O O3 0.811345 0.078816 0.125652
O O4 0.525850 0.672504 0.016000
O O5 0.141927 0.700415 0.429028
O O6 0.033242 0.848051 0.021944
O O7 0.775772 0.556258 0.949606
O O8 0.168064 0.995171 0.960381
O O9 0.000000 0.500000 0.000000
O O10 0.122470 0.894846 0.469640
O O11 0.734981 0.657665 0.987087
O O12 0.401954 0.412280 0.557537
O O13 0.594590 0.930427 0.502266
O O14 0.413759 0.054205 0.682616
O O15 0.500000 0.000000 0.000000
#
# Coordination Sequence:
#
# PCOD9058585 Si02
#       7
#     2   2   2   2   2   2   2
#     4  11  26  42  72 103 137 191 234 286 358 409
#     4  11  22  46  72  99 141 184 229 295 353 419
#     4  11  25  44  70 100 148 188 233 288 351 428
#     4  11  23  47  69 103 140 181 238 288 350 420
#     4  11  25  44  73 100 139 189 227 289 361 411
#     4  11  23  46  67 103 136 178 238 288 352 419
#     4  12  26  39  69 104 140 178 238 295 343 415
#
# _framework density 27.049478000000001
#
# number of rings (size 3 to 8) (size 9 to 14) (size 15 to 20)
#    0.000    0.857    4.286    2.571    8.000    1.714 
#    0.000    4.286    0.000    0.000    0.000    0.000 
#    0.000    0.000    0.000    0.000    0.000    0.000 
#
# Total GULP energy -78199.296403 kJ/mol
# GULP energy per Si atom -5585.664029 kJ/mol
# Density = 2.698791 g / cm^3
# Si number density = 27.049478 Si / 1000 Ang^3
#
#
#
# Elastic Constant Matrix: (Units=GPa)
#
#
# Indices 1 2 3 4 5 6 
#
# 1 116.2324 38.5505 39.4879 14.1747 -22.2809 -7.9358
# 2 38.5505 75.6417 25.6052 4.3031 -8.7765 -18.4024
# 3 39.4879 25.6052 157.5417 13.3196 -6.5997 -4.7865
# 4 14.1747 4.3031 13.3196 42.8127 -8.3071 -20.8107
# 5 -22.2809 -8.7765 -6.5997 -8.3071 53.6882 7.5349
# 6 -7.9358 -18.4024 -4.7865 -20.8107 7.5349 45.5898
#
#
#
# Elastic Compliance Matrix: (Units=1/GPa)
#
#
# Indices 1 2 3 4 5 6 
#
# 1 0.011961 -0.005484 -0.001744 -0.003342 0.003679 -0.002449
# 2 -0.005484 0.018387 -0.001745 0.004589 0.000051 0.008371
# 3 -0.001744 -0.001745 0.007199 -0.002110 -0.000287 -0.001168
# 4 -0.003342 0.004589 -0.002110 0.032633 0.001961 0.015621
# 5 0.003679 0.000051 -0.000287 0.001961 0.020695 -0.001895
# 6 -0.002449 0.008371 -0.001168 0.015621 -0.001895 0.032209
#
#
# Mechanical properties :
#
#
# Convention : Reuss Voigt Hill
#
# Bulk Modulus (GPa) = 51.02096 61.85588 56.43842
# Shear Modulus (GPa) = 33.88336 44.80296 39.34316
#
# Velocity S-wave (km/s) = 3.54311 4.07422 3.81791
# Velocity P-wave (km/s) = 5.97003 6.71191 6.35181
#
# Compressibility (1/GPa) = 0.01959979
#
# Stress axis : x y z
#
# Youngs Moduli (GPa) = 83.60777 54.38565 138.90145
#
# Poissons Ratio (x) = 0.29824 0.24229
# Poissons Ratio (y) = 0.45850 0.24245
# Poissons Ratio (z) = 0.14584 0.09493
#
# Static dielectric constant tensor:
#      x y z
#    x 2.124820 -0.019390 0.060900 
#    y -0.019390 2.363680 -0.023390 
#    z 0.060900 -0.023390 2.188120 
# 
# From -- ./inp_files/542847.got.cif
#   From: 2010.05.17/outbox.cif.g08.bks.cpg/sg2_272_cif.got.tgz:542847.got - 2010.06.03 11:33:40.
