data_PCOD9058804
_publ_section_title
;
Structure prediction by ZEFSAII (Michael W. Deem and Ramdas Pophale) SiO2 
 PCOD9058804
Probable space group: P -1
;
_chemical_formula_sum "Si O2"
_cell_formula_units_Z 14
_cell_length_a 8.375778
_cell_length_b 9.162437
_cell_length_c 9.351303
_cell_angle_alpha 74.520935
_cell_angle_beta 69.612749
_cell_angle_gamma 88.881393
_cell_volume 646.142961
_symmetry_space_group_name_H-M "P -1"
_symmetry_group_IT_number 2
_symmetry_cell_setting 'triclinic'
loop_
_space_group_symop_operation_xyz
x,y,z
-x,-y,-z
loop_
_atom_site_type_symbol
_atom_site_label
_atom_site_fract_x
_atom_site_fract_y
_atom_site_fract_z
Si Si1 0.541729 0.677023 0.912765
Si Si2 0.157718 0.689961 0.017604
Si Si3 0.156511 0.229603 0.772565
Si Si4 0.082338 0.561858 0.763002
Si Si5 0.441165 0.132998 0.887584
Si Si6 0.666879 0.324856 0.557718
Si Si7 0.355154 0.333198 0.432052
O O1 0.354242 0.739158 0.949682
O O2 0.628462 0.710095 0.725521
O O3 0.500000 0.500000 0.000000
O O4 0.628327 0.750123 0.006031
O O5 0.107658 0.652790 0.878549
O O6 0.035606 0.801057 0.104783
O O7 0.105683 0.526764 0.156205
O O8 0.192019 0.409965 0.765696
O O9 0.285774 0.118927 0.827973
O O10 0.197742 0.245922 0.588224
O O11 0.150502 0.662457 0.582110
O O12 0.604340 0.202185 0.727162
O O13 0.500000 0.000000 0.000000
O O14 0.525951 0.307156 0.478245
O O15 0.657427 0.486565 0.596278
#
# Coordination Sequence:
#
# PCOD9058804 Si02
#       7
#     2   2   2   2   2   2   2
#     4  12  21  32  54  91 110 127 179 239 265 297
#     4   9  17  29  53  85 105 137 176 221 262 323
#     4   8  17  35  55  73 104 147 178 207 266 332
#     4   8  14  27  56  81 102 131 185 208 267 305
#     4  11  23  36  53  78 113 147 174 222 278 311
#     4   9  15  31  52  77 109 143 175 209 268 328
#     4   9  16  29  54  81 103 135 178 220 260 314
#
# _framework density 21.667031999999999
#
# number of rings (size 3 to 8) (size 9 to 14) (size 15 to 20)
#    0.857    1.714    2.857    1.714    0.000    0.000 
#    0.000    6.429    0.000    0.857    0.000    0.000 
#    0.000    0.000    0.000    0.000    0.000    0.000 
#
# Total GULP energy -77989.253888 kJ/mol
# GULP energy per Si atom -5570.660992 kJ/mol
# Density = 2.161772 g / cm^3
# Si number density = 21.667032 Si / 1000 Ang^3
#
#
#
# Elastic Constant Matrix: (Units=GPa)
#
#
# Indices 1 2 3 4 5 6 
#
# 1 43.6117 1.3881 36.5524 -3.1168 -11.8986 -12.3011
# 2 1.3881 18.8106 23.2362 -8.1571 3.1341 -6.6487
# 3 36.5524 23.2362 194.6120 -2.6552 -24.4956 -11.1134
# 4 -3.1168 -8.1571 -2.6552 29.2389 -8.0138 8.7804
# 5 -11.8986 3.1341 -24.4956 -8.0138 31.0797 1.5518
# 6 -12.3011 -6.6487 -11.1134 8.7804 1.5518 17.2306
#
#
#
# Elastic Compliance Matrix: (Units=1/GPa)
#
#
# Indices 1 2 3 4 5 6 
#
# 1 0.037171 0.013661 -0.006207 0.001114 0.006920 0.026614
# 2 0.013661 0.084858 -0.012282 0.012052 -0.011371 0.029458
# 3 -0.006207 -0.012282 0.008207 -0.000667 0.005359 -0.004020
# 4 0.001114 0.012052 -0.000667 0.046818 0.011751 -0.019900
# 5 0.006920 -0.011371 0.005359 0.011751 0.043520 -0.005899
# 6 0.026614 0.029458 -0.004020 -0.019900 -0.005899 0.096482
#
#
# Mechanical properties :
#
#
# Convention : Reuss Voigt Hill
#
# Bulk Modulus (GPa) = 8.29323 42.15419 25.22371
# Shear Modulus (GPa) = 13.62752 28.56703 21.09727
#
# Velocity S-wave (km/s) = 2.51061 3.63499 3.12381
# Velocity P-wave (km/s) = 3.49859 6.09223 4.96766
#
# Compressibility (1/GPa) = 0.12058035
#
# Stress axis : x y z
#
# Youngs Moduli (GPa) = 26.90259 11.78438 121.85403
#
# Poissons Ratio (x) = -0.16099 0.75631
# Poissons Ratio (y) = -0.36752 1.49665
# Poissons Ratio (z) = 0.16698 0.14474
#
# Static dielectric constant tensor:
#      x y z
#    x 1.877310 -0.025170 -0.039920 
#    y -0.025170 1.849660 -0.013820 
#    z -0.039920 -0.013820 1.816980 
# 
# From -- ./inp_files/153875.got.cif
#   From: 2010.05.17/outbox.cif.g08.bks.cpg/sg2_77_cif.got.tgz:153875.got - 2010.06.03 11:33:40.
