data_PCOD9058565
_publ_section_title
;
Structure prediction by ZEFSAII (Michael W. Deem and Ramdas Pophale) SiO2 
 PCOD9058565
Probable space group: P -1
;
_chemical_formula_sum "Si O2"
_cell_formula_units_Z 16
_cell_length_a 15.472108
_cell_length_b 14.709066
_cell_length_c 7.613899
_cell_angle_alpha 44.610627
_cell_angle_beta 105.916964
_cell_angle_gamma 140.483814
_cell_volume 610.395297
_symmetry_space_group_name_H-M "P -1"
_symmetry_group_IT_number 2
_symmetry_cell_setting 'triclinic'
loop_
_space_group_symop_operation_xyz
x,y,z
-x,-y,-z
loop_
_atom_site_type_symbol
_atom_site_label
_atom_site_fract_x
_atom_site_fract_y
_atom_site_fract_z
Si Si1 0.466425 0.805739 0.198909
Si Si2 0.353872 0.245932 0.659768
Si Si3 0.003078 0.372171 0.511773
Si Si4 0.343662 0.904583 0.416547
Si Si5 0.137145 0.020652 0.527047
Si Si6 0.083324 0.981138 0.166959
Si Si7 0.822907 0.547217 0.197366
Si Si8 0.171589 0.758854 0.845827
O O1 0.584678 0.821535 0.270987
O O2 0.302033 0.564071 0.559417
O O3 0.500000 0.000000 0.000000
O O4 0.490792 0.848517 0.941659
O O5 0.500000 0.500000 0.500000
O O6 0.209691 0.074262 0.966413
O O7 0.274234 0.221727 0.479164
O O8 0.037568 0.366660 0.734682
O O9 0.821601 0.219550 0.584865
O O10 0.154903 0.658548 0.152173
O O11 0.038368 0.293935 0.507364
O O12 0.288517 0.688203 0.656886
O O13 0.334911 0.927436 0.584743
O O14 0.162016 0.898285 0.675196
O O15 0.941576 0.787680 0.815586
O O16 0.158654 0.103991 0.229663
O O17 0.000000 0.000000 0.000000
O O18 0.000000 0.500000 0.000000
#
# Coordination Sequence:
#
# PCOD9058565 Si02
#       8
#     2   2   2   2   2   2   2   2
#     4  10  23  41  71 109 157 196 249 311 386 459
#     4  12  29  51  75 105 154 211 258 314 387 455
#     4  11  19  36  66 108 142 187 244 310 379 453
#     4  10  17  37  62 104 153 191 234 304 387 463
#     4  12  23  46  78 110 149 197 264 320 379 453
#     4  12  27  48  78 109 146 199 266 321 379 458
#     4  11  21  34  70 111 143 192 247 307 386 452
#     4  10  18  33  71 110 145 186 241 310 390 452
#
# _framework density 26.212523000000001
#
# number of rings (size 3 to 8) (size 9 to 14) (size 15 to 20)
#    0.000    1.000    7.500    0.375    5.250    1.000 
#    0.000    1.875    8.250    0.000    0.000    0.000 
#    0.000    0.000    0.000    0.000    0.000    0.000 
#
# Total GULP energy -89332.442891 kJ/mol
# GULP energy per Si atom -5583.277681 kJ/mol
# Density = 2.615286 g / cm^3
# Si number density = 26.212523 Si / 1000 Ang^3
#
#
#
# Elastic Constant Matrix: (Units=GPa)
#
#
# Indices 1 2 3 4 5 6 
#
# 1 154.5511 56.1276 44.6099 0.3677 -11.3936 -8.0730
# 2 56.1276 139.4424 34.8684 16.6348 -1.6602 0.0170
# 3 44.6099 34.8684 71.6208 12.5140 -10.7293 0.0359
# 4 0.3677 16.6348 12.5140 48.8476 -14.5518 1.4603
# 5 -11.3936 -1.6602 -10.7293 -14.5518 43.9703 8.2477
# 6 -8.0730 0.0170 0.0359 1.4603 8.2477 41.4579
#
#
#
# Elastic Compliance Matrix: (Units=1/GPa)
#
#
# Indices 1 2 3 4 5 6 
#
# 1 0.008934 -0.002773 -0.004391 0.002472 0.001710 0.001317
# 2 -0.002773 0.009268 -0.002547 -0.003078 -0.002002 -0.000035
# 3 -0.004391 -0.002547 0.018870 -0.003129 0.002574 -0.001272
# 4 0.002472 -0.003078 -0.003129 0.024859 0.008373 -0.002056
# 5 0.001710 -0.002002 0.002574 0.008373 0.027530 -0.005440
# 6 0.001317 -0.000035 -0.001272 -0.002056 -0.005440 0.025533
#
#
# Mechanical properties :
#
#
# Convention : Reuss Voigt Hill
#
# Bulk Modulus (GPa) = 56.65625 70.75845 63.70735
# Shear Modulus (GPa) = 35.63826 42.18905 38.91365
#
# Velocity S-wave (km/s) = 3.69126 4.01621 3.85716
# Velocity P-wave (km/s) = 6.31097 6.96845 6.64784
#
# Compressibility (1/GPa) = 0.01765030
#
# Stress axis : x y z
#
# Youngs Moduli (GPa) = 111.93606 107.90134 52.99296
#
# Poissons Ratio (x) = 0.29917 0.23269
# Poissons Ratio (y) = 0.31035 0.13498
# Poissons Ratio (z) = 0.49152 0.27484
#
# Static dielectric constant tensor:
#      x y z
#    x 2.158770 -0.031060 0.242880 
#    y -0.031060 2.150580 -0.258050 
#    z 0.242880 -0.258050 3.263160 
# 
# From -- ./inp_files/453627.got.cif
#   From: 2010.05.17/outbox.cif.g08.bks.cpg/sg2_227_cif.got.tgz:453627.got - 2010.06.03 11:33:40.
