data_PCOD9058067
_publ_section_title
;
Structure prediction by ZEFSAII (Michael W. Deem and Ramdas Pophale) SiO2 
 PCOD9058067
Probable space group: P -1
;
_chemical_formula_sum "Si O2"
_cell_formula_units_Z 14
_cell_length_a 10.936622
_cell_length_b 11.171852
_cell_length_c 7.066295
_cell_angle_alpha 60.922009
_cell_angle_beta 71.623070
_cell_angle_gamma 49.962352
_cell_volume 577.699767
_symmetry_space_group_name_H-M "P -1"
_symmetry_group_IT_number 2
_symmetry_cell_setting 'triclinic'
loop_
_space_group_symop_operation_xyz
x,y,z
-x,-y,-z
loop_
_atom_site_type_symbol
_atom_site_label
_atom_site_fract_x
_atom_site_fract_y
_atom_site_fract_z
Si Si1 0.899240 0.641465 0.229819
Si Si2 0.639478 0.221854 0.784032
Si Si3 0.236696 0.329093 0.341507
Si Si4 0.386998 0.178414 0.025912
Si Si5 0.108179 0.066150 0.862652
Si Si6 0.826873 0.106081 0.400729
Si Si7 0.315274 0.596154 0.063131
O O1 0.767518 0.696791 0.414376
O O2 0.969601 0.744255 0.181267
O O3 0.045095 0.444123 0.301443
O O4 0.795021 0.714294 0.038778
O O5 0.696389 0.182532 0.571034
O O6 0.460578 0.281754 0.859151
O O7 0.692615 0.327661 0.783028
O O8 0.741326 0.047269 0.987848
O O9 0.361367 0.172753 0.266837
O O10 0.282282 0.457840 0.188758
O O11 0.500000 0.000000 0.000000
O O12 0.163087 0.026775 0.648984
O O13 0.000000 0.000000 0.000000
O O14 0.781469 0.259939 0.163560
O O15 0.000000 0.000000 0.500000
O O16 0.500000 0.500000 0.000000
#
# Coordination Sequence:
#
# PCOD9058067 Si02
#       7
#     2   2   2   2   2   2   2
#     4  11  26  46  72 101 142 194 238 289 364 432
#     4  11  24  43  68 108 140 183 240 296 360 416
#     4  11  27  49  68 102 146 194 237 293 363 429
#     4  12  26  45  71 103 148 186 237 295 357 439
#     4  11  22  44  70 103 144 177 238 302 352 415
#     4  11  25  41  72 108 137 186 241 299 357 426
#     4  11  25  47  71 102 150 184 235 305 354 424
#
# _framework density 24.23404
#
# number of rings (size 3 to 8) (size 9 to 14) (size 15 to 20)
#    0.000    0.857    4.286    2.143    4.000    2.286 
#    2.571    0.000    0.000    0.000    0.000    0.000 
#    0.000    0.000    0.000    0.000    0.000    0.000 
#
# Total GULP energy -78215.087129 kJ/mol
# GULP energy per Si atom -5586.791938 kJ/mol
# Density = 2.417888 g / cm^3
# Si number density = 24.234040 Si / 1000 Ang^3
#
#
#
# Elastic Constant Matrix: (Units=GPa)
#
#
# Indices 1 2 3 4 5 6 
#
# 1 77.9621 -2.5059 28.2426 -2.0010 -8.2172 4.3405
# 2 -2.5059 71.4856 32.4698 24.0697 -0.7178 -3.0596
# 3 28.2426 32.4698 130.3072 44.8248 -2.3759 5.6353
# 4 -2.0010 24.0697 44.8248 52.4344 -8.6368 -0.7356
# 5 -8.2172 -0.7178 -2.3759 -8.6368 31.4030 5.8869
# 6 4.3405 -3.0596 5.6353 -0.7356 5.8869 11.6356
#
#
#
# Elastic Compliance Matrix: (Units=1/GPa)
#
#
# Indices 1 2 3 4 5 6 
#
# 1 0.015918 0.000822 -0.005227 0.005683 0.006499 -0.006119
# 2 0.000822 0.017556 -0.002851 -0.005903 -0.002452 0.006558
# 3 -0.005227 -0.002851 0.013399 -0.010825 -0.002515 -0.004701
# 4 0.005683 -0.005903 -0.010825 0.032850 0.009815 -0.001318
# 5 0.006499 -0.002452 -0.002515 0.009815 0.040025 -0.021480
# 6 -0.006119 0.006558 -0.004701 -0.001318 -0.021480 0.103011
#
#
# Mechanical properties :
#
#
# Convention : Reuss Voigt Hill
#
# Bulk Modulus (GPa) = 30.90051 44.01868 37.45960
# Shear Modulus (GPa) = 20.15673 33.86451 27.01062
#
# Velocity S-wave (km/s) = 2.88714 3.74223 3.34214
# Velocity P-wave (km/s) = 4.88801 6.07254 5.51219
#
# Compressibility (1/GPa) = 0.03236192
#
# Stress axis : x y z
#
# Youngs Moduli (GPa) = 62.82169 56.96093 74.63521
#
# Poissons Ratio (x) = -0.04682 0.39009
# Poissons Ratio (y) = -0.05163 0.21275
# Poissons Ratio (z) = 0.32834 0.16237
#
# Static dielectric constant tensor:
#      x y z
#    x 1.912230 0.082960 0.004030 
#    y 0.082960 1.923850 -0.005700 
#    z 0.004030 -0.005700 1.896930 
# 
# From -- ./inp_files/68944.got.cif
#   From: 2010.05.17/outbox.cif.g08.bks.cpg/sg2_35_cif.got.tgz:68944.got - 2010.06.03 11:33:40.
