data_PCOD9058876
_publ_section_title
;
Structure prediction by ZEFSAII (Michael W. Deem and Ramdas Pophale) SiO2 
 PCOD9058876
Probable space group: P -1
;
_chemical_formula_sum "Si O2"
_cell_formula_units_Z 14
_cell_length_a 27.106953
_cell_length_b 13.084346
_cell_length_c 5.414481
_cell_angle_alpha 121.328915
_cell_angle_beta 49.637614
_cell_angle_gamma 158.127232
_cell_volume 522.443199
_symmetry_space_group_name_H-M "P -1"
_symmetry_group_IT_number 2
_symmetry_cell_setting 'triclinic'
loop_
_space_group_symop_operation_xyz
x,y,z
-x,-y,-z
loop_
_atom_site_type_symbol
_atom_site_label
_atom_site_fract_x
_atom_site_fract_y
_atom_site_fract_z
Si Si1 0.709681 0.137690 0.649057
Si Si2 0.614030 0.252095 0.189616
Si Si3 0.439009 0.529052 0.641094
Si Si4 0.002764 0.270976 0.778088
Si Si5 0.251140 0.204598 0.328131
Si Si6 0.719991 0.413856 0.543731
Si Si7 0.840350 0.163562 0.563491
O O1 0.876462 0.430436 0.348699
O O2 0.723447 0.069755 0.744809
O O3 0.580908 0.857280 0.553264
O O4 0.667169 0.200846 0.943516
O O5 0.695147 0.440516 0.403481
O O6 0.428475 0.928144 0.403129
O O7 0.684694 0.421777 0.922968
O O8 0.500000 0.500000 0.500000
O O9 0.339891 0.373512 0.512780
O O10 0.349954 0.410318 0.032813
O O11 0.115463 0.374007 0.701235
O O12 0.923485 0.063619 0.549785
O O13 0.881133 0.134958 0.178482
O O14 0.222239 0.012219 0.219144
O O15 0.000000 0.500000 0.500000
#
# Coordination Sequence:
#
# PCOD9058876 Si02
#       7
#     2   2   2   2   2   2   2
#     4  11  23  38  64  90 123 157 207 251 300 353
#     4   9  19  37  56  93 117 153 191 259 299 352
#     4  12  26  41  59  84 126 170 202 244 296 363
#     4  11  23  40  64  92 121 162 201 253 301 363
#     4  12  25  42  57  86 124 165 202 240 304 360
#     4   9  19  35  62  86 123 147 199 246 312 347
#     4  12  23  35  62  94 124 155 203 255 299 359
#
# _framework density 26.797173000000001
#
# number of rings (size 3 to 8) (size 9 to 14) (size 15 to 20)
#    0.000    1.143    4.286    1.714    4.000    2.286 
#    0.000    0.000    0.000    1.714    0.000    0.000 
#    0.000    0.000    0.000    0.000    0.000    0.000 
#
# Total GULP energy -78219.866801 kJ/mol
# GULP energy per Si atom -5587.133343 kJ/mol
# Density = 2.673618 g / cm^3
# Si number density = 26.797173 Si / 1000 Ang^3
#
#
#
# Elastic Constant Matrix: (Units=GPa)
#
#
# Indices 1 2 3 4 5 6 
#
# 1 150.3810 36.9184 65.8787 13.5955 14.6613 40.2964
# 2 36.9184 153.5818 51.3585 12.4677 3.9853 42.2125
# 3 65.8787 51.3585 127.3981 16.6255 29.0710 4.6733
# 4 13.5955 12.4677 16.6255 39.0145 3.3902 12.7221
# 5 14.6613 3.9853 29.0710 3.3902 56.4921 12.6937
# 6 40.2964 42.2125 4.6733 12.7221 12.6937 47.7585
#
#
#
# Elastic Compliance Matrix: (Units=1/GPa)
#
#
# Indices 1 2 3 4 5 6 
#
# 1 0.013197 0.003802 -0.009134 0.002752 0.004321 -0.015484
# 2 0.003802 0.012069 -0.007872 0.002678 0.005485 -0.015276
# 3 -0.009134 -0.007872 0.018284 -0.006887 -0.009970 0.017361
# 4 0.002752 0.002678 -0.006887 0.030729 0.003763 -0.013201
# 5 0.004321 0.005485 -0.009970 0.003763 0.024474 -0.015026
# 6 -0.015484 -0.015276 0.017361 -0.013201 -0.015026 0.053317
#
#
# Mechanical properties :
#
#
# Convention : Reuss Voigt Hill
#
# Bulk Modulus (GPa) = 58.34023 82.18577 70.26300
# Shear Modulus (GPa) = 27.14571 47.13335 37.13953
#
# Velocity S-wave (km/s) = 3.18623 4.19847 3.72687
# Velocity P-wave (km/s) = 5.94595 7.36471 6.69303
#
# Compressibility (1/GPa) = 0.01714083
#
# Stress axis : x y z
#
# Youngs Moduli (GPa) = 75.77637 82.85895 54.69411
#
# Poissons Ratio (x) = -0.31507 0.49959
# Poissons Ratio (y) = -0.28814 0.43056
# Poissons Ratio (z) = 0.69217 0.65228
#
# Static dielectric constant tensor:
#      x y z
#    x 2.200250 0.090820 -0.006950 
#    y 0.090820 2.178650 0.057130 
#    z -0.006950 0.057130 2.117770 
# 
# From -- ./inp_files/128602.got.cif
#   From: 2010.05.17/outbox.cif.g08.bks.cpg/sg2_65_cif.got.tgz:128602.got - 2010.06.03 11:33:40.
