data_PCOD9058258
_publ_section_title
;
Structure prediction by ZEFSAII (Michael W. Deem and Ramdas Pophale) SiO2 
 PCOD9058258
Probable space group: P -1
;
_chemical_formula_sum "Si O2"
_cell_formula_units_Z 14
_cell_length_a 8.465589
_cell_length_b 11.629502
_cell_length_c 8.682082
_cell_angle_alpha 55.816034
_cell_angle_beta 98.026335
_cell_angle_gamma 124.004352
_cell_volume 566.856624
_symmetry_space_group_name_H-M "P -1"
_symmetry_group_IT_number 2
_symmetry_cell_setting 'triclinic'
loop_
_space_group_symop_operation_xyz
x,y,z
-x,-y,-z
loop_
_atom_site_type_symbol
_atom_site_label
_atom_site_fract_x
_atom_site_fract_y
_atom_site_fract_z
Si Si1 0.970327 0.700621 0.393932
Si Si2 0.757765 0.992091 0.594830
Si Si3 0.795762 0.055588 0.022858
Si Si4 0.367716 0.879924 0.799102
Si Si5 0.201736 0.527608 0.194593
Si Si6 0.834000 0.733132 0.856880
Si Si7 0.354895 0.317916 0.820818
O O1 0.946078 0.559276 0.614361
O O2 0.762993 0.636532 0.338167
O O3 0.049526 0.860198 0.399640
O O4 0.128406 0.795011 0.206249
O O5 0.718121 0.074805 0.386652
O O6 0.568439 0.915377 0.737844
O O7 0.781977 0.843981 0.669199
O O8 0.611136 0.006381 0.139012
O O9 0.971163 0.139653 0.109721
O O10 0.755720 0.886435 0.067864
O O11 0.230344 0.688140 0.992273
O O12 0.152319 0.390813 0.158300
O O13 0.416423 0.593586 0.238342
O O14 0.672038 0.641051 0.039586
#
# Coordination Sequence:
#
# PCOD9058258 Si02
#       7
#     2   2   2   2   2   2   2
#     4  11  23  42  70 102 134 180 231 282 331 408
#     4  11  23  47  71 101 132 184 240 265 337 414
#     4  11  23  45  73  99 138 180 234 274 338 408
#     4  11  27  44  68 105 141 180 219 290 342 408
#     4  12  26  42  70 106 145 170 226 287 354 385
#     4  11  22  44  77  98 131 182 235 284 320 409
#     4  11  22  45  69 104 132 180 231 289 325 404
#
# _framework density 24.697603999999998
#
# number of rings (size 3 to 8) (size 9 to 14) (size 15 to 20)
#    0.000    0.857    4.286    2.571    2.000    6.286 
#    0.000    2.857    0.000    0.000    0.000    0.000 
#    0.000    0.000    0.000    0.000    0.000    0.000 
#
# Total GULP energy -78335.020105 kJ/mol
# GULP energy per Si atom -5595.358579 kJ/mol
# Density = 2.464139 g / cm^3
# Si number density = 24.697604 Si / 1000 Ang^3
#
#
#
# Elastic Constant Matrix: (Units=GPa)
#
#
# Indices 1 2 3 4 5 6 
#
# 1 55.9316 16.1541 37.8652 20.1767 -11.3690 -0.9952
# 2 16.1541 79.4470 29.3173 18.4494 10.6349 4.5484
# 3 37.8652 29.3173 193.0091 10.1941 -3.9378 -10.8167
# 4 20.1767 18.4494 10.1941 25.1632 2.9524 1.5010
# 5 -11.3690 10.6349 -3.9378 2.9524 50.5444 7.4347
# 6 -0.9952 4.5484 -10.8167 1.5010 7.4347 39.4270
#
#
#
# Elastic Compliance Matrix: (Units=1/GPa)
#
#
# Indices 1 2 3 4 5 6 
#
# 1 0.031551 -0.000071 -0.004795 -0.024211 0.008323 -0.001159
# 2 -0.000071 0.016280 -0.002038 -0.010640 -0.002756 -0.001514
# 3 -0.004795 -0.002038 0.006381 0.002711 -0.000586 0.001872
# 4 -0.024211 -0.010640 0.002711 0.066660 -0.006908 0.000125
# 5 0.008323 -0.002756 -0.000586 -0.006908 0.023144 -0.003734
# 6 -0.001159 -0.001514 0.001872 0.000125 -0.003734 0.026722
#
#
# Mechanical properties :
#
#
# Convention : Reuss Voigt Hill
#
# Bulk Modulus (GPa) = 24.75057 55.00678 39.87867
# Shear Modulus (GPa) = 25.25074 39.36365 32.30720
#
# Velocity S-wave (km/s) = 3.20096 3.99660 3.62070
# Velocity P-wave (km/s) = 4.86875 6.60436 5.80182
#
# Compressibility (1/GPa) = 0.04040311
#
# Stress axis : x y z
#
# Youngs Moduli (GPa) = 31.69467 61.42517 156.71045
#
# Poissons Ratio (x) = 0.00437 0.75148
# Poissons Ratio (y) = 0.00225 0.31938
# Poissons Ratio (z) = 0.15199 0.12519
#
# Static dielectric constant tensor:
#      x y z
#    x 2.015410 0.025470 -0.029180 
#    y 0.025470 1.907580 -0.003810 
#    z -0.029180 -0.003810 1.971750 
# 
# From -- ./inp_files/158848.got.cif
#   From: 2010.05.17/outbox.cif.g08.bks.cpg/sg2_80_cif.got.tgz:158848.got - 2010.06.03 11:33:40.
