data_PCOD9058961
_publ_section_title
;
Structure prediction by ZEFSAII (Michael W. Deem and Ramdas Pophale) SiO2 
 PCOD9058961
Probable space group: P -1
;
_chemical_formula_sum "Si O2"
_cell_formula_units_Z 14
_cell_length_a 13.636115
_cell_length_b 9.198112
_cell_length_c 11.212646
_cell_angle_alpha 57.434576
_cell_angle_beta 44.273548
_cell_angle_gamma 43.822476
_cell_volume 679.113683
_symmetry_space_group_name_H-M "P -1"
_symmetry_group_IT_number 2
_symmetry_cell_setting 'triclinic'
loop_
_space_group_symop_operation_xyz
x,y,z
-x,-y,-z
loop_
_atom_site_type_symbol
_atom_site_label
_atom_site_fract_x
_atom_site_fract_y
_atom_site_fract_z
Si Si1 0.977022 0.425093 0.926927
Si Si2 0.357134 0.517730 0.895006
Si Si3 0.750234 0.523532 0.746588
Si Si4 0.176880 0.982224 0.842102
Si Si5 0.150912 0.186190 0.538851
Si Si6 0.060577 0.196215 0.341387
Si Si7 0.271759 0.747319 0.311181
O O1 0.958187 0.596228 0.775565
O O2 0.133375 0.187694 0.861109
O O3 0.800487 0.440684 0.064917
O O4 0.000000 0.500000 0.000000
O O5 0.542427 0.364632 0.744515
O O6 0.318929 0.744437 0.861125
O O7 0.350841 0.416077 0.069186
O O8 0.742543 0.711236 0.602874
O O9 0.706669 0.394033 0.757568
O O10 0.953192 0.361158 0.670586
O O11 0.213868 0.010172 0.661037
O O12 0.000000 0.000000 0.000000
O O13 0.133921 0.137152 0.438648
O O14 0.873328 0.241471 0.487015
O O15 0.187720 0.989755 0.244272
#
# Coordination Sequence:
#
# PCOD9058961 Si02
#       7
#     2   2   2   2   2   2   2
#     4  11  23  40  63  89 125 164 201 245 311 369
#     4  11  22  40  59  94 124 158 205 256 298 356
#     4  10  18  35  62  86 119 155 208 249 296 360
#     4  10  20  36  62  89 122 158 202 247 304 359
#     4  10  17  37  64  86 114 165 208 243 292 368
#     4  10  22  42  62  88 123 165 206 247 307 365
#     4  10  23  36  63  90 124 156 205 256 302 356
#
# _framework density 20.615105
#
# number of rings (size 3 to 8) (size 9 to 14) (size 15 to 20)
#    0.000    1.714    4.286    2.143    2.000    4.000 
#    0.000    5.714    0.000    0.000    0.000    0.000 
#    0.000    0.000    0.000    0.000    0.000    0.000 
#
# Total GULP energy -78112.947952 kJ/mol
# GULP energy per Si atom -5579.496282 kJ/mol
# Density = 2.056818 g / cm^3
# Si number density = 20.615105 Si / 1000 Ang^3
#
#
#
# Elastic Constant Matrix: (Units=GPa)
#
#
# Indices 1 2 3 4 5 6 
#
# 1 65.5474 29.4695 30.0442 9.4542 0.5051 17.1710
# 2 29.4695 103.4423 41.4372 -6.3028 -16.4158 5.0775
# 3 30.0442 41.4372 63.8732 -9.7212 3.6845 -2.9458
# 4 9.4542 -6.3028 -9.7212 32.6594 -7.1116 -4.4904
# 5 0.5051 -16.4158 3.6845 -7.1116 25.6613 3.9848
# 6 17.1710 5.0775 -2.9458 -4.4904 3.9848 30.2450
#
#
#
# Elastic Compliance Matrix: (Units=1/GPa)
#
#
# Indices 1 2 3 4 5 6 
#
# 1 0.033322 -0.002619 -0.017821 -0.018915 -0.001470 -0.022828
# 2 -0.002619 0.017213 -0.010382 0.003549 0.014119 -0.003747
# 3 -0.017821 -0.010382 0.034308 0.013678 -0.010313 0.018591
# 4 -0.018915 0.003549 0.013678 0.045488 0.010673 0.016822
# 5 -0.001470 0.014119 -0.010313 0.010673 0.053716 -0.008033
# 6 -0.022828 -0.003747 0.018591 0.016822 -0.008033 0.052019
#
#
# Mechanical properties :
#
#
# Convention : Reuss Voigt Hill
#
# Bulk Modulus (GPa) = 43.10731 48.30717 45.70724
# Shear Modulus (GPa) = 16.36967 26.50728 21.43848
#
# Velocity S-wave (km/s) = 2.82097 3.58972 3.22831
# Velocity P-wave (km/s) = 5.61840 6.37693 6.00964
#
# Compressibility (1/GPa) = 0.02319792
#
# Stress axis : x y z
#
# Youngs Moduli (GPa) = 30.01023 58.09564 29.14803
#
# Poissons Ratio (x) = 0.15218 0.51945
# Poissons Ratio (y) = 0.07861 0.30261
# Poissons Ratio (z) = 0.53482 0.60313
#
# Static dielectric constant tensor:
#      x y z
#    x 1.773080 0.017960 0.005740 
#    y 0.017960 1.778180 -0.004570 
#    z 0.005740 -0.004570 1.737050 
# 
# From -- ./inp_files/444127.got.cif
#   From: 2010.05.17/outbox.cif.g08.bks.cpg/sg2_223_cif.got.tgz:444127.got - 2010.06.03 11:33:40.
