data_PCOD9058806
_publ_section_title
;
Structure prediction by ZEFSAII (Michael W. Deem and Ramdas Pophale) SiO2 
 PCOD9058806
Probable space group: P -1
;
_chemical_formula_sum "Si O2"
_cell_formula_units_Z 16
_cell_length_a 20.846998
_cell_length_b 7.031247
_cell_length_c 9.566553
_cell_angle_alpha 131.273197
_cell_angle_beta 56.647181
_cell_angle_gamma 91.623207
_cell_volume 745.096262
_symmetry_space_group_name_H-M "P -1"
_symmetry_group_IT_number 2
_symmetry_cell_setting 'triclinic'
loop_
_space_group_symop_operation_xyz
x,y,z
-x,-y,-z
loop_
_atom_site_type_symbol
_atom_site_label
_atom_site_fract_x
_atom_site_fract_y
_atom_site_fract_z
Si Si1 0.393261 0.159273 0.169737
Si Si2 0.374015 0.669019 0.608760
Si Si3 0.106384 0.316732 0.116803
Si Si4 0.341806 0.289729 0.971453
Si Si5 0.846794 0.215084 0.662726
Si Si6 0.112879 0.286254 0.416342
Si Si7 0.584274 0.428796 0.173019
Si Si8 0.094139 0.873466 0.743289
O O1 0.345611 0.473132 0.460188
O O2 0.377661 0.216713 0.050835
O O3 0.500000 0.000000 0.000000
O O4 0.371903 0.903548 0.106060
O O5 0.479405 0.546298 0.386163
O O6 0.370320 0.609798 0.748738
O O7 0.328699 0.021489 0.809578
O O8 0.138794 0.543915 0.160233
O O9 0.132079 0.201646 0.189631
O O10 0.996474 0.523370 0.345367
O O11 0.137373 0.046324 0.842383
O O12 0.247331 0.599883 0.216839
O O13 0.407743 0.339638 0.819791
O O14 0.920042 0.066305 0.377021
O O15 0.848880 0.984576 0.655649
O O16 0.144769 0.515644 0.523580
O O17 0.000000 0.000000 0.000000
#
# Coordination Sequence:
#
# PCOD9058806 Si02
#       8
#     2   2   2   2   2   2   2   2
#     4   9  20  38  60  84 110 147 193 236 275 327
#     4   9  19  37  59  81 109 148 190 229 274 333
#     4   9  19  37  59  81 109 148 190 229 274 333
#     4  11  23  36  54  85 120 148 181 231 286 336
#     4  11  23  36  54  85 120 148 181 231 286 336
#     4   9  19  36  59  85 111 144 188 234 277 328
#     4   9  19  36  59  85 111 144 188 234 277 328
#     4   9  20  38  60  84 110 147 193 236 275 327
#
# _framework density 21.473735999999999
#
# number of rings (size 3 to 8) (size 9 to 14) (size 15 to 20)
#    0.000    2.500    0.000    2.250    0.000   11.000 
#    0.000    0.000    0.000    0.000    0.000    0.000 
#    0.000    0.000    0.000    0.000    0.000    0.000 
#
# Total GULP energy -89320.142113 kJ/mol
# GULP energy per Si atom -5582.508882 kJ/mol
# Density = 2.142486 g / cm^3
# Si number density = 21.473736 Si / 1000 Ang^3
#
#
#
# Elastic Constant Matrix: (Units=GPa)
#
#
# Indices 1 2 3 4 5 6 
#
# 1 59.6036 41.5035 43.0597 12.7581 17.6442 4.9696
# 2 41.5035 131.2291 44.9834 34.4808 15.1248 -13.5974
# 3 43.0597 44.9834 81.0212 20.2466 35.7243 -4.3183
# 4 12.7581 34.4808 20.2466 18.7032 13.0621 -4.1304
# 5 17.6442 15.1248 35.7243 13.0621 41.2165 7.0029
# 6 4.9696 -13.5974 -4.3183 -4.1304 7.0029 20.2867
#
#
#
# Elastic Compliance Matrix: (Units=1/GPa)
#
#
# Indices 1 2 3 4 5 6 
#
# 1 0.035232 -0.008062 -0.018928 0.001926 0.007090 -0.020119
# 2 -0.008062 0.018275 -0.000518 -0.030387 0.005819 0.005918
# 3 -0.018928 -0.000518 0.035408 -0.002656 -0.024935 0.019893
# 4 0.001926 -0.030387 -0.002656 0.139590 -0.034846 0.019045
# 5 0.007090 0.005819 -0.024935 -0.034846 0.056820 -0.029853
# 6 -0.020119 0.005918 0.019893 0.019045 -0.029853 0.076606
#
#
# Mechanical properties :
#
#
# Convention : Reuss Voigt Hill
#
# Bulk Modulus (GPa) = 29.50035 58.99411 44.24723
# Shear Modulus (GPa) = 11.67552 25.52844 18.60198
#
# Velocity S-wave (km/s) = 2.33429 3.45167 2.94643
# Velocity P-wave (km/s) = 4.58617 6.58921 5.67673
#
# Compressibility (1/GPa) = 0.03389790
#
# Stress axis : x y z
#
# Youngs Moduli (GPa) = 28.38316 54.72099 28.24211
#
# Poissons Ratio (x) = 0.44119 0.53457
# Poissons Ratio (y) = 0.22884 0.01463
# Poissons Ratio (z) = 0.53723 0.02835
#
# Static dielectric constant tensor:
#      x y z
#    x 1.842690 0.047030 -0.042230 
#    y 0.047030 1.752590 0.001680 
#    z -0.042230 0.001680 1.859030 
# 
# From -- ./inp_files/51118.got.cif
#   From: 2010.05.17/outbox.cif.g08.bks.cpg/sg2_26_cif.got.tgz:51118.got - 2010.06.03 11:33:40.
