data_PCOD9058803
_publ_section_title
;
Structure prediction by ZEFSAII (Michael W. Deem and Ramdas Pophale) SiO2 
 PCOD9058803
Probable space group: P -1
;
_chemical_formula_sum "Si O2"
_cell_formula_units_Z 16
_cell_length_a 7.856042
_cell_length_b 9.655274
_cell_length_c 25.550995
_cell_angle_alpha 133.790125
_cell_angle_beta 30.006983
_cell_angle_gamma 132.537390
_cell_volume 683.666347
_symmetry_space_group_name_H-M "P -1"
_symmetry_group_IT_number 2
_symmetry_cell_setting 'triclinic'
loop_
_space_group_symop_operation_xyz
x,y,z
-x,-y,-z
loop_
_atom_site_type_symbol
_atom_site_label
_atom_site_fract_x
_atom_site_fract_y
_atom_site_fract_z
Si Si1 0.321030 0.273432 0.844418
Si Si2 0.679479 0.384320 0.489062
Si Si3 0.775105 0.998450 0.973445
Si Si4 0.748423 0.384272 0.663688
Si Si5 0.774932 0.334902 0.147649
Si Si6 0.671984 0.401028 0.988811
Si Si7 0.334043 0.271767 0.346099
Si Si8 0.852787 0.023358 0.488037
O O1 0.633627 0.283439 0.723323
O O2 0.995581 0.329286 0.913448
O O3 0.424985 0.438648 0.904228
O O4 0.147843 0.068563 0.864408
O O5 0.532735 0.545178 0.602962
O O6 0.858713 0.495422 0.418191
O O7 0.015201 0.333335 0.415714
O O8 0.415395 0.177943 0.502868
O O9 0.765629 0.163413 0.062922
O O10 0.637101 0.789113 0.982521
O O11 0.500000 0.000000 0.000000
O O12 0.506563 0.539673 0.762275
O O13 0.682790 0.215621 0.592269
O O14 0.629022 0.253867 0.221282
O O15 0.141134 0.490234 0.083852
O O16 0.146595 0.088058 0.382927
O O17 0.000000 0.000000 0.500000
#
# Coordination Sequence:
#
# PCOD9058803 Si02
#       8
#     2   2   2   2   2   2   2   2
#     4   8  14  24  37  61  96 127 158 194 237 296
#     4   9  19  35  53  72  98 130 170 217 257 300
#     4   9  15  23  40  68 105 135 155 193 249 299
#     4   9  18  30  46  69  97 131 169 203 247 298
#     4   9  17  28  44  71 102 132 166 202 243 300
#     4   8  14  23  37  62  97 129 156 191 241 291
#     4   9  19  34  52  75 100 132 171 210 255 305
#     4  11  23  36  52  74 101 134 172 217 261 301
#
# _framework density 23.403230000000001
#
# number of rings (size 3 to 8) (size 9 to 14) (size 15 to 20)
#    0.000    3.000    0.000    3.375    0.000   10.000 
#    0.000    0.000    0.000    0.000    0.000    3.500 
#    0.000   13.000    0.000    0.000    0.000    0.000 
#
# Total GULP energy -89358.729578 kJ/mol
# GULP energy per Si atom -5584.920599 kJ/mol
# Density = 2.334996 g / cm^3
# Si number density = 23.403230 Si / 1000 Ang^3
#
#
#
# Elastic Constant Matrix: (Units=GPa)
#
#
# Indices 1 2 3 4 5 6 
#
# 1 52.4736 43.4569 50.3620 -14.3534 16.2373 -9.6315
# 2 43.4569 209.9662 90.3157 -58.6549 23.8659 0.9946
# 3 50.3620 90.3157 186.7150 -50.8533 47.2797 0.5555
# 4 -14.3534 -58.6549 -50.8533 32.5278 -15.7750 7.0970
# 5 16.2373 23.8659 47.2797 -15.7750 37.6510 -10.9213
# 6 -9.6315 0.9946 0.5555 7.0970 -10.9213 38.6591
#
#
#
# Elastic Compliance Matrix: (Units=1/GPa)
#
#
# Indices 1 2 3 4 5 6 
#
# 1 0.031688 -0.006950 -0.009268 -0.015968 -0.001178 0.010805
# 2 -0.006950 0.011651 0.002546 0.023505 0.000449 -0.006256
# 3 -0.009268 0.002546 0.014980 0.020932 -0.010373 -0.009363
# 4 -0.015968 0.023505 0.020932 0.105399 0.003086 -0.023361
# 5 -0.001178 0.000449 -0.010373 0.003086 0.044543 0.011861
# 6 0.010805 -0.006256 -0.009363 -0.023361 0.011861 0.036494
#
#
# Mechanical properties :
#
#
# Convention : Reuss Voigt Hill
#
# Bulk Modulus (GPa) = 32.28528 90.82489 61.55509
# Shear Modulus (GPa) = 17.70386 39.43559 28.56972
#
# Velocity S-wave (km/s) = 2.75339 4.10939 3.49773
# Velocity P-wave (km/s) = 4.89217 7.83639 6.53232
#
# Compressibility (1/GPa) = 0.03097386
#
# Stress axis : x y z
#
# Youngs Moduli (GPa) = 31.55752 85.83040 66.75660
#
# Poissons Ratio (x) = 0.59650 0.61872
# Poissons Ratio (y) = 0.21932 -0.16994
# Poissons Ratio (z) = 0.29248 -0.21849
#
# Static dielectric constant tensor:
#      x y z
#    x 1.943580 -0.064020 -0.001050 
#    y -0.064020 1.910900 -0.027150 
#    z -0.001050 -0.027150 1.859210 
# 
# From -- ./inp_files/616929.got.cif
#   From: 2010.05.17/outbox.cif.g08.bks.cpg/sg2_309_cif.got.tgz:616929.got - 2010.06.03 11:33:40.
