data_PCOD9058108
_publ_section_title
;
Structure prediction by ZEFSAII (Michael W. Deem and Ramdas Pophale) SiO2 
 PCOD9058108
Probable space group: P -1
;
_chemical_formula_sum "Si O2"
_cell_formula_units_Z 14
_cell_length_a 9.343084
_cell_length_b 6.921893
_cell_length_c 9.793391
_cell_angle_alpha 86.954238
_cell_angle_beta 105.794461
_cell_angle_gamma 86.434813
_cell_volume 606.643595
_symmetry_space_group_name_H-M "P -1"
_symmetry_group_IT_number 2
_symmetry_cell_setting 'triclinic'
loop_
_space_group_symop_operation_xyz
x,y,z
-x,-y,-z
loop_
_atom_site_type_symbol
_atom_site_label
_atom_site_fract_x
_atom_site_fract_y
_atom_site_fract_z
Si Si1 0.265234 0.083399 0.178271
Si Si2 0.028796 0.877574 0.245439
Si Si3 0.224860 0.377705 0.919817
Si Si4 0.217272 0.785760 0.789774
Si Si5 0.625470 0.763069 0.517428
Si Si6 0.419494 0.110387 0.800510
Si Si7 0.290713 0.682414 0.504673
O O1 0.245536 0.277145 0.075704
O O2 0.293930 0.144954 0.338911
O O3 0.124897 0.956092 0.143689
O O4 0.407923 0.948630 0.171330
O O5 0.149434 0.786432 0.387095
O O6 0.930308 0.068047 0.265063
O O7 0.915984 0.719355 0.179907
O O8 0.795677 0.391558 0.103931
O O9 0.367920 0.297101 0.869566
O O10 0.261022 0.695511 0.657421
O O11 0.344643 0.928223 0.853032
O O12 0.645516 0.857375 0.371004
O O13 0.448544 0.768099 0.505754
O O14 0.686361 0.539914 0.527663
#
# Coordination Sequence:
#
# PCOD9058108 Si02
#       7
#     2   2   2   2   2   2   2
#     4  12  24  46  72 101 137 182 227 284 339 399
#     4  11  26  44  70 100 138 184 226 278 339 407
#     4  11  27  47  66 103 145 178 224 276 345 417
#     4  11  24  45  68 102 139 180 223 282 344 400
#     4  11  23  42  76 105 131 175 236 289 332 393
#     4  11  22  47  74 100 133 177 236 284 334 396
#     4  11  22  44  71 105 136 176 231 287 337 396
#
# _framework density 23.077801999999998
#
# number of rings (size 3 to 8) (size 9 to 14) (size 15 to 20)
#    0.000    0.857    4.286    2.571    2.000    2.857 
#    5.143    0.000    0.000    0.000    0.000    0.000 
#    0.000    0.000    0.000    0.000    0.000    0.000 
#
# Total GULP energy -78433.057726 kJ/mol
# GULP energy per Si atom -5602.361266 kJ/mol
# Density = 2.302528 g / cm^3
# Si number density = 23.077802 Si / 1000 Ang^3
#
#
#
# Elastic Constant Matrix: (Units=GPa)
#
#
# Indices 1 2 3 4 5 6 
#
# 1 79.8834 11.3634 -15.1692 5.2173 -14.7646 -10.5243
# 2 11.3634 97.9965 5.8909 -6.0221 -15.2850 -1.5506
# 3 -15.1692 5.8909 92.8507 -14.5207 -2.8411 0.1237
# 4 5.2173 -6.0221 -14.5207 34.4422 8.9714 -7.1642
# 5 -14.7646 -15.2850 -2.8411 8.9714 18.2913 -3.2641
# 6 -10.5243 -1.5506 0.1237 -7.1642 -3.2641 30.4931
#
#
#
# Elastic Compliance Matrix: (Units=1/GPa)
#
#
# Indices 1 2 3 4 5 6 
#
# 1 0.017647 0.000527 0.002648 -0.004898 0.018741 0.006962
# 2 0.000527 0.011860 -0.000438 -0.000659 0.010912 0.001800
# 3 0.002648 -0.000438 0.011994 0.004554 0.001776 0.002103
# 4 -0.004898 -0.000659 0.004554 0.038252 -0.021680 0.004924
# 5 0.018741 0.010912 0.001776 -0.021680 0.091925 0.011762
# 6 0.006962 0.001800 0.002103 0.004924 0.011762 0.037696
#
#
# Mechanical properties :
#
#
# Convention : Reuss Voigt Hill
#
# Bulk Modulus (GPa) = 21.28837 30.54453 25.91645
# Shear Modulus (GPa) = 22.77296 34.55502 28.66399
#
# Velocity S-wave (km/s) = 3.14473 3.87373 3.52811
# Velocity P-wave (km/s) = 4.73607 5.76818 5.27742
#
# Compressibility (1/GPa) = 0.04697401
#
# Stress axis : x y z
#
# Youngs Moduli (GPa) = 56.66677 84.31933 83.37479
#
# Poissons Ratio (x) = -0.04442 -0.22076
# Poissons Ratio (y) = -0.02985 0.03651
# Poissons Ratio (z) = -0.15004 0.03692
#
# Static dielectric constant tensor:
#      x y z
#    x 1.862370 0.003940 -0.017960 
#    y 0.003940 1.851550 -0.012440 
#    z -0.017960 -0.012440 1.861740 
# 
# From -- ./inp_files/154762.got.cif
#   From: 2010.05.17/outbox.cif.g08.bks.cpg/sg2_78_cif.got.tgz:154762.got - 2010.06.03 11:33:40.
