data_PCOD9058277
_publ_section_title
;
Structure prediction by ZEFSAII (Michael W. Deem and Ramdas Pophale) SiO2 
 PCOD9058277
Probable space group: P -1
;
_chemical_formula_sum "Si O2"
_cell_formula_units_Z 14
_cell_length_a 10.969186
_cell_length_b 15.017880
_cell_length_c 11.267910
_cell_angle_alpha 28.738949
_cell_angle_beta 39.728614
_cell_angle_gamma 41.295220
_cell_volume 552.260021
_symmetry_space_group_name_H-M "P -1"
_symmetry_group_IT_number 2
_symmetry_cell_setting 'triclinic'
loop_
_space_group_symop_operation_xyz
x,y,z
-x,-y,-z
loop_
_atom_site_type_symbol
_atom_site_label
_atom_site_fract_x
_atom_site_fract_y
_atom_site_fract_z
Si Si1 0.533347 0.741153 0.651827
Si Si2 0.790911 0.918152 0.100459
Si Si3 0.207589 0.069443 0.170858
Si Si4 0.722028 0.601980 0.123626
Si Si5 0.223942 0.718395 0.710250
Si Si6 0.259937 0.648115 0.375540
Si Si7 0.215675 0.643032 0.146027
O O1 0.637839 0.899717 0.339681
O O2 0.401433 0.697601 0.691886
O O3 0.710641 0.551136 0.757978
O O4 0.620640 0.239237 0.147544
O O5 0.996129 0.763066 0.146406
O O6 0.702074 0.893215 0.065800
O O7 0.836508 0.125341 0.818047
O O8 0.972592 0.151102 0.236455
O O9 0.260368 0.846538 0.422022
O O10 0.251683 0.189460 0.109754
O O11 0.810441 0.476291 0.090312
O O12 0.490909 0.626855 0.248224
O O13 0.795872 0.477239 0.331871
O O14 0.227548 0.581343 0.346112
#
# Coordination Sequence:
#
# PCOD9058277 Si02
#       7
#     2   2   2   2   2   2   2
#     4  11  24  42  71  93 134 181 225 278 336 393
#     4  12  24  43  68 101 133 183 224 275 340 399
#     4  11  24  40  71 102 137 175 223 278 343 397
#     4  11  23  42  68 102 132 177 225 277 338 401
#     4  11  22  45  66 102 140 171 225 285 329 405
#     4  11  24  42  66  97 140 171 227 283 329 403
#     4  11  24  46  64  97 137 177 228 280 326 406
#
# _framework density 25.350375
#
# number of rings (size 3 to 8) (size 9 to 14) (size 15 to 20)
#    0.000    0.857    4.286    3.000    2.000    1.714 
#    0.000    0.000    0.000    0.000    0.000    0.000 
#    0.000    0.000    0.000    0.000    0.000    0.000 
#
# Total GULP energy -78364.689352 kJ/mol
# GULP energy per Si atom -5597.477811 kJ/mol
# Density = 2.529268 g / cm^3
# Si number density = 25.350375 Si / 1000 Ang^3
#
#
#
# Elastic Constant Matrix: (Units=GPa)
#
#
# Indices 1 2 3 4 5 6 
#
# 1 65.5038 25.0114 12.9877 -2.2444 10.1080 1.7953
# 2 25.0114 72.8396 25.9269 4.7053 -3.0064 -7.2439
# 3 12.9877 25.9269 68.0984 0.9806 -2.1592 -4.8958
# 4 -2.2444 4.7053 0.9806 39.2443 5.0782 -5.5085
# 5 10.1080 -3.0064 -2.1592 5.0782 31.0800 -5.1006
# 6 1.7953 -7.2439 -4.8958 -5.5085 -5.1006 30.0613
#
#
#
# Elastic Compliance Matrix: (Units=1/GPa)
#
#
# Indices 1 2 3 4 5 6 
#
# 1 0.019802 -0.007126 -0.001661 0.002528 -0.008334 -0.004121
# 2 -0.007126 0.018880 -0.005314 -0.002547 0.004926 0.004479
# 3 -0.001661 -0.005314 0.017207 0.000186 0.001505 0.001910
# 4 0.002528 -0.002547 0.000186 0.027038 -0.004918 0.003386
# 5 -0.008334 0.004926 0.001505 -0.004918 0.037483 0.007388
# 6 -0.004121 0.004479 0.001910 0.003386 0.007388 0.036776
#
#
# Mechanical properties :
#
#
# Convention : Reuss Voigt Hill
#
# Bulk Modulus (GPa) = 36.11658 37.14377 36.63017
# Shear Modulus (GPa) = 25.69149 29.57817 27.63483
#
# Velocity S-wave (km/s) = 3.18694 3.41951 3.30527
# Velocity P-wave (km/s) = 5.27446 5.50225 5.38956
#
# Compressibility (1/GPa) = 0.02768812
#
# Stress axis : x y z
#
# Youngs Moduli (GPa) = 50.50006 52.96476 58.11563
#
# Poissons Ratio (x) = 0.37740 0.09651
# Poissons Ratio (y) = 0.35984 0.30885
# Poissons Ratio (z) = 0.08386 0.28148
#
# Static dielectric constant tensor:
#      x y z
#    x 1.984160 0.040180 0.003030 
#    y 0.040180 2.036330 0.007960 
#    z 0.003030 0.007960 2.034610 
# 
# From -- ./inp_files/367209.got.cif
#   From: 2010.05.17/outbox.cif.g08.bks.cpg/sg2_184_cif.got.tgz:367209.got - 2010.06.03 11:33:40.
