data_PCOD9058250
_publ_section_title
;
Structure prediction by ZEFSAII (Michael W. Deem and Ramdas Pophale) SiO2 
 PCOD9058250
Probable space group: P -1
;
_chemical_formula_sum "Si O2"
_cell_formula_units_Z 12
_cell_length_a 9.799657
_cell_length_b 15.863841
_cell_length_c 7.477195
_cell_angle_alpha 140.355193
_cell_angle_beta 106.683590
_cell_angle_gamma 48.775828
_cell_volume 495.531408
_symmetry_space_group_name_H-M "P -1"
_symmetry_group_IT_number 2
_symmetry_cell_setting 'triclinic'
loop_
_space_group_symop_operation_xyz
x,y,z
-x,-y,-z
loop_
_atom_site_type_symbol
_atom_site_label
_atom_site_fract_x
_atom_site_fract_y
_atom_site_fract_z
Si Si1 0.774265 0.396100 0.383381
Si Si2 0.767992 0.608608 0.053818
Si Si3 0.580266 0.973205 0.709594
Si Si4 0.537983 0.613709 0.290720
Si Si5 0.159512 0.272516 0.241787
Si Si6 0.760360 0.131350 0.120164
O O1 0.660585 0.519157 0.365738
O O2 0.696383 0.305967 0.272640
O O3 0.000000 0.500000 0.500000
O O4 0.009975 0.246894 0.164926
O O5 0.632547 0.830235 0.344823
O O6 0.668129 0.601374 0.172014
O O7 0.761606 0.510657 0.726751
O O8 0.000000 0.500000 0.000000
O O9 0.712743 0.818541 0.673188
O O10 0.345789 0.138875 0.955382
O O11 0.683316 0.049821 0.860584
O O12 0.330882 0.810632 0.617817
O O13 0.500000 0.500000 0.000000
O O14 0.000000 0.000000 0.000000
#
# Coordination Sequence:
#
# PCOD9058250 Si02
#       6
#     2   2   2   2   2   2
#     4  12  26  48  83 110 155 212 263 317 407 473
#     4  12  25  48  80 116 156 208 260 325 400 469
#     4  11  24  45  77 113 163 200 261 335 388 461
#     4  12  28  50  79 111 154 207 264 324 393 471
#     4  11  22  44  76 114 153 212 258 326 394 467
#     4  12  24  48  76 112 156 208 262 327 390 475
#
# _framework density 24.216425000000001
#
# number of rings (size 3 to 8) (size 9 to 14) (size 15 to 20)
#    0.000    0.333    5.000    4.500    0.000    0.000 
#    0.000    5.833    7.333    0.000    0.000    0.000 
#    0.000    0.000    0.000    0.000    0.000    0.000 
#
# Total GULP energy -67100.232687 kJ/mol
# GULP energy per Si atom -5591.686057 kJ/mol
# Density = 2.416131 g / cm^3
# Si number density = 24.216425 Si / 1000 Ang^3
#
#
#
# Elastic Constant Matrix: (Units=GPa)
#
#
# Indices 1 2 3 4 5 6 
#
# 1 233.0031 64.1492 115.6103 -24.0516 2.3775 26.3671
# 2 64.1492 114.7287 63.1502 -8.9033 -3.4518 24.0036
# 3 115.6103 63.1502 170.7368 13.9612 1.3186 4.0092
# 4 -24.0516 -8.9033 13.9612 44.4712 -7.0734 0.4503
# 5 2.3775 -3.4518 1.3186 -7.0734 72.8506 -0.9598
# 6 26.3671 24.0036 4.0092 0.4503 -0.9598 42.6105
#
#
#
# Elastic Compliance Matrix: (Units=1/GPa)
#
#
# Indices 1 2 3 4 5 6 
#
# 1 0.008673 0.000277 -0.006425 0.006885 0.000449 -0.004981
# 2 0.000277 0.013455 -0.005393 0.004784 0.001095 -0.007269
# 3 -0.006425 -0.005393 0.012791 -0.008797 -0.001054 0.005879
# 4 0.006885 0.004784 -0.008797 0.030477 0.003036 -0.006381
# 5 0.000449 0.001095 -0.001054 0.003036 0.014071 -0.000511
# 6 -0.004981 -0.007269 0.005879 -0.006381 -0.000511 0.030148
#
#
# Mechanical properties :
#
#
# Convention : Reuss Voigt Hill
#
# Bulk Modulus (GPa) = 84.47491 111.58756 98.03123
# Shear Modulus (GPa) = 36.59150 50.35707 43.47428
#
# Velocity S-wave (km/s) = 3.89140 4.56506 4.24162
# Velocity P-wave (km/s) = 7.42629 8.60033 8.03478
#
# Compressibility (1/GPa) = 0.01183783
#
# Stress axis : x y z
#
# Youngs Moduli (GPa) = 115.29914 74.32174 78.17760
#
# Poissons Ratio (x) = -0.02057 0.50226
# Poissons Ratio (y) = -0.03191 0.42161
# Poissons Ratio (z) = 0.74076 0.40081
#
# Static dielectric constant tensor:
#      x y z
#    x 1.924450 0.154180 -0.197840 
#    y 0.154180 3.053680 -0.744560 
#    z -0.197840 -0.744560 2.714160 
# 
# From -- ./inp_files/396639.got.cif
#   From: 2010.05.17/outbox.cif.g08.bks.cpg/sg2_199_cif.got.tgz:396639.got - 2010.06.03 11:33:40.
