data_PCOD9058959
_publ_section_title
;
Structure prediction by ZEFSAII (Michael W. Deem and Ramdas Pophale) SiO2 
 PCOD9058959
Probable space group: P -1
;
_chemical_formula_sum "Si O2"
_cell_formula_units_Z 16
_cell_length_a 26.420427
_cell_length_b 11.285848
_cell_length_c 14.957393
_cell_angle_alpha 142.583855
_cell_angle_beta 156.905705
_cell_angle_gamma 25.520489
_cell_volume 736.527080
_symmetry_space_group_name_H-M "P -1"
_symmetry_group_IT_number 2
_symmetry_cell_setting 'triclinic'
loop_
_space_group_symop_operation_xyz
x,y,z
-x,-y,-z
loop_
_atom_site_type_symbol
_atom_site_label
_atom_site_fract_x
_atom_site_fract_y
_atom_site_fract_z
Si Si1 0.616506 0.952531 0.960451
Si Si2 0.800074 0.690460 0.522472
Si Si3 0.702307 0.070852 0.881294
Si Si4 0.127145 0.411594 0.008904
Si Si5 0.344954 0.633097 0.683510
Si Si6 0.053620 0.583149 0.718176
Si Si7 0.201960 0.724138 0.694662
Si Si8 0.987146 0.062017 0.805837
O O1 0.422638 0.052735 0.685745
O O2 0.739671 0.811096 0.986389
O O3 0.742602 0.702559 0.087832
O O4 0.595173 0.203859 0.106679
O O5 0.820034 0.441998 0.380390
O O6 0.917038 0.578137 0.737684
O O7 0.907203 0.704883 0.633696
O O8 0.724733 0.180299 0.071143
O O9 0.793127 0.767778 0.877518
O O10 0.483390 0.345935 0.677762
O O11 0.828910 0.032889 0.989912
O O12 0.120764 0.651161 0.144570
O O13 0.320269 0.566804 0.702345
O O14 0.147284 0.851771 0.442778
O O15 0.000000 0.500000 0.500000
O O16 0.039166 0.819158 0.802812
O O17 0.000000 0.000000 0.500000
#
# Coordination Sequence:
#
# PCOD9058959 Si02
#       8
#     2   2   2   2   2   2   2   2
#     4  11  23  41  69  97 122 165 219 264 309 370
#     4  11  23  39  66  94 125 166 214 257 313 368
#     4  12  23  38  67  97 131 163 210 259 323 374
#     4  11  25  44  64  94 133 168 204 261 323 385
#     4  12  23  38  68 101 124 163 214 265 315 375
#     4  11  24  43  65  93 128 166 215 265 310 366
#     4  12  18  36  66  98 125 159 206 266 312 369
#     4  12  27  44  62  92 135 171 208 258 322 378
#
# _framework density 21.723572000000001
#
# number of rings (size 3 to 8) (size 9 to 14) (size 15 to 20)
#    0.000    0.500    6.250    3.000    0.000    5.000 
#    0.000    1.250    0.000    0.000    0.000    0.000 
#    0.000    0.000    0.000    0.000    0.000    0.000 
#
# Total GULP energy -89383.174642 kJ/mol
# GULP energy per Si atom -5586.448415 kJ/mol
# Density = 2.167413 g / cm^3
# Si number density = 21.723572 Si / 1000 Ang^3
#
#
#
# Elastic Constant Matrix: (Units=GPa)
#
#
# Indices 1 2 3 4 5 6 
#
# 1 69.2409 43.1531 10.8869 -4.2493 15.6569 21.3972
# 2 43.1531 138.1685 36.0097 -0.3662 12.5263 28.9430
# 3 10.8869 36.0097 83.9632 -23.0240 10.6804 -1.2950
# 4 -4.2493 -0.3662 -23.0240 40.9275 -2.9214 5.2981
# 5 15.6569 12.5263 10.6804 -2.9214 18.6976 6.3643
# 6 21.3972 28.9430 -1.2950 5.2981 6.3643 38.4427
#
#
#
# Elastic Compliance Matrix: (Units=1/GPa)
#
#
# Indices 1 2 3 4 5 6 
#
# 1 0.022665 -0.004742 0.001604 0.003153 -0.013795 -0.007142
# 2 -0.004742 0.011141 -0.005036 -0.002413 0.000962 -0.005745
# 3 0.001604 -0.005036 0.017323 0.008861 -0.007683 0.003533
# 4 0.003153 -0.002413 0.008861 0.030209 -0.000075 -0.003791
# 5 -0.013795 0.000962 -0.007683 -0.000075 0.070455 -0.004958
# 6 -0.007142 -0.005745 0.003533 -0.003791 -0.004958 0.035775
#
#
# Mechanical properties :
#
#
# Convention : Reuss Voigt Hill
#
# Bulk Modulus (GPa) = 28.75027 52.38579 40.56803
# Shear Modulus (GPa) = 23.20071 33.03508 28.11790
#
# Velocity S-wave (km/s) = 3.27157 3.90385 3.60161
# Velocity P-wave (km/s) = 5.24730 6.66987 6.00089
#
# Compressibility (1/GPa) = 0.03478228
#
# Stress axis : x y z
#
# Youngs Moduli (GPa) = 44.12009 89.76053 57.72533
#
# Poissons Ratio (x) = 0.42563 -0.09259
# Poissons Ratio (y) = 0.20921 0.29070
# Poissons Ratio (z) = -0.07077 0.45202
#
# Static dielectric constant tensor:
#      x y z
#    x 1.828190 -0.192470 0.132890 
#    y -0.192470 2.477260 -0.588470 
#    z 0.132890 -0.588470 2.314030 
# 
# From -- ./inp_files/455506.got.cif
#   From: 2010.05.17/outbox.cif.g08.bks.cpg/sg2_228_cif.got.tgz:455506.got - 2010.06.03 11:33:40.
