data_PCOD9058854
_publ_section_title
;
Structure prediction by ZEFSAII (Michael W. Deem and Ramdas Pophale) SiO2 
 PCOD9058854
Probable space group: P -1
;
_chemical_formula_sum "Si O2"
_cell_formula_units_Z 16
_cell_length_a 15.688951
_cell_length_b 32.573422
_cell_length_c 9.186816
_cell_angle_alpha 141.966166
_cell_angle_beta 131.550889
_cell_angle_gamma 16.584018
_cell_volume 704.776399
_symmetry_space_group_name_H-M "P -1"
_symmetry_group_IT_number 2
_symmetry_cell_setting 'triclinic'
loop_
_space_group_symop_operation_xyz
x,y,z
-x,-y,-z
loop_
_atom_site_type_symbol
_atom_site_label
_atom_site_fract_x
_atom_site_fract_y
_atom_site_fract_z
Si Si1 0.582840 0.475879 0.866428
Si Si2 0.735234 0.956066 0.540743
Si Si3 0.464501 0.070829 0.861954
Si Si4 0.550106 0.157374 0.326600
Si Si5 0.656748 0.260935 0.052599
Si Si6 0.470704 0.349208 0.748915
Si Si7 0.198384 0.634297 0.630425
Si Si8 0.754422 0.060577 0.626873
O O1 0.236698 0.655244 0.879590
O O2 0.880945 0.258529 0.551329
O O3 0.500000 0.500000 0.000000
O O4 0.721395 0.474778 0.006823
O O5 0.492551 0.079294 0.749249
O O6 0.665645 0.055992 0.636164
O O7 0.725790 0.894707 0.260470
O O8 0.834501 0.844993 0.725953
O O9 0.349611 0.200569 0.179607
O O10 0.372877 0.325887 0.550718
O O11 0.615653 0.122726 0.478910
O O12 0.932033 0.944514 0.079247
O O13 0.547467 0.311082 0.900859
O O14 0.641680 0.196665 0.926809
O O15 0.355791 0.473450 0.374580
O O16 0.828411 0.163884 0.548107
O O17 0.500000 0.500000 0.500000
#
# Coordination Sequence:
#
# PCOD9058854 Si02
#       8
#     2   2   2   2   2   2   2   2
#     4  12  22  36  57  86 114 139 188 238 273 314
#     4  11  23  38  55  84 120 145 176 236 283 319
#     4  11  23  38  57  82 115 152 184 219 282 337
#     4   9  17  33  55  81 107 148 186 220 273 336
#     4   9  16  31  58  83 106 142 189 227 268 325
#     4   9  16  31  56  81 110 140 184 231 271 322
#     4  12  19  36  61  80 105 149 197 222 260 338
#     4   9  18  33  54  83 113 142 180 233 277 318
#
# _framework density 22.702235000000002
#
# number of rings (size 3 to 8) (size 9 to 14) (size 15 to 20)
#    0.000    1.750    5.000    2.250    0.000    0.500 
#    2.250    3.125    0.000    0.000    0.000    0.000 
#    0.000    0.000    0.000    0.000    0.000    0.000 
#
# Total GULP energy -89181.596507 kJ/mol
# GULP energy per Si atom -5573.849782 kJ/mol
# Density = 2.265056 g / cm^3
# Si number density = 22.702235 Si / 1000 Ang^3
#
#
#
# Elastic Constant Matrix: (Units=GPa)
#
#
# Indices 1 2 3 4 5 6 
#
# 1 126.5982 33.1612 33.8069 6.8262 34.8528 30.4774
# 2 33.1612 59.0548 15.5937 -5.9906 10.1888 10.9695
# 3 33.8069 15.5937 89.7555 1.1654 37.5780 11.2363
# 4 6.8262 -5.9906 1.1654 24.5498 2.4693 8.0960
# 5 34.8528 10.1888 37.5780 2.4693 42.5954 7.5983
# 6 30.4774 10.9695 11.2363 8.0960 7.5983 22.2588
#
#
#
# Elastic Compliance Matrix: (Units=1/GPa)
#
#
# Indices 1 2 3 4 5 6 
#
# 1 0.015207 -0.003972 0.000988 0.001168 -0.009479 -0.016552
# 2 -0.003972 0.021942 -0.001540 0.009148 0.000259 -0.008014
# 3 0.000988 -0.001540 0.018229 0.001734 -0.015720 -0.005061
# 4 0.001168 0.009148 0.001734 0.050932 -0.003276 -0.024390
# 5 -0.009479 0.000259 -0.015720 -0.003276 0.043987 0.006963
# 6 -0.016552 -0.008014 -0.005061 -0.024390 0.006963 0.080588
#
#
# Mechanical properties :
#
#
# Convention : Reuss Voigt Hill
#
# Bulk Modulus (GPa) = 21.58391 48.94800 35.26595
# Shear Modulus (GPa) = 19.57894 30.73724 25.15809
#
# Velocity S-wave (km/s) = 2.93989 3.68357 3.33254
# Velocity P-wave (km/s) = 4.58824 6.30074 5.51141
#
# Compressibility (1/GPa) = 0.04633081
#
# Stress axis : x y z
#
# Youngs Moduli (GPa) = 65.75898 45.57422 54.85687
#
# Poissons Ratio (x) = 0.18100 -0.05419
# Poissons Ratio (y) = 0.26117 0.08449
# Poissons Ratio (z) = -0.06497 0.07019
#
# Static dielectric constant tensor:
#      x y z
#    x 1.844100 -0.006940 0.006890 
#    y -0.006940 1.857510 0.116400 
#    z 0.006890 0.116400 1.707840 
# 
# From -- ./inp_files/260678.got.cif
#   From: 2010.05.17/outbox.cif.g08.bks.cpg/sg2_131_cif.got.tgz:260678.got - 2010.06.03 11:33:40.
