data_PCOD9058501
_publ_section_title
;
Structure prediction by ZEFSAII (Michael W. Deem and Ramdas Pophale) SiO2 
 PCOD9058501
Probable space group: P -1
;
_chemical_formula_sum "Si O2"
_cell_formula_units_Z 14
_cell_length_a 12.457459
_cell_length_b 17.897436
_cell_length_c 7.049433
_cell_angle_alpha 91.367805
_cell_angle_beta 73.469598
_cell_angle_gamma 28.477577
_cell_volume 575.104108
_symmetry_space_group_name_H-M "P -1"
_symmetry_group_IT_number 2
_symmetry_cell_setting 'triclinic'
loop_
_space_group_symop_operation_xyz
x,y,z
-x,-y,-z
loop_
_atom_site_type_symbol
_atom_site_label
_atom_site_fract_x
_atom_site_fract_y
_atom_site_fract_z
Si Si1 0.871536 0.053039 0.767987
Si Si2 0.872525 0.375987 0.401589
Si Si3 0.775649 0.929201 0.274877
Si Si4 0.053692 0.337702 0.966274
Si Si5 0.645774 0.034041 0.786548
Si Si6 0.898288 0.634765 0.447638
Si Si7 0.733079 0.262570 0.131644
O O1 0.129608 0.868794 0.770916
O O2 0.000000 0.000000 0.500000
O O3 0.678597 0.098114 0.840857
O O4 0.704038 0.223248 0.968152
O O5 0.977591 0.369943 0.505843
O O6 0.583661 0.513692 0.631344
O O7 0.136959 0.155078 0.221264
O O8 0.811705 0.459595 0.243816
O O9 0.756167 0.959896 0.509162
O O10 0.455652 0.145519 0.366183
O O11 0.037561 0.816069 0.049370
O O12 0.317066 0.206575 0.955239
O O13 0.995284 0.429503 0.828980
O O14 0.168688 0.192435 0.793622
O O15 0.000000 0.500000 0.500000
#
# Coordination Sequence:
#
# PCOD9058501 Si02
#       7
#     2   2   2   2   2   2   2
#     4  11  25  47  70  99 143 197 232 285 370 427
#     4  12  26  45  72 109 143 187 242 296 360 424
#     4  11  22  49  75 103 143 190 246 292 355 439
#     4  11  24  46  76 107 141 189 247 291 358 437
#     4  11  22  45  80 103 134 200 243 290 358 428
#     4  11  26  44  73 107 145 184 239 308 357 415
#     4  11  28  44  70 108 146 183 238 302 353 429
#
# _framework density 24.343420999999999
#
# number of rings (size 3 to 8) (size 9 to 14) (size 15 to 20)
#    0.000    0.857    4.286    2.143    6.000    4.571 
#    0.000    0.000    0.000    0.000    0.000    0.000 
#    0.000    0.000    0.000    0.000    0.000    0.000 
#
# Total GULP energy -78530.774610 kJ/mol
# GULP energy per Si atom -5609.341044 kJ/mol
# Density = 2.428801 g / cm^3
# Si number density = 24.343421 Si / 1000 Ang^3
#
#
#
# Elastic Constant Matrix: (Units=GPa)
#
#
# Indices 1 2 3 4 5 6 
#
# 1 139.2915 15.9042 33.5780 5.2737 4.6000 8.5360
# 2 15.9042 97.0149 36.1458 -14.7008 -9.0361 6.2283
# 3 33.5780 36.1458 114.6349 -19.6289 -22.6127 -14.0805
# 4 5.2737 -14.7008 -19.6289 37.1538 0.2176 2.2724
# 5 4.6000 -9.0361 -22.6127 0.2176 40.8519 -8.4692
# 6 8.5360 6.2283 -14.0805 2.2724 -8.4692 23.6555
#
#
#
# Elastic Compliance Matrix: (Units=1/GPa)
#
#
# Indices 1 2 3 4 5 6 
#
# 1 0.009379 -0.000034 -0.005572 -0.003738 -0.005877 -0.008438
# 2 -0.000034 0.012806 -0.004545 0.003090 -0.001096 -0.006754
# 3 -0.005572 -0.004545 0.017806 0.007233 0.013132 0.017813
# 4 -0.003738 0.003090 0.007233 0.032224 0.005723 0.003794
# 5 -0.005877 -0.001096 0.013132 0.005723 0.036880 0.022880
# 6 -0.008438 -0.006754 0.017813 0.003794 0.022880 0.065526
#
#
# Mechanical properties :
#
#
# Convention : Reuss Voigt Hill
#
# Bulk Modulus (GPa) = 50.78905 58.02193 54.40549
# Shear Modulus (GPa) = 24.81553 38.01978 31.41766
#
# Velocity S-wave (km/s) = 3.19626 3.95626 3.59639
# Velocity P-wave (km/s) = 5.87625 6.68998 6.29627
#
# Compressibility (1/GPa) = 0.01968928
#
# Stress axis : x y z
#
# Youngs Moduli (GPa) = 106.62079 78.08645 56.16216
#
# Poissons Ratio (x) = 0.00262 0.31296
# Poissons Ratio (y) = 0.00358 0.25525
# Poissons Ratio (z) = 0.59414 0.35489
#
# Static dielectric constant tensor:
#      x y z
#    x 1.884430 -0.008750 0.016060 
#    y -0.008750 1.945280 -0.022250 
#    z 0.016060 -0.022250 1.946530 
# 
# From -- ./inp_files/317096.got.cif
#   From: 2010.05.17/outbox.cif.g08.bks.cpg/sg2_159_cif.got.tgz:317096.got - 2010.06.03 11:33:40.
