data_PCOD9058895
_publ_section_title
;
Structure prediction by ZEFSAII (Michael W. Deem and Ramdas Pophale) SiO2 
 PCOD9058895
Probable space group: P -1
;
_chemical_formula_sum "Si O2"
_cell_formula_units_Z 16
_cell_length_a 11.520937
_cell_length_b 9.288910
_cell_length_c 14.491516
_cell_angle_alpha 148.445047
_cell_angle_beta 110.543176
_cell_angle_gamma 73.183162
_cell_volume 759.819198
_symmetry_space_group_name_H-M "P -1"
_symmetry_group_IT_number 2
_symmetry_cell_setting 'triclinic'
loop_
_space_group_symop_operation_xyz
x,y,z
-x,-y,-z
loop_
_atom_site_type_symbol
_atom_site_label
_atom_site_fract_x
_atom_site_fract_y
_atom_site_fract_z
Si Si1 0.881857 0.777975 0.032172
Si Si2 0.835021 0.249859 0.861221
Si Si3 0.634512 0.455428 0.058116
Si Si4 0.275147 0.753391 0.658414
Si Si5 0.266977 0.475735 0.310454
Si Si6 0.602784 0.988361 0.414475
Si Si7 0.467928 0.016499 0.108806
Si Si8 0.353105 0.206376 0.483721
O O1 0.029549 0.813494 0.097393
O O2 0.817408 0.045570 0.204236
O O3 0.847188 0.513284 0.941692
O O4 0.832528 0.696177 0.871789
O O5 0.769713 0.984104 0.651889
O O6 0.738558 0.321348 0.952838
O O7 0.678992 0.768268 0.258659
O O8 0.500000 0.500000 0.000000
O O9 0.604240 0.255255 0.025813
O O10 0.230230 0.612696 0.472873
O O11 0.401137 0.932561 0.776216
O O12 0.318527 0.500570 0.596487
O O13 0.321476 0.728219 0.402542
O O14 0.380626 0.271699 0.245385
O O15 0.466501 0.069312 0.384069
O O16 0.588850 0.813569 0.409371
O O17 0.500000 0.000000 0.000000
#
# Coordination Sequence:
#
# PCOD9058895 Si02
#       8
#     2   2   2   2   2   2   2   2
#     4  11  26  48  71  95 140 193 228 281 344 411
#     4  11  24  48  69  97 138 181 237 282 338 415
#     4  12  24  40  70 104 133 178 229 285 344 408
#     4  12  25  43  69 104 139 179 227 287 351 406
#     4  12  24  43  68 104 135 179 233 281 343 414
#     4  11  23  38  66 102 133 171 220 286 343 402
#     4  12  24  41  70 105 146 178 223 287 353 407
#     4  11  23  41  65 100 137 171 222 281 344 403
#
# _framework density 21.057641
#
# number of rings (size 3 to 8) (size 9 to 14) (size 15 to 20)
#    0.000    0.500    5.000    4.125    1.750    0.500 
#    2.250    4.375    0.000    0.000    0.000    0.000 
#    0.000    0.000    0.000    0.000    0.000    0.000 
#
# Total GULP energy -89350.815001 kJ/mol
# GULP energy per Si atom -5584.425938 kJ/mol
# Density = 2.100971 g / cm^3
# Si number density = 21.057641 Si / 1000 Ang^3
#
#
#
# Elastic Constant Matrix: (Units=GPa)
#
#
# Indices 1 2 3 4 5 6 
#
# 1 105.4971 39.8843 47.8506 -0.3565 -2.2156 -21.6734
# 2 39.8843 94.1795 35.3989 4.3614 -11.4971 -4.0354
# 3 47.8506 35.3989 121.8395 3.8309 -15.2418 -17.8473
# 4 -0.3565 4.3614 3.8309 40.0990 1.9713 3.3475
# 5 -2.2156 -11.4971 -15.2418 1.9713 26.2964 6.3444
# 6 -21.6734 -4.0354 -17.8473 3.3475 6.3444 29.9420
#
#
#
# Elastic Compliance Matrix: (Units=1/GPa)
#
#
# Indices 1 2 3 4 5 6 
#
# 1 0.014841 -0.005192 -0.003704 0.000570 -0.005358 0.008907
# 2 -0.005192 0.014116 -0.001898 -0.001343 0.005711 -0.004047
# 3 -0.003704 -0.001898 0.011286 -0.001385 0.004797 0.002929
# 4 0.000570 -0.001343 -0.001385 0.025591 -0.002558 -0.002913
# 5 -0.005358 0.005711 0.004797 -0.002558 0.045355 -0.009574
# 6 0.008907 -0.004047 0.002929 -0.002913 -0.009574 0.043400
#
#
# Mechanical properties :
#
#
# Convention : Reuss Voigt Hill
#
# Bulk Modulus (GPa) = 53.60299 63.08709 58.34504
# Shear Modulus (GPa) = 27.41300 32.49297 29.95299
#
# Velocity S-wave (km/s) = 3.61197 3.93243 3.77560
# Velocity P-wave (km/s) = 6.55025 7.11638 6.83918
#
# Compressibility (1/GPa) = 0.01865568
#
# Stress axis : x y z
#
# Youngs Moduli (GPa) = 67.38203 70.84045 88.60305
#
# Poissons Ratio (x) = 0.36778 0.32815
# Poissons Ratio (y) = 0.34983 0.16821
# Poissons Ratio (z) = 0.24956 0.13449
#
# Static dielectric constant tensor:
#      x y z
#    x 1.726710 0.042930 -0.028980 
#    y 0.042930 1.822860 -0.069490 
#    z -0.028980 -0.069490 1.838200 
# 
# From -- ./inp_files/262583.got.cif
#   From: 2010.05.17/outbox.cif.g08.bks.cpg/sg2_132_cif.got.tgz:262583.got - 2010.06.03 11:33:40.
