data_PCOD9058163
_publ_section_title
;
Structure prediction by ZEFSAII (Michael W. Deem and Ramdas Pophale) SiO2 
 PCOD9058163
Probable space group: P -1
;
_chemical_formula_sum "Si O2"
_cell_formula_units_Z 16
_cell_length_a 18.345476
_cell_length_b 9.341767
_cell_length_c 12.325559
_cell_angle_alpha 55.022895
_cell_angle_beta 151.878724
_cell_angle_gamma 131.352409
_cell_volume 747.114030
_symmetry_space_group_name_H-M "P -1"
_symmetry_group_IT_number 2
_symmetry_cell_setting 'triclinic'
loop_
_space_group_symop_operation_xyz
x,y,z
-x,-y,-z
loop_
_atom_site_type_symbol
_atom_site_label
_atom_site_fract_x
_atom_site_fract_y
_atom_site_fract_z
Si Si1 0.687960 0.635903 0.960434
Si Si2 0.508561 0.333338 0.009147
Si Si3 0.206443 0.995282 0.695949
Si Si4 0.013166 0.819477 0.156247
Si Si5 0.025125 0.325211 0.057591
Si Si6 0.582597 0.599637 0.453343
Si Si7 0.651121 0.031733 0.324782
Si Si8 0.138502 0.997308 0.842384
O O1 0.661298 0.451710 0.077308
O O2 0.717680 0.810560 0.005164
O O3 0.846716 0.707044 0.057246
O O4 0.516952 0.555435 0.701116
O O5 0.551038 0.156282 0.180106
O O6 0.500000 0.500000 0.000000
O O7 0.322826 0.222278 0.761170
O O8 0.184859 0.921444 0.823597
O O9 0.303583 0.930294 0.760242
O O10 0.023265 0.959186 0.423803
O O11 0.174545 0.894514 0.412179
O O12 0.028849 0.696585 0.129229
O O13 0.000000 0.000000 0.000000
O O14 0.219271 0.352044 0.306409
O O15 0.917338 0.146002 0.068612
O O16 0.000000 0.500000 0.000000
O O17 0.500000 0.500000 0.500000
O O18 0.565308 0.802213 0.327613
#
# Coordination Sequence:
#
# PCOD9058163 Si02
#       8
#     2   2   2   2   2   2   2   2
#     4  12  22  42  73 100 139 181 240 293 345 421
#     4  12  27  44  66 105 142 181 236 296 352 420
#     4  11  22  44  72  94 142 181 225 281 353 416
#     4  12  22  46  72  99 138 183 240 291 348 424
#     4  12  26  46  70 104 141 183 235 295 353 417
#     4  12  24  44  74 103 138 188 241 290 353 425
#     4  12  25  45  73 100 141 191 231 291 356 422
#     4  11  23  43  72  97 139 184 222 291 348 412
#
# _framework density 21.415741000000001
#
# number of rings (size 3 to 8) (size 9 to 14) (size 15 to 20)
#    0.000    0.250    8.750    0.375    0.000    4.500 
#    0.000    0.625    0.000    0.000    0.000    0.000 
#    0.000    0.000    0.000    0.000    0.000    0.000 
#
# Total GULP energy -89355.058860 kJ/mol
# GULP energy per Si atom -5584.691179 kJ/mol
# Density = 2.136700 g / cm^3
# Si number density = 21.415741 Si / 1000 Ang^3
#
#
#
# Elastic Constant Matrix: (Units=GPa)
#
#
# Indices 1 2 3 4 5 6 
#
# 1 136.7487 51.2560 28.3778 -1.4369 -12.5031 -2.9495
# 2 51.2560 108.6077 39.0586 13.4015 2.3605 -5.3905
# 3 28.3778 39.0586 81.2663 24.9181 -8.7544 -8.4289
# 4 -1.4369 13.4015 24.9181 37.4023 -9.3597 -2.2627
# 5 -12.5031 2.3605 -8.7544 -9.3597 32.6181 11.9567
# 6 -2.9495 -5.3905 -8.4289 -2.2627 11.9567 53.5634
#
#
#
# Elastic Compliance Matrix: (Units=1/GPa)
#
#
# Indices 1 2 3 4 5 6 
#
# 1 0.010083 -0.004719 -0.002301 0.004902 0.005470 -0.001296
# 2 -0.004719 0.013587 -0.004242 -0.003507 -0.005493 0.001518
# 3 -0.002301 -0.004242 0.018702 -0.010743 0.000710 0.001777
# 4 0.004902 -0.003507 -0.010743 0.037959 0.011113 -0.002651
# 5 0.005470 -0.005493 0.000710 0.011113 0.039656 -0.008523
# 6 -0.001296 0.001518 0.001777 -0.002651 -0.008523 0.020821
#
#
# Mechanical properties :
#
#
# Convention : Reuss Voigt Hill
#
# Bulk Modulus (GPa) = 50.37940 62.66751 56.52346
# Shear Modulus (GPa) = 29.42086 38.57877 33.99982
#
# Velocity S-wave (km/s) = 3.71050 4.24892 3.98880
# Velocity P-wave (km/s) = 6.47554 7.30732 6.90397
#
# Compressibility (1/GPa) = 0.01984938
#
# Stress axis : x y z
#
# Youngs Moduli (GPa) = 99.18070 73.59774 53.46962
#
# Poissons Ratio (x) = 0.34730 0.12302
# Poissons Ratio (y) = 0.46803 0.22680
# Poissons Ratio (z) = 0.22819 0.31218
#
# Static dielectric constant tensor:
#      x y z
#    x 1.859540 0.020830 -0.030460 
#    y 0.020830 1.782820 0.022940 
#    z -0.030460 0.022940 1.791080 
# 
# From -- ./inp_files/298053.got.cif
#   From: 2010.05.17/outbox.cif.g08.bks.cpg/sg2_150_cif.got.tgz:298053.got - 2010.06.03 11:33:40.
