data_PCOD9058416
_publ_section_title
;
Structure prediction by ZEFSAII (Michael W. Deem and Ramdas Pophale) SiO2 
 PCOD9058416
Probable space group: P -1
;
_chemical_formula_sum "Si O2"
_cell_formula_units_Z 11
_cell_length_a 14.183138
_cell_length_b 9.203287
_cell_length_c 9.174136
_cell_angle_alpha 46.478687
_cell_angle_beta 54.900929
_cell_angle_gamma 28.861566
_cell_volume 417.790216
_symmetry_space_group_name_H-M "P -1"
_symmetry_group_IT_number 2
_symmetry_cell_setting 'triclinic'
loop_
_space_group_symop_operation_xyz
x,y,z
-x,-y,-z
loop_
_atom_site_type_symbol
_atom_site_label
_atom_site_fract_x
_atom_site_fract_y
_atom_site_fract_z
Si Si1 0.733567 0.397271 0.627561
Si Si2 0.626102 0.580083 0.923302
Si Si3 0.500000 0.000000 0.000000
Si Si4 0.824025 0.874610 0.760498
Si Si5 0.797590 0.760808 0.254126
Si Si6 0.284757 0.910589 0.622804
O O1 0.741735 0.421250 0.777664
O O2 0.772657 0.556295 0.409945
O O3 0.512145 0.653780 0.601462
O O4 0.853392 0.038559 0.711754
O O5 0.402868 0.846638 0.884362
O O6 0.724178 0.288258 0.148959
O O7 0.603307 0.812475 0.877342
O O8 0.360316 0.995187 0.109416
O O9 0.014992 0.465854 0.854973
O O10 0.784264 0.002379 0.540915
O O11 0.822110 0.787977 0.380738
#
# Coordination Sequence:
#
# PCOD9058416 Si02
#       6
#     2   2   1   2   2   2
#     4  11  22  45  73 100 139 185 227 278 352 415
#     4  11  25  46  72 101 138 188 228 280 347 420
#     4  12  26  46  72  96 140 186 236 272 356 404
#     4  12  26  44  73 103 139 180 236 286 338 413
#     4  11  24  44  73 105 138 179 232 287 342 406
#     4  11  23  46  71 102 142 182 228 278 353 414
#
# _framework density 26.329003
#
# number of rings (size 3 to 8) (size 9 to 14) (size 15 to 20)
#    0.000    0.727    1.818    8.182    2.545    0.727 
#    0.000    1.818    0.000    0.000    0.000    0.000 
#    0.000    0.000    0.000    0.000    0.000    0.000 
#
# Total GULP energy -61395.354463 kJ/mol
# GULP energy per Si atom -5581.395860 kJ/mol
# Density = 2.626908 g / cm^3
# Si number density = 26.329003 Si / 1000 Ang^3
#
#
#
# Elastic Constant Matrix: (Units=GPa)
#
#
# Indices 1 2 3 4 5 6 
#
# 1 68.7254 37.4754 37.3094 2.5273 9.3594 34.8441
# 2 37.4754 143.0513 32.5511 6.8114 2.8459 38.1557
# 3 37.3094 32.5511 122.0897 0.2639 -9.6624 8.0402
# 4 2.5273 6.8114 0.2639 39.3356 8.6420 11.1605
# 5 9.3594 2.8459 -9.6624 8.6420 35.1755 10.8651
# 6 34.8441 38.1557 8.0402 11.1605 10.8651 45.0764
#
#
#
# Elastic Compliance Matrix: (Units=1/GPa)
#
#
# Indices 1 2 3 4 5 6 
#
# 1 0.031143 -0.000462 -0.008328 0.005581 -0.004997 -0.022374
# 2 -0.000462 0.009557 -0.001802 0.000335 0.001174 -0.007777
# 3 -0.008328 -0.001802 0.011198 -0.001672 0.004190 0.005370
# 4 0.005581 0.000335 -0.001672 0.029201 -0.006033 -0.010075
# 5 -0.004997 0.001174 0.004190 -0.006033 0.033688 -0.004505
# 6 -0.022374 -0.007777 0.005370 -0.010075 -0.004505 0.048685
#
#
# Mechanical properties :
#
#
# Convention : Reuss Voigt Hill
#
# Bulk Modulus (GPa) = 32.55998 60.94867 46.75433
# Shear Modulus (GPa) = 25.65509 39.01954 32.33731
#
# Velocity S-wave (km/s) = 3.12493 3.85385 3.50837
# Velocity P-wave (km/s) = 5.04120 6.55759 5.84875
#
# Compressibility (1/GPa) = 0.03071255
#
# Stress axis : x y z
#
# Youngs Moduli (GPa) = 32.11040 104.63924 89.30416
#
# Poissons Ratio (x) = 0.04835 0.74370
# Poissons Ratio (y) = 0.01484 0.16096
# Poissons Ratio (z) = 0.26741 0.18860
#
# Static dielectric constant tensor:
#      x y z
#    x 2.088680 -0.053340 0.035890 
#    y -0.053340 2.106450 -0.015290 
#    z 0.035890 -0.015290 2.099340 
# 
# From -- ./inp_files/153488.got.cif
#   From: 2010.05.17/outbox.cif.g08.bks.cpg/sg2_77_cif.got.tgz:153488.got - 2010.06.03 11:33:40.
