data_PCOD9058526
_publ_section_title
;
Structure prediction by ZEFSAII (Michael W. Deem and Ramdas Pophale) SiO2 
 PCOD9058526
Probable space group: P -1
;
_chemical_formula_sum "Si O2"
_cell_formula_units_Z 16
_cell_length_a 12.153452
_cell_length_b 9.160545
_cell_length_c 20.366492
_cell_angle_alpha 36.597621
_cell_angle_beta 30.365849
_cell_angle_gamma 49.899150
_cell_volume 674.445801
_symmetry_space_group_name_H-M "P -1"
_symmetry_group_IT_number 2
_symmetry_cell_setting 'triclinic'
loop_
_space_group_symop_operation_xyz
x,y,z
-x,-y,-z
loop_
_atom_site_type_symbol
_atom_site_label
_atom_site_fract_x
_atom_site_fract_y
_atom_site_fract_z
Si Si1 0.306122 0.430459 0.389691
Si Si2 0.103091 0.433235 0.142627
Si Si3 0.796377 0.621150 0.037742
Si Si4 0.787739 0.080723 0.688339
Si Si5 0.995397 0.812214 0.249696
Si Si6 0.566208 0.132021 0.140800
Si Si7 0.187759 0.339745 0.337261
Si Si8 0.275432 0.315663 0.700054
O O1 0.185758 0.272296 0.568809
O O2 0.248348 0.306581 0.394140
O O3 0.218962 0.696058 0.338345
O O4 0.570034 0.502331 0.232203
O O5 0.218102 0.446939 0.007427
O O6 0.099796 0.150604 0.266031
O O7 0.871908 0.531848 0.233108
O O8 0.259420 0.619309 0.042212
O O9 0.875218 0.913090 0.903296
O O10 0.000000 0.500000 0.000000
O O11 0.538926 0.985765 0.829042
O O12 0.933776 0.211804 0.505913
O O13 0.863458 0.776394 0.261197
O O14 0.172191 0.624709 0.230287
O O15 0.357599 0.218419 0.252147
O O16 0.667360 0.924583 0.204351
O O17 0.500000 0.500000 0.500000
#
# Coordination Sequence:
#
# PCOD9058526 Si02
#       8
#     2   2   2   2   2   2   2   2
#     4  11  25  46  74 105 141 186 236 292 353 415
#     4  12  26  46  68 106 142 181 237 289 354 419
#     4  12  28  46  73 106 147 184 233 294 353 424
#     4  11  24  42  73 101 140 184 234 291 344 426
#     4  11  26  46  75 105 142 185 238 289 350 426
#     4  12  25  43  70 103 142 183 232 292 351 417
#     4  11  22  46  69 104 138 182 236 288 349 413
#     4  12  27  47  71 100 142 189 233 291 354 420
#
# _framework density 23.723182999999999
#
# number of rings (size 3 to 8) (size 9 to 14) (size 15 to 20)
#    0.000    0.500    1.250    7.875    7.000    1.500 
#    0.000    0.000    0.000    0.000    0.000    0.000 
#    0.000    0.000    0.000    0.000    0.000    0.000 
#
# Total GULP energy -89591.586216 kJ/mol
# GULP energy per Si atom -5599.474138 kJ/mol
# Density = 2.366919 g / cm^3
# Si number density = 23.723183 Si / 1000 Ang^3
#
#
#
# Elastic Constant Matrix: (Units=GPa)
#
#
# Indices 1 2 3 4 5 6 
#
# 1 65.4459 24.5525 16.2498 -1.7999 -4.6534 5.4016
# 2 24.5525 104.2440 43.2786 5.3275 7.1106 -14.3387
# 3 16.2498 43.2786 123.4288 7.2291 -13.1942 6.3714
# 4 -1.7999 5.3275 7.2291 45.6152 2.0923 -0.8465
# 5 -4.6534 7.1106 -13.1942 2.0923 35.4799 -2.5045
# 6 5.4016 -14.3387 6.3714 -0.8465 -2.5045 45.0101
#
#
#
# Elastic Compliance Matrix: (Units=1/GPa)
#
#
# Indices 1 2 3 4 5 6 
#
# 1 0.017650 -0.004789 -0.000223 0.001095 0.002885 -0.003431
# 2 -0.004789 0.013913 -0.005006 -0.000697 -0.004854 0.005433
# 3 -0.000223 -0.005006 0.010628 -0.001381 0.004808 -0.002831
# 4 0.001095 -0.000697 -0.001381 0.022340 -0.001535 0.000177
# 5 0.002885 -0.004854 0.004808 -0.001535 0.031354 -0.000857
# 6 -0.003431 0.005433 -0.002831 0.000177 -0.000857 0.024716
#
#
# Mechanical properties :
#
#
# Convention : Reuss Voigt Hill
#
# Bulk Modulus (GPa) = 45.13902 51.25338 48.19620
# Shear Modulus (GPa) = 33.77846 39.15690 36.46768
#
# Velocity S-wave (km/s) = 3.77750 4.06713 3.92499
# Velocity P-wave (km/s) = 6.17209 6.61114 6.39538
#
# Compressibility (1/GPa) = 0.02215378
#
# Stress axis : x y z
#
# Youngs Moduli (GPa) = 56.65605 71.87346 94.09435
#
# Poissons Ratio (x) = 0.34422 0.02099
# Poissons Ratio (y) = 0.27134 0.47108
# Poissons Ratio (z) = 0.01264 0.35983
#
# Static dielectric constant tensor:
#      x y z
#    x 2.127410 0.023880 0.140100 
#    y 0.023880 1.855620 0.014660 
#    z 0.140100 0.014660 2.010400 
# 
# From -- ./inp_files/184248.got.cif
#   From: 2010.05.17/outbox.cif.g08.bks.cpg/sg2_93_cif.got.tgz:184248.got - 2010.06.03 11:33:40.
