data_PCOD9058527
_publ_section_title
;
Structure prediction by ZEFSAII (Michael W. Deem and Ramdas Pophale) SiO2 
 PCOD9058527
Probable space group: P -1
;
_chemical_formula_sum "Si O2"
_cell_formula_units_Z 16
_cell_length_a 13.183155
_cell_length_b 22.692622
_cell_length_c 9.836302
_cell_angle_alpha 44.851780
_cell_angle_beta 35.301191
_cell_angle_gamma 27.124921
_cell_volume 773.601304
_symmetry_space_group_name_H-M "P -1"
_symmetry_group_IT_number 2
_symmetry_cell_setting 'triclinic'
loop_
_space_group_symop_operation_xyz
x,y,z
-x,-y,-z
loop_
_atom_site_type_symbol
_atom_site_label
_atom_site_fract_x
_atom_site_fract_y
_atom_site_fract_z
Si Si1 0.655939 0.913164 0.332802
Si Si2 0.754900 0.378631 0.820828
Si Si3 0.532116 0.224189 0.619826
Si Si4 0.869518 0.169574 0.587257
Si Si5 0.038996 0.512827 0.594567
Si Si6 0.452351 0.681106 0.049543
Si Si7 0.710909 0.110617 0.309075
Si Si8 0.620405 0.900963 0.908720
O O1 0.512957 0.877512 0.506656
O O2 0.981966 0.778555 0.181525
O O3 0.500000 0.000000 0.500000
O O4 0.567813 0.013927 0.154548
O O5 0.908625 0.408688 0.578458
O O6 0.616102 0.381997 0.842034
O O7 0.500000 0.500000 0.000000
O O8 0.754313 0.177095 0.559559
O O9 0.296254 0.375723 0.604012
O O10 0.650287 0.164659 0.438541
O O11 0.398856 0.187550 0.881858
O O12 0.637513 0.284732 0.753218
O O13 0.086892 0.164647 0.335052
O O14 0.015733 0.041777 0.720156
O O15 0.000000 0.500000 0.500000
O O16 0.767807 0.584665 0.848183
O O17 0.306282 0.807290 0.912407
O O18 0.500000 0.000000 0.000000
#
# Coordination Sequence:
#
# PCOD9058527 Si02
#       8
#     2   2   2   2   2   2   2   2
#     4  11  24  43  73 109 145 185 238 300 364 415
#     4  12  24  42  74 105 138 191 244 287 350 432
#     4  12  25  46  75 100 144 192 234 293 356 432
#     4  11  27  44  67 111 140 182 235 293 367 419
#     4  12  25  49  70 103 141 190 244 287 354 431
#     4  12  26  44  73 103 144 182 240 301 346 425
#     4  11  22  46  69 104 146 183 234 297 352 430
#     4  11  25  44  70 104 148 185 234 296 357 426
#
# _framework density 20.682490000000001
#
# number of rings (size 3 to 8) (size 9 to 14) (size 15 to 20)
#    0.000    0.500    6.250    2.250    3.500    3.500 
#    0.000    1.250    0.000    0.000    0.000    0.000 
#    0.000    0.000    0.000    0.000    0.000    0.000 
#
# Total GULP energy -89363.074791 kJ/mol
# GULP energy per Si atom -5585.192174 kJ/mol
# Density = 2.063542 g / cm^3
# Si number density = 20.682490 Si / 1000 Ang^3
#
#
#
# Elastic Constant Matrix: (Units=GPa)
#
#
# Indices 1 2 3 4 5 6 
#
# 1 86.3398 16.2170 33.9582 13.8919 -5.2598 -10.1878
# 2 16.2170 68.6965 16.7682 14.2986 2.1915 -23.6839
# 3 33.9582 16.7682 95.8086 15.6247 4.5603 -14.6524
# 4 13.8919 14.2986 15.6247 55.2916 6.5161 7.2381
# 5 -5.2598 2.1915 4.5603 6.5161 44.6497 3.8700
# 6 -10.1878 -23.6839 -14.6524 7.2381 3.8700 42.5073
#
#
#
# Elastic Compliance Matrix: (Units=1/GPa)
#
#
# Indices 1 2 3 4 5 6 
#
# 1 0.014245 -0.001416 -0.004312 -0.002455 0.002431 0.001335
# 2 -0.001416 0.020509 -0.000114 -0.006367 -0.001294 0.012250
# 3 -0.004312 -0.000114 0.013178 -0.002940 -0.001775 0.004108
# 4 -0.002455 -0.006367 -0.002940 0.022592 -0.002211 -0.008795
# 5 0.002431 -0.001294 -0.001775 -0.002211 0.023468 -0.002511
# 6 0.001335 0.012250 0.004108 -0.008795 -0.002511 0.033813
#
#
# Mechanical properties :
#
#
# Convention : Reuss Voigt Hill
#
# Bulk Modulus (GPa) = 27.58862 42.74794 35.16828
# Shear Modulus (GPa) = 32.98775 40.74981 36.86878
#
# Velocity S-wave (km/s) = 3.99803 4.44357 4.22668
# Velocity P-wave (km/s) = 5.88901 6.85862 6.39222
#
# Compressibility (1/GPa) = 0.03624683
#
# Stress axis : x y z
#
# Youngs Moduli (GPa) = 70.20075 48.75956 75.88482
#
# Poissons Ratio (x) = 0.06906 0.32722
# Poissons Ratio (y) = 0.09942 0.00866
# Poissons Ratio (z) = 0.30271 0.00556
#
# Static dielectric constant tensor:
#      x y z
#    x 1.731750 -0.010150 0.011130 
#    y -0.010150 1.858150 -0.000210 
#    z 0.011130 -0.000210 1.710480 
# 
# From -- ./inp_files/282865.got.cif
#   From: 2010.05.17/outbox.cif.g08.bks.cpg/sg2_142_cif.got.tgz:282865.got - 2010.06.03 11:33:40.
