data_PCOD9058506
_publ_section_title
;
Structure prediction by ZEFSAII (Michael W. Deem and Ramdas Pophale) SiO2 
 PCOD9058506
Probable space group: P -1
;
_chemical_formula_sum "Si O2"
_cell_formula_units_Z 10
_cell_length_a 11.118204
_cell_length_b 9.539401
_cell_length_c 17.643962
_cell_angle_alpha 47.845163
_cell_angle_beta 156.442239
_cell_angle_gamma 139.002365
_cell_volume 489.127255
_symmetry_space_group_name_H-M "P -1"
_symmetry_group_IT_number 2
_symmetry_cell_setting 'triclinic'
loop_
_space_group_symop_operation_xyz
x,y,z
-x,-y,-z
loop_
_atom_site_type_symbol
_atom_site_label
_atom_site_fract_x
_atom_site_fract_y
_atom_site_fract_z
Si Si1 0.461864 0.669674 0.513807
Si Si2 0.796757 0.264373 0.501578
Si Si3 0.268749 0.918912 0.205193
Si Si4 0.353452 0.202323 0.651769
Si Si5 0.800966 0.953539 0.216084
O O1 0.420830 0.736792 0.551213
O O2 0.793611 0.281100 0.703458
O O3 0.384659 0.425224 0.559893
O O4 0.848553 0.821882 0.652650
O O5 0.000000 0.500000 0.500000
O O6 0.064558 0.178824 0.710177
O O7 0.567561 0.111323 0.356549
O O8 0.375019 0.851811 0.212367
O O9 0.000000 0.000000 0.000000
O O10 0.347099 0.192112 0.742058
O O11 0.000000 0.000000 0.500000
O O12 0.500000 0.000000 0.000000
#
# Coordination Sequence:
#
# PCOD9058506 Si02
#       5
#     2   2   2   2   2
#     4  11  24  45  69  89 137 178 209 268 330 386
#     4  11  22  46  65  93 132 175 214 264 324 394
#     4  11  25  41  66  99 129 168 218 272 325 378
#     4  12  23  45  65  95 133 169 218 269 325 385
#     4  11  25  40  67  99 127 170 223 264 320 390
#
# _framework density 20.444576999999999
#
# number of rings (size 3 to 8) (size 9 to 14) (size 15 to 20)
#    0.000    0.800    6.000    3.000    5.600    2.400 
#    0.000    2.000    0.000    0.000    0.000    0.000 
#    0.000    0.000    0.000    0.000    0.000    0.000 
#
# Total GULP energy -55777.747638 kJ/mol
# GULP energy per Si atom -5577.774764 kJ/mol
# Density = 2.039804 g / cm^3
# Si number density = 20.444577 Si / 1000 Ang^3
#
#
#
# Elastic Constant Matrix: (Units=GPa)
#
#
# Indices 1 2 3 4 5 6 
#
# 1 106.9383 33.8029 35.2476 -11.7697 23.5713 8.4035
# 2 33.8029 136.9289 67.7044 -40.7296 9.9294 17.6673
# 3 35.2476 67.7044 171.1948 -42.6442 7.2955 8.0012
# 4 -11.7697 -40.7296 -42.6442 28.2846 -6.2926 -2.5733
# 5 23.5713 9.9294 7.2955 -6.2926 27.0399 -13.6674
# 6 8.4035 17.6673 8.0012 -2.5733 -13.6674 38.8431
#
#
#
# Elastic Compliance Matrix: (Units=1/GPa)
#
#
# Indices 1 2 3 4 5 6 
#
# 1 0.014338 -0.001288 -0.002297 -0.003716 -0.016332 -0.008036
# 2 -0.001288 0.014157 -0.000454 0.018036 -0.002699 -0.005822
# 3 -0.002297 -0.000454 0.009794 0.013916 0.003121 0.000706
# 4 -0.003716 0.018036 0.013916 0.083384 0.012004 -0.000518
# 5 -0.016332 -0.002699 0.003121 0.012004 0.068899 0.029156
# 6 -0.008036 -0.005822 0.000706 -0.000518 0.029156 0.040210
#
#
# Mechanical properties :
#
#
# Convention : Reuss Voigt Hill
#
# Bulk Modulus (GPa) = 33.09967 76.50797 54.80382
# Shear Modulus (GPa) = 20.08599 37.38734 28.73666
#
# Velocity S-wave (km/s) = 3.13782 4.28099 3.75319
# Velocity P-wave (km/s) = 5.41784 7.87015 6.75619
#
# Compressibility (1/GPa) = 0.03021178
#
# Stress axis : x y z
#
# Youngs Moduli (GPa) = 69.74569 70.63624 102.10347
#
# Poissons Ratio (x) = 0.09098 0.23449
# Poissons Ratio (y) = 0.08983 0.04635
# Poissons Ratio (z) = 0.16018 0.03206
#
# Static dielectric constant tensor:
#      x y z
#    x 1.836660 0.018930 -0.002620 
#    y 0.018930 1.750900 0.001580 
#    z -0.002620 0.001580 1.738320 
# 
# From -- ./inp_files/152761.got.cif
#   From: 2010.05.17/outbox.cif.g08.bks.cpg/sg2_77_cif.got.tgz:152761.got - 2010.06.03 11:33:40.
