data_PCOD9058346
_publ_section_title
;
Structure prediction by ZEFSAII (Michael W. Deem and Ramdas Pophale) SiO2 
 PCOD9058346
Probable space group: P -1
;
_chemical_formula_sum "Si O2"
_cell_formula_units_Z 13
_cell_length_a 8.720379
_cell_length_b 10.867361
_cell_length_c 12.820320
_cell_angle_alpha 131.125258
_cell_angle_beta 54.545903
_cell_angle_gamma 139.290117
_cell_volume 588.644430
_symmetry_space_group_name_H-M "P -1"
_symmetry_group_IT_number 2
_symmetry_cell_setting 'triclinic'
loop_
_space_group_symop_operation_xyz
x,y,z
-x,-y,-z
loop_
_atom_site_type_symbol
_atom_site_label
_atom_site_fract_x
_atom_site_fract_y
_atom_site_fract_z
Si Si1 0.500000 0.500000 0.000000
Si Si2 0.687157 0.359217 0.273664
Si Si3 0.071839 0.811839 0.409492
Si Si4 0.842690 0.960817 0.705954
Si Si5 0.262768 0.704810 0.541412
Si Si6 0.485050 0.168552 0.691319
Si Si7 0.974901 0.640861 0.009449
O O1 0.431598 0.293906 0.852251
O O2 0.283618 0.480819 0.008399
O O3 0.834055 0.604010 0.341102
O O4 0.689663 0.327895 0.378733
O O5 0.422206 0.228838 0.261007
O O6 0.834272 0.296742 0.122136
O O7 0.183100 0.971888 0.360618
O O8 0.258228 0.773214 0.346609
O O9 0.998948 0.886023 0.576307
O O10 0.954199 0.154989 0.845420
O O11 0.460710 0.750935 0.404953
O O12 0.000000 0.500000 0.500000
O O13 0.302441 0.922067 0.642834
O O14 0.000000 0.500000 0.000000
#
# Coordination Sequence:
#
# PCOD9058346 Si02
#       7
#     1   2   2   2   2   2   2
#     4  12  26  48  80 104 146 206 240 300 382 444
#     4  12  23  46  70 105 143 193 247 303 363 446
#     4  11  22  45  70 106 140 187 250 299 362 446
#     4  11  25  42  73 103 141 196 238 301 377 428
#     4  11  23  41  72  99 140 190 239 307 363 430
#     4  11  24  45  70 101 149 190 242 308 369 435
#     4  12  26  49  73 107 150 193 244 303 371 433
#
# _framework density 22.08464
#
# number of rings (size 3 to 8) (size 9 to 14) (size 15 to 20)
#    0.000    0.615    6.154    0.923    4.308    0.000 
#    2.769    3.077    0.000    0.000    0.000    0.000 
#    0.000    0.000    0.000    0.000    0.000    0.000 
#
# Total GULP energy -72436.295335 kJ/mol
# GULP energy per Si atom -5572.022718 kJ/mol
# Density = 2.203437 g / cm^3
# Si number density = 22.084640 Si / 1000 Ang^3
#
#
#
# Elastic Constant Matrix: (Units=GPa)
#
#
# Indices 1 2 3 4 5 6 
#
# 1 99.3521 21.4673 1.5811 -3.5561 -4.8815 27.8264
# 2 21.4673 113.8061 35.3880 21.6342 1.6216 22.4473
# 3 1.5811 35.3880 129.2459 46.1393 -6.6095 19.3416
# 4 -3.5561 21.6342 46.1393 27.8040 0.2370 8.6902
# 5 -4.8815 1.6216 -6.6095 0.2370 27.8226 6.2860
# 6 27.8264 22.4473 19.3416 8.6902 6.2860 27.7696
#
#
#
# Elastic Compliance Matrix: (Units=1/GPa)
#
#
# Indices 1 2 3 4 5 6 
#
# 1 0.016772 -0.000934 0.000587 0.008342 0.007772 -0.020830
# 2 -0.000934 0.011608 0.000993 -0.008737 0.000966 -0.006623
# 3 0.000587 0.000993 0.020461 -0.032523 0.006764 -0.006996
# 4 0.008342 -0.008737 -0.032523 0.100692 -0.004549 -0.009124
# 5 0.007772 0.000966 0.006764 -0.004549 0.043814 -0.021774
# 6 -0.020830 -0.006623 -0.006996 -0.009124 -0.021774 0.074894
#
#
# Mechanical properties :
#
#
# Convention : Reuss Voigt Hill
#
# Bulk Modulus (GPa) = 19.94686 51.03076 35.48881
# Shear Modulus (GPa) = 17.62671 35.61042 26.61857
#
# Velocity S-wave (km/s) = 2.82821 4.01989 3.47551
# Velocity P-wave (km/s) = 4.44034 6.68604 5.67537
#
# Compressibility (1/GPa) = 0.05013321
#
# Stress axis : x y z
#
# Youngs Moduli (GPa) = 59.62226 86.14846 48.87292
#
# Poissons Ratio (x) = 0.08049 -0.02871
# Poissons Ratio (y) = 0.05570 -0.04852
# Poissons Ratio (z) = -0.03503 -0.08552
#
# Static dielectric constant tensor:
#      x y z
#    x 1.833920 0.014600 0.018060 
#    y 0.014600 1.817560 -0.013770 
#    z 0.018060 -0.013770 1.803990 
# 
# From -- ./inp_files/498421.got.cif
#   From: 2010.05.17/outbox.cif.g08.bks.cpg/sg2_250_cif.got.tgz:498421.got - 2010.06.03 11:33:40.
