data_PCOD9058979
_publ_section_title
;
Structure prediction by ZEFSAII (Michael W. Deem and Ramdas Pophale) SiO2 
 PCOD9058979
Probable space group: P -1
;
_chemical_formula_sum "Si O2"
_cell_formula_units_Z 16
_cell_length_a 10.025716
_cell_length_b 11.703721
_cell_length_c 5.070125
_cell_angle_alpha 83.416262
_cell_angle_beta 80.962241
_cell_angle_gamma 98.598366
_cell_volume 575.087415
_symmetry_space_group_name_H-M "P -1"
_symmetry_group_IT_number 2
_symmetry_cell_setting 'triclinic'
loop_
_space_group_symop_operation_xyz
x,y,z
-x,-y,-z
loop_
_atom_site_type_symbol
_atom_site_label
_atom_site_fract_x
_atom_site_fract_y
_atom_site_fract_z
Si Si1 0.736579 0.371764 0.014213
Si Si2 0.106498 0.916113 0.019524
Si Si3 0.312767 0.084039 0.270940
Si Si4 0.799531 0.683832 0.740173
Si Si5 0.977647 0.665508 0.209111
Si Si6 0.303414 0.872315 0.613867
Si Si7 0.487070 0.754515 0.197253
Si Si8 0.619661 0.564125 0.256812
O O1 0.709902 0.236045 0.146818
O O2 0.712743 0.460187 0.228286
O O3 0.890918 0.398852 0.844337
O O4 0.608876 0.360897 0.859025
O O5 0.146712 0.887750 0.715437
O O6 0.045700 0.798039 0.217125
O O7 0.234976 0.985797 0.122523
O O8 0.000000 0.000000 0.000000
O O9 0.219845 0.182390 0.324424
O O10 0.356054 0.012338 0.524779
O O11 0.443675 0.154072 0.064315
O O12 0.860751 0.633048 0.474631
O O13 0.659008 0.609155 0.923858
O O14 0.904505 0.672844 0.949409
O O15 0.386364 0.816453 0.383253
O O16 0.608657 0.699609 0.318085
O O17 0.500000 0.500000 0.500000
#
# Coordination Sequence:
#
# PCOD9058979 Si02
#       8
#     2   2   2   2   2   2   2   2
#     4  11  26  43  73 104 139 199 241 310 370 439
#     4  11  23  39  68  99 144 200 232 300 354 449
#     4  11  25  41  67 107 145 193 245 297 369 431
#     4  11  27  48  75 112 149 195 244 312 359 448
#     4  11  26  45  73 111 153 191 251 296 377 436
#     4  11  23  41  66  97 143 186 236 300 355 440
#     4  11  25  45  68 102 142 185 251 305 365 442
#     4  11  25  51  78 103 140 189 250 308 376 436
#
# _framework density 27.821859
#
# number of rings (size 3 to 8) (size 9 to 14) (size 15 to 20)
#    0.000    1.000    2.500    3.000    7.000    7.000 
#    0.000    0.000    0.000    0.000    0.000    0.000 
#    0.000    0.000    0.000    0.000    0.000    0.000 
#
# Total GULP energy -89134.853446 kJ/mol
# GULP energy per Si atom -5570.928340 kJ/mol
# Density = 2.775854 g / cm^3
# Si number density = 27.821859 Si / 1000 Ang^3
#
#
#
# Elastic Constant Matrix: (Units=GPa)
#
#
# Indices 1 2 3 4 5 6 
#
# 1 121.6486 55.3927 55.2562 34.4572 -22.3706 -21.9060
# 2 55.3927 160.4858 48.7633 -18.0897 -8.1517 -7.6444
# 3 55.2562 48.7633 138.8275 7.0917 -37.4304 -19.0085
# 4 34.4572 -18.0897 7.0917 60.5887 -14.5137 7.4703
# 5 -22.3706 -8.1517 -37.4304 -14.5137 56.6013 22.6484
# 6 -21.9060 -7.6444 -19.0085 7.4703 22.6484 37.7895
#
#
#
# Elastic Compliance Matrix: (Units=1/GPa)
#
#
# Indices 1 2 3 4 5 6 
#
# 1 0.018916 -0.006662 -0.004018 -0.015377 -0.005708 0.014058
# 2 -0.006662 0.009688 -0.001336 0.008008 0.002099 -0.005415
# 3 -0.004018 -0.001336 0.010695 0.002406 0.006560 -0.001627
# 4 -0.015377 0.008008 0.002406 0.033129 0.013440 -0.020688
# 5 -0.005708 0.002099 0.006560 0.013440 0.032091 -0.021474
# 6 0.014058 -0.005415 -0.001627 -0.020688 -0.021474 0.049657
#
#
# Mechanical properties :
#
#
# Convention : Reuss Voigt Hill
#
# Bulk Modulus (GPa) = 65.49843 82.19846 73.84845
# Shear Modulus (GPa) = 27.27828 48.43255 37.85541
#
# Velocity S-wave (km/s) = 3.13463 4.17683 3.69268
# Velocity P-wave (km/s) = 6.05759 7.27117 6.69195
#
# Compressibility (1/GPa) = 0.01526754
#
# Stress axis : x y z
#
# Youngs Moduli (GPa) = 52.86468 103.22402 93.50562
#
# Poissons Ratio (x) = 0.68767 0.37568
# Poissons Ratio (y) = 0.35218 0.12491
# Poissons Ratio (z) = 0.21240 0.13789
#
# Static dielectric constant tensor:
#      x y z
#    x 2.771730 -0.034980 0.209090 
#    y -0.034980 2.182550 -0.023030 
#    z 0.209090 -0.023030 2.232460 
# 
# From -- ./inp_files/69607.got.cif
#   From: 2010.05.17/outbox.cif.g08.bks.cpg/sg2_35_cif.got.tgz:69607.got - 2010.06.03 11:33:40.
