data_PCOD9058132
_publ_section_title
;
Structure prediction by ZEFSAII (Michael W. Deem and Ramdas Pophale) SiO2 
 PCOD9058132
Probable space group: P -1
;
_chemical_formula_sum "Si O2"
_cell_formula_units_Z 15
_cell_length_a 8.615591
_cell_length_b 19.039885
_cell_length_c 11.488950
_cell_angle_alpha 29.925066
_cell_angle_beta 125.905804
_cell_angle_gamma 134.794160
_cell_volume 665.639682
_symmetry_space_group_name_H-M "P -1"
_symmetry_group_IT_number 2
_symmetry_cell_setting 'triclinic'
loop_
_space_group_symop_operation_xyz
x,y,z
-x,-y,-z
loop_
_atom_site_type_symbol
_atom_site_label
_atom_site_fract_x
_atom_site_fract_y
_atom_site_fract_z
Si Si1 0.074704 0.053558 0.711734
Si Si2 0.843212 0.346014 0.572646
Si Si3 0.832448 0.398623 0.967749
Si Si4 0.151027 0.278786 0.217432
Si Si5 0.500000 0.000000 0.000000
Si Si6 0.855352 0.695212 0.420451
Si Si7 0.643913 0.739450 0.056928
Si Si8 0.605986 0.526863 0.157214
O O1 0.088241 0.119813 0.491484
O O2 0.075508 0.186451 0.609622
O O3 0.286689 0.032332 0.853211
O O4 0.853186 0.894510 0.876372
O O5 0.708244 0.411623 0.342768
O O6 0.000000 0.500000 0.500000
O O7 0.962481 0.280080 0.632132
O O8 0.671197 0.195938 0.786788
O O9 0.798488 0.522493 0.693918
O O10 0.581752 0.269915 0.071240
O O11 0.000000 0.500000 0.000000
O O12 0.946017 0.309962 0.079245
O O13 0.350339 0.427115 0.161049
O O14 0.264427 0.312176 0.093707
O O15 0.678234 0.725006 0.229487
O O16 0.638185 0.582177 0.223835
#
# Coordination Sequence:
#
# PCOD9058132 Si02
#       8
#     2   2   2   2   1   2   2   2
#     4  12  26  48  69 107 151 190 241 314 373 431
#     4  12  24  44  74 107 142 193 242 301 368 441
#     4  12  24  45  71 104 138 192 246 297 362 449
#     4  11  24  43  71  99 141 192 238 300 366 438
#     4  12  26  46  72 104 152 188 244 308 366 436
#     4  12  25  46  75 105 148 191 245 304 370 440
#     4  12  26  44  70 108 147 188 249 303 367 443
#     4  11  22  44  72 100 139 188 247 296 361 441
#
# _framework density 22.534714000000001
#
# number of rings (size 3 to 8) (size 9 to 14) (size 15 to 20)
#    0.000    0.267    8.000    0.800    0.000    2.133 
#    2.400    0.000    0.000    0.000    0.000    0.000 
#    0.000    0.000    0.000    0.000    0.000    0.000 
#
# Total GULP energy -83524.570900 kJ/mol
# GULP energy per Si atom -5568.304727 kJ/mol
# Density = 2.248342 g / cm^3
# Si number density = 22.534714 Si / 1000 Ang^3
#
#
#
# Elastic Constant Matrix: (Units=GPa)
#
#
# Indices 1 2 3 4 5 6 
#
# 1 91.0059 38.8633 33.2801 -2.0171 13.4695 41.4314
# 2 38.8633 72.8633 36.6338 -9.1961 -5.2146 30.1182
# 3 33.2801 36.6338 119.5718 -10.2984 -6.2455 21.6382
# 4 -2.0171 -9.1961 -10.2984 23.5388 4.2035 -8.1242
# 5 13.4695 -5.2146 -6.2455 4.2035 34.8020 4.4623
# 6 41.4314 30.1182 21.6382 -8.1242 4.4623 48.0575
#
#
#
# Elastic Compliance Matrix: (Units=1/GPa)
#
#
# Indices 1 2 3 4 5 6 
#
# 1 0.021797 -0.005569 -0.002587 -0.005081 -0.007285 -0.014319
# 2 -0.005569 0.022340 -0.003347 0.003156 0.005504 -0.007670
# 3 -0.002587 -0.003347 0.010468 0.002634 0.002077 -0.000133
# 4 -0.005081 0.003156 0.002634 0.048575 -0.004214 0.009820
# 5 -0.007285 0.005504 0.002077 -0.004214 0.033507 -0.001928
# 6 -0.014319 -0.007670 -0.000133 0.009820 -0.001928 0.039859
#
#
# Mechanical properties :
#
#
# Convention : Reuss Voigt Hill
#
# Bulk Modulus (GPa) = 31.64690 55.66618 43.65654
# Shear Modulus (GPa) = 23.79963 32.92389 28.36176
#
# Velocity S-wave (km/s) = 3.25334 3.82649 3.55150
# Velocity P-wave (km/s) = 5.30909 6.65423 6.01935
#
# Compressibility (1/GPa) = 0.03159867
#
# Stress axis : x y z
#
# Youngs Moduli (GPa) = 45.87706 44.76209 95.52774
#
# Poissons Ratio (x) = 0.24928 0.24718
# Poissons Ratio (y) = 0.25549 0.31975
# Poissons Ratio (z) = 0.11871 0.14983
#
# Static dielectric constant tensor:
#      x y z
#    x 1.892380 0.039480 -0.019810 
#    y 0.039480 1.841560 0.029430 
#    z -0.019810 0.029430 1.837680 
# 
# From -- ./inp_files/404607.got.cif
#   From: 2010.05.17/outbox.cif.g08.bks.cpg/sg2_203_cif.got.tgz:404607.got - 2010.06.03 11:33:40.
