data_PCOD9058559
_publ_section_title
;
Structure prediction by ZEFSAII (Michael W. Deem and Ramdas Pophale) SiO2 
 PCOD9058559
Probable space group: P -1
;
_chemical_formula_sum "Si O2"
_cell_formula_units_Z 16
_cell_length_a 9.342776
_cell_length_b 25.807681
_cell_length_c 8.942633
_cell_angle_alpha 42.444318
_cell_angle_beta 77.570642
_cell_angle_gamma 44.827871
_cell_volume 781.654762
_symmetry_space_group_name_H-M "P -1"
_symmetry_group_IT_number 2
_symmetry_cell_setting 'triclinic'
loop_
_space_group_symop_operation_xyz
x,y,z
-x,-y,-z
loop_
_atom_site_type_symbol
_atom_site_label
_atom_site_fract_x
_atom_site_fract_y
_atom_site_fract_z
Si Si1 0.222609 0.859394 0.346590
Si Si2 0.105510 0.875912 0.667073
Si Si3 0.574409 0.654451 0.239427
Si Si4 0.130134 0.337612 0.691704
Si Si5 0.810858 0.657357 0.680862
Si Si6 0.067995 0.673507 0.778018
Si Si7 0.378264 0.646612 0.568748
Si Si8 0.812392 0.849292 0.761817
O O1 0.087064 0.893361 0.457542
O O2 0.492474 0.786226 0.482433
O O3 0.336188 0.736492 0.496085
O O4 0.000000 0.000000 0.000000
O O5 0.952336 0.864244 0.763772
O O6 0.409267 0.737419 0.949223
O O7 0.000000 0.000000 0.500000
O O8 0.641868 0.704789 0.202634
O O9 0.401375 0.674070 0.342479
O O10 0.853602 0.492846 0.484371
O O11 0.131655 0.340712 0.505766
O O12 0.150877 0.242708 0.950627
O O13 0.890227 0.682617 0.736868
O O14 0.000000 0.500000 0.000000
O O15 0.148274 0.689305 0.581840
O O16 0.933120 0.777966 0.721961
O O17 0.342450 0.517643 0.111659
O O18 0.500000 0.000000 0.500000
#
# Coordination Sequence:
#
# PCOD9058559 Si02
#       8
#     2   2   2   2   2   2   2   2
#     4  12  26  46  72 101 145 187 239 293 353 430
#     4  12  28  47  72 101 139 194 239 289 365 437
#     4  11  23  43  74 101 145 181 237 290 357 422
#     4  11  25  43  70 110 142 184 234 297 358 424
#     4  12  25  45  75 106 139 189 246 293 353 431
#     4  11  25  45  73 102 142 184 239 298 354 423
#     4  11  22  46  71 104 142 184 235 299 355 413
#     4  12  28  48  69 101 149 188 236 301 364 425
#
# _framework density 20.469394000000001
#
# number of rings (size 3 to 8) (size 9 to 14) (size 15 to 20)
#    0.000    0.500    5.000    2.250    8.750    0.500 
#    0.000    1.250    0.000    0.000    0.000    0.000 
#    0.000    0.000    0.000    0.000    0.000    0.000 
#
# Total GULP energy -89439.921483 kJ/mol
# GULP energy per Si atom -5589.995093 kJ/mol
# Density = 2.042280 g / cm^3
# Si number density = 20.469394 Si / 1000 Ang^3
#
#
#
# Elastic Constant Matrix: (Units=GPa)
#
#
# Indices 1 2 3 4 5 6 
#
# 1 117.4597 16.9891 62.7797 -13.1121 -7.3281 2.0939
# 2 16.9891 68.1848 42.3546 -6.5375 -9.6756 -3.7130
# 3 62.7797 42.3546 117.9530 6.4744 -6.4463 -9.1619
# 4 -13.1121 -6.5375 6.4744 42.7027 -3.7540 -5.1474
# 5 -7.3281 -9.6756 -6.4463 -3.7540 33.3070 1.7262
# 6 2.0939 -3.7130 -9.1619 -5.1474 1.7262 31.6596
#
#
#
# Elastic Compliance Matrix: (Units=1/GPa)
#
#
# Indices 1 2 3 4 5 6 
#
# 1 0.013562 0.002792 -0.008559 0.005875 0.002917 -0.002250
# 2 0.002792 0.020949 -0.009003 0.005963 0.005612 0.000330
# 3 -0.008559 -0.009003 0.016764 -0.006321 -0.002145 0.003451
# 4 0.005875 0.005963 -0.006321 0.027846 0.004797 0.002747
# 5 0.002917 0.005612 -0.002145 0.004797 0.032481 -0.001147
# 6 -0.002250 0.000330 0.003451 0.002747 -0.001147 0.033281
#
#
# Mechanical properties :
#
#
# Convention : Reuss Voigt Hill
#
# Bulk Modulus (GPa) = 46.00884 60.87159 53.44021
# Shear Modulus (GPa) = 27.52278 33.63216 30.57747
#
# Velocity S-wave (km/s) = 3.67083 4.05785 3.86918
# Velocity P-wave (km/s) = 6.36336 7.19425 6.79153
#
# Compressibility (1/GPa) = 0.02173495
#
# Stress axis : x y z
#
# Youngs Moduli (GPa) = 73.73518 47.73482 59.65213
#
# Poissons Ratio (x) = -0.13327 0.51054
# Poissons Ratio (y) = -0.20586 0.53707
# Poissons Ratio (z) = 0.63107 0.42977
#
# Static dielectric constant tensor:
#      x y z
#    x 1.779930 -0.054560 -0.033610 
#    y -0.054560 1.511490 -0.159680 
#    z -0.033610 -0.159680 1.551940 
# 
# From -- ./inp_files/208432.got.cif
#   From: 2010.05.17/outbox.cif.g08.bks.cpg/sg2_105_cif.got.tgz:208432.got - 2010.06.03 11:33:40.
