data_PCOD9058076
_publ_section_title
;
Structure prediction by ZEFSAII (Michael W. Deem and Ramdas Pophale) SiO2 
 PCOD9058076
Probable space group: P -1
;
_chemical_formula_sum "Si O2"
_cell_formula_units_Z 16
_cell_length_a 11.188278
_cell_length_b 11.665744
_cell_length_c 8.378267
_cell_angle_alpha 131.785577
_cell_angle_beta 102.800702
_cell_angle_gamma 94.464164
_cell_volume 755.923379
_symmetry_space_group_name_H-M "P -1"
_symmetry_group_IT_number 2
_symmetry_cell_setting 'triclinic'
loop_
_space_group_symop_operation_xyz
x,y,z
-x,-y,-z
loop_
_atom_site_type_symbol
_atom_site_label
_atom_site_fract_x
_atom_site_fract_y
_atom_site_fract_z
Si Si1 0.902706 0.561099 0.257146
Si Si2 0.812625 0.268242 0.559468
Si Si3 0.902473 0.067900 0.639760
Si Si4 0.691500 0.518601 0.886805
Si Si5 0.816367 0.816603 0.652043
Si Si6 0.790148 0.386885 0.351068
Si Si7 0.878557 0.720216 0.890806
Si Si8 0.433658 0.483187 0.640105
O O1 0.904211 0.718404 0.505753
O O2 0.870236 0.415168 0.238788
O O3 0.041466 0.607669 0.260014
O O4 0.779613 0.537382 0.085837
O O5 0.813126 0.122321 0.537994
O O6 0.710032 0.357062 0.663676
O O7 0.795157 0.247269 0.343907
O O8 0.823472 0.950384 0.645766
O O9 0.000000 0.000000 0.500000
O O10 0.996235 0.216552 0.905275
O O11 0.761833 0.670654 0.935933
O O12 0.543495 0.507590 0.827898
O O13 0.870739 0.853475 0.882144
O O14 0.674039 0.689879 0.521098
O O15 0.850960 0.552873 0.627079
O O16 0.648257 0.391131 0.267688
O O17 0.500000 0.500000 0.500000
#
# Coordination Sequence:
#
# PCOD9058076 Si02
#       8
#     2   2   2   2   2   2   2   2
#     4  10  19  34  52  87 113 131 180 229 276 319
#     4  11  20  33  53  78 117 139 173 224 278 325
#     4  12  22  36  51  77 117 146 180 218 267 334
#     4  11  19  33  60  86 103 145 173 233 277 303
#     4  10  21  36  54  81 108 151 183 211 268 326
#     4   9  21  33  56  85 104 144 176 229 275 308
#     4   9  18  33  55  77 107 138 179 222 270 320
#     4  10  17  37  59  78 110 136 190 221 262 325
#
# _framework density 21.166166
#
# number of rings (size 3 to 8) (size 9 to 14) (size 15 to 20)
#    0.000    2.000    6.250    1.125    1.750    2.000 
#    0.000    0.625    0.000    0.000    0.000   14.875 
#    0.000    0.000    0.000    0.000    0.000    0.000 
#
# Total GULP energy -89151.403641 kJ/mol
# GULP energy per Si atom -5571.962728 kJ/mol
# Density = 2.111799 g / cm^3
# Si number density = 21.166166 Si / 1000 Ang^3
#
#
#
# Elastic Constant Matrix: (Units=GPa)
#
#
# Indices 1 2 3 4 5 6 
#
# 1 87.2805 21.9726 16.1090 -6.4609 20.7840 -8.4737
# 2 21.9726 173.1637 10.8234 -37.2152 9.3373 -1.3292
# 3 16.1090 10.8234 42.7253 -22.7140 8.9580 -6.8082
# 4 -6.4609 -37.2152 -22.7140 35.7915 -6.6366 8.7565
# 5 20.7840 9.3373 8.9580 -6.6366 30.2446 -8.6635
# 6 -8.4737 -1.3292 -6.8082 8.7565 -8.6635 32.5170
#
#
#
# Elastic Compliance Matrix: (Units=1/GPa)
#
#
# Indices 1 2 3 4 5 6 
#
# 1 0.014878 -0.002186 -0.005799 -0.005264 -0.008492 0.001729
# 2 -0.002186 0.008287 0.004660 0.011696 -0.000606 -0.002566
# 3 -0.005799 0.004660 0.040400 0.029196 -0.003487 -0.001653
# 4 -0.005264 0.011696 0.029196 0.060585 0.001597 -0.010670
# 5 -0.008492 -0.000606 -0.003487 0.001597 0.042760 0.007995
# 6 0.001729 -0.002566 -0.001653 -0.010670 0.007995 0.035756
#
#
# Mechanical properties :
#
#
# Convention : Reuss Voigt Hill
#
# Bulk Modulus (GPa) = 17.56919 44.55327 31.06123
# Shear Modulus (GPa) = 21.90233 36.66160 29.28196
#
# Velocity S-wave (km/s) = 3.22029 4.16635 3.72349
# Velocity P-wave (km/s) = 4.70592 6.65128 5.76130
#
# Compressibility (1/GPa) = 0.05691783
#
# Stress axis : x y z
#
# Youngs Moduli (GPa) = 67.21287 120.66479 24.75251
#
# Poissons Ratio (x) = 0.26373 0.14353
# Poissons Ratio (y) = 0.14690 -0.11536
# Poissons Ratio (z) = 0.38975 -0.56236
#
# Static dielectric constant tensor:
#      x y z
#    x 1.776210 -0.013570 -0.030980 
#    y -0.013570 1.886710 -0.023680 
#    z -0.030980 -0.023680 1.824190 
# 
# From -- ./inp_files/260216.got.cif
#   From: 2010.05.17/outbox.cif.g08.bks.cpg/sg2_131_cif.got.tgz:260216.got - 2010.06.03 11:33:40.
