data_PCOD9058257
_publ_section_title
;
Structure prediction by ZEFSAII (Michael W. Deem and Ramdas Pophale) SiO2 
 PCOD9058257
Probable space group: P -1
;
_chemical_formula_sum "Si O2"
_cell_formula_units_Z 16
_cell_length_a 12.884519
_cell_length_b 26.978169
_cell_length_c 9.285540
_cell_angle_alpha 155.224332
_cell_angle_beta 34.449842
_cell_angle_gamma 151.833177
_cell_volume 633.692481
_symmetry_space_group_name_H-M "P -1"
_symmetry_group_IT_number 2
_symmetry_cell_setting 'triclinic'
loop_
_space_group_symop_operation_xyz
x,y,z
-x,-y,-z
loop_
_atom_site_type_symbol
_atom_site_label
_atom_site_fract_x
_atom_site_fract_y
_atom_site_fract_z
Si Si1 0.901296 0.145079 0.883859
Si Si2 0.539123 0.453603 0.677582
Si Si3 0.466807 0.651276 0.104003
Si Si4 0.997946 0.541203 0.444554
Si Si5 0.663185 0.980962 0.460058
Si Si6 0.227990 0.880067 0.588515
Si Si7 0.273630 0.089613 0.298126
Si Si8 0.248275 0.242513 0.224368
O O1 0.107893 0.137498 0.582167
O O2 0.697913 0.046765 0.750319
O O3 0.840152 0.060936 0.882509
O O4 0.957620 0.302586 0.220292
O O5 0.329501 0.317642 0.483286
O O6 0.744714 0.438395 0.411361
O O7 0.500000 0.500000 0.000000
O O8 0.578644 0.576849 0.849948
O O9 0.201384 0.550454 0.156296
O O10 0.546959 0.788522 0.477461
O O11 0.560770 0.688267 0.933339
O O12 0.000000 0.500000 0.500000
O O13 0.407363 0.858809 0.396972
O O14 0.747830 0.102072 0.563066
O O15 0.806157 0.914710 0.113524
O O16 0.968915 0.771087 0.622753
O O17 0.319946 0.040202 0.966201
#
# Coordination Sequence:
#
# PCOD9058257 Si02
#       8
#     2   2   2   2   2   2   2   2
#     4  11  23  44  77 107 148 188 242 304 367 435
#     4  12  29  50  74 101 145 202 248 305 365 440
#     4  12  26  48  74 110 145 193 249 305 370 434
#     4  12  28  47  77 110 146 198 252 300 360 445
#     4  11  25  43  70 111 145 193 236 305 371 435
#     4  11  26  42  69 111 149 186 238 301 369 440
#     4  11  22  44  77 111 144 190 239 301 375 434
#     4  12  27  47  72 104 150 190 249 302 370 436
#
# _framework density 25.248842
#
# number of rings (size 3 to 8) (size 9 to 14) (size 15 to 20)
#    0.000    0.500    5.000    2.250    5.250    4.500 
#    0.000    0.000    0.000    0.000    0.000    0.000 
#    0.000    0.000    0.000    0.000    0.000    0.000 
#
# Total GULP energy -89505.248638 kJ/mol
# GULP energy per Si atom -5594.078040 kJ/mol
# Density = 2.519137 g / cm^3
# Si number density = 25.248842 Si / 1000 Ang^3
#
#
#
# Elastic Constant Matrix: (Units=GPa)
#
#
# Indices 1 2 3 4 5 6 
#
# 1 117.0172 25.9570 25.4550 -9.3936 0.8427 10.6965
# 2 25.9570 83.6810 19.4559 -30.2979 4.1352 16.8101
# 3 25.4550 19.4559 63.3241 5.0792 7.7120 9.3986
# 4 -9.3936 -30.2979 5.0792 47.1698 1.2622 0.6598
# 5 0.8427 4.1352 7.7120 1.2622 44.6570 16.7464
# 6 10.6965 16.8101 9.3986 0.6598 16.7464 42.8753
#
#
#
# Elastic Compliance Matrix: (Units=1/GPa)
#
#
# Indices 1 2 3 4 5 6 
#
# 1 0.009890 -0.001483 -0.003534 0.001390 0.001109 -0.001566
# 2 -0.001483 0.019781 -0.005678 0.013081 0.001389 -0.006884
# 3 -0.003534 -0.005678 0.019806 -0.006412 -0.002602 -0.000119
# 4 0.001390 0.013081 -0.006412 0.030615 0.000829 -0.004864
# 5 0.001109 0.001389 -0.002602 0.000829 0.026675 -0.010682
# 6 -0.001566 -0.006884 -0.000119 -0.004864 -0.010682 0.030687
#
#
# Mechanical properties :
#
#
# Convention : Reuss Voigt Hill
#
# Bulk Modulus (GPa) = 35.60451 45.08423 40.34437
# Shear Modulus (GPa) = 29.72550 39.81738 34.77144
#
# Velocity S-wave (km/s) = 3.43491 3.97545 3.71502
# Velocity P-wave (km/s) = 5.46475 6.24236 5.86645
#
# Compressibility (1/GPa) = 0.02808633
#
# Stress axis : x y z
#
# Youngs Moduli (GPa) = 101.10982 50.55429 50.49056
#
# Poissons Ratio (x) = 0.07499 0.17844
# Poissons Ratio (y) = 0.14998 0.28667
# Poissons Ratio (z) = 0.35733 0.28704
#
# Static dielectric constant tensor:
#      x y z
#    x 1.932730 0.031980 -0.006460 
#    y 0.031980 2.056220 0.004580 
#    z -0.006460 0.004580 2.006720 
# 
# From -- ./inp_files/285868.got.cif
#   From: 2010.05.17/outbox.cif.g08.bks.cpg/sg2_143_cif.got.tgz:285868.got - 2010.06.03 11:33:40.
