data_PCOD9058296
_publ_section_title
;
Structure prediction by ZEFSAII (Michael W. Deem and Ramdas Pophale) SiO2 
 PCOD9058296
Probable space group: P -1
;
_chemical_formula_sum "Si O2"
_cell_formula_units_Z 16
_cell_length_a 5.182907
_cell_length_b 11.593091
_cell_length_c 11.925594
_cell_angle_alpha 87.929603
_cell_angle_beta 105.032864
_cell_angle_gamma 103.141288
_cell_volume 673.715908
_symmetry_space_group_name_H-M "P -1"
_symmetry_group_IT_number 2
_symmetry_cell_setting 'triclinic'
loop_
_space_group_symop_operation_xyz
x,y,z
-x,-y,-z
loop_
_atom_site_type_symbol
_atom_site_label
_atom_site_fract_x
_atom_site_fract_y
_atom_site_fract_z
Si Si1 0.105121 0.081399 0.192273
Si Si2 0.316324 0.566580 0.550197
Si Si3 0.819730 0.348585 0.855572
Si Si4 0.874716 0.929017 0.377650
Si Si5 0.326637 0.344101 0.206723
Si Si6 0.700029 0.231613 0.617419
Si Si7 0.226512 0.566305 0.915460
Si Si8 0.720302 0.086055 0.944150
O O1 0.271507 0.208328 0.246047
O O2 0.259082 0.985194 0.164653
O O3 0.909783 0.016939 0.271388
O O4 0.972350 0.109587 0.058720
O O5 0.500000 0.500000 0.500000
O O6 0.457445 0.575744 0.687251
O O7 0.338168 0.698417 0.501307
O O8 0.000000 0.500000 0.500000
O O9 0.732140 0.328233 0.717958
O O10 0.718339 0.216909 0.899115
O O11 0.131653 0.427189 0.878212
O O12 0.734108 0.422487 0.946497
O O13 0.568013 0.866658 0.378353
O O14 0.042735 0.829140 0.366879
O O15 0.000000 0.000000 0.500000
O O16 0.500567 0.358716 0.112238
O O17 0.031670 0.378586 0.158224
O O18 0.500000 0.000000 0.000000
#
# Coordination Sequence:
#
# PCOD9058296 Si02
#       8
#     2   2   2   2   2   2   2   2
#     4  11  25  41  72 102 142 188 233 295 356 427
#     4  12  26  48  75 105 142 192 249 300 360 427
#     4  11  23  46  71 104 148 182 242 286 368 427
#     4  12  27  47  70 105 144 190 246 296 365 423
#     4  12  25  48  71 106 144 183 244 293 363 421
#     4  12  26  46  73 103 144 193 239 302 358 435
#     4  11  27  44  73 108 142 188 229 303 356 432
#     4  11  22  45  68 103 142 185 238 288 360 430
#
# _framework density 23.748881000000001
#
# number of rings (size 3 to 8) (size 9 to 14) (size 15 to 20)
#    0.000    0.500    2.500    5.625    0.000    6.000 
#    4.500    0.000    0.000    0.000    0.000    0.000 
#    0.000    0.000    0.000    0.000    0.000    0.000 
#
# Total GULP energy -89341.164107 kJ/mol
# GULP energy per Si atom -5583.822757 kJ/mol
# Density = 2.369483 g / cm^3
# Si number density = 23.748881 Si / 1000 Ang^3
#
#
#
# Elastic Constant Matrix: (Units=GPa)
#
#
# Indices 1 2 3 4 5 6 
#
# 1 83.2788 10.9593 17.7873 1.8588 11.5666 23.6165
# 2 10.9593 112.9630 -4.3995 -2.0728 -2.4884 15.7955
# 3 17.7873 -4.3995 103.5118 9.7193 2.5095 -7.7908
# 4 1.8588 -2.0728 9.7193 51.0976 9.0259 -2.7893
# 5 11.5666 -2.4884 2.5095 9.0259 27.6362 -6.3790
# 6 23.6165 15.7955 -7.7908 -2.7893 -6.3790 30.4783
#
#
#
# Elastic Compliance Matrix: (Units=1/GPa)
#
#
# Indices 1 2 3 4 5 6 
#
# 1 0.020399 0.000343 -0.004798 0.001418 -0.013110 -0.019825
# 2 0.000343 0.009554 -0.000059 0.000196 -0.000574 -0.005334
# 3 -0.004798 -0.000059 0.011138 -0.002147 0.003331 0.007096
# 4 0.001418 0.000196 -0.002147 0.021206 -0.007631 -0.001406
# 5 -0.013110 -0.000574 0.003331 -0.007631 0.048606 0.020782
# 6 -0.019825 -0.005334 0.007096 -0.001406 0.020782 0.056971
#
#
# Mechanical properties :
#
#
# Convention : Reuss Voigt Hill
#
# Bulk Modulus (GPa) = 31.18891 38.71641 34.95266
# Shear Modulus (GPa) = 26.65407 40.20287 33.42847
#
# Velocity S-wave (km/s) = 3.35375 4.11887 3.75584
# Velocity P-wave (km/s) = 5.30643 6.24163 5.79293
#
# Compressibility (1/GPa) = 0.03206268
#
# Stress axis : x y z
#
# Youngs Moduli (GPa) = 49.02296 104.67117 89.78535
#
# Poissons Ratio (x) = -0.03594 0.43080
# Poissons Ratio (y) = -0.01683 0.00530
# Poissons Ratio (z) = 0.23522 0.00617
#
# Static dielectric constant tensor:
#      x y z
#    x 1.978180 -0.055730 0.024400 
#    y -0.055730 2.046000 0.075630 
#    z 0.024400 0.075630 1.954250 
# 
# From -- ./inp_files/364588.got.cif
#   From: 2010.05.17/outbox.cif.g08.bks.cpg/sg2_183_cif.got.tgz:364588.got - 2010.06.03 11:33:40.
