data_PCOD9058844
_publ_section_title
;
Structure prediction by ZEFSAII (Michael W. Deem and Ramdas Pophale) SiO2 
 PCOD9058844
Probable space group: P -1
;
_chemical_formula_sum "Si O2"
_cell_formula_units_Z 16
_cell_length_a 9.284920
_cell_length_b 14.630002
_cell_length_c 11.170070
_cell_angle_alpha 38.830295
_cell_angle_beta 122.846161
_cell_angle_gamma 137.082808
_cell_volume 646.431945
_symmetry_space_group_name_H-M "P -1"
_symmetry_group_IT_number 2
_symmetry_cell_setting 'triclinic'
loop_
_space_group_symop_operation_xyz
x,y,z
-x,-y,-z
loop_
_atom_site_type_symbol
_atom_site_label
_atom_site_fract_x
_atom_site_fract_y
_atom_site_fract_z
Si Si1 0.847821 0.074190 0.103624
Si Si2 0.388922 0.309436 0.580550
Si Si3 0.587901 0.472895 0.273371
Si Si4 0.688494 0.800967 0.745399
Si Si5 0.091528 0.399130 0.283029
Si Si6 0.011428 0.563781 0.304554
Si Si7 0.697154 0.086131 0.287955
Si Si8 0.511697 0.273788 0.017792
O O1 0.782810 0.081520 0.202588
O O2 0.082202 0.120581 0.175260
O O3 0.678432 0.866833 0.198994
O O4 0.851317 0.222628 0.876261
O O5 0.500000 0.500000 0.500000
O O6 0.537726 0.350960 0.491640
O O7 0.175647 0.277537 0.467583
O O8 0.380620 0.363036 0.208306
O O9 0.772156 0.502369 0.245826
O O10 0.637064 0.660896 0.149085
O O11 0.524712 0.738044 0.843923
O O12 0.672931 0.935932 0.517020
O O13 0.064552 0.471477 0.321844
O O14 0.874109 0.273368 0.243081
O O15 0.274856 0.568300 0.115766
O O16 0.000000 0.500000 0.500000
O O17 0.497393 0.093777 0.171610
#
# Coordination Sequence:
#
# PCOD9058844 Si02
#       8
#     2   2   2   2   2   2   2   2
#     4  12  24  47  73 109 149 192 240 304 371 427
#     4  11  24  48  72 100 141 198 248 295 350 433
#     4  11  24  43  71 104 144 188 242 292 368 429
#     4  12  23  41  69 113 150 179 233 303 376 435
#     4  11  24  43  71 104 144 188 242 292 368 429
#     4  12  27  49  73 104 149 202 248 292 351 436
#     4  12  23  41  69 113 150 179 233 303 376 435
#     4  11  23  37  66 108 146 183 215 295 364 436
#
# _framework density 24.751252999999998
#
# number of rings (size 3 to 8) (size 9 to 14) (size 15 to 20)
#    0.000    0.500    5.000    4.500    3.500    0.000 
#    0.000   10.000    0.000    0.000    0.000    0.000 
#    0.000    0.000    0.000    0.000    0.000    0.000 
#
# Total GULP energy -89402.773940 kJ/mol
# GULP energy per Si atom -5587.673371 kJ/mol
# Density = 2.469492 g / cm^3
# Si number density = 24.751253 Si / 1000 Ang^3
#
#
#
# Elastic Constant Matrix: (Units=GPa)
#
#
# Indices 1 2 3 4 5 6 
#
# 1 144.0443 13.3840 47.0673 -2.7175 -18.3389 -26.3370
# 2 13.3840 68.7988 17.0291 -5.4317 -17.0536 -17.5314
# 3 47.0673 17.0291 204.1191 -2.0528 -12.4700 -18.4132
# 4 -2.7175 -5.4317 -2.0528 28.5059 -2.6909 3.0387
# 5 -18.3389 -17.0536 -12.4700 -2.6909 45.7663 13.4012
# 6 -26.3370 -17.5314 -18.4132 3.0387 13.4012 25.6662
#
#
#
# Elastic Compliance Matrix: (Units=1/GPa)
#
#
# Indices 1 2 3 4 5 6 
#
# 1 0.008950 0.001005 -0.001327 0.000179 0.001186 0.008279
# 2 0.001005 0.018464 -0.000519 0.002821 0.004154 0.010768
# 3 -0.001327 -0.000519 0.005448 -0.000047 0.000133 0.002129
# 4 0.000179 0.002821 -0.000047 0.036566 0.004627 -0.004669
# 5 0.001186 0.004154 0.000133 0.004627 0.027301 -0.010652
# 6 0.008279 0.010768 0.002129 -0.004669 -0.010652 0.062454
#
#
# Mechanical properties :
#
#
# Convention : Reuss Voigt Hill
#
# Bulk Modulus (GPa) = 32.06984 63.54701 47.80842
# Shear Modulus (GPa) = 29.19561 42.61978 35.90769
#
# Velocity S-wave (km/s) = 3.43820 4.15411 3.81299
# Velocity P-wave (km/s) = 5.36159 6.98132 6.22436
#
# Compressibility (1/GPa) = 0.03118195
#
# Stress axis : x y z
#
# Youngs Moduli (GPa) = 111.72630 54.15809 183.55410
#
# Poissons Ratio (x) = -0.05442 0.24351
# Poissons Ratio (y) = -0.11226 0.09519
# Poissons Ratio (z) = 0.14822 0.02809
#
# Static dielectric constant tensor:
#      x y z
#    x 1.970050 0.045720 0.075990 
#    y 0.045720 2.013870 -0.004300 
#    z 0.075990 -0.004300 2.016290 
# 
# From -- ./inp_files/398435.got.cif
#   From: 2010.05.17/outbox.cif.g08.bks.cpg/sg2_200_cif.got.tgz:398435.got - 2010.06.03 11:33:40.
