data_PCOD9058904
_publ_section_title
;
Structure prediction by ZEFSAII (Michael W. Deem and Ramdas Pophale) SiO2 
 PCOD9058904
Probable space group: P -1
;
_chemical_formula_sum "Si O2"
_cell_formula_units_Z 16
_cell_length_a 14.683957
_cell_length_b 5.593319
_cell_length_c 12.548556
_cell_angle_alpha 101.723698
_cell_angle_beta 103.206631
_cell_angle_gamma 47.848482
_cell_volume 742.101275
_symmetry_space_group_name_H-M "P -1"
_symmetry_group_IT_number 2
_symmetry_cell_setting 'triclinic'
loop_
_space_group_symop_operation_xyz
x,y,z
-x,-y,-z
loop_
_atom_site_type_symbol
_atom_site_label
_atom_site_fract_x
_atom_site_fract_y
_atom_site_fract_z
Si Si1 0.183600 0.392549 0.906047
Si Si2 0.765375 0.246092 0.210647
Si Si3 0.123127 0.206087 0.367732
Si Si4 0.730416 0.808382 0.761153
Si Si5 0.676398 0.579922 0.891479
Si Si6 0.091873 0.054478 0.565244
Si Si7 0.504249 0.485024 0.872141
Si Si8 0.908081 0.868987 0.874771
O O1 0.207882 0.556715 0.835262
O O2 0.043799 0.674321 0.936438
O O3 0.182791 0.106887 0.848624
O O4 0.292830 0.246346 0.008046
O O5 0.619784 0.433319 0.190926
O O6 0.821932 0.178966 0.337073
O O7 0.232763 0.189276 0.348350
O O8 0.158359 0.026932 0.472398
O O9 0.090089 0.084560 0.248787
O O10 0.998101 0.574259 0.385729
O O11 0.698021 0.599745 0.775240
O O12 0.857736 0.676927 0.842417
O O13 0.616906 0.159174 0.810121
O O14 0.540873 0.702816 0.876896
O O15 0.792180 0.210553 0.923539
O O16 0.000000 0.000000 0.500000
O O17 0.500000 0.500000 0.000000
#
# Coordination Sequence:
#
# PCOD9058904 Si02
#       8
#     2   2   2   2   2   2   2   2
#     4  12  25  41  65 100 143 172 227 278 340 412
#     4  12  27  42  68 101 137 179 227 286 335 400
#     4   9  21  41  62  96 129 164 221 281 348 394
#     4   9  22  39  64  91 133 176 225 274 333 395
#     4  11  23  38  68  92 132 191 218 276 333 410
#     4  11  23  41  72  94 131 173 225 286 353 406
#     4  11  23  44  63  95 137 184 232 271 323 404
#     4   9  21  39  59  95 135 164 220 270 348 399
#
# _framework density 21.560400000000001
#
# number of rings (size 3 to 8) (size 9 to 14) (size 15 to 20)
#    0.750    0.750    2.500    1.875   10.500    1.500 
#    0.000    0.625    0.000    1.500    0.000    0.000 
#    0.000    0.000    0.000    0.000    0.000    0.000 
#
# Total GULP energy -89091.385524 kJ/mol
# GULP energy per Si atom -5568.211595 kJ/mol
# Density = 2.151133 g / cm^3
# Si number density = 21.560400 Si / 1000 Ang^3
#
#
#
# Elastic Constant Matrix: (Units=GPa)
#
#
# Indices 1 2 3 4 5 6 
#
# 1 142.2716 15.1039 27.8066 -19.7433 -18.7323 -7.4052
# 2 15.1039 48.0048 6.9921 -3.2461 -4.7980 -7.7901
# 3 27.8066 6.9921 93.5272 -15.2381 -18.0311 0.8330
# 4 -19.7433 -3.2461 -15.2381 23.5800 4.3174 -0.1274
# 5 -18.7323 -4.7980 -18.0311 4.3174 50.9246 -7.6254
# 6 -7.4052 -7.7901 0.8330 -0.1274 -7.6254 35.1955
#
#
#
# Elastic Compliance Matrix: (Units=1/GPa)
#
#
# Indices 1 2 3 4 5 6 
#
# 1 0.008653 -0.001592 -0.001031 0.005918 0.002473 0.002050
# 2 -0.001592 0.022526 -0.000719 0.000971 0.001963 0.005097
# 3 -0.001031 -0.000719 0.012822 0.006676 0.003544 0.000112
# 4 0.005918 0.000971 0.006676 0.051731 0.000485 0.001594
# 5 0.002473 0.001963 0.003544 0.000485 0.022816 0.005816
# 6 0.002050 0.005097 0.000112 0.001594 0.005816 0.031235
#
#
# Mechanical properties :
#
#
# Convention : Reuss Voigt Hill
#
# Bulk Modulus (GPa) = 26.79828 42.62318 34.71073
# Shear Modulus (GPa) = 29.60199 37.53342 33.56770
#
# Velocity S-wave (km/s) = 3.70939 4.17688 3.95006
# Velocity P-wave (km/s) = 5.55000 6.56307 6.07768
#
# Compressibility (1/GPa) = 0.03731583
#
# Stress axis : x y z
#
# Youngs Moduli (GPa) = 115.56847 44.39324 77.98960
#
# Poissons Ratio (x) = 0.07069 0.08039
# Poissons Ratio (y) = 0.18403 0.05611
# Poissons Ratio (z) = 0.11913 0.03194
#
# Static dielectric constant tensor:
#      x y z
#    x 1.855300 0.096500 0.003080 
#    y 0.096500 1.947920 0.056720 
#    z 0.003080 0.056720 1.827870 
# 
# From -- ./inp_files/525073.got.cif
#   From: 2010.05.17/outbox.cif.g08.bks.cpg/sg2_263_cif.got.tgz:525073.got - 2010.06.03 11:33:40.
