data_PCOD9058454
_publ_section_title
;
Structure prediction by ZEFSAII (Michael W. Deem and Ramdas Pophale) SiO2 
 PCOD9058454
Probable space group: P -1
;
_chemical_formula_sum "Si O2"
_cell_formula_units_Z 14
_cell_length_a 17.147187
_cell_length_b 5.507411
_cell_length_c 9.824057
_cell_angle_alpha 134.104749
_cell_angle_beta 57.954532
_cell_angle_gamma 123.688415
_cell_volume 537.845489
_symmetry_space_group_name_H-M "P -1"
_symmetry_group_IT_number 2
_symmetry_cell_setting 'triclinic'
loop_
_space_group_symop_operation_xyz
x,y,z
-x,-y,-z
loop_
_atom_site_type_symbol
_atom_site_label
_atom_site_fract_x
_atom_site_fract_y
_atom_site_fract_z
Si Si1 0.045839 0.715140 0.407171
Si Si2 0.749460 0.905240 0.996336
Si Si3 0.755622 0.931256 0.296928
Si Si4 0.251300 0.841425 0.317221
Si Si5 0.083994 0.447743 0.000935
Si Si6 0.455264 0.576955 0.711977
Si Si7 0.581988 0.755053 0.885818
O O1 0.155754 0.949688 0.425326
O O2 0.039422 0.425297 0.182771
O O3 0.000000 0.500000 0.500000
O O4 0.000000 0.000000 0.500000
O O5 0.779027 0.557570 0.865282
O O6 0.651479 0.728581 0.934628
O O7 0.829913 0.178090 0.940647
O O8 0.748571 0.088697 0.215100
O O9 0.660154 0.587063 0.251429
O O10 0.736887 0.152456 0.528464
O O11 0.854149 0.827377 0.184613
O O12 0.341992 0.065374 0.234667
O O13 0.000000 0.500000 0.000000
O O14 0.500000 0.500000 0.500000
O O15 0.503509 0.456103 0.754229
O O16 0.471850 0.988980 0.892531
#
# Coordination Sequence:
#
# PCOD9058454 Si02
#       7
#     2   2   2   2   2   2   2
#     4  12  26  46  74 113 151 200 261 319 392 462
#     4  12  24  48  72 105 149 188 255 306 386 449
#     4  12  26  46  73 108 143 195 248 309 378 457
#     4  12  25  46  73 105 148 197 247 310 382 452
#     4  12  27  49  74 105 151 198 249 314 379 465
#     4  11  22  45  74 104 145 191 248 310 380 460
#     4  11  24  45  75  99 147 196 240 309 382 455
#
# _framework density 26.029782999999998
#
# number of rings (size 3 to 8) (size 9 to 14) (size 15 to 20)
#    0.000    0.286    7.143    1.714    2.000    3.429 
#    0.000    1.429    0.000    0.000    0.000    0.000 
#    0.000    0.000    0.000    0.000    0.000    0.000 
#
# Total GULP energy -78281.591661 kJ/mol
# GULP energy per Si atom -5591.542262 kJ/mol
# Density = 2.597054 g / cm^3
# Si number density = 26.029783 Si / 1000 Ang^3
#
#
#
# Elastic Constant Matrix: (Units=GPa)
#
#
# Indices 1 2 3 4 5 6 
#
# 1 194.9063 27.3467 59.6728 -21.3465 3.3372 5.0275
# 2 27.3467 79.6172 36.2825 -37.1202 -7.7726 7.3117
# 3 59.6728 36.2825 188.5899 -50.3298 22.9629 -3.3169
# 4 -21.3465 -37.1202 -50.3298 44.5679 -3.7791 8.8603
# 5 3.3372 -7.7726 22.9629 -3.7791 48.6413 -6.8802
# 6 5.0275 7.3117 -3.3169 8.8603 -6.8802 36.9348
#
#
#
# Elastic Compliance Matrix: (Units=1/GPa)
#
#
# Indices 1 2 3 4 5 6 
#
# 1 0.005814 -0.001075 -0.001590 0.000254 0.000091 -0.000765
# 2 -0.001075 0.024657 0.001278 0.023700 0.003897 -0.009580
# 3 -0.001590 0.001278 0.008662 0.010270 -0.003309 -0.002339
# 4 0.000254 0.023700 0.010270 0.057436 0.000921 -0.017411
# 5 0.000091 0.003897 -0.003309 0.000921 0.023237 0.003027
# 6 -0.000765 -0.009580 -0.002339 -0.017411 0.003027 0.033606
#
#
# Mechanical properties :
#
#
# Convention : Reuss Voigt Hill
#
# Bulk Modulus (GPa) = 27.50217 78.85749 53.17983
# Shear Modulus (GPa) = 29.70825 48.68289 39.19557
#
# Velocity S-wave (km/s) = 3.38200 4.32936 3.88467
# Velocity P-wave (km/s) = 5.08323 7.43989 6.37147
#
# Compressibility (1/GPa) = 0.03636076
#
# Stress axis : x y z
#
# Youngs Moduli (GPa) = 171.99291 40.55713 115.44695
#
# Poissons Ratio (x) = 0.04359 0.18352
# Poissons Ratio (y) = 0.18487 -0.14759
# Poissons Ratio (z) = 0.27340 -0.05185
#
# Static dielectric constant tensor:
#      x y z
#    x 2.212840 -0.113000 -0.036510 
#    y -0.113000 2.132120 0.062520 
#    z -0.036510 0.062520 2.106250 
# 
# From -- ./inp_files/324216.got.cif
#   From: 2010.05.17/outbox.cif.g08.bks.cpg/sg2_163_cif.got.tgz:324216.got - 2010.06.03 11:33:40.
