data_PCOD9058720
_publ_section_title
;
Structure prediction by ZEFSAII (Michael W. Deem and Ramdas Pophale) SiO2 
 PCOD9058720
Probable space group: P -1
;
_chemical_formula_sum "Si O2"
_cell_formula_units_Z 12
_cell_length_a 11.481327
_cell_length_b 9.158831
_cell_length_c 7.554024
_cell_angle_alpha 68.738526
_cell_angle_beta 83.181289
_cell_angle_gamma 134.636019
_cell_volume 435.270658
_symmetry_space_group_name_H-M "P -1"
_symmetry_group_IT_number 2
_symmetry_cell_setting 'triclinic'
loop_
_space_group_symop_operation_xyz
x,y,z
-x,-y,-z
loop_
_atom_site_type_symbol
_atom_site_label
_atom_site_fract_x
_atom_site_fract_y
_atom_site_fract_z
Si Si1 0.903018 0.502990 0.325872
Si Si2 0.018294 0.881211 0.839502
Si Si3 0.663159 0.571934 0.840072
Si Si4 0.326001 0.994877 0.586651
Si Si5 0.704108 0.246961 0.952217
Si Si6 0.304946 0.444790 0.562037
O O1 0.835736 0.558995 0.454227
O O2 0.722975 0.184708 0.475428
O O3 0.934364 0.659147 0.085654
O O4 0.104697 0.620874 0.242099
O O5 0.871064 0.837720 0.780163
O O6 0.146365 0.923990 0.652612
O O7 0.179399 0.165408 0.783359
O O8 0.623252 0.534207 0.653097
O O9 0.500000 0.500000 0.000000
O O10 0.686539 0.409736 0.938198
O O11 0.528737 0.306640 0.446139
O O12 0.298645 0.861737 0.824703
O O13 0.500000 0.000000 0.000000
#
# Coordination Sequence:
#
# PCOD9058720 Si02
#       6
#     2   2   2   2   2   2
#     4  11  24  47  79 102 143 189 232 299 351 415
#     4  11  24  48  71 102 148 187 234 289 355 424
#     4  12  27  48  71 101 147 192 233 293 357 418
#     4  11  22  47  74 103 141 188 236 292 351 418
#     4  11  22  47  75 100 138 192 240 284 356 418
#     4  12  27  43  69 117 139 183 240 290 358 422
#
# _framework density 27.569053
#
# number of rings (size 3 to 8) (size 9 to 14) (size 15 to 20)
#    0.000    0.667    5.000    3.000    2.333    3.333 
#    3.000    0.000    0.000    0.000    0.000    0.000 
#    0.000    0.000    0.000    0.000    0.000    0.000 
#
# Total GULP energy -67144.927594 kJ/mol
# GULP energy per Si atom -5595.410633 kJ/mol
# Density = 2.750630 g / cm^3
# Si number density = 27.569053 Si / 1000 Ang^3
#
#
#
# Elastic Constant Matrix: (Units=GPa)
#
#
# Indices 1 2 3 4 5 6 
#
# 1 218.1023 56.3074 56.3491 -2.1743 -34.2009 -16.9269
# 2 56.3074 163.7303 45.3378 -20.3995 -21.2361 -16.0786
# 3 56.3491 45.3378 84.4486 -5.1926 -19.7083 -8.9221
# 4 -2.1743 -20.3995 -5.1926 39.6108 -9.7352 -2.2247
# 5 -34.2009 -21.2361 -19.7083 -9.7352 55.1658 4.3590
# 6 -16.9269 -16.0786 -8.9221 -2.2247 4.3590 56.0479
#
#
#
# Elastic Compliance Matrix: (Units=1/GPa)
#
#
# Indices 1 2 3 4 5 6 
#
# 1 0.005987 -0.000852 -0.002895 0.000127 0.002298 0.000929
# 2 -0.000852 0.008202 -0.002859 0.004451 0.002263 0.001641
# 3 -0.002895 -0.002859 0.016173 0.001278 0.003053 0.000693
# 4 0.000127 0.004451 0.001278 0.029628 0.007309 0.002126
# 5 0.002298 0.002263 0.003053 0.007309 0.022776 0.000348
# 6 0.000929 0.001641 0.000693 0.002126 0.000348 0.018761
#
#
# Mechanical properties :
#
#
# Convention : Reuss Voigt Hill
#
# Bulk Modulus (GPa) = 58.31516 86.91888 72.61702
# Shear Modulus (GPa) = 41.50930 50.71735 46.11333
#
# Velocity S-wave (km/s) = 3.88448 4.29376 4.09424
# Velocity P-wave (km/s) = 6.42785 7.49520 6.98195
#
# Compressibility (1/GPa) = 0.01714820
#
# Stress axis : x y z
#
# Youngs Moduli (GPa) = 167.03746 121.92726 61.83291
#
# Poissons Ratio (x) = 0.10388 0.17900
# Poissons Ratio (y) = 0.14232 0.17681
# Poissons Ratio (z) = 0.48355 0.34865
#
# Static dielectric constant tensor:
#      x y z
#    x 2.150000 0.060330 -0.063890 
#    y 0.060330 2.355060 -0.043270 
#    z -0.063890 -0.043270 2.281890 
# 
# From -- ./inp_files/237701.got.cif
#   From: 2010.05.17/outbox.cif.g08.bks.cpg/sg2_119_cif.got.tgz:237701.got - 2010.06.03 11:33:40.
