data_PCOD9058290
_publ_section_title
;
Structure prediction by ZEFSAII (Michael W. Deem and Ramdas Pophale) SiO2 
 PCOD9058290
Probable space group: P -1
;
_chemical_formula_sum "Si O2"
_cell_formula_units_Z 15
_cell_length_a 9.001560
_cell_length_b 18.464957
_cell_length_c 8.357660
_cell_angle_alpha 143.053090
_cell_angle_beta 129.910785
_cell_angle_gamma 45.360845
_cell_volume 583.631738
_symmetry_space_group_name_H-M "P -1"
_symmetry_group_IT_number 2
_symmetry_cell_setting 'triclinic'
loop_
_space_group_symop_operation_xyz
x,y,z
-x,-y,-z
loop_
_atom_site_type_symbol
_atom_site_label
_atom_site_fract_x
_atom_site_fract_y
_atom_site_fract_z
Si Si1 0.185175 0.226157 0.079728
Si Si2 0.534058 0.017141 0.738615
Si Si3 0.845286 0.449064 0.651302
Si Si4 0.498352 0.775655 0.478759
Si Si5 0.892439 0.012212 0.275437
Si Si6 0.872540 0.388062 0.892144
Si Si7 0.000000 0.000000 0.000000
Si Si8 0.466904 0.582188 0.855153
O O1 0.156135 0.117273 0.977246
O O2 0.976608 0.305655 0.973411
O O3 0.356653 0.149167 0.925746
O O4 0.289912 0.298094 0.397051
O O5 0.520923 0.896305 0.613826
O O6 0.500000 0.000000 0.500000
O O7 0.762860 0.019481 0.925923
O O8 0.634660 0.564679 0.792797
O O9 0.749276 0.408012 0.358020
O O10 0.923450 0.338605 0.653200
O O11 0.024870 0.502402 0.841260
O O12 0.446682 0.695869 0.162957
O O13 0.308600 0.847731 0.599013
O O14 0.054900 0.004155 0.235199
O O15 0.000000 0.000000 0.500000
O O16 0.617005 0.450215 0.822981
#
# Coordination Sequence:
#
# PCOD9058290 Si02
#       8
#     2   2   2   2   2   2   1   2
#     4  11  22  45  68  99 156 180 228 303 363 432
#     4  11  24  41  71 103 135 189 241 290 359 429
#     4   8  18  41  65 105 143 173 251 290 345 432
#     4  11  22  45  68 100 152 183 233 298 365 424
#     4  11  24  47  67 108 144 186 246 298 353 446
#     4   9  19  39  71 100 140 189 228 300 359 420
#     4  12  20  46  76  92 142 198 240 286 364 420
#     4   9  19  40  72  99 142 187 233 300 349 425
#
# _framework density 25.701138
#
# number of rings (size 3 to 8) (size 9 to 14) (size 15 to 20)
#    0.800    1.067    2.667    2.400    1.867    0.533 
#    4.800    6.000    0.000    0.000    0.000    2.800 
#    0.000    0.133    0.000    0.000    0.000    0.000 
#
# Total GULP energy -83606.976476 kJ/mol
# GULP energy per Si atom -5573.798432 kJ/mol
# Density = 2.564264 g / cm^3
# Si number density = 25.701138 Si / 1000 Ang^3
#
#
#
# Elastic Constant Matrix: (Units=GPa)
#
#
# Indices 1 2 3 4 5 6 
#
# 1 111.0290 9.1711 27.3694 6.9800 -23.5392 13.2668
# 2 9.1711 74.2287 45.6926 -26.9369 -13.6242 1.9291
# 3 27.3694 45.6926 191.6782 -38.9537 -11.9763 -1.8995
# 4 6.9800 -26.9369 -38.9537 39.9333 0.0604 2.4403
# 5 -23.5392 -13.6242 -11.9763 0.0604 50.5539 -16.4343
# 6 13.2668 1.9291 -1.8995 2.4403 -16.4343 17.2720
#
#
#
# Elastic Compliance Matrix: (Units=1/GPa)
#
#
# Indices 1 2 3 4 5 6 
#
# 1 0.011103 -0.001033 -0.002121 -0.004370 0.002583 -0.005571
# 2 -0.001033 0.019841 -0.001907 0.011616 0.004830 0.001323
# 3 -0.002121 -0.001907 0.007301 0.006027 0.001164 0.002901
# 4 -0.004370 0.011616 0.006027 0.039563 0.002236 -0.000740
# 5 0.002583 0.004830 0.001164 0.002236 0.031385 0.027151
# 6 -0.005571 0.001323 0.002901 -0.000740 0.027151 0.088287
#
#
# Mechanical properties :
#
#
# Convention : Reuss Voigt Hill
#
# Bulk Modulus (GPa) = 35.55793 60.15579 47.85686
# Shear Modulus (GPa) = 23.04421 41.19869 32.12145
#
# Velocity S-wave (km/s) = 2.99761 4.00808 3.53910
# Velocity P-wave (km/s) = 5.08391 6.69898 5.94653
#
# Compressibility (1/GPa) = 0.02812312
#
# Stress axis : x y z
#
# Youngs Moduli (GPa) = 90.06693 50.40129 136.97133
#
# Poissons Ratio (x) = 0.05207 0.29051
# Poissons Ratio (y) = 0.09305 0.26114
# Poissons Ratio (z) = 0.19103 0.09609
#
# Static dielectric constant tensor:
#      x y z
#    x 2.069040 0.053160 -0.044330 
#    y 0.053160 2.182230 -0.092230 
#    z -0.044330 -0.092230 2.217080 
# 
# From -- ./inp_files/213384.got.cif
#   From: 2010.05.17/outbox.cif.g08.bks.cpg/sg2_107_cif.got.tgz:213384.got - 2010.06.03 11:33:40.
