data_PCOD9058890
_publ_section_title
;
Structure prediction by ZEFSAII (Michael W. Deem and Ramdas Pophale) SiO2 
 PCOD9058890
Probable space group: P -1
;
_chemical_formula_sum "Si O2"
_cell_formula_units_Z 12
_cell_length_a 10.698952
_cell_length_b 10.248814
_cell_length_c 10.041992
_cell_angle_alpha 28.057167
_cell_angle_beta 106.706019
_cell_angle_gamma 95.703059
_cell_volume 466.048250
_symmetry_space_group_name_H-M "P -1"
_symmetry_group_IT_number 2
_symmetry_cell_setting 'triclinic'
loop_
_space_group_symop_operation_xyz
x,y,z
-x,-y,-z
loop_
_atom_site_type_symbol
_atom_site_label
_atom_site_fract_x
_atom_site_fract_y
_atom_site_fract_z
Si Si1 0.058516 0.242676 0.854754
Si Si2 0.351818 0.066474 0.227826
Si Si3 0.447573 0.253535 0.646136
Si Si4 0.792376 0.399183 0.905146
Si Si5 0.717593 0.309327 0.233528
Si Si6 0.033478 0.266066 0.395652
O O1 0.000000 0.500000 0.500000
O O2 0.008044 0.433592 0.801171
O O3 0.222007 0.093224 0.065995
O O4 0.000000 0.000000 0.000000
O O5 0.484605 0.887385 0.345358
O O6 0.329805 0.920227 0.491201
O O7 0.343084 0.393577 0.967514
O O8 0.500000 0.500000 0.500000
O O9 0.287246 0.430229 0.402805
O O10 0.500000 0.000000 0.000000
O O11 0.870185 0.627711 0.772981
O O12 0.685554 0.373160 0.011047
O O13 0.879605 0.049538 0.227478
O O14 0.886862 0.223430 0.357869
#
# Coordination Sequence:
#
# PCOD9058890 Si02
#       6
#     2   2   2   2   2   2
#     4  11  23  38  65  95 134 183 216 270 336 396
#     4  11  25  45  67  98 138 176 231 287 326 404
#     4  12  29  48  68  97 139 185 232 280 333 407
#     4  12  25  43  73 100 139 186 220 281 346 403
#     4  11  23  45  71 104 136 173 228 286 346 396
#     4  11  23  41  67 110 137 171 228 281 345 408
#
# _framework density 25.748408000000001
#
# number of rings (size 3 to 8) (size 9 to 14) (size 15 to 20)
#    0.000    0.667    0.000    9.000    7.000    1.333 
#    0.000    0.000    0.000    0.000    0.000    0.000 
#    0.000    0.000    0.000    0.000    0.000    0.000 
#
# Total GULP energy -67106.263815 kJ/mol
# GULP energy per Si atom -5592.188651 kJ/mol
# Density = 2.568980 g / cm^3
# Si number density = 25.748408 Si / 1000 Ang^3
#
#
#
# Elastic Constant Matrix: (Units=GPa)
#
#
# Indices 1 2 3 4 5 6 
#
# 1 60.6867 -6.8280 42.9575 2.1031 3.1318 -3.5851
# 2 -6.8280 52.9399 16.0706 -4.6435 -0.6065 0.9857
# 3 42.9575 16.0706 196.6792 5.3657 -10.6073 10.8099
# 4 2.1031 -4.6435 5.3657 56.3592 1.5692 -4.6995
# 5 3.1318 -0.6065 -10.6073 1.5692 54.2012 5.4199
# 6 -3.5851 0.9857 10.8099 -4.6995 5.4199 44.0511
#
#
#
# Elastic Compliance Matrix: (Units=1/GPa)
#
#
# Indices 1 2 3 4 5 6 
#
# 1 0.020987 0.004249 -0.005258 0.000410 -0.002532 0.003258
# 2 0.004249 0.020407 -0.002730 0.001872 -0.000690 0.000844
# 3 -0.005258 -0.002730 0.006709 -0.000914 0.001846 -0.002338
# 4 0.000410 0.001872 -0.000914 0.018185 -0.000935 0.002271
# 5 -0.002532 -0.000690 0.001846 -0.000935 0.019288 -0.003117
# 6 0.003258 0.000844 -0.002338 0.002271 -0.003117 0.024147
#
#
# Mechanical properties :
#
#
# Convention : Reuss Voigt Hill
#
# Bulk Modulus (GPa) = 24.61547 46.07845 35.34696
# Shear Modulus (GPa) = 38.24338 48.12936 43.18637
#
# Velocity S-wave (km/s) = 3.85810 4.32813 4.09986
# Velocity P-wave (km/s) = 5.42470 6.55069 6.01410
#
# Compressibility (1/GPa) = 0.04062486
#
# Stress axis : x y z
#
# Youngs Moduli (GPa) = 47.64877 49.00332 149.05587
#
# Poissons Ratio (x) = -0.20822 0.78371
# Poissons Ratio (y) = -0.20247 0.40695
# Poissons Ratio (z) = 0.25053 0.13379
#
# Static dielectric constant tensor:
#      x y z
#    x -0.329560 0.929420 -0.075090 
#    y 0.929420 1.791190 0.129150 
#    z -0.075090 0.129150 1.959560 
# 
# From -- ./inp_files/427185.got.cif
#   From: 2010.05.17/outbox.cif.g08.bks.cpg/sg2_214_cif.got.tgz:427185.got - 2010.06.03 11:33:40.
