data_PCOD9058966
_publ_section_title
;
Structure prediction by ZEFSAII (Michael W. Deem and Ramdas Pophale) SiO2 
 PCOD9058966
Probable space group: P -1
;
_chemical_formula_sum "Si O2"
_cell_formula_units_Z 14
_cell_length_a 9.604452
_cell_length_b 9.677454
_cell_length_c 13.525359
_cell_angle_alpha 107.830915
_cell_angle_beta 70.617436
_cell_angle_gamma 48.050236
_cell_volume 580.691526
_symmetry_space_group_name_H-M "P -1"
_symmetry_group_IT_number 2
_symmetry_cell_setting 'triclinic'
loop_
_space_group_symop_operation_xyz
x,y,z
-x,-y,-z
loop_
_atom_site_type_symbol
_atom_site_label
_atom_site_fract_x
_atom_site_fract_y
_atom_site_fract_z
Si Si1 0.239004 0.632148 0.001545
Si Si2 0.196846 0.944438 0.353688
Si Si3 0.550122 0.795405 0.405810
Si Si4 0.225833 0.489831 0.519132
Si Si5 0.068381 0.330386 0.034186
Si Si6 0.298681 0.554135 0.193057
Si Si7 0.688240 0.741450 0.751610
O O1 0.001086 0.770813 0.015702
O O2 0.366618 0.682846 0.956418
O O3 0.524840 0.292481 0.838993
O O4 0.160200 0.684660 0.145900
O O5 0.921217 0.242215 0.430310
O O6 0.815339 0.218368 0.661606
O O7 0.312351 0.944718 0.416189
O O8 0.570407 0.674333 0.470068
O O9 0.849152 0.538524 0.219988
O O10 0.500000 0.000000 0.500000
O O11 0.363210 0.287008 0.350907
O O12 0.956637 0.619436 0.647362
O O13 0.000000 0.500000 0.000000
O O14 0.399502 0.063721 0.923151
O O15 0.255631 0.437288 0.226380
#
# Coordination Sequence:
#
# PCOD9058966 Si02
#       7
#     2   2   2   2   2   2   2
#     4   8  19  40  65  94 131 163 212 275 334 383
#     4   9  20  44  66  91 134 168 216 265 331 390
#     4  11  23  41  68  96 133 175 211 275 339 377
#     4  11  24  43  63  93 139 176 216 283 318 385
#     4  11  23  39  67 101 129 167 225 276 321 401
#     4   9  20  41  67  95 130 175 211 269 338 392
#     4  11  24  41  64  97 130 171 231 265 329 390
#
# _framework density 24.109189000000001
#
# number of rings (size 3 to 8) (size 9 to 14) (size 15 to 20)
#    0.857    1.143    0.000    4.286    4.000    1.714 
#    5.143    0.714    0.000    0.000    0.000    0.000 
#    0.000    0.000    0.000    0.000    0.000    0.000 
#
# Total GULP energy -78321.418000 kJ/mol
# GULP energy per Si atom -5594.387000 kJ/mol
# Density = 2.405431 g / cm^3
# Si number density = 24.109189 Si / 1000 Ang^3
#
#
#
# Elastic Constant Matrix: (Units=GPa)
#
#
# Indices 1 2 3 4 5 6 
#
# 1 80.3290 19.2602 33.4506 -6.7426 5.4908 8.8398
# 2 19.2602 101.1982 22.8008 -9.9622 5.1366 14.1248
# 3 33.4506 22.8008 95.8213 -0.2612 -11.0761 -11.4140
# 4 -6.7426 -9.9622 -0.2612 37.8738 -3.7115 -0.5331
# 5 5.4908 5.1366 -11.0761 -3.7115 35.5239 -14.1335
# 6 8.8398 14.1248 -11.4140 -0.5331 -14.1335 32.3824
#
#
#
# Elastic Compliance Matrix: (Units=1/GPa)
#
#
# Indices 1 2 3 4 5 6 
#
# 1 0.018834 0.001503 -0.009998 0.002327 -0.011734 -0.014404
# 2 0.001503 0.013379 -0.006142 0.002729 -0.008623 -0.012130
# 3 -0.009998 -0.006142 0.019535 -0.001417 0.016044 0.019273
# 4 0.002327 0.002729 -0.001417 0.027619 0.001144 -0.001371
# 5 -0.011734 -0.008623 0.016044 0.001144 0.050052 0.034484
# 6 -0.014404 -0.012130 0.019273 -0.001371 0.034484 0.061925
#
#
# Mechanical properties :
#
#
# Convention : Reuss Voigt Hill
#
# Bulk Modulus (GPa) = 44.49870 47.59686 46.04778
# Shear Modulus (GPa) = 21.91930 34.61182 28.26556
#
# Velocity S-wave (km/s) = 3.01851 3.79308 3.42774
# Velocity P-wave (km/s) = 5.53586 6.24246 5.89975
#
# Compressibility (1/GPa) = 0.02247257
#
# Stress axis : x y z
#
# Youngs Moduli (GPa) = 53.09438 74.74570 51.19132
#
# Poissons Ratio (x) = -0.11236 0.51183
# Poissons Ratio (y) = -0.07981 0.31444
# Poissons Ratio (z) = 0.53086 0.45912
#
# Static dielectric constant tensor:
#      x y z
#    x 1.945570 -0.009600 -0.016830 
#    y -0.009600 1.890320 -0.007760 
#    z -0.016830 -0.007760 1.958000 
# 
# From -- ./inp_files/308006.got.cif
#   From: 2010.05.17/outbox.cif.g08.bks.cpg/sg2_155_cif.got.tgz:308006.got - 2010.06.03 11:33:40.
