data_PCOD9058397
_publ_section_title
;
Structure prediction by ZEFSAII (Michael W. Deem and Ramdas Pophale) SiO2 
 PCOD9058397
Probable space group: P -1
;
_chemical_formula_sum "Si O2"
_cell_formula_units_Z 12
_cell_length_a 12.622847
_cell_length_b 5.269252
_cell_length_c 9.782463
_cell_angle_alpha 79.448849
_cell_angle_beta 76.933983
_cell_angle_gamma 123.179279
_cell_volume 491.477570
_symmetry_space_group_name_H-M "P -1"
_symmetry_group_IT_number 2
_symmetry_cell_setting 'triclinic'
loop_
_space_group_symop_operation_xyz
x,y,z
-x,-y,-z
loop_
_atom_site_type_symbol
_atom_site_label
_atom_site_fract_x
_atom_site_fract_y
_atom_site_fract_z
Si Si1 0.904673 0.101798 0.059616
Si Si2 0.162482 0.118939 0.595024
Si Si3 0.531909 0.131476 0.164779
Si Si4 0.105130 0.461104 0.405330
Si Si5 0.702441 0.087425 0.938323
Si Si6 0.556508 0.567450 0.630348
O O1 0.833785 0.947715 0.242201
O O2 0.783577 0.978751 0.998887
O O3 0.000000 0.500000 0.000000
O O4 0.000000 0.000000 0.000000
O O5 0.185208 0.444563 0.508355
O O6 0.278256 0.150709 0.464781
O O7 0.002431 0.858210 0.625154
O O8 0.514020 0.308354 0.274287
O O9 0.447275 0.144004 0.064622
O O10 0.475023 0.763114 0.264156
O O11 0.679841 0.271756 0.043664
O O12 0.208755 0.714514 0.238735
O O13 0.000000 0.500000 0.500000
O O14 0.500000 0.500000 0.500000
#
# Coordination Sequence:
#
# PCOD9058397 Si02
#       6
#     2   2   2   2   2   2
#     4  12  27  45  70 107 150 190 239 302 371 434
#     4  11  25  42  72 105 141 190 244 298 368 431
#     4  11  27  47  76 108 146 201 248 302 370 447
#     4  11  22  45  72 103 145 190 243 304 362 437
#     4  11  24  48  75 109 154 196 249 305 373 446
#     4  12  26  49  74 109 148 192 249 309 369 440
#
# _framework density 24.416172
#
# number of rings (size 3 to 8) (size 9 to 14) (size 15 to 20)
#    0.000    0.667    3.333    3.500    0.000    8.000 
#    6.000    0.000    0.000    0.000    0.000    0.000 
#    0.000    0.000    0.000    0.000    0.000    0.000 
#
# Total GULP energy -67024.289745 kJ/mol
# GULP energy per Si atom -5585.357479 kJ/mol
# Density = 2.436060 g / cm^3
# Si number density = 24.416172 Si / 1000 Ang^3
#
#
#
# Elastic Constant Matrix: (Units=GPa)
#
#
# Indices 1 2 3 4 5 6 
#
# 1 154.3258 38.5139 74.1726 -2.1755 -2.8927 -26.9334
# 2 38.5139 73.9012 49.1157 1.2943 -0.0616 -37.3922
# 3 74.1726 49.1157 211.9148 -12.8618 0.0825 -35.4504
# 4 -2.1755 1.2943 -12.8618 33.9111 -3.2289 -6.5452
# 5 -2.8927 -0.0616 0.0825 -3.2289 71.1314 10.4958
# 6 -26.9334 -37.3922 -35.4504 -6.5452 10.4958 40.1220
#
#
#
# Elastic Compliance Matrix: (Units=1/GPa)
#
#
# Indices 1 2 3 4 5 6 
#
# 1 0.008329 -0.001979 -0.002133 0.000168 0.000071 0.001870
# 2 -0.001979 0.028131 -0.001485 0.002710 -0.003615 0.024963
# 3 -0.002133 -0.001485 0.006609 0.003085 -0.000495 0.003656
# 4 0.000168 0.002710 0.003085 0.032625 -0.000094 0.010711
# 5 0.000071 -0.003615 -0.000495 -0.000094 0.015198 -0.007750
# 6 0.001870 0.024963 0.003656 0.010711 -0.007750 0.056449
#
#
# Mechanical properties :
#
#
# Convention : Reuss Voigt Hill
#
# Bulk Modulus (GPa) = 31.37477 84.86068 58.11773
# Shear Modulus (GPa) = 29.55762 47.58887 38.57325
#
# Velocity S-wave (km/s) = 3.48311 4.41962 3.97901
# Velocity P-wave (km/s) = 5.39017 7.80227 6.70557
#
# Compressibility (1/GPa) = 0.03187274
#
# Stress axis : x y z
#
# Youngs Moduli (GPa) = 120.05757 35.54846 151.31282
#
# Poissons Ratio (x) = 0.07036 0.32283
# Poissons Ratio (y) = 0.23764 0.22472
# Poissons Ratio (z) = 0.25614 0.05279
#
# Static dielectric constant tensor:
#      x y z
#    x 1.981880 0.067680 0.009230 
#    y 0.067680 2.199990 -0.115390 
#    z 0.009230 -0.115390 1.825180 
# 
# From -- ./inp_files/46621.got.cif
#   From: 2010.05.17/outbox.cif.g08.bks.cpg/sg2_24_cif.got.tgz:46621.got - 2010.06.03 11:33:40.
