data_PCOD9058056
_publ_section_title
;
Structure prediction by ZEFSAII (Michael W. Deem and Ramdas Pophale) SiO2 
 PCOD9058056
Probable space group: P -1
;
_chemical_formula_sum "Si O2"
_cell_formula_units_Z 14
_cell_length_a 8.645205
_cell_length_b 7.329380
_cell_length_c 13.085679
_cell_angle_alpha 99.358829
_cell_angle_beta 64.495087
_cell_angle_gamma 119.246096
_cell_volume 651.762542
_symmetry_space_group_name_H-M "P -1"
_symmetry_group_IT_number 2
_symmetry_cell_setting 'triclinic'
loop_
_space_group_symop_operation_xyz
x,y,z
-x,-y,-z
loop_
_atom_site_type_symbol
_atom_site_label
_atom_site_fract_x
_atom_site_fract_y
_atom_site_fract_z
Si Si1 0.407199 0.892065 0.910063
Si Si2 0.450118 0.501303 0.894057
Si Si3 0.660400 0.720210 0.517247
Si Si4 0.676628 0.080752 0.674187
Si Si5 0.006361 0.996117 0.297638
Si Si6 0.215550 0.455852 0.340856
Si Si7 0.012297 0.178437 0.939352
O O1 0.483283 0.724451 0.867250
O O2 0.500493 0.038133 0.798719
O O3 0.175527 0.792413 0.978127
O O4 0.500000 0.000000 0.000000
O O5 0.596069 0.464896 0.777934
O O6 0.224554 0.361339 0.920579
O O7 0.500000 0.500000 0.000000
O O8 0.500000 0.500000 0.500000
O O9 0.759221 0.643802 0.570156
O O10 0.806455 0.852709 0.398605
O O11 0.598661 0.887467 0.598436
O O12 0.836278 0.044824 0.688404
O O13 0.786394 0.321775 0.623664
O O14 0.003011 0.907786 0.178276
O O15 0.057312 0.242210 0.309411
O O16 0.000000 0.000000 0.000000
#
# Coordination Sequence:
#
# PCOD9058056 Si02
#       7
#     2   2   2   2   2   2   2
#     4  12  22  43  67 101 142 180 230 289 352 419
#     4  12  24  42  68  99 141 189 228 293 351 419
#     4  11  25  45  68  98 140 181 235 294 343 416
#     4  11  23  43  73 101 136 186 230 286 355 416
#     4  11  24  44  70  97 140 181 232 293 349 416
#     4  11  22  44  69  99 135 182 234 286 353 413
#     4  12  25  42  66 104 139 183 238 286 355 426
#
# _framework density 21.480215999999999
#
# number of rings (size 3 to 8) (size 9 to 14) (size 15 to 20)
#    0.000    0.571    4.286    6.429    0.000    2.857 
#    2.571    1.429    0.000    0.000    0.000    0.000 
#    0.000    0.000    0.000    0.000    0.000    0.000 
#
# Total GULP energy -78104.130484 kJ/mol
# GULP energy per Si atom -5578.866463 kJ/mol
# Density = 2.143133 g / cm^3
# Si number density = 21.480216 Si / 1000 Ang^3
#
#
#
# Elastic Constant Matrix: (Units=GPa)
#
#
# Indices 1 2 3 4 5 6 
#
# 1 50.3279 46.2122 21.5855 6.6576 2.4318 1.2093
# 2 46.2122 171.0471 31.7027 -1.6984 -15.4376 -25.0857
# 3 21.5855 31.7027 99.8416 -5.3161 -13.8164 -10.1442
# 4 6.6576 -1.6984 -5.3161 38.1768 4.2388 1.7789
# 5 2.4318 -15.4376 -13.8164 4.2388 21.7808 -13.3597
# 6 1.2093 -25.0857 -10.1442 1.7789 -13.3597 45.7404
#
#
#
# Elastic Compliance Matrix: (Units=1/GPa)
#
#
# Indices 1 2 3 4 5 6 
#
# 1 0.042788 -0.016181 -0.011873 -0.004620 -0.037182 -0.023319
# 2 -0.016181 0.013978 0.004025 0.000603 0.023936 0.015954
# 3 -0.011873 0.004025 0.015541 0.001501 0.021161 0.012091
# 4 -0.004620 0.000603 0.001501 0.027811 -0.004506 -0.001612
# 5 -0.037182 0.023936 0.021161 -0.004506 0.113261 0.052060
# 6 -0.023319 0.015954 0.012091 -0.001612 0.052060 0.049178
#
#
# Mechanical properties :
#
#
# Convention : Reuss Voigt Hill
#
# Bulk Modulus (GPa) = 41.23843 57.80194 49.52019
# Shear Modulus (GPa) = 15.68878 35.92069 25.80474
#
# Velocity S-wave (km/s) = 2.70549 4.09377 3.46977
# Velocity P-wave (km/s) = 5.38513 7.02233 6.25750
#
# Compressibility (1/GPa) = 0.02424922
#
# Stress axis : x y z
#
# Youngs Moduli (GPa) = 23.37095 71.54031 64.34428
#
# Poissons Ratio (x) = 1.15761 0.76398
# Poissons Ratio (y) = 0.37817 -0.25901
# Poissons Ratio (z) = 0.27749 -0.28797
#
# Static dielectric constant tensor:
#      x y z
#    x 1.833660 0.013390 -0.135350 
#    y 0.013390 1.730980 0.007730 
#    z -0.135350 0.007730 1.983730 
# 
# From -- ./inp_files/382885.got.cif
#   From: 2010.05.17/outbox.cif.g08.bks.cpg/sg2_192_cif.got.tgz:382885.got - 2010.06.03 11:33:40.
