data_PCOD9058573
_publ_section_title
;
Structure prediction by ZEFSAII (Michael W. Deem and Ramdas Pophale) SiO2 
 PCOD9058573
Probable space group: P -1
;
_chemical_formula_sum "Si O2"
_cell_formula_units_Z 16
_cell_length_a 14.500127
_cell_length_b 9.179158
_cell_length_c 9.092976
_cell_angle_alpha 141.983347
_cell_angle_beta 109.954650
_cell_angle_gamma 72.484772
_cell_volume 699.562763
_symmetry_space_group_name_H-M "P -1"
_symmetry_group_IT_number 2
_symmetry_cell_setting 'triclinic'
loop_
_space_group_symop_operation_xyz
x,y,z
-x,-y,-z
loop_
_atom_site_type_symbol
_atom_site_label
_atom_site_fract_x
_atom_site_fract_y
_atom_site_fract_z
Si Si1 0.411641 0.051070 0.106237
Si Si2 0.021557 0.051165 0.724201
Si Si3 0.678855 0.469136 0.595663
Si Si4 0.209032 0.814812 0.796739
Si Si5 0.511137 0.784067 0.212342
Si Si6 0.695178 0.022878 0.430837
Si Si7 0.829372 0.657149 0.062726
Si Si8 0.825962 0.211048 0.897240
O O1 0.403031 0.334695 0.340186
O O2 0.439090 0.884971 0.126771
O O3 0.500000 0.000000 0.000000
O O4 0.298718 0.990143 0.962444
O O5 0.072931 0.301837 0.942577
O O6 0.922885 0.061615 0.774259
O O7 0.106462 0.887119 0.718450
O O8 0.000000 0.000000 0.500000
O O9 0.743992 0.413526 0.442894
O O10 0.645141 0.231057 0.468275
O O11 0.749960 0.558563 0.831873
O O12 0.190264 0.795524 0.943957
O O13 0.500000 0.000000 0.500000
O O14 0.622405 0.814334 0.244373
O O15 0.500000 0.500000 0.000000
O O16 0.732998 0.120814 0.683642
O O17 0.788826 0.908701 0.305456
O O18 0.841877 0.474733 0.057401
#
# Coordination Sequence:
#
# PCOD9058573 Si02
#       8
#     2   2   2   2   2   2   2   2
#     4  12  28  49  79 107 150 203 261 321 381 466
#     4  12  22  48  72 106 147 205 255 305 376 467
#     4  11  23  46  77 106 147 199 257 313 382 460
#     4  12  26  46  68 115 151 190 250 324 386 450
#     4  12  31  50  76 115 156 202 256 324 405 473
#     4  11  24  48  76 106 146 204 259 315 381 467
#     4  11  22  46  72 104 143 200 254 308 375 463
#     4  11  26  42  77 107 155 193 250 319 386 451
#
# _framework density 22.871428999999999
#
# number of rings (size 3 to 8) (size 9 to 14) (size 15 to 20)
#    0.000    0.500    3.750    3.750    8.750    2.000 
#    0.000    1.250    0.000    0.000    0.000    0.000 
#    0.000    0.000    0.000    0.000    0.000    0.000 
#
# Total GULP energy -89351.748114 kJ/mol
# GULP energy per Si atom -5584.484257 kJ/mol
# Density = 2.281937 g / cm^3
# Si number density = 22.871429 Si / 1000 Ang^3
#
#
#
# Elastic Constant Matrix: (Units=GPa)
#
#
# Indices 1 2 3 4 5 6 
#
# 1 125.4072 76.5422 38.1969 1.7582 -13.6125 2.5537
# 2 76.5422 157.7359 84.7143 -1.6731 -14.8429 -7.6974
# 3 38.1969 84.7143 97.4663 -5.8300 -19.0945 6.7980
# 4 1.7582 -1.6731 -5.8300 46.4490 7.0317 -5.8827
# 5 -13.6125 -14.8429 -19.0945 7.0317 50.7358 2.0143
# 6 2.5537 -7.6974 6.7980 -5.8827 2.0143 40.0508
#
#
#
# Elastic Compliance Matrix: (Units=1/GPa)
#
#
# Indices 1 2 3 4 5 6 
#
# 1 0.011744 -0.006458 0.001529 -0.001121 0.002093 -0.002520
# 2 -0.006458 0.016175 -0.012281 0.000300 -0.001892 0.005744
# 3 0.001529 -0.012281 0.021833 0.000652 0.005195 -0.006329
# 4 -0.001121 0.000300 0.000652 0.022598 -0.003239 0.003500
# 5 0.002093 -0.001892 0.005195 -0.003239 0.022240 -0.002973
# 6 -0.002520 0.005744 -0.006329 0.003500 -0.002973 0.027971
#
#
# Mechanical properties :
#
#
# Convention : Reuss Voigt Hill
#
# Bulk Modulus (GPa) = 65.22197 86.61292 75.91744
# Shear Modulus (GPa) = 30.84698 39.52419 35.18559
#
# Velocity S-wave (km/s) = 3.67647 4.16156 3.92651
# Velocity P-wave (km/s) = 6.82646 7.81301 7.33634
#
# Compressibility (1/GPa) = 0.01533226
#
# Stress axis : x y z
#
# Youngs Moduli (GPa) = 85.14902 61.82526 45.80226
#
# Poissons Ratio (x) = 0.39928 -0.07005
# Poissons Ratio (y) = 0.54991 0.56249
# Poissons Ratio (z) = -0.13022 0.75927
#
# Static dielectric constant tensor:
#      x y z
#    x 1.925430 -0.000010 0.022940 
#    y -0.000010 1.862280 0.029300 
#    z 0.022940 0.029300 1.969210 
# 
# From -- ./inp_files/206656.got.cif
#   From: 2010.05.17/outbox.cif.g08.bks.cpg/sg2_104_cif.got.tgz:206656.got - 2010.06.03 11:33:40.
