data_PCOD9058486
_publ_section_title
;
Structure prediction by ZEFSAII (Michael W. Deem and Ramdas Pophale) SiO2 
 PCOD9058486
Probable space group: P -1
;
_chemical_formula_sum "Si O2"
_cell_formula_units_Z 14
_cell_length_a 8.692975
_cell_length_b 5.737745
_cell_length_c 17.171109
_cell_angle_alpha 123.466109
_cell_angle_beta 126.193005
_cell_angle_gamma 52.624090
_cell_volume 523.812543
_symmetry_space_group_name_H-M "P -1"
_symmetry_group_IT_number 2
_symmetry_cell_setting 'triclinic'
loop_
_space_group_symop_operation_xyz
x,y,z
-x,-y,-z
loop_
_atom_site_type_symbol
_atom_site_label
_atom_site_fract_x
_atom_site_fract_y
_atom_site_fract_z
Si Si1 0.330148 0.230535 0.808450
Si Si2 0.856049 0.370873 0.024519
Si Si3 0.389929 0.271899 0.291209
Si Si4 0.786659 0.385411 0.839326
Si Si5 0.337833 0.096340 0.543459
Si Si6 0.072485 0.819726 0.616233
Si Si7 0.971681 0.709153 0.724579
O O1 0.289529 0.428558 0.911123
O O2 0.215030 0.494889 0.760729
O O3 0.559010 0.009864 0.806977
O O4 0.203462 0.010959 0.719162
O O5 0.037964 0.491040 0.100497
O O6 0.717818 0.479865 0.924433
O O7 0.000000 0.000000 0.000000
O O8 0.368688 0.524356 0.264508
O O9 0.168938 0.426905 0.297944
O O10 0.538313 0.096619 0.377105
O O11 0.911665 0.021717 0.809517
O O12 0.234461 0.471751 0.581354
O O13 0.124594 0.033243 0.473695
O O14 0.500000 0.000000 0.500000
O O15 0.930530 0.788690 0.638655
#
# Coordination Sequence:
#
# PCOD9058486 Si02
#       7
#     2   2   2   2   2   2   2
#     4  12  26  45  76 107 146 197 240 300 366 430
#     4  11  22  45  76 106 146 197 240 293 364 436
#     4  12  26  43  73 113 141 188 245 306 363 430
#     4  11  24  43  75 108 145 193 240 300 365 427
#     4  11  25  47  76 106 146 190 248 304 362 437
#     4  11  25  47  73 107 143 199 243 296 369 434
#     4  12  22  48  70 104 153 188 239 298 366 434
#
# _framework density 26.727117
#
# number of rings (size 3 to 8) (size 9 to 14) (size 15 to 20)
#    0.000    0.571    7.143    0.000    2.000    2.286 
#    0.000    6.429    0.000    0.000    0.000    0.000 
#    0.000    0.000    0.000    0.000    0.000    0.000 
#
# Total GULP energy -77989.379650 kJ/mol
# GULP energy per Si atom -5570.669975 kJ/mol
# Density = 2.666629 g / cm^3
# Si number density = 26.727117 Si / 1000 Ang^3
#
#
#
# Elastic Constant Matrix: (Units=GPa)
#
#
# Indices 1 2 3 4 5 6 
#
# 1 101.0818 22.8450 58.9072 -2.5704 -7.1042 -18.9779
# 2 22.8450 127.6543 48.4444 4.6134 -8.2509 -19.1872
# 3 58.9072 48.4444 117.8735 -2.0993 -16.3181 6.5154
# 4 -2.5704 4.6134 -2.0993 55.8922 -1.5566 -12.2985
# 5 -7.1042 -8.2509 -16.3181 -1.5566 50.6459 4.2669
# 6 -18.9779 -19.1872 6.5154 -12.2985 4.2669 38.8707
#
#
#
# Elastic Compliance Matrix: (Units=1/GPa)
#
#
# Indices 1 2 3 4 5 6 
#
# 1 0.018214 0.002742 -0.011130 0.003066 -0.001607 0.013258
# 2 0.002742 0.010912 -0.006365 0.000751 -0.000547 0.008090
# 3 -0.011130 -0.006365 0.017904 -0.001984 0.004177 -0.012663
# 4 0.003066 0.000751 -0.001984 0.019755 -0.000193 0.008472
# 5 -0.001607 -0.000547 0.004177 -0.000193 0.021118 -0.004134
# 6 0.013258 0.008090 -0.012663 0.008472 -0.004134 0.041449
#
#
# Mechanical properties :
#
#
# Convention : Reuss Voigt Hill
#
# Bulk Modulus (GPa) = 57.06020 67.44476 62.25248
# Shear Modulus (GPa) = 30.35856 43.50931 36.93394
#
# Velocity S-wave (km/s) = 3.37393 4.03911 3.72141
# Velocity P-wave (km/s) = 6.04759 6.85871 6.46588
#
# Compressibility (1/GPa) = 0.01752535
#
# Stress axis : x y z
#
# Youngs Moduli (GPa) = 54.90397 91.64557 55.85211
#
# Poissons Ratio (x) = -0.25133 0.62164
# Poissons Ratio (y) = -0.15057 0.35547
# Poissons Ratio (z) = 0.61109 0.58328
#
# Static dielectric constant tensor:
#      x y z
#    x 2.149980 0.051520 0.070130 
#    y 0.051520 2.063570 -0.028340 
#    z 0.070130 -0.028340 2.290240 
# 
# From -- ./inp_files/553869.got.cif
#   From: 2010.05.17/outbox.cif.g08.bks.cpg/sg2_277_cif.got.tgz:553869.got - 2010.06.03 11:33:40.
