data_PCOD9058124
_publ_section_title
;
Structure prediction by ZEFSAII (Michael W. Deem and Ramdas Pophale) SiO2 
 PCOD9058124
Probable space group: P -1
;
_chemical_formula_sum "Si O2"
_cell_formula_units_Z 14
_cell_length_a 16.433800
_cell_length_b 9.392009
_cell_length_c 10.928425
_cell_angle_alpha 106.896116
_cell_angle_beta 157.691670
_cell_angle_gamma 71.760467
_cell_volume 608.106814
_symmetry_space_group_name_H-M "P -1"
_symmetry_group_IT_number 2
_symmetry_cell_setting 'triclinic'
loop_
_space_group_symop_operation_xyz
x,y,z
-x,-y,-z
loop_
_atom_site_type_symbol
_atom_site_label
_atom_site_fract_x
_atom_site_fract_y
_atom_site_fract_z
Si Si1 0.262526 0.503341 0.230706
Si Si2 0.232454 0.866625 0.626205
Si Si3 0.214160 0.190720 0.977919
Si Si4 0.427098 0.997015 0.690612
Si Si5 0.139418 0.280431 0.375465
Si Si6 0.642213 0.453688 0.347866
Si Si7 0.175328 0.357219 0.708129
O O1 0.500000 0.500000 0.500000
O O2 0.261536 0.541297 0.381307
O O3 0.206763 0.333896 0.092112
O O4 0.087831 0.628333 0.956904
O O5 0.253582 0.686761 0.620551
O O6 0.975655 0.911293 0.286562
O O7 0.327983 0.900393 0.634398
O O8 0.382274 0.929755 0.952862
O O9 0.175319 0.262925 0.807155
O O10 0.451439 0.099077 0.272657
O O11 0.237089 0.123075 0.414552
O O12 0.312506 0.395079 0.615969
O O13 0.143128 0.256211 0.520385
O O14 0.398572 0.425556 0.022185
O O15 0.000000 0.500000 0.500000
#
# Coordination Sequence:
#
# PCOD9058124 Si02
#       7
#     2   2   2   2   2   2   2
#     4  12  24  46  69  98 138 185 228 282 346 413
#     4  11  22  44  71  97 142 184 223 275 358 405
#     4  12  24  43  71 100 143 185 223 278 357 408
#     4  11  24  44  65 105 143 177 223 291 342 406
#     4  12  25  41  71 104 131 178 237 288 338 399
#     4  12  23  44  72  97 140 179 230 284 345 409
#     4  12  21  39  69 105 133 168 234 292 324 395
#
# _framework density 23.022269999999999
#
# number of rings (size 3 to 8) (size 9 to 14) (size 15 to 20)
#    0.000    0.286    7.143    2.143    2.000    0.000 
#    2.571    3.571    0.000    0.000    0.000    0.000 
#    0.000    0.000    0.000    0.000    0.000    0.000 
#
# Total GULP energy -78373.693563 kJ/mol
# GULP energy per Si atom -5598.120969 kJ/mol
# Density = 2.296987 g / cm^3
# Si number density = 23.022270 Si / 1000 Ang^3
#
#
#
# Elastic Constant Matrix: (Units=GPa)
#
#
# Indices 1 2 3 4 5 6 
#
# 1 60.2433 1.4649 30.2932 -1.6090 6.6503 -7.3944
# 2 1.4649 90.3833 28.8015 -28.1814 8.2929 -14.3629
# 3 30.2932 28.8015 105.7994 -8.6036 23.3752 -11.6037
# 4 -1.6090 -28.1814 -8.6036 29.8180 -6.1515 17.6719
# 5 6.6503 8.2929 23.3752 -6.1515 48.5733 2.0200
# 6 -7.3944 -14.3629 -11.6037 17.6719 2.0200 31.9624
#
#
#
# Elastic Compliance Matrix: (Units=1/GPa)
#
#
# Indices 1 2 3 4 5 6 
#
# 1 0.019981 0.001739 -0.005711 -0.001578 -0.000660 0.004245
# 2 0.001739 0.017172 -0.004383 0.017089 0.001228 -0.002998
# 3 -0.005711 -0.004383 0.013695 -0.004324 -0.005793 0.004438
# 4 -0.001578 0.017089 -0.004324 0.070374 0.009697 -0.033778
# 5 -0.000660 0.001228 -0.005793 0.009697 0.024843 -0.008635
# 6 0.004245 -0.002998 0.004438 -0.033778 -0.008635 0.051754
#
#
# Mechanical properties :
#
#
# Convention : Reuss Voigt Hill
#
# Bulk Modulus (GPa) = 29.29364 41.94947 35.62156
# Shear Modulus (GPa) = 22.13288 35.12851 28.63070
#
# Velocity S-wave (km/s) = 3.10396 3.91045 3.53031
# Velocity P-wave (km/s) = 5.05942 6.21688 5.66778
#
# Compressibility (1/GPa) = 0.03413710
#
# Stress axis : x y z
#
# Youngs Moduli (GPa) = 50.04809 58.23582 73.01789
#
# Poissons Ratio (x) = -0.10129 0.41703
# Poissons Ratio (y) = -0.08705 0.32005
# Poissons Ratio (z) = 0.28584 0.25526
#
# Static dielectric constant tensor:
#      x y z
#    x 1.853010 -0.039200 0.031250 
#    y -0.039200 1.878270 -0.024230 
#    z 0.031250 -0.024230 1.924080 
# 
# From -- ./inp_files/261340.got.cif
#   From: 2010.05.17/outbox.cif.g08.bks.cpg/sg2_131_cif.got.tgz:261340.got - 2010.06.03 11:33:40.
