data_PCOD9058131
_publ_section_title
;
Structure prediction by ZEFSAII (Michael W. Deem and Ramdas Pophale) SiO2 
 PCOD9058131
Probable space group: P -1
;
_chemical_formula_sum "Si O2"
_cell_formula_units_Z 12
_cell_length_a 10.238841
_cell_length_b 7.633505
_cell_length_c 8.033025
_cell_angle_alpha 100.348309
_cell_angle_beta 103.427182
_cell_angle_gamma 92.814597
_cell_volume 598.039974
_symmetry_space_group_name_H-M "P -1"
_symmetry_group_IT_number 2
_symmetry_cell_setting 'triclinic'
loop_
_space_group_symop_operation_xyz
x,y,z
-x,-y,-z
loop_
_atom_site_type_symbol
_atom_site_label
_atom_site_fract_x
_atom_site_fract_y
_atom_site_fract_z
Si Si1 0.372725 0.944888 0.833965
Si Si2 0.091293 0.399672 0.389943
Si Si3 0.222562 0.743366 0.303515
Si Si4 0.901330 0.148288 0.053872
Si Si5 0.730593 0.885524 0.481467
Si Si6 0.520309 0.290629 0.455585
O O1 0.408141 0.773297 0.702577
O O2 0.344231 0.091711 0.710741
O O3 0.233338 0.916307 0.891641
O O4 0.500000 0.000000 0.000000
O O5 0.179393 0.555049 0.344357
O O6 0.174406 0.271546 0.503814
O O7 0.000000 0.500000 0.500000
O O8 0.997574 0.282463 0.215237
O O9 0.156257 0.757699 0.108266
O O10 0.384023 0.756354 0.371072
O O11 0.810890 0.077946 0.576947
O O12 0.000000 0.000000 0.000000
O O13 0.619878 0.830553 0.582202
O O14 0.500000 0.500000 0.500000
#
# Coordination Sequence:
#
# PCOD9058131 Si02
#       6
#     2   2   2   2   2   2
#     4  11  25  45  72 101 137 183 229 278 345 405
#     4  12  26  43  69 103 135 180 236 277 344 409
#     4  11  23  45  70  95 138 182 225 282 341 403
#     4  12  26  45  70 102 143 182 225 283 344 407
#     4  11  23  44  74  97 139 182 226 287 342 403
#     4  11  22  44  72 100 133 178 231 284 339 402
#
# _framework density 20.065549000000001
#
# number of rings (size 3 to 8) (size 9 to 14) (size 15 to 20)
#    0.000    0.667    3.333    6.500    2.333    1.333 
#    3.000    1.667    0.000    0.000    0.000    0.000 
#    0.000    0.000    0.000    0.000    0.000    0.000 
#
# Total GULP energy -66988.563339 kJ/mol
# GULP energy per Si atom -5582.380278 kJ/mol
# Density = 2.001988 g / cm^3
# Si number density = 20.065549 Si / 1000 Ang^3
#
#
#
# Elastic Constant Matrix: (Units=GPa)
#
#
# Indices 1 2 3 4 5 6 
#
# 1 120.8522 61.6139 43.7728 9.9978 -1.3355 -20.3965
# 2 61.6139 148.7804 61.4249 1.8379 6.1678 -25.2129
# 3 43.7728 61.4249 125.3816 2.1685 14.2927 -21.2238
# 4 9.9978 1.8379 2.1685 37.4846 -3.8416 8.0726
# 5 -1.3355 6.1678 14.2927 -3.8416 24.7068 -1.4507
# 6 -20.3965 -25.2129 -21.2238 8.0726 -1.4507 46.1397
#
#
#
# Elastic Compliance Matrix: (Units=1/GPa)
#
#
# Indices 1 2 3 4 5 6 
#
# 1 0.011588 -0.003524 -0.002045 -0.003179 0.002364 0.002887
# 2 -0.003524 0.009910 -0.003143 0.000052 -0.000699 0.002381
# 3 -0.002045 -0.003143 0.011367 -0.001129 -0.005924 0.002619
# 4 -0.003179 0.000052 -0.001129 0.029556 0.004658 -0.006921
# 5 0.002364 -0.000699 -0.005924 0.004658 0.044842 -0.001466
# 6 0.002887 0.002381 0.002619 -0.006921 -0.001466 0.026620
#
#
# Mechanical properties :
#
#
# Convention : Reuss Voigt Hill
#
# Bulk Modulus (GPa) = 64.76058 80.95973 72.86015
# Shear Modulus (GPa) = 31.95801 36.87974 34.41887
#
# Velocity S-wave (km/s) = 3.99517 4.29180 4.14614
# Velocity P-wave (km/s) = 7.32301 8.06192 7.70133
#
# Compressibility (1/GPa) = 0.01544149
#
# Stress axis : x y z
#
# Youngs Moduli (GPa) = 86.29315 100.90654 87.97088
#
# Poissons Ratio (x) = 0.35563 0.17990
# Poissons Ratio (y) = 0.30412 0.27648
# Poissons Ratio (z) = 0.17647 0.31714
#
# Static dielectric constant tensor:
#      x y z
#    x 1.766790 0.034510 -0.014530 
#    y 0.034510 1.738750 0.000610 
#    z -0.014530 0.000610 1.690990 
# 
# From -- ./inp_files/57762.got.cif
#   From: 2010.05.17/outbox.cif.g08.bks.cpg/sg2_29_cif.got.tgz:57762.got - 2010.06.03 11:33:40.
