data_PCOD9058332
_publ_section_title
;
Structure prediction by ZEFSAII (Michael W. Deem and Ramdas Pophale) SiO2 
 PCOD9058332
Probable space group: P -1
;
_chemical_formula_sum "Si O2"
_cell_formula_units_Z 14
_cell_length_a 9.458473
_cell_length_b 11.213534
_cell_length_c 11.635909
_cell_angle_alpha 42.260588
_cell_angle_beta 50.876178
_cell_angle_gamma 61.495351
_cell_volume 643.747863
_symmetry_space_group_name_H-M "P -1"
_symmetry_group_IT_number 2
_symmetry_cell_setting 'triclinic'
loop_
_space_group_symop_operation_xyz
x,y,z
-x,-y,-z
loop_
_atom_site_type_symbol
_atom_site_label
_atom_site_fract_x
_atom_site_fract_y
_atom_site_fract_z
Si Si1 0.310266 0.573638 0.494175
Si Si2 0.650584 0.455510 0.778090
Si Si3 0.297714 0.968946 0.173485
Si Si4 0.713319 0.739250 0.845391
Si Si5 0.973337 0.010326 0.141723
Si Si6 0.931110 0.415597 0.868224
Si Si7 0.649408 0.848019 0.550233
O O1 0.500000 0.500000 0.500000
O O2 0.309449 0.556453 0.368484
O O3 0.139915 0.469053 0.705746
O O4 0.293386 0.783943 0.375953
O O5 0.824236 0.430071 0.790403
O O6 0.574800 0.653143 0.703689
O O7 0.495488 0.318508 0.988813
O O8 0.238346 0.132759 0.167153
O O9 0.159310 0.958277 0.146775
O O10 0.500000 0.000000 0.000000
O O11 0.834590 0.560976 0.896167
O O12 0.722997 0.843206 0.645920
O O13 0.816383 0.882057 0.355451
O O14 0.919802 0.212758 0.057244
O O15 0.000000 0.000000 0.000000
O O16 0.500000 0.000000 0.500000
#
# Coordination Sequence:
#
# PCOD9058332 Si02
#       7
#     2   2   2   2   2   2   2
#     4  12  26  44  69 101 138 183 228 285 348 410
#     4  11  22  45  69  99 139 180 229 280 343 411
#     4  12  26  46  71 101 142 181 230 286 348 414
#     4  11  25  45  71 101 142 182 226 289 351 403
#     4  12  26  45  74 105 138 184 234 281 339 414
#     4  11  24  45  70 101 138 180 235 281 343 407
#     4  11  24  41  71 104 135 181 230 285 337 405
#
# _framework density 21.747644000000001
#
# number of rings (size 3 to 8) (size 9 to 14) (size 15 to 20)
#    0.000    0.571    1.429    8.143    4.000    2.857 
#    0.000    0.000    0.000    0.000    0.000    0.000 
#    0.000    0.000    0.000    0.000    0.000    0.000 
#
# Total GULP energy -78432.825711 kJ/mol
# GULP energy per Si atom -5602.344694 kJ/mol
# Density = 2.169814 g / cm^3
# Si number density = 21.747644 Si / 1000 Ang^3
#
#
#
# Elastic Constant Matrix: (Units=GPa)
#
#
# Indices 1 2 3 4 5 6 
#
# 1 101.7483 36.1600 17.2868 -3.9922 -11.4097 -8.9557
# 2 36.1600 84.7603 -11.1166 -8.8412 13.4095 4.0675
# 3 17.2868 -11.1166 64.3131 1.6567 -0.3820 5.4055
# 4 -3.9922 -8.8412 1.6567 46.6077 -6.7864 8.3518
# 5 -11.4097 13.4095 -0.3820 -6.7864 27.2663 0.5369
# 6 -8.9557 4.0675 5.4055 8.3518 0.5369 38.8276
#
#
#
# Elastic Compliance Matrix: (Units=1/GPa)
#
#
# Indices 1 2 3 4 5 6 
#
# 1 0.016177 -0.009774 -0.006435 0.000468 0.011496 0.005391
# 2 -0.009774 0.019272 0.006286 0.001662 -0.012961 -0.005327
# 3 -0.006435 0.006286 0.018726 0.000025 -0.005424 -0.004680
# 4 0.000468 0.001662 0.000025 0.023519 0.005335 -0.005202
# 5 0.011496 -0.012961 -0.005424 0.005335 0.049054 0.002939
# 6 0.005391 -0.005327 -0.004680 -0.005202 0.002939 0.029286
#
#
# Mechanical properties :
#
#
# Convention : Reuss Voigt Hill
#
# Bulk Modulus (GPa) = 29.12942 37.27579 33.20261
# Shear Modulus (GPa) = 26.69204 36.43975 31.56589
#
# Velocity S-wave (km/s) = 3.50716 4.09782 3.81394
# Velocity P-wave (km/s) = 5.46110 6.29022 5.89026
#
# Compressibility (1/GPa) = 0.03432955
#
# Stress axis : x y z
#
# Youngs Moduli (GPa) = 61.81627 51.88976 53.40290
#
# Poissons Ratio (x) = 0.50717 0.34363
# Poissons Ratio (y) = 0.60419 -0.33570
# Poissons Ratio (z) = 0.39776 -0.32619
#
# Static dielectric constant tensor:
#      x y z
#    x 1.754980 0.008470 0.037240 
#    y 0.008470 1.814650 0.016040 
#    z 0.037240 0.016040 1.962000 
# 
# From -- ./inp_files/177579.got.cif
#   From: 2010.05.17/outbox.cif.g08.bks.cpg/sg2_89_cif.got.tgz:177579.got - 2010.06.03 11:33:40.
