data_PCOD9058721
_publ_section_title
;
Structure prediction by ZEFSAII (Michael W. Deem and Ramdas Pophale) SiO2 
 PCOD9058721
Probable space group: P -1
;
_chemical_formula_sum "Si O2"
_cell_formula_units_Z 16
_cell_length_a 18.729052
_cell_length_b 12.120961
_cell_length_c 6.438948
_cell_angle_alpha 95.479918
_cell_angle_beta 95.870979
_cell_angle_gamma 27.498511
_cell_volume 671.342810
_symmetry_space_group_name_H-M "P -1"
_symmetry_group_IT_number 2
_symmetry_cell_setting 'triclinic'
loop_
_space_group_symop_operation_xyz
x,y,z
-x,-y,-z
loop_
_atom_site_type_symbol
_atom_site_label
_atom_site_fract_x
_atom_site_fract_y
_atom_site_fract_z
Si Si1 0.429540 0.718322 0.038232
Si Si2 0.805479 0.627888 0.846988
Si Si3 0.197126 0.503004 0.802607
Si Si4 0.851969 0.902441 0.287201
Si Si5 0.926358 0.992581 0.587247
Si Si6 0.278428 0.583499 0.149420
Si Si7 0.701336 0.961986 0.595766
Si Si8 0.402329 0.256690 0.440888
O O1 0.269854 0.943950 0.905954
O O2 0.559913 0.614380 0.948545
O O3 0.500000 0.500000 0.000000
O O4 0.397014 0.808211 0.274746
O O5 0.665027 0.746487 0.729692
O O6 0.803058 0.610694 0.089934
O O7 0.972220 0.353481 0.779091
O O8 0.215789 0.222912 0.233088
O O9 0.345257 0.309336 0.664453
O O10 0.197055 0.601713 0.989897
O O11 0.052898 0.730376 0.655672
O O12 0.829400 0.056192 0.402965
O O13 0.812218 0.867962 0.447541
O O14 0.828202 0.166010 0.788391
O O15 0.000000 0.000000 0.500000
O O16 0.315044 0.483843 0.368318
O O17 0.580968 0.044641 0.460250
#
# Coordination Sequence:
#
# PCOD9058721 Si02
#       8
#     2   2   2   2   2   2   2   2
#     4  12  29  44  71 106 144 187 238 290 362 434
#     4  11  27  47  76 106 141 190 249 294 350 427
#     4  11  23  44  71 106 142 180 249 292 354 420
#     4  12  28  48  71 107 146 187 242 296 361 429
#     4  12  24  43  74 102 143 195 232 299 362 420
#     4  11  23  42  67 103 143 186 233 288 359 429
#     4  12  27  50  74 103 148 195 233 299 363 419
#     4  11  22  47  74 106 140 187 242 297 353 422
#
# _framework density 23.832830000000001
#
# number of rings (size 3 to 8) (size 9 to 14) (size 15 to 20)
#    0.000    0.500    5.000    2.625    7.000    3.000 
#    0.000    0.000    0.000    0.000    0.000    0.000 
#    0.000    0.000    0.000    0.000    0.000    0.000 
#
# Total GULP energy -89572.102987 kJ/mol
# GULP energy per Si atom -5598.256437 kJ/mol
# Density = 2.377859 g / cm^3
# Si number density = 23.832830 Si / 1000 Ang^3
#
#
#
# Elastic Constant Matrix: (Units=GPa)
#
#
# Indices 1 2 3 4 5 6 
#
# 1 77.2825 14.0598 30.9053 -10.5623 -12.8317 -5.5175
# 2 14.0598 66.6322 20.7369 -9.3120 4.1319 -8.9578
# 3 30.9053 20.7369 86.5556 1.9711 -13.5886 -14.9670
# 4 -10.5623 -9.3120 1.9711 32.3896 0.6720 -4.1496
# 5 -12.8317 4.1319 -13.5886 0.6720 46.4982 0.9524
# 6 -5.5175 -8.9578 -14.9670 -4.1496 0.9524 37.0298
#
#
#
# Elastic Compliance Matrix: (Units=1/GPa)
#
#
# Indices 1 2 3 4 5 6 
#
# 1 0.016502 -0.001248 -0.005127 0.005348 0.003077 0.000605
# 2 -0.001248 0.017887 -0.003906 0.005457 -0.003221 0.003256
# 3 -0.005127 -0.003906 0.015659 -0.003287 0.003471 0.004163
# 4 0.005348 0.005457 -0.003287 0.035004 -0.000572 0.004726
# 5 0.003077 -0.003221 0.003471 -0.000572 0.023656 0.000409
# 6 0.000605 0.003256 0.004163 0.004726 0.000409 0.030085
#
#
# Mechanical properties :
#
#
# Convention : Reuss Voigt Hill
#
# Bulk Modulus (GPa) = 33.91650 40.20824 37.06237
# Shear Modulus (GPa) = 29.55330 34.16808 31.86069
#
# Velocity S-wave (km/s) = 3.52522 3.79047 3.66025
# Velocity P-wave (km/s) = 5.55261 6.00537 5.78342
#
# Compressibility (1/GPa) = 0.02948417
#
# Stress axis : x y z
#
# Youngs Moduli (GPa) = 60.59866 55.90611 63.85923
#
# Poissons Ratio (x) = 0.06980 0.32742
# Poissons Ratio (y) = 0.07566 0.24946
# Poissons Ratio (z) = 0.31071 0.21840
#
# Static dielectric constant tensor:
#      x y z
#    x 1.921190 0.015410 -0.023300 
#    y 0.015410 1.905530 -0.029030 
#    z -0.023300 -0.029030 1.873840 
# 
# From -- ./inp_files/124823.got.cif
#   From: 2010.05.17/outbox.cif.g08.bks.cpg/sg2_63_cif.got.tgz:124823.got - 2010.06.03 11:33:40.
