data_PCOD9058439
_publ_section_title
;
Structure prediction by ZEFSAII (Michael W. Deem and Ramdas Pophale) SiO2 
 PCOD9058439
Probable space group: P -1
;
_chemical_formula_sum "Si O2"
_cell_formula_units_Z 12
_cell_length_a 15.461586
_cell_length_b 13.981108
_cell_length_c 6.470166
_cell_angle_alpha 59.201626
_cell_angle_beta 111.531865
_cell_angle_gamma 153.094162
_cell_volume 529.036550
_symmetry_space_group_name_H-M "P -1"
_symmetry_group_IT_number 2
_symmetry_cell_setting 'triclinic'
loop_
_space_group_symop_operation_xyz
x,y,z
-x,-y,-z
loop_
_atom_site_type_symbol
_atom_site_label
_atom_site_fract_x
_atom_site_fract_y
_atom_site_fract_z
Si Si1 0.786914 0.246372 0.002932
Si Si2 0.318157 0.292286 0.417469
Si Si3 0.869963 0.188427 0.754529
Si Si4 0.932382 0.782280 0.807035
Si Si5 0.415379 0.160962 0.448359
Si Si6 0.795301 0.485776 0.631950
O O1 0.817011 0.230907 0.816380
O O2 0.692101 0.269432 0.886161
O O3 0.000000 0.500000 0.000000
O O4 0.689812 0.046113 0.274919
O O5 0.500000 0.500000 0.500000
O O6 0.252784 0.332070 0.186066
O O7 0.354999 0.220574 0.398254
O O8 0.124767 0.061384 0.636855
O O9 0.022582 0.367223 0.504654
O O10 0.665877 0.938660 0.743559
O O11 0.986991 0.220995 0.955612
O O12 0.872897 0.652062 0.690725
O O13 0.642132 0.382049 0.458061
#
# Coordination Sequence:
#
# PCOD9058439 Si02
#       6
#     2   2   2   2   2   2
#     4  12  23  46  72  94 140 182 216 275 339 398
#     4  11  22  45  73  93 134 182 222 274 332 397
#     4  12  24  44  68 103 137 169 228 275 336 397
#     4  11  24  44  72  97 134 179 222 273 339 394
#     4  12  26  44  68 105 134 176 229 274 333 396
#     4  12  25  44  70 103 135 177 223 275 337 400
#
# _framework density 22.682742999999999
#
# number of rings (size 3 to 8) (size 9 to 14) (size 15 to 20)
#    0.000    0.333    8.333    1.000    0.000    4.000 
#    0.000    1.667    0.000    0.000    0.000    0.000 
#    0.000    0.000    0.000    0.000    0.000    0.000 
#
# Total GULP energy -67038.828902 kJ/mol
# GULP energy per Si atom -5586.569075 kJ/mol
# Density = 2.263112 g / cm^3
# Si number density = 22.682743 Si / 1000 Ang^3
#
#
#
# Elastic Constant Matrix: (Units=GPa)
#
#
# Indices 1 2 3 4 5 6 
#
# 1 81.5085 44.0312 22.6184 20.2409 36.1272 -0.3190
# 2 44.0312 155.2629 51.5044 41.6605 11.5066 -5.5974
# 3 22.6184 51.5044 62.7183 31.9024 23.7710 1.0479
# 4 20.2409 41.6605 31.9024 48.1733 9.7727 6.5739
# 5 36.1272 11.5066 23.7710 9.7727 38.3838 3.1207
# 6 -0.3190 -5.5974 1.0479 6.5739 3.1207 37.9673
#
#
#
# Elastic Compliance Matrix: (Units=1/GPa)
#
#
# Indices 1 2 3 4 5 6 
#
# 1 0.027773 -0.007257 0.010180 -0.006624 -0.028778 0.002395
# 2 -0.007257 0.011718 -0.008982 -0.003313 0.009585 0.001700
# 3 0.010180 -0.008982 0.038193 -0.016810 -0.026489 0.002795
# 4 -0.006624 -0.003313 -0.016810 0.036717 0.008873 -0.007167
# 5 -0.028778 0.009585 -0.026489 0.008873 0.064814 -0.004961
# 6 0.002395 0.001700 0.002795 -0.007167 -0.004961 0.028181
#
#
# Mechanical properties :
#
#
# Convention : Reuss Voigt Hill
#
# Bulk Modulus (GPa) = 15.25174 59.53309 37.39241
# Shear Modulus (GPa) = 20.71518 36.99395 28.85457
#
# Velocity S-wave (km/s) = 3.02529 4.04286 3.57051
# Velocity P-wave (km/s) = 4.35221 6.93512 5.78954
#
# Compressibility (1/GPa) = 0.06556631
#
# Stress axis : x y z
#
# Youngs Moduli (GPa) = 36.00567 85.33842 26.18310
#
# Poissons Ratio (x) = 0.61927 -0.26654
# Poissons Ratio (y) = 0.26128 0.23517
# Poissons Ratio (z) = -0.36653 0.76650
#
# Static dielectric constant tensor:
#      x y z
#    x 1.880620 0.024880 0.084210 
#    y 0.024880 1.850980 -0.048580 
#    z 0.084210 -0.048580 1.945110 
# 
# From -- ./inp_files/25942.got.cif
#   From: 2010.05.17/outbox.cif.g08.bks.cpg/sg2_13_cif.got.tgz:25942.got - 2010.06.03 11:33:40.
