data_PCOD9058313
_publ_section_title
;
Structure prediction by ZEFSAII (Michael W. Deem and Ramdas Pophale) SiO2 
 PCOD9058313
Probable space group: P -1
;
_chemical_formula_sum "Si O2"
_cell_formula_units_Z 16
_cell_length_a 11.173057
_cell_length_b 20.282042
_cell_length_c 8.297967
_cell_angle_alpha 52.781240
_cell_angle_beta 137.958154
_cell_angle_gamma 149.955049
_cell_volume 626.425692
_symmetry_space_group_name_H-M "P -1"
_symmetry_group_IT_number 2
_symmetry_cell_setting 'triclinic'
loop_
_space_group_symop_operation_xyz
x,y,z
-x,-y,-z
loop_
_atom_site_type_symbol
_atom_site_label
_atom_site_fract_x
_atom_site_fract_y
_atom_site_fract_z
Si Si1 0.551994 0.307902 0.958487
Si Si2 0.748996 0.793504 0.870601
Si Si3 0.062563 0.757829 0.106518
Si Si4 0.938990 0.950735 0.329955
Si Si5 0.093636 0.720306 0.552835
Si Si6 0.190928 0.623495 0.390782
Si Si7 0.405545 0.565347 0.442591
Si Si8 0.905832 0.171911 0.298272
O O1 0.328865 0.251679 0.957221
O O2 0.760444 0.316301 0.228970
O O3 0.375495 0.195454 0.810778
O O4 0.687235 0.438671 0.823743
O O5 0.490954 0.748922 0.593914
O O6 0.803922 0.728339 0.927333
O O7 0.005282 0.950724 0.873948
O O8 0.169029 0.786298 0.356881
O O9 0.027805 0.651099 0.168130
O O10 0.219745 0.855261 0.965056
O O11 0.124580 0.934418 0.522388
O O12 0.000000 0.000000 0.500000
O O13 0.756140 0.574362 0.448755
O O14 0.183236 0.805649 0.671748
O O15 0.287485 0.598803 0.381221
O O16 0.000000 0.500000 0.500000
O O17 0.750381 0.685621 0.597364
#
# Coordination Sequence:
#
# PCOD9058313 Si02
#       8
#     2   2   2   2   2   2   2   2
#     4  11  24  44  71 103 143 191 237 304 357 424
#     4  12  24  47  72 103 146 188 238 296 357 424
#     4  12  24  44  73 105 144 186 243 284 364 419
#     4  11  23  49  73  96 140 191 238 301 367 418
#     4  12  25  44  68 110 147 184 248 295 355 438
#     4  12  24  44  70 108 145 184 236 287 353 433
#     4  11  22  45  68  99 152 194 229 298 362 422
#     4  11  25  44  72 106 141 192 247 294 359 433
#
# _framework density 25.541736
#
# number of rings (size 3 to 8) (size 9 to 14) (size 15 to 20)
#    0.000    0.500    5.000    4.125    0.000    3.000 
#    2.250    2.500    0.000    0.000    0.000    0.000 
#    0.000    0.000    0.000    0.000    0.000    0.000 
#
# Total GULP energy -89410.503966 kJ/mol
# GULP energy per Si atom -5588.156498 kJ/mol
# Density = 2.548360 g / cm^3
# Si number density = 25.541736 Si / 1000 Ang^3
#
#
#
# Elastic Constant Matrix: (Units=GPa)
#
#
# Indices 1 2 3 4 5 6 
#
# 1 176.3299 31.2630 35.9922 -19.6595 -20.1969 -18.9176
# 2 31.2630 62.9636 16.5115 -8.3432 5.2009 2.9256
# 3 35.9922 16.5115 106.5412 -20.2926 -10.1011 5.1148
# 4 -19.6595 -8.3432 -20.2926 39.4018 -4.5344 -4.0920
# 5 -20.1969 5.2009 -10.1011 -4.5344 55.3477 -9.1596
# 6 -18.9176 2.9256 5.1148 -4.0920 -9.1596 29.9920
#
#
#
# Elastic Compliance Matrix: (Units=1/GPa)
#
#
# Indices 1 2 3 4 5 6 
#
# 1 0.008587 -0.004140 -0.001399 0.004101 0.004948 0.008130
# 2 -0.004140 0.019018 -0.001716 -0.000021 -0.004533 -0.005561
# 3 -0.001399 -0.001716 0.011288 0.004821 0.001872 -0.001411
# 4 0.004101 -0.000021 0.004821 0.031454 0.006275 0.007975
# 5 0.004948 -0.004533 0.001872 0.006275 0.022996 0.011123
# 6 0.008130 -0.005561 -0.001411 0.007975 0.011123 0.043738
#
#
# Mechanical properties :
#
#
# Convention : Reuss Voigt Hill
#
# Bulk Modulus (GPa) = 41.01182 57.04090 49.02636
# Shear Modulus (GPa) = 31.30508 42.41948 36.86228
#
# Velocity S-wave (km/s) = 3.50472 4.07970 3.80309
# Velocity P-wave (km/s) = 5.69816 6.67629 6.20653
#
# Compressibility (1/GPa) = 0.02438321
#
# Stress axis : x y z
#
# Youngs Moduli (GPa) = 116.45505 52.58288 88.58850
#
# Poissons Ratio (x) = 0.21768 0.12397
# Poissons Ratio (y) = 0.48210 0.15199
# Poissons Ratio (z) = 0.16296 0.09021
#
# Static dielectric constant tensor:
#      x y z
#    x 2.027460 0.077890 0.007050 
#    y 0.077890 2.092280 0.074950 
#    z 0.007050 0.074950 2.103210 
# 
# From -- ./inp_files/282961.got.cif
#   From: 2010.05.17/outbox.cif.g08.bks.cpg/sg2_142_cif.got.tgz:282961.got - 2010.06.03 11:33:40.
