data_PCOD9058599
_publ_section_title
;
Structure prediction by ZEFSAII (Michael W. Deem and Ramdas Pophale) SiO2 
 PCOD9058599
Probable space group: P -1
;
_chemical_formula_sum "Si O2"
_cell_formula_units_Z 12
_cell_length_a 11.011717
_cell_length_b 5.105555
_cell_length_c 14.252784
_cell_angle_alpha 86.259552
_cell_angle_beta 142.158110
_cell_angle_gamma 87.661567
_cell_volume 484.930809
_symmetry_space_group_name_H-M "P -1"
_symmetry_group_IT_number 2
_symmetry_cell_setting 'triclinic'
loop_
_space_group_symop_operation_xyz
x,y,z
-x,-y,-z
loop_
_atom_site_type_symbol
_atom_site_label
_atom_site_fract_x
_atom_site_fract_y
_atom_site_fract_z
Si Si1 0.742001 0.789601 0.664031
Si Si2 0.035721 0.753443 0.457069
Si Si3 0.718712 0.912908 0.092660
Si Si4 0.223724 0.852538 0.160268
Si Si5 0.424069 0.878949 0.606566
Si Si6 0.822560 0.428479 0.037067
O O1 0.763396 0.069878 0.723838
O O2 0.552132 0.713627 0.605884
O O3 0.938006 0.583178 0.808265
O O4 0.701369 0.868096 0.530643
O O5 0.264826 0.730144 0.562791
O O6 0.000000 0.500000 0.500000
O O7 0.881889 0.811770 0.274972
O O8 0.000000 0.000000 0.500000
O O9 0.716336 0.675585 0.023464
O O10 0.783664 0.162660 0.072488
O O11 0.500000 0.000000 0.000000
O O12 0.409298 0.998373 0.235325
O O13 0.235503 0.596249 0.106667
O O14 0.000000 0.000000 0.000000
#
# Coordination Sequence:
#
# PCOD9058599 Si02
#       6
#     2   2   2   2   2   2
#     4   8  17  39  74 111 148 191 241 310 381 448
#     4  12  28  51  77 106 148 203 264 312 366 449
#     4  12  28  49  73 104 149 203 258 312 374 436
#     4   8  17  36  72 112 149 189 239 298 383 459
#     4   9  18  41  75 108 157 191 253 306 384 445
#     4  11  22  46  73 106 153 190 244 313 379 454
#
# _framework density 24.745799000000002
#
# number of rings (size 3 to 8) (size 9 to 14) (size 15 to 20)
#    1.000    1.000    1.667    1.500    2.333    0.000 
#    0.000   10.000    0.000    0.000    0.000    0.000 
#    0.000    0.000    0.000    0.000    0.000    0.000 
#
# Total GULP energy -67095.355703 kJ/mol
# GULP energy per Si atom -5591.279642 kJ/mol
# Density = 2.468948 g / cm^3
# Si number density = 24.745799 Si / 1000 Ang^3
#
#
#
# Elastic Constant Matrix: (Units=GPa)
#
#
# Indices 1 2 3 4 5 6 
#
# 1 160.8524 62.5621 50.6970 3.8352 28.0417 10.7793
# 2 62.5621 158.6137 38.2471 11.3818 -10.7279 -17.9930
# 3 50.6970 38.2471 153.0328 11.3952 -1.9354 5.1372
# 4 3.8352 11.3818 11.3952 26.0026 3.2035 -9.3084
# 5 28.0417 -10.7279 -1.9354 3.2035 56.3470 -0.5461
# 6 10.7793 -17.9930 5.1372 -9.3084 -0.5461 58.6278
#
#
#
# Elastic Compliance Matrix: (Units=1/GPa)
#
#
# Indices 1 2 3 4 5 6 
#
# 1 0.009651 -0.004035 -0.002250 0.001069 -0.005735 -0.002699
# 2 -0.004035 0.008867 -0.000769 -0.002274 0.003830 0.003205
# 3 -0.002250 -0.000769 0.007768 -0.003271 0.001416 -0.001009
# 4 0.001069 -0.002274 -0.003271 0.043395 -0.003484 0.006250
# 5 -0.005735 0.003830 0.001416 -0.003484 0.021594 0.001754
# 6 -0.002699 0.003205 -0.001009 0.006250 0.001754 0.019634
#
#
# Mechanical properties :
#
#
# Convention : Reuss Voigt Hill
#
# Bulk Modulus (GPa) = 82.12253 86.16792 84.14523
# Shear Modulus (GPa) = 38.73674 49.59501 44.16588
#
# Velocity S-wave (km/s) = 3.96079 4.48166 4.22925
# Velocity P-wave (km/s) = 7.36041 7.85349 7.61094
#
# Compressibility (1/GPa) = 0.01217693
#
# Stress axis : x y z
#
# Youngs Moduli (GPa) = 103.62137 112.77314 128.73867
#
# Poissons Ratio (x) = 0.45500 0.28969
# Poissons Ratio (y) = 0.41808 0.09906
# Poissons Ratio (z) = 0.23317 0.08677
#
# Static dielectric constant tensor:
#      x y z
#    x 1.987810 0.066850 0.004040 
#    y 0.066850 2.057670 -0.020630 
#    z 0.004040 -0.020630 1.983730 
# 
# From -- ./inp_files/509863.got.cif
#   From: 2010.05.17/outbox.cif.g08.bks.cpg/sg2_255_cif.got.tgz:509863.got - 2010.06.03 11:33:40.
