data_PCOD9058330
_publ_section_title
;
Structure prediction by ZEFSAII (Michael W. Deem and Ramdas Pophale) SiO2 
 PCOD9058330
Probable space group: P -1
;
_chemical_formula_sum "Si O2"
_cell_formula_units_Z 15
_cell_length_a 15.794151
_cell_length_b 9.828483
_cell_length_c 11.446039
_cell_angle_alpha 73.971708
_cell_angle_beta 130.911909
_cell_angle_gamma 143.386013
_cell_volume 666.891812
_symmetry_space_group_name_H-M "P -1"
_symmetry_group_IT_number 2
_symmetry_cell_setting 'triclinic'
loop_
_space_group_symop_operation_xyz
x,y,z
-x,-y,-z
loop_
_atom_site_type_symbol
_atom_site_label
_atom_site_fract_x
_atom_site_fract_y
_atom_site_fract_z
Si Si1 0.886954 0.004423 0.825926
Si Si2 0.488664 0.639861 0.699048
Si Si3 0.486799 0.012504 0.347651
Si Si4 0.003492 0.815319 0.713189
Si Si5 0.078966 0.427369 0.063157
Si Si6 0.150090 0.275284 0.767176
Si Si7 0.500000 0.500000 0.000000
Si Si8 0.058329 0.438581 0.480218
O O1 0.969717 0.078107 0.751192
O O2 0.636584 0.738166 0.703901
O O3 0.991031 0.262618 0.906065
O O4 0.000000 0.000000 0.000000
O O5 0.236834 0.389304 0.493203
O O6 0.582531 0.898690 0.748370
O O7 0.506398 0.573579 0.850044
O O8 0.336306 0.730698 0.222874
O O9 0.500000 0.000000 0.500000
O O10 0.721801 0.266279 0.446510
O O11 0.982636 0.739245 0.844086
O O12 0.069582 0.757845 0.702296
O O13 0.167522 0.126024 0.775643
O O14 0.000000 0.500000 0.000000
O O15 0.086821 0.325303 0.606988
O O16 0.404247 0.555398 0.953313
O O17 0.000000 0.500000 0.500000
#
# Coordination Sequence:
#
# PCOD9058330 Si02
#       8
#     2   2   2   2   2   2   1   2
#     4  12  25  44  66 104 135 174 231 292 335 404
#     4  11  23  42  71  98 137 181 229 284 346 410
#     4  11  22  45  69  98 135 182 231 275 347 415
#     4  11  24  46  71 101 133 191 234 274 354 416
#     4  12  24  41  73 101 137 181 230 282 347 414
#     4  12  26  46  70  98 145 180 236 283 345 419
#     4  12  22  44  68  94 144 186 220 284 352 406
#     4  11  26  44  69 103 135 176 227 295 340 398
#
# _framework density 22.492402999999999
#
# number of rings (size 3 to 8) (size 9 to 14) (size 15 to 20)
#    0.000    0.533    9.333    0.400    3.733    0.533 
#    4.800    0.667    0.000    0.000    0.000    0.000 
#    0.000    0.000    0.000    0.000    0.000    0.000 
#
# Total GULP energy -83562.963608 kJ/mol
# GULP energy per Si atom -5570.864241 kJ/mol
# Density = 2.244121 g / cm^3
# Si number density = 22.492403 Si / 1000 Ang^3
#
#
#
# Elastic Constant Matrix: (Units=GPa)
#
#
# Indices 1 2 3 4 5 6 
#
# 1 146.2454 34.1188 2.7961 0.3643 -3.7715 23.9728
# 2 34.1188 121.8997 13.3358 -7.1735 -16.1916 17.9652
# 3 2.7961 13.3358 50.9522 -5.5417 -1.0028 13.6804
# 4 0.3643 -7.1735 -5.5417 37.1657 2.3130 -10.7736
# 5 -3.7715 -16.1916 -1.0028 2.3130 22.1379 -2.6354
# 6 23.9728 17.9652 13.6804 -10.7736 -2.6354 54.0760
#
#
#
# Elastic Compliance Matrix: (Units=1/GPa)
#
#
# Indices 1 2 3 4 5 6 
#
# 1 0.007802 -0.001898 0.000812 -0.001260 -0.000283 -0.003298
# 2 -0.001898 0.010111 -0.001906 0.000820 0.006716 -0.001545
# 3 0.000812 -0.001906 0.021545 0.001470 -0.001021 -0.004934
# 4 -0.001260 0.000820 0.001470 0.029041 -0.001915 0.005607
# 5 -0.000283 0.006716 -0.001021 -0.001915 0.050215 0.000218
# 6 -0.003298 -0.001545 -0.004934 0.005607 0.000218 0.022844
#
#
# Mechanical properties :
#
#
# Convention : Reuss Voigt Hill
#
# Bulk Modulus (GPa) = 29.87510 46.62208 38.24859
# Shear Modulus (GPa) = 31.50586 40.59903 36.05244
#
# Velocity S-wave (km/s) = 3.74670 4.25315 4.00793
# Velocity P-wave (km/s) = 5.65934 6.70015 6.20162
#
# Compressibility (1/GPa) = 0.03347270
#
# Stress axis : x y z
#
# Youngs Moduli (GPa) = 128.17863 98.89946 46.41416
#
# Poissons Ratio (x) = 0.18772 -0.03767
# Poissons Ratio (y) = 0.24330 0.08847
# Poissons Ratio (z) = -0.10403 0.18851
#
# Static dielectric constant tensor:
#      x y z
#    x -9.546590 -16.808460 -20.762380 
#    y -16.808460 -22.834500 -30.491860 
#    z -20.762380 -30.491860 -35.913640 
# 
# From -- ./inp_files/447228.got.cif
#   From: 2010.05.17/outbox.cif.g08.bks.cpg/sg2_224_cif.got.tgz:447228.got - 2010.06.03 11:33:40.
