data_PCOD9058748
_publ_section_title
;
Structure prediction by ZEFSAII (Michael W. Deem and Ramdas Pophale) SiO2 
 PCOD9058748
Probable space group: P -1
;
_chemical_formula_sum "Si O2"
_cell_formula_units_Z 12
_cell_length_a 16.230571
_cell_length_b 8.033982
_cell_length_c 8.698356
_cell_angle_alpha 53.302198
_cell_angle_beta 50.606162
_cell_angle_gamma 91.329120
_cell_volume 534.380066
_symmetry_space_group_name_H-M "P -1"
_symmetry_group_IT_number 2
_symmetry_cell_setting 'triclinic'
loop_
_space_group_symop_operation_xyz
x,y,z
-x,-y,-z
loop_
_atom_site_type_symbol
_atom_site_label
_atom_site_fract_x
_atom_site_fract_y
_atom_site_fract_z
Si Si1 0.650171 0.879511 0.993501
Si Si2 0.084790 0.408093 0.506292
Si Si3 0.765554 0.433398 0.450406
Si Si4 0.425234 0.425841 0.294214
Si Si5 0.630504 0.057519 0.234213
Si Si6 0.894755 0.895392 0.821280
O O1 0.779592 0.916470 0.891284
O O2 0.694353 0.119230 0.693145
O O3 0.545819 0.596472 0.186502
O O4 0.588697 0.926239 0.185715
O O5 0.113619 0.447497 0.631393
O O6 0.000000 0.500000 0.500000
O O7 0.991213 0.099063 0.733814
O O8 0.236386 0.624074 0.124394
O O9 0.665760 0.482265 0.619924
O O10 0.818127 0.594554 0.140211
O O11 0.336213 0.107783 0.615587
O O12 0.500000 0.500000 0.000000
O O13 0.500000 0.000000 0.500000
O O14 0.000000 0.000000 0.500000
#
# Coordination Sequence:
#
# PCOD9058748 Si02
#       6
#     2   2   2   2   2   2
#     4  11  25  48  68 104 149 180 240 301 351 418
#     4  11  22  48  70  99 144 182 234 290 358 420
#     4  11  24  46  72 101 141 188 235 296 353 423
#     4  12  25  43  71 106 141 189 239 291 359 425
#     4  11  24  43  75 104 139 191 230 293 358 418
#     4  12  27  43  72 103 140 191 234 294 358 426
#
# _framework density 22.455925000000001
#
# number of rings (size 3 to 8) (size 9 to 14) (size 15 to 20)
#    0.000    0.667    5.000    3.500    4.667    2.000 
#    0.000    0.000    0.000    0.000    0.000    0.000 
#    0.000    0.000    0.000    0.000    0.000    0.000 
#
# Total GULP energy -67137.205399 kJ/mol
# GULP energy per Si atom -5594.767117 kJ/mol
# Density = 2.240481 g / cm^3
# Si number density = 22.455925 Si / 1000 Ang^3
#
#
#
# Elastic Constant Matrix: (Units=GPa)
#
#
# Indices 1 2 3 4 5 6 
#
# 1 82.4430 14.0937 45.1308 1.8743 6.0619 -15.9509
# 2 14.0937 28.2213 19.9482 7.4341 -8.1561 -0.0860
# 3 45.1308 19.9482 116.6070 8.5133 23.1396 -15.2493
# 4 1.8743 7.4341 8.5133 48.2707 -6.7366 7.7631
# 5 6.0619 -8.1561 23.1396 -6.7366 46.6123 -15.0677
# 6 -15.9509 -0.0860 -15.2493 7.7631 -15.0677 32.8983
#
#
#
# Elastic Compliance Matrix: (Units=1/GPa)
#
#
# Indices 1 2 3 4 5 6 
#
# 1 0.016889 -0.004121 -0.005360 0.000137 0.001870 0.006517
# 2 -0.004121 0.048708 -0.008933 -0.004082 0.013230 0.001012
# 3 -0.005360 -0.008933 0.013993 -0.002104 -0.007873 0.000755
# 4 0.000137 -0.004082 -0.002104 0.022848 0.001848 -0.005465
# 5 0.001870 0.013230 -0.007873 0.001848 0.031322 0.011202
# 6 0.006517 0.001012 0.000755 -0.005465 0.011202 0.040329
#
#
# Mechanical properties :
#
#
# Convention : Reuss Voigt Hill
#
# Bulk Modulus (GPa) = 23.38526 42.84631 33.11578
# Shear Modulus (GPa) = 22.20537 35.42952 28.81745
#
# Velocity S-wave (km/s) = 3.14800 3.97638 3.58619
# Velocity P-wave (km/s) = 4.86309 6.34064 5.65037
#
# Compressibility (1/GPa) = 0.04276198
#
# Stress axis : x y z
#
# Youngs Moduli (GPa) = 59.21101 20.53037 71.46351
#
# Poissons Ratio (x) = 0.08461 0.38307
# Poissons Ratio (y) = 0.24401 0.63837
# Poissons Ratio (z) = 0.31739 0.18339
#
# Static dielectric constant tensor:
#      x y z
#    x 1.839160 -0.006930 -0.001740 
#    y -0.006930 1.851420 -0.018040 
#    z -0.001740 -0.018040 1.867740 
# 
# From -- ./inp_files/157789.got.cif
#   From: 2010.05.17/outbox.cif.g08.bks.cpg/sg2_79_cif.got.tgz:157789.got - 2010.06.03 11:33:40.
