data_PCOD9058619
_publ_section_title
;
Structure prediction by ZEFSAII (Michael W. Deem and Ramdas Pophale) SiO2 
 PCOD9058619
Probable space group: P -1
;
_chemical_formula_sum "Si O2"
_cell_formula_units_Z 16
_cell_length_a 8.992179
_cell_length_b 9.826963
_cell_length_c 14.992060
_cell_angle_alpha 99.354719
_cell_angle_beta 109.625066
_cell_angle_gamma 133.263836
_cell_volume 744.978924
_symmetry_space_group_name_H-M "P -1"
_symmetry_group_IT_number 2
_symmetry_cell_setting 'triclinic'
loop_
_space_group_symop_operation_xyz
x,y,z
-x,-y,-z
loop_
_atom_site_type_symbol
_atom_site_label
_atom_site_fract_x
_atom_site_fract_y
_atom_site_fract_z
Si Si1 0.849125 0.036211 0.999798
Si Si2 0.538764 0.363280 0.993073
Si Si3 0.667224 0.328191 0.625356
Si Si4 0.033751 0.661126 0.581688
Si Si5 0.987520 0.282316 0.740336
Si Si6 0.249184 0.567029 0.145177
Si Si7 0.628685 0.035474 0.794133
Si Si8 0.936484 0.101032 0.541476
O O1 0.022287 0.294256 0.072201
O O2 0.659206 0.952212 0.872750
O O3 0.695466 0.889171 0.041775
O O4 0.000000 0.000000 0.000000
O O5 0.776607 0.507029 0.125837
O O6 0.500000 0.500000 0.000000
O O7 0.586786 0.358904 0.900311
O O8 0.842504 0.311849 0.669085
O O9 0.642776 0.367377 0.725588
O O10 0.368936 0.096242 0.514107
O O11 0.825870 0.525212 0.605398
O O12 0.000000 0.500000 0.500000
O O13 0.329390 0.865609 0.699657
O O14 0.002963 0.755553 0.511846
O O15 0.769623 0.067333 0.739848
O O16 0.080929 0.245847 0.677009
O O17 0.216990 0.710280 0.137865
O O18 0.000000 0.000000 0.500000
#
# Coordination Sequence:
#
# PCOD9058619 Si02
#       8
#     2   2   2   2   2   2   2   2
#     4  12  25  44  67 105 144 189 237 293 361 425
#     4  12  26  44  70 103 149 191 232 298 365 426
#     4  11  25  46  73 105 141 188 239 292 353 435
#     4  12  24  47  75 103 139 191 246 289 360 435
#     4  11  22  46  74  97 143 191 235 293 358 427
#     4  11  25  45  70 100 148 185 244 290 353 429
#     4  11  24  45  73 105 138 192 242 298 352 427
#     4  12  27  46  73 107 144 182 237 307 363 419
#
# _framework density 21.477117
#
# number of rings (size 3 to 8) (size 9 to 14) (size 15 to 20)
#    0.000    0.500    6.250    2.250    5.250    1.000 
#    2.250    0.000    0.000    0.000    0.000    0.000 
#    0.000    0.000    0.000    0.000    0.000    0.000 
#
# Total GULP energy -89342.389993 kJ/mol
# GULP energy per Si atom -5583.899375 kJ/mol
# Density = 2.142823 g / cm^3
# Si number density = 21.477117 Si / 1000 Ang^3
#
#
#
# Elastic Constant Matrix: (Units=GPa)
#
#
# Indices 1 2 3 4 5 6 
#
# 1 88.8829 52.7786 36.1684 -8.8765 -30.1716 -3.7179
# 2 52.7786 184.7927 37.9481 -21.3241 -14.9494 19.0459
# 3 36.1684 37.9481 75.2538 -8.6383 -31.8966 8.0989
# 4 -8.8765 -21.3241 -8.6383 32.1138 9.3981 -8.7025
# 5 -30.1716 -14.9494 -31.8966 9.3981 30.2906 -7.4192
# 6 -3.7179 19.0459 8.0989 -8.7025 -7.4192 49.2350
#
#
#
# Elastic Compliance Matrix: (Units=1/GPa)
#
#
# Indices 1 2 3 4 5 6 
#
# 1 0.021750 -0.005494 0.000650 -0.002084 0.021899 0.006592
# 2 -0.005494 0.007949 -0.003757 0.004074 -0.007576 -0.003293
# 3 0.000650 -0.003757 0.026022 -0.003105 0.027354 0.000795
# 4 -0.002084 0.004074 -0.003105 0.037461 -0.014157 0.003266
# 5 0.021899 -0.007576 0.027354 -0.014157 0.086899 0.010677
# 6 0.006592 -0.003293 0.000795 0.003266 0.010677 0.024138
#
#
# Mechanical properties :
#
#
# Convention : Reuss Voigt Hill
#
# Bulk Modulus (GPa) = 25.96062 66.96887 46.46474
# Shear Modulus (GPa) = 21.34385 37.13015 29.23700
#
# Velocity S-wave (km/s) = 3.15587 4.16242 3.69360
# Velocity P-wave (km/s) = 5.03916 7.37226 6.31440
#
# Compressibility (1/GPa) = 0.03851988
#
# Stress axis : x y z
#
# Youngs Moduli (GPa) = 45.97791 125.80745 38.42850
#
# Poissons Ratio (x) = 0.69115 -0.02499
# Poissons Ratio (y) = 0.25259 0.14437
# Poissons Ratio (z) = -0.02990 0.47265
#
# Static dielectric constant tensor:
#      x y z
#    x 1.781350 0.032030 -0.018550 
#    y 0.032030 1.744640 0.052400 
#    z -0.018550 0.052400 1.810430 
# 
# From -- ./inp_files/495267.got.cif
#   From: 2010.05.17/outbox.cif.g08.bks.cpg/sg2_248_cif.got.tgz:495267.got - 2010.06.03 11:33:40.
