data_PCOD9058968
_publ_section_title
;
Structure prediction by ZEFSAII (Michael W. Deem and Ramdas Pophale) SiO2 
 PCOD9058968
Probable space group: P -1
;
_chemical_formula_sum "Si O2"
_cell_formula_units_Z 16
_cell_length_a 8.361405
_cell_length_b 28.456681
_cell_length_c 9.624522
_cell_angle_alpha 144.147794
_cell_angle_beta 67.938359
_cell_angle_gamma 138.688992
_cell_volume 706.226544
_symmetry_space_group_name_H-M "P -1"
_symmetry_group_IT_number 2
_symmetry_cell_setting 'triclinic'
loop_
_space_group_symop_operation_xyz
x,y,z
-x,-y,-z
loop_
_atom_site_type_symbol
_atom_site_label
_atom_site_fract_x
_atom_site_fract_y
_atom_site_fract_z
Si Si1 0.630552 0.637506 0.749731
Si Si2 0.849243 0.956036 0.589080
Si Si3 0.348294 0.873954 0.093058
Si Si4 0.329598 0.830568 0.302017
Si Si5 0.754079 0.651140 0.211741
Si Si6 0.624824 0.843572 0.754848
Si Si7 0.763613 0.763080 0.722335
Si Si8 0.581446 0.722409 0.231726
O O1 0.500000 0.500000 0.500000
O O2 0.589514 0.653326 0.643000
O O3 0.500693 0.651650 0.939894
O O4 0.997566 0.768661 0.954986
O O5 0.509353 0.843194 0.379729
O O6 0.893942 0.888794 0.490991
O O7 0.000000 0.000000 0.500000
O O8 0.978175 0.082218 0.924941
O O9 0.376199 0.833645 0.130798
O O10 0.550563 0.031675 0.397369
O O11 0.457562 0.858935 0.897342
O O12 0.989224 0.696584 0.145799
O O13 0.896596 0.752351 0.539794
O O14 0.608962 0.660267 0.178144
O O15 0.500000 0.500000 0.000000
O O16 0.574515 0.754273 0.671192
O O17 0.472261 0.752523 0.443113
O O18 0.000000 0.000000 0.000000
#
# Coordination Sequence:
#
# PCOD9058968 Si02
#       8
#     2   2   2   2   2   2   2   2
#     4  12  25  46  70  99 137 181 225 278 338 412
#     4  12  22  39  66 105 135 169 226 288 342 389
#     4  11  23  42  69 103 132 179 233 278 337 403
#     4  11  24  39  69 100 138 176 229 283 333 398
#     4  11  25  46  67  98 138 185 223 274 341 409
#     4  11  23  39  67 101 140 173 217 283 346 393
#     4  11  23  39  67  96 136 175 225 273 340 395
#     4  11  23  43  69  95 137 181 219 278 341 400
#
# _framework density 22.655619000000002
#
# number of rings (size 3 to 8) (size 9 to 14) (size 15 to 20)
#    0.000    0.750    5.000    3.000    3.500    1.500 
#    0.000    4.375    0.000    0.000    0.000    0.000 
#    0.000    0.000    0.000    0.000    0.000    0.000 
#
# Total GULP energy -89176.320398 kJ/mol
# GULP energy per Si atom -5573.520025 kJ/mol
# Density = 2.260405 g / cm^3
# Si number density = 22.655619 Si / 1000 Ang^3
#
#
#
# Elastic Constant Matrix: (Units=GPa)
#
#
# Indices 1 2 3 4 5 6 
#
# 1 41.0556 28.0772 2.6076 2.6935 -11.9193 -15.7231
# 2 28.0772 134.1973 31.4028 -5.3407 -15.2340 -29.8399
# 3 2.6076 31.4028 58.5647 -8.6717 -21.0235 -1.2721
# 4 2.6935 -5.3407 -8.6717 57.4188 -2.5446 -10.3606
# 5 -11.9193 -15.2340 -21.0235 -2.5446 24.4517 -1.7651
# 6 -15.7231 -29.8399 -1.2721 -10.3606 -1.7651 53.2773
#
#
#
# Elastic Compliance Matrix: (Units=1/GPa)
#
#
# Indices 1 2 3 4 5 6 
#
# 1 0.038485 -0.005407 0.011000 0.002281 0.025800 0.009890
# 2 -0.005407 0.010917 -0.005283 0.001315 0.000096 0.004651
# 3 0.011000 -0.005283 0.030851 0.005508 0.029392 0.003069
# 4 0.002281 0.001315 0.005508 0.019691 0.009126 0.005673
# 5 0.025800 0.000096 0.029392 0.009126 0.080679 0.012817
# 6 0.009890 0.004651 0.003069 0.005673 0.012817 0.025895
#
#
# Mechanical properties :
#
#
# Convention : Reuss Voigt Hill
#
# Bulk Modulus (GPa) = 12.36501 39.77699 26.07100
# Shear Modulus (GPa) = 21.47260 38.47823 29.97541
#
# Velocity S-wave (km/s) = 3.08195 4.12563 3.64138
# Velocity P-wave (km/s) = 4.25843 6.34742 5.40481
#
# Compressibility (1/GPa) = 0.08087340
#
# Stress axis : x y z
#
# Youngs Moduli (GPa) = 25.98429 91.60303 32.41364
#
# Poissons Ratio (x) = 0.49532 -0.35656
# Poissons Ratio (y) = 0.14050 0.17123
# Poissons Ratio (z) = -0.28583 0.48391
#
# Static dielectric constant tensor:
#      x y z
#    x 1.942020 -0.042880 0.027980 
#    y -0.042880 1.902960 -0.022660 
#    z 0.027980 -0.022660 1.908440 
# 
# From -- ./inp_files/227741.got.cif
#   From: 2010.05.17/outbox.cif.g08.bks.cpg/sg2_114_cif.got.tgz:227741.got - 2010.06.03 11:33:40.
