data_PCOD9058939
_publ_section_title
;
Structure prediction by ZEFSAII (Michael W. Deem and Ramdas Pophale) SiO2 
 PCOD9058939
Probable space group: P -1
;
_chemical_formula_sum "Si O2"
_cell_formula_units_Z 14
_cell_length_a 11.013376
_cell_length_b 9.423382
_cell_length_c 14.784917
_cell_angle_alpha 93.498245
_cell_angle_beta 154.068620
_cell_angle_gamma 97.895791
_cell_volume 601.283380
_symmetry_space_group_name_H-M "P -1"
_symmetry_group_IT_number 2
_symmetry_cell_setting 'triclinic'
loop_
_space_group_symop_operation_xyz
x,y,z
-x,-y,-z
loop_
_atom_site_type_symbol
_atom_site_label
_atom_site_fract_x
_atom_site_fract_y
_atom_site_fract_z
Si Si1 0.760856 0.034615 0.067726
Si Si2 0.910688 0.009061 0.543508
Si Si3 0.627858 0.887961 0.633656
Si Si4 0.437915 0.482092 0.229796
Si Si5 0.358797 0.727190 0.095508
Si Si6 0.209343 0.578702 0.248589
Si Si7 0.405178 0.797770 0.671013
O O1 0.871872 0.015092 0.239478
O O2 0.056957 0.081169 0.203006
O O3 0.657083 0.175329 0.997480
O O4 0.513063 0.879284 0.844635
O O5 0.558931 0.866272 0.306000
O O6 0.890272 0.173106 0.551311
O O7 0.000000 0.000000 0.500000
O O8 0.390914 0.704717 0.449656
O O9 0.638538 0.893202 0.749451
O O10 0.500000 0.000000 0.500000
O O11 0.517582 0.607967 0.206096
O O12 0.443488 0.576229 0.328858
O O13 0.614466 0.375670 0.345650
O O14 0.063283 0.375565 0.966513
O O15 0.005131 0.603141 0.874757
#
# Coordination Sequence:
#
# PCOD9058939 Si02
#       7
#     2   2   2   2   2   2   2
#     4  11  23  39  64  93 130 166 208 260 318 376
#     4  11  25  45  67  91 118 169 227 266 316 369
#     4  12  22  34  62 101 133 168 205 245 318 393
#     4   9  19  37  58  92 133 166 203 243 320 376
#     4   9  21  39  62  87 124 162 206 259 310 367
#     4   9  20  35  58  90 137 170 196 247 309 386
#     4  11  24  39  62  95 136 165 208 264 310 377
#
# _framework density 23.283532000000001
#
# number of rings (size 3 to 8) (size 9 to 14) (size 15 to 20)
#    0.857    0.857    1.429    3.000    2.000    6.857 
#    0.000    0.714    0.000    4.286    0.000    0.000 
#    0.000    0.000    0.000    0.000    0.000    0.000 
#
# Total GULP energy -78027.731855 kJ/mol
# GULP energy per Si atom -5573.409418 kJ/mol
# Density = 2.323054 g / cm^3
# Si number density = 23.283532 Si / 1000 Ang^3
#
#
#
# Elastic Constant Matrix: (Units=GPa)
#
#
# Indices 1 2 3 4 5 6 
#
# 1 82.6889 37.2219 18.6453 -6.4915 -22.1351 7.7063
# 2 37.2219 188.6276 43.1958 -42.1327 -12.2561 11.6121
# 3 18.6453 43.1958 91.6626 -7.1202 -27.5118 19.4285
# 4 -6.4915 -42.1327 -7.1202 42.7538 9.9001 -7.8490
# 5 -22.1351 -12.2561 -27.5118 9.9001 33.7105 -7.4486
# 6 7.7063 11.6121 19.4285 -7.8490 -7.4486 14.5136
#
#
#
# Elastic Compliance Matrix: (Units=1/GPa)
#
#
# Indices 1 2 3 4 5 6 
#
# 1 0.016534 -0.003823 0.002925 -0.004630 0.011878 -0.006043
# 2 -0.003823 0.008637 -0.005016 0.009049 -0.005227 0.004045
# 3 0.002925 -0.005016 0.021427 -0.008665 0.015000 -0.023211
# 4 -0.004630 0.009049 -0.008665 0.036895 -0.013244 0.019974
# 5 0.011878 -0.005227 0.015000 -0.013244 0.050988 -0.003199
# 6 -0.006043 0.004045 -0.023211 0.019974 -0.003199 0.109105
#
#
# Mechanical properties :
#
#
# Convention : Reuss Voigt Hill
#
# Bulk Modulus (GPa) = 28.76015 62.34501 45.55258
# Shear Modulus (GPa) = 18.72630 35.78998 27.25814
#
# Velocity S-wave (km/s) = 2.83905 3.92489 3.42527
# Velocity P-wave (km/s) = 4.80894 6.88289 5.93718
#
# Compressibility (1/GPa) = 0.03477034
#
# Stress axis : x y z
#
# Youngs Moduli (GPa) = 60.48049 115.78149 46.66964
#
# Poissons Ratio (x) = 0.44260 -0.13649
# Poissons Ratio (y) = 0.23120 0.23409
# Poissons Ratio (z) = -0.17688 0.58075
#
# Static dielectric constant tensor:
#      x y z
#    x 1.926690 0.019640 0.012940 
#    y 0.019640 1.903440 -0.030830 
#    z 0.012940 -0.030830 1.917280 
# 
# From -- ./inp_files/516029.got.cif
#   From: 2010.05.17/outbox.cif.g08.bks.cpg/sg2_259_cif.got.tgz:516029.got - 2010.06.03 11:33:40.
