data_PCOD9058001
_publ_section_title
;
Structure prediction by ZEFSAII (Michael W. Deem and Ramdas Pophale) SiO2 
 PCOD9058001
Probable space group: P -1
;
_chemical_formula_sum "Si O2"
_cell_formula_units_Z 16
_cell_length_a 14.379238
_cell_length_b 10.398942
_cell_length_c 18.985931
_cell_angle_alpha 52.016523
_cell_angle_beta 29.861760
_cell_angle_gamma 31.843917
_cell_volume 661.576189
_symmetry_space_group_name_H-M "P -1"
_symmetry_group_IT_number 2
_symmetry_cell_setting 'triclinic'
loop_
_space_group_symop_operation_xyz
x,y,z
-x,-y,-z
loop_
_atom_site_type_symbol
_atom_site_label
_atom_site_fract_x
_atom_site_fract_y
_atom_site_fract_z
Si Si1 0.158124 0.053247 0.594864
Si Si2 0.125591 0.728355 0.666978
Si Si3 0.122200 0.740579 0.925191
Si Si4 0.753660 0.830009 0.254915
Si Si5 0.856852 0.256799 0.872663
Si Si6 0.918085 0.866374 0.600051
Si Si7 0.232647 0.448792 0.822519
Si Si8 0.686321 0.547565 0.646481
O O1 0.523964 0.837029 0.411821
O O2 0.090258 0.088979 0.709416
O O3 0.948781 0.345265 0.601696
O O4 0.025009 0.981546 0.670788
O O5 0.500000 0.500000 0.500000
O O6 0.083669 0.623750 0.790231
O O7 0.972780 0.786147 0.673446
O O8 0.250560 0.590549 0.816080
O O9 0.433629 0.580660 0.814198
O O10 0.918896 0.046587 0.945300
O O11 0.915811 0.754959 0.098746
O O12 0.517071 0.146391 0.320761
O O13 0.038871 0.657544 0.180489
O O14 0.500000 0.500000 0.000000
O O15 0.138679 0.607861 0.490359
O O16 0.565870 0.120886 0.713686
O O17 0.000000 0.000000 0.500000
O O18 0.000000 0.500000 0.000000
#
# Coordination Sequence:
#
# PCOD9058001 Si02
#       8
#     2   2   2   2   2   2   2   2
#     4  12  23  42  68 101 138 178 235 291 345 419
#     4  12  24  44  74 103 136 187 238 286 362 421
#     4  11  22  44  68  93 136 184 227 283 353 414
#     4  11  26  41  67 105 139 183 231 290 350 411
#     4  11  23  43  65  96 140 182 230 280 346 416
#     4  12  23  45  75 105 137 191 237 291 357 425
#     4  12  27  47  71 105 143 180 239 300 355 419
#     4  11  22  44  70  99 140 186 233 283 355 423
#
# _framework density 24.184667999999999
#
# number of rings (size 3 to 8) (size 9 to 14) (size 15 to 20)
#    0.000    0.500    5.000    3.750    5.250    0.500 
#    0.000    0.000    0.000    0.000    0.000    0.000 
#    0.000    0.000    0.000    0.000    0.000    0.000 
#
# Total GULP energy -89504.734930 kJ/mol
# GULP energy per Si atom -5594.045933 kJ/mol
# Density = 2.412962 g / cm^3
# Si number density = 24.184668 Si / 1000 Ang^3
#
#
#
# Elastic Constant Matrix: (Units=GPa)
#
#
# Indices 1 2 3 4 5 6 
#
# 1 89.4901 31.5697 38.7820 -5.3850 18.4956 -16.6382
# 2 31.5697 98.7223 38.5161 4.5326 -2.8950 -15.0623
# 3 38.7820 38.5161 138.0008 -12.1185 0.8191 -18.6722
# 4 -5.3850 4.5326 -12.1185 43.6068 -2.3744 3.7614
# 5 18.4956 -2.8950 0.8191 -2.3744 55.0959 7.5243
# 6 -16.6382 -15.0623 -18.6722 3.7614 7.5243 44.1194
#
#
#
# Elastic Compliance Matrix: (Units=1/GPa)
#
#
# Indices 1 2 3 4 5 6 
#
# 1 0.015718 -0.003486 -0.002722 0.000829 -0.006003 0.004539
# 2 -0.003486 0.012684 -0.002535 -0.002535 0.001505 0.001902
# 3 -0.002722 -0.002535 0.009151 0.002353 0.000515 0.001693
# 4 0.000829 -0.002535 0.002353 0.024149 0.000835 -0.001759
# 5 -0.006003 0.001505 0.000515 0.000835 0.020981 -0.005182
# 6 0.004539 0.001902 0.001693 -0.001759 -0.005182 0.026777
#
#
# Mechanical properties :
#
#
# Convention : Reuss Voigt Hill
#
# Bulk Modulus (GPa) = 49.82956 60.43874 55.13415
# Shear Modulus (GPa) = 37.41556 43.05411 40.23483
#
# Velocity S-wave (km/s) = 3.93756 4.22385 4.08321
# Velocity P-wave (km/s) = 6.42814 6.98803 6.71393
#
# Compressibility (1/GPa) = 0.02006841
#
# Stress axis : x y z
#
# Youngs Moduli (GPa) = 63.62028 78.84025 109.27512
#
# Poissons Ratio (x) = 0.27485 0.29742
# Poissons Ratio (y) = 0.22179 0.27696
# Poissons Ratio (z) = 0.17316 0.19983
#
# Static dielectric constant tensor:
#      x y z
#    x 1.805520 0.227320 0.052340 
#    y 0.227320 1.782770 -0.043050 
#    z 0.052340 -0.043050 1.917190 
# 
# From -- ./inp_files/538497.got.cif
#   From: 2010.05.17/outbox.cif.g08.bks.cpg/sg2_270_cif.got.tgz:538497.got - 2010.06.03 11:33:40.
