data_PCOD9058210
_publ_section_title
;
Structure prediction by ZEFSAII (Michael W. Deem and Ramdas Pophale) SiO2 
 PCOD9058210
Probable space group: P -1
;
_chemical_formula_sum "Si O2"
_cell_formula_units_Z 16
_cell_length_a 9.391359
_cell_length_b 11.583407
_cell_length_c 14.991094
_cell_angle_alpha 27.315531
_cell_angle_beta 115.386431
_cell_angle_gamma 105.443169
_cell_volume 649.731341
_symmetry_space_group_name_H-M "P -1"
_symmetry_group_IT_number 2
_symmetry_cell_setting 'triclinic'
loop_
_space_group_symop_operation_xyz
x,y,z
-x,-y,-z
loop_
_atom_site_type_symbol
_atom_site_label
_atom_site_fract_x
_atom_site_fract_y
_atom_site_fract_z
Si Si1 0.825948 0.373275 0.019124
Si Si2 0.728000 0.643442 0.348504
Si Si3 0.763251 0.034871 0.753594
Si Si4 0.595207 0.373838 0.797726
Si Si5 0.083799 0.986322 0.936369
Si Si6 0.831702 0.944079 0.639263
Si Si7 0.323909 0.708171 0.804443
Si Si8 0.432888 0.113065 0.674204
O O1 0.677443 0.343341 0.937745
O O2 0.840629 0.657847 0.797683
O O3 0.789778 0.425859 0.078139
O O4 0.977948 0.112360 0.242237
O O5 0.776164 0.327498 0.581307
O O6 0.571402 0.709072 0.194799
O O7 0.869114 0.764598 0.266116
O O8 0.653665 0.766990 0.339277
O O9 0.628771 0.963810 0.829764
O O10 0.952824 0.871134 0.927493
O O11 0.726039 0.015346 0.652314
O O12 0.558493 0.657523 0.549682
O O13 0.736531 0.210996 0.882628
O O14 0.000000 0.000000 0.000000
O O15 0.753471 0.169567 0.392685
O O16 0.336985 0.943786 0.710799
O O17 0.500000 0.500000 0.000000
#
# Coordination Sequence:
#
# PCOD9058210 Si02
#       8
#     2   2   2   2   2   2   2   2
#     4  11  24  47  74 103 146 198 240 301 371 432
#     4  11  25  45  70 101 145 191 240 296 364 443
#     4  11  24  44  70 103 145 188 234 304 365 425
#     4  11  22  44  74 102 141 194 237 300 366 434
#     4  12  24  43  66 106 142 185 242 298 363 432
#     4  11  25  49  70 106 151 185 249 303 366 430
#     4  12  27  44  75 108 143 196 247 301 363 433
#     4  11  24  46  72 103 146 190 241 299 366 438
#
# _framework density 24.625561999999999
#
# number of rings (size 3 to 8) (size 9 to 14) (size 15 to 20)
#    0.000    0.750    2.500    5.625    3.500    2.000 
#    2.250    0.000    0.000    0.000    0.000    0.000 
#    0.000    0.000    0.000    0.000    0.000    0.000 
#
# Total GULP energy -89285.595510 kJ/mol
# GULP energy per Si atom -5580.349719 kJ/mol
# Density = 2.456951 g / cm^3
# Si number density = 24.625562 Si / 1000 Ang^3
#
#
#
# Elastic Constant Matrix: (Units=GPa)
#
#
# Indices 1 2 3 4 5 6 
#
# 1 129.7058 31.3385 19.2742 22.3398 2.0253 -16.1749
# 2 31.3385 109.4847 23.4927 26.1725 -7.2924 -7.8607
# 3 19.2742 23.4927 104.8987 21.4651 1.3905 -8.6573
# 4 22.3398 26.1725 21.4651 43.5945 -2.7302 -2.8304
# 5 2.0253 -7.2924 1.3905 -2.7302 38.7660 4.3167
# 6 -16.1749 -7.8607 -8.6573 -2.8304 4.3167 46.4658
#
#
#
# Elastic Compliance Matrix: (Units=1/GPa)
#
#
# Indices 1 2 3 4 5 6 
#
# 1 0.009104 -0.001597 -0.000370 -0.003428 -0.001310 0.002743
# 2 -0.001597 0.011248 -0.001127 -0.005225 0.001799 0.000652
# 3 -0.000370 -0.001127 0.010910 -0.004473 -0.001070 0.001540
# 4 -0.003428 -0.005225 -0.004473 0.030056 0.001610 -0.001229
# 5 -0.001310 0.001799 -0.001070 0.001610 0.026658 -0.002729
# 6 0.002743 0.000652 0.001540 -0.001229 -0.002729 0.023052
#
#
# Mechanical properties :
#
#
# Convention : Reuss Voigt Hill
#
# Bulk Modulus (GPa) = 39.88135 54.69999 47.29067
# Shear Modulus (GPa) = 39.81754 43.76419 41.79087
#
# Velocity S-wave (km/s) = 4.02546 4.22024 4.12400
# Velocity P-wave (km/s) = 6.15110 6.78293 6.47473
#
# Compressibility (1/GPa) = 0.02507438
#
# Stress axis : x y z
#
# Youngs Moduli (GPa) = 109.84765 88.90270 91.66021
#
# Poissons Ratio (x) = 0.14200 0.03390
# Poissons Ratio (y) = 0.17545 0.10326
# Poissons Ratio (z) = 0.04062 0.10016
#
# Static dielectric constant tensor:
#      x y z
#    x 2.086600 0.002860 0.027210 
#    y 0.002860 2.026990 -0.013160 
#    z 0.027210 -0.013160 2.047990 
# 
# From -- ./inp_files/499775.got.cif
#   From: 2010.05.17/outbox.cif.g08.bks.cpg/sg2_250_cif.got.tgz:499775.got - 2010.06.03 11:33:40.
