data_PCOD9058388
_publ_section_title
;
Structure prediction by ZEFSAII (Michael W. Deem and Ramdas Pophale) SiO2 
 PCOD9058388
Probable space group: P -1
;
_chemical_formula_sum "Si O2"
_cell_formula_units_Z 16
_cell_length_a 10.683908
_cell_length_b 11.804171
_cell_length_c 9.406018
_cell_angle_alpha 128.245433
_cell_angle_beta 104.221875
_cell_angle_gamma 55.077961
_cell_volume 752.912911
_symmetry_space_group_name_H-M "P -1"
_symmetry_group_IT_number 2
_symmetry_cell_setting 'triclinic'
loop_
_space_group_symop_operation_xyz
x,y,z
-x,-y,-z
loop_
_atom_site_type_symbol
_atom_site_label
_atom_site_fract_x
_atom_site_fract_y
_atom_site_fract_z
Si Si1 0.792666 0.588563 0.362132
Si Si2 0.623804 0.266723 0.207360
Si Si3 0.714796 0.424687 0.586305
Si Si4 0.335412 0.076325 0.589783
Si Si5 0.345587 0.056788 0.914572
Si Si6 0.145029 0.386297 0.295731
Si Si7 0.827081 0.132510 0.618192
Si Si8 0.329560 0.625326 0.981235
O O1 0.769849 0.732908 0.357812
O O2 0.752086 0.667718 0.572456
O O3 0.707950 0.502588 0.206371
O O4 0.972670 0.439668 0.316789
O O5 0.689566 0.366347 0.382523
O O6 0.438852 0.391639 0.273455
O O7 0.661041 0.257267 0.045353
O O8 0.687610 0.087710 0.164873
O O9 0.853383 0.451999 0.638202
O O10 0.738435 0.281994 0.591965
O O11 0.358133 0.072117 0.762291
O O12 0.500000 0.000000 0.500000
O O13 0.258364 0.967333 0.457760
O O14 0.216484 0.238613 0.084860
O O15 0.500000 0.000000 0.000000
O O16 0.799677 0.245445 0.840268
O O17 0.000000 0.000000 0.500000
O O18 0.500000 0.500000 0.000000
#
# Coordination Sequence:
#
# PCOD9058388 Si02
#       8
#     2   2   2   2   2   2   2   2
#     4  11  27  47  69 106 141 188 237 294 368 426
#     4  11  24  43  72 102 135 184 244 297 338 431
#     4  11  22  45  71  97 139 189 237 287 358 415
#     4  12  28  46  72 105 148 187 243 301 357 433
#     4  12  26  43  71 106 142 188 241 294 362 424
#     4  11  25  47  72  99 147 186 234 299 360 436
#     4  12  28  47  70 106 149 187 232 300 365 424
#     4  12  26  46  76 106 139 188 250 292 356 438
#
# _framework density 21.250798
#
# number of rings (size 3 to 8) (size 9 to 14) (size 15 to 20)
#    0.000    0.500    5.000    2.250    8.750    0.500 
#    0.000    1.250    0.000    0.000    0.000    0.000 
#    0.000    0.000    0.000    0.000    0.000    0.000 
#
# Total GULP energy -89430.666417 kJ/mol
# GULP energy per Si atom -5589.416651 kJ/mol
# Density = 2.120243 g / cm^3
# Si number density = 21.250798 Si / 1000 Ang^3
#
#
#
# Elastic Constant Matrix: (Units=GPa)
#
#
# Indices 1 2 3 4 5 6 
#
# 1 98.2542 30.6632 47.5626 1.9142 4.6075 8.3998
# 2 30.6632 100.4223 53.4870 -15.3103 -3.5183 29.5476
# 3 47.5626 53.4870 118.2978 -18.4840 -17.8717 7.2848
# 4 1.9142 -15.3103 -18.4840 30.5607 4.8487 -4.2735
# 5 4.6075 -3.5183 -17.8717 4.8487 41.5045 -0.8728
# 6 8.3998 29.5476 7.2848 -4.2735 -0.8728 40.4970
#
#
#
# Elastic Compliance Matrix: (Units=1/GPa)
#
#
# Indices 1 2 3 4 5 6 
#
# 1 0.014057 -0.001454 -0.006269 -0.004979 -0.003829 -0.001335
# 2 -0.001454 0.017523 -0.006336 0.003780 -0.001754 -0.010983
# 3 -0.006269 -0.006336 0.015495 0.006155 0.006194 0.003919
# 4 -0.004979 0.003780 0.006155 0.038986 -0.001004 0.001260
# 5 -0.003829 -0.001754 0.006194 -0.001004 0.027185 0.001440
# 6 -0.001335 -0.010983 0.003919 0.001260 0.001440 0.032442
#
#
# Mechanical properties :
#
#
# Convention : Reuss Voigt Hill
#
# Bulk Modulus (GPa) = 52.75146 64.48887 58.62017
# Shear Modulus (GPa) = 27.75865 34.86319 31.31092
#
# Velocity S-wave (km/s) = 3.61812 4.05478 3.84265
# Velocity P-wave (km/s) = 6.50627 7.23423 6.87988
#
# Compressibility (1/GPa) = 0.01895682
#
# Stress axis : x y z
#
# Youngs Moduli (GPa) = 71.14109 57.06757 64.53816
#
# Poissons Ratio (x) = 0.08296 0.40456
# Poissons Ratio (y) = 0.10342 0.40895
# Poissons Ratio (z) = 0.44595 0.36161
#
# Static dielectric constant tensor:
#      x y z
#    x 1.781580 -0.000420 -0.023900 
#    y -0.000420 1.749520 -0.006650 
#    z -0.023900 -0.006650 1.774630 
# 
# From -- ./inp_files/223867.got.cif
#   From: 2010.05.17/outbox.cif.g08.bks.cpg/sg2_112_cif.got.tgz:223867.got - 2010.06.03 11:33:40.
