data_PCOD9058352
_publ_section_title
;
Structure prediction by ZEFSAII (Michael W. Deem and Ramdas Pophale) SiO2 
 PCOD9058352
Probable space group: P -1
;
_chemical_formula_sum "Si O2"
_cell_formula_units_Z 14
_cell_length_a 13.741169
_cell_length_b 8.453854
_cell_length_c 13.713327
_cell_angle_alpha 104.884734
_cell_angle_beta 31.590340
_cell_angle_gamma 124.606562
_cell_volume 584.040414
_symmetry_space_group_name_H-M "P -1"
_symmetry_group_IT_number 2
_symmetry_cell_setting 'triclinic'
loop_
_space_group_symop_operation_xyz
x,y,z
-x,-y,-z
loop_
_atom_site_type_symbol
_atom_site_label
_atom_site_fract_x
_atom_site_fract_y
_atom_site_fract_z
Si Si1 0.572931 0.663696 0.552395
Si Si2 0.625872 0.197808 0.721334
Si Si3 0.803241 0.151556 0.382859
Si Si4 0.913933 0.199379 0.803788
Si Si5 0.324048 0.531720 0.109357
Si Si6 0.230916 0.009127 0.304150
Si Si7 0.061156 0.455910 0.044720
O O1 0.500000 0.500000 0.500000
O O2 0.825351 0.741645 0.397922
O O3 0.644994 0.889103 0.489844
O O4 0.331423 0.530708 0.809610
O O5 0.677498 0.222060 0.565874
O O6 0.748485 0.403178 0.723465
O O7 0.712751 0.068667 0.663276
O O8 0.322777 0.029918 0.974644
O O9 0.085322 0.315926 0.218967
O O10 0.851322 0.214752 0.237657
O O11 0.839629 0.158690 0.748351
O O12 0.929634 0.386737 0.865043
O O13 0.500000 0.500000 0.000000
O O14 0.511206 0.745386 0.911897
O O15 0.000000 0.000000 0.500000
O O16 0.000000 0.500000 0.000000
#
# Coordination Sequence:
#
# PCOD9058352 Si02
#       7
#     2   2   2   2   2   2   2
#     4  12  27  52  74 108 145 193 261 318 370 437
#     4  11  22  45  70 109 154 193 244 295 374 461
#     4  12  26  45  79 104 149 197 245 308 379 439
#     4  11  23  46  76 104 150 201 237 307 377 431
#     4  11  23  40  67 116 150 189 248 296 365 464
#     4  11  23  40  75 109 155 198 240 297 367 458
#     4  12  27  52  75 105 146 194 260 317 372 435
#
# _framework density 23.970945
#
# number of rings (size 3 to 8) (size 9 to 14) (size 15 to 20)
#    0.000    0.571    2.857    7.286    2.000    2.286 
#    2.571    0.000    0.000    0.000    0.000    0.000 
#    0.000    0.000    0.000    0.000    0.000    0.000 
#
# Total GULP energy -78426.659660 kJ/mol
# GULP energy per Si atom -5601.904261 kJ/mol
# Density = 2.391639 g / cm^3
# Si number density = 23.970945 Si / 1000 Ang^3
#
#
#
# Elastic Constant Matrix: (Units=GPa)
#
#
# Indices 1 2 3 4 5 6 
#
# 1 91.6265 14.3868 42.8588 6.4248 12.7360 2.3009
# 2 14.3868 107.5188 20.0563 9.5514 23.4002 9.5801
# 3 42.8588 20.0563 157.2494 24.8840 9.0752 -5.7336
# 4 6.4248 9.5514 24.8840 41.0321 -3.1519 -5.7060
# 5 12.7360 23.4002 9.0752 -3.1519 50.0931 7.1838
# 6 2.3009 9.5801 -5.7336 -5.7060 7.1838 28.5029
#
#
#
# Elastic Compliance Matrix: (Units=1/GPa)
#
#
# Indices 1 2 3 4 5 6 
#
# 1 0.012909 -0.000495 -0.003325 -0.000207 -0.002318 -0.001002
# 2 -0.000495 0.011043 -0.000666 -0.002893 -0.004633 -0.003217
# 3 -0.003325 -0.000666 0.008097 -0.004086 -0.000783 0.001500
# 4 -0.000207 -0.002893 -0.004086 0.028506 0.003211 0.005064
# 5 -0.002318 -0.004633 -0.000783 0.003211 0.023593 -0.003717
# 6 -0.001002 -0.003217 0.001500 0.005064 -0.003717 0.038499
#
#
# Mechanical properties :
#
#
# Convention : Reuss Voigt Hill
#
# Bulk Modulus (GPa) = 43.33330 56.77760 50.05545
# Shear Modulus (GPa) = 35.89097 42.53180 39.21138
#
# Velocity S-wave (km/s) = 3.87365 4.21682 4.04888
# Velocity P-wave (km/s) = 6.17443 6.88812 6.54102
#
# Compressibility (1/GPa) = 0.02307694
#
# Stress axis : x y z
#
# Youngs Moduli (GPa) = 77.46647 90.55520 123.50153
#
# Poissons Ratio (x) = 0.04482 0.41067
# Poissons Ratio (y) = 0.03834 0.08222
# Poissons Ratio (z) = 0.25760 0.06029
#
# Static dielectric constant tensor:
#      x y z
#    x 1.988710 -0.034970 0.036180 
#    y -0.034970 1.931740 -0.042950 
#    z 0.036180 -0.042950 1.959720 
# 
# From -- ./inp_files/529973.got.cif
#   From: 2010.05.17/outbox.cif.g08.bks.cpg/sg2_265_cif.got.tgz:529973.got - 2010.06.03 11:33:40.
