data_PCOD9058839
_publ_section_title
;
Structure prediction by ZEFSAII (Michael W. Deem and Ramdas Pophale) SiO2 
 PCOD9058839
Probable space group: P -1
;
_chemical_formula_sum "Si O2"
_cell_formula_units_Z 12
_cell_length_a 8.672833
_cell_length_b 8.004521
_cell_length_c 15.221666
_cell_angle_alpha 131.031608
_cell_angle_beta 46.920919
_cell_angle_gamma 95.852375
_cell_volume 452.766564
_symmetry_space_group_name_H-M "P -1"
_symmetry_group_IT_number 2
_symmetry_cell_setting 'triclinic'
loop_
_space_group_symop_operation_xyz
x,y,z
-x,-y,-z
loop_
_atom_site_type_symbol
_atom_site_label
_atom_site_fract_x
_atom_site_fract_y
_atom_site_fract_z
Si Si1 0.148758 0.839155 0.499381
Si Si2 0.238003 0.275352 0.394735
Si Si3 0.193750 0.145828 0.942112
Si Si4 0.586148 0.520132 0.071525
Si Si5 0.838964 0.048312 0.287951
Si Si6 0.747128 0.715567 0.407348
O O1 0.361323 0.620326 0.267990
O O2 0.230764 0.729371 0.530871
O O3 0.861563 0.915449 0.618513
O O4 0.141062 0.110935 0.589099
O O5 0.223953 0.376265 0.534036
O O6 0.000000 0.500000 0.500000
O O7 0.549263 0.083046 0.175143
O O8 0.319663 0.284610 0.895211
O O9 0.147791 0.978504 0.832484
O O10 0.920493 0.424886 0.184811
O O11 0.500000 0.500000 0.000000
O O12 0.860249 0.215929 0.891062
O O13 0.572069 0.073050 0.415458
#
# Coordination Sequence:
#
# PCOD9058839 Si02
#       6
#     2   2   2   2   2   2
#     4  12  23  39  66  99 128 168 218 266 328 381
#     4  11  26  45  64  91 132 176 222 271 317 381
#     4  11  23  39  64  98 133 168 214 263 330 379
#     4  12  23  35  62 102 134 163 208 267 326 384
#     4  11  23  37  64 104 138 159 208 275 331 383
#     4  11  23  40  69  98 130 169 214 271 325 387
#
# _framework density 26.503723000000001
#
# number of rings (size 3 to 8) (size 9 to 14) (size 15 to 20)
#    0.000    0.667    5.000    4.500    0.000    0.667 
#    0.000    3.333    0.000    6.000    0.000    0.000 
#    0.000    0.000    0.000    0.000    0.000    0.000 
#
# Total GULP energy -67007.296680 kJ/mol
# GULP energy per Si atom -5583.941390 kJ/mol
# Density = 2.644340 g / cm^3
# Si number density = 26.503723 Si / 1000 Ang^3
#
#
#
# Elastic Constant Matrix: (Units=GPa)
#
#
# Indices 1 2 3 4 5 6 
#
# 1 176.5780 21.9636 72.7755 -9.1881 3.5801 -32.9970
# 2 21.9636 65.7226 23.5990 -2.9161 -0.9072 -25.0973
# 3 72.7755 23.5990 195.2334 10.9287 2.8636 -14.4433
# 4 -9.1881 -2.9161 10.9287 23.2594 -14.9597 -7.9556
# 5 3.5801 -0.9072 2.8636 -14.9597 50.4202 -0.7052
# 6 -32.9970 -25.0973 -14.4433 -7.9556 -0.7052 32.9505
#
#
#
# Elastic Compliance Matrix: (Units=1/GPa)
#
#
# Indices 1 2 3 4 5 6 
#
# 1 0.010485 0.004860 -0.004207 0.014948 0.004242 0.016058
# 2 0.004860 0.027454 -0.004306 0.022197 0.007391 0.029408
# 3 -0.004207 -0.004306 0.007321 -0.010070 -0.003277 -0.006785
# 4 0.014948 0.022197 -0.010070 0.091388 0.027726 0.050121
# 5 0.004242 0.007391 -0.003277 0.027726 0.028298 0.015740
# 6 0.016058 0.029408 -0.006785 0.050121 0.015740 0.078292
#
#
# Mechanical properties :
#
#
# Convention : Reuss Voigt Hill
#
# Bulk Modulus (GPa) = 26.34686 74.91227 50.62956
# Shear Modulus (GPa) = 18.99740 42.60577 30.80159
#
# Velocity S-wave (km/s) = 2.68018 4.01376 3.41275
# Velocity P-wave (km/s) = 4.42043 7.05738 5.88841
#
# Compressibility (1/GPa) = 0.03795519
#
# Stress axis : x y z
#
# Youngs Moduli (GPa) = 95.37377 36.42437 136.60226
#
# Poissons Ratio (x) = -0.17703 0.57468
# Poissons Ratio (y) = -0.46355 0.58816
# Poissons Ratio (z) = 0.40124 0.15683
#
# Static dielectric constant tensor:
#      x y z
#    x 2.089580 0.032790 0.081800 
#    y 0.032790 2.315990 0.042010 
#    z 0.081800 0.042010 2.096140 
# 
# From -- ./inp_files/491364.got.cif
#   From: 2010.05.17/outbox.cif.g08.bks.cpg/sg2_246_cif.got.tgz:491364.got - 2010.06.03 11:33:40.
