data_PCOD9058805
_publ_section_title
;
Structure prediction by ZEFSAII (Michael W. Deem and Ramdas Pophale) SiO2 
 PCOD9058805
Probable space group: P -1
;
_chemical_formula_sum "Si O2"
_cell_formula_units_Z 16
_cell_length_a 11.384001
_cell_length_b 31.178411
_cell_length_c 7.102237
_cell_angle_alpha 121.677641
_cell_angle_beta 135.100486
_cell_angle_gamma 23.870542
_cell_volume 650.343905
_symmetry_space_group_name_H-M "P -1"
_symmetry_group_IT_number 2
_symmetry_cell_setting 'triclinic'
loop_
_space_group_symop_operation_xyz
x,y,z
-x,-y,-z
loop_
_atom_site_type_symbol
_atom_site_label
_atom_site_fract_x
_atom_site_fract_y
_atom_site_fract_z
Si Si1 0.205988 0.740068 0.981239
Si Si2 0.056786 0.610591 0.703353
Si Si3 0.205988 0.240068 0.981239
Si Si4 0.408249 0.718677 0.757780
Si Si5 0.376072 0.920837 0.570499
Si Si6 0.591751 0.781323 0.242220
Si Si7 0.943214 0.889409 0.296647
Si Si8 0.623928 0.579163 0.429501
O O1 0.303682 0.716886 0.821454
O O2 0.775535 0.834382 0.737330
O O3 0.496943 0.629720 0.191799
O O4 0.179306 0.803646 0.189020
O O5 0.057108 0.551773 0.515883
O O6 0.934510 0.678231 0.544310
O O7 0.500000 0.500000 0.000000
O O8 0.820694 0.696354 0.810980
O O9 0.303682 0.216886 0.821454
O O10 0.775535 0.334382 0.737330
O O11 0.496943 0.129720 0.191799
O O12 0.715558 0.602568 0.716235
O O13 0.065490 0.821769 0.455690
O O14 0.500000 0.750000 0.000000
O O15 0.284442 0.897432 0.283765
O O16 0.057107 0.051773 0.515883
O O17 0.500000 0.000000 0.000000
#
# Coordination Sequence:
#
# PCOD9058805 Si02
#       8
#     2   2   2   2   2   2   2   2
#     4   9  19  37  58  80 109 143 183 226 266 319
#     4   9  20  37  57  82 107 141 187 225 265 320
#     4   9  19  37  58  80 109 143 183 226 266 319
#     4  11  23  36  54  84 116 143 176 223 276 324
#     4   9  19  36  58  81 106 143 185 224 268 318
#     4  11  23  36  54  84 116 143 176 223 276 324
#     4   9  20  37  57  82 107 141 187 225 265 320
#     4   9  19  36  58  81 106 143 185 224 268 318
#
# _framework density 24.602367000000001
#
# number of rings (size 3 to 8) (size 9 to 14) (size 15 to 20)
#    0.000    2.500    0.000    2.250    0.000   11.000 
#    0.000    2.500    0.000    0.000    0.000    0.000 
#    0.000    0.000    0.000    0.000    0.000    0.000 
#
# Total GULP energy -89533.474443 kJ/mol
# GULP energy per Si atom -5595.842153 kJ/mol
# Density = 2.454637 g / cm^3
# Si number density = 24.602367 Si / 1000 Ang^3
#
#
#
# Elastic Constant Matrix: (Units=GPa)
#
#
# Indices 1 2 3 4 5 6 
#
# 1 101.0004 30.2540 38.5927 4.9239 -29.0868 1.5369
# 2 30.2540 177.1311 54.0057 30.6237 -28.3102 23.0667
# 3 38.5927 54.0057 121.4751 24.7204 -29.3728 1.9248
# 4 4.9239 30.6237 24.7204 48.0344 11.2994 11.2565
# 5 -29.0868 -28.3102 -29.3728 11.2994 61.3992 4.3198
# 6 1.5369 23.0667 1.9248 11.2565 4.3198 25.9902
#
#
#
# Elastic Compliance Matrix: (Units=1/GPa)
#
#
# Indices 1 2 3 4 5 6 
#
# 1 0.012349 -0.000411 -0.002469 -0.000671 0.004650 -0.000665
# 2 -0.000411 0.008366 -0.001740 -0.003866 0.003982 -0.006260
# 3 -0.002469 -0.001740 0.012343 -0.006845 0.004988 0.002912
# 4 -0.000671 -0.003866 -0.006845 0.031182 -0.010567 -0.007771
# 5 0.004650 0.003982 0.004988 -0.010567 0.024920 -0.003744
# 6 -0.000665 -0.006260 0.002912 -0.007771 -0.003744 0.047843
#
#
# Mechanical properties :
#
#
# Convention : Reuss Voigt Hill
#
# Bulk Modulus (GPa) = 41.98345 71.70129 56.84237
# Shear Modulus (GPa) = 32.42883 45.53502 38.98192
#
# Velocity S-wave (km/s) = 3.63453 4.30680 3.98487
# Velocity P-wave (km/s) = 5.89194 7.34430 6.65784
#
# Compressibility (1/GPa) = 0.02381891
#
# Stress axis : x y z
#
# Youngs Moduli (GPa) = 80.97500 119.52785 81.01598
#
# Poissons Ratio (x) = 0.04907 0.20006
# Poissons Ratio (y) = 0.03324 0.14098
# Poissons Ratio (z) = 0.19996 0.20800
#
# Static dielectric constant tensor:
#      x y z
#    x 1.981530 0.037380 0.121920 
#    y 0.037380 1.957230 0.075870 
#    z 0.121920 0.075870 2.004330 
# 
# From -- ./inp_files/52636.got.cif
#   From: 2010.05.17/outbox.cif.g08.bks.cpg/sg2_27_cif.got.tgz:52636.got - 2010.06.03 11:33:40.
