data_PCOD9058292
_publ_section_title
;
Structure prediction by ZEFSAII (Michael W. Deem and Ramdas Pophale) SiO2 
 PCOD9058292
Probable space group: P -1
;
_chemical_formula_sum "Si O2"
_cell_formula_units_Z 16
_cell_length_a 10.893888
_cell_length_b 15.252720
_cell_length_c 16.541983
_cell_angle_alpha 23.849681
_cell_angle_beta 137.294913
_cell_angle_gamma 137.291048
_cell_volume 733.797455
_symmetry_space_group_name_H-M "P -1"
_symmetry_group_IT_number 2
_symmetry_cell_setting 'triclinic'
loop_
_space_group_symop_operation_xyz
x,y,z
-x,-y,-z
loop_
_atom_site_type_symbol
_atom_site_label
_atom_site_fract_x
_atom_site_fract_y
_atom_site_fract_z
Si Si1 0.509981 0.304116 0.055598
Si Si2 0.581639 0.546407 0.589340
Si Si3 0.344460 0.242242 0.853163
Si Si4 0.740156 0.754539 0.859002
Si Si5 0.314871 0.965604 0.825608
Si Si6 0.058309 0.515372 0.228634
Si Si7 0.859953 0.165174 0.296741
Si Si8 0.946484 0.854905 0.332308
O O1 0.379832 0.280284 0.933362
O O2 0.630216 0.561818 0.907518
O O3 0.394552 0.244791 0.131543
O O4 0.649418 0.138112 0.252354
O O5 0.500000 0.500000 0.500000
O O6 0.440987 0.462194 0.663781
O O7 0.662048 0.809813 0.408407
O O8 0.738979 0.403920 0.780449
O O9 0.136096 0.173141 0.774960
O O10 0.479649 0.077426 0.032077
O O11 0.923860 0.676494 0.043441
O O12 0.843360 0.002109 0.671900
O O13 0.200486 0.029393 0.790694
O O14 0.180200 0.779291 0.862529
O O15 0.962028 0.351696 0.249830
O O16 0.072551 0.376963 0.433603
O O17 0.000000 0.000000 0.500000
#
# Coordination Sequence:
#
# PCOD9058292 Si02
#       8
#     2   2   2   2   2   2   2   2
#     4   9  23  42  60  83 117 157 198 242 287 344
#     4  11  20  33  55  86 122 150 183 234 297 349
#     4  11  22  36  57  88 121 150 192 239 293 348
#     4  10  22  43  61  80 115 161 202 239 283 337
#     4  10  21  34  56  88 120 151 186 235 300 348
#     4  10  21  36  60  87 118 151 196 239 288 348
#     4  10  17  37  60  85 118 142 186 249 289 341
#     4  11  21  34  61  87 116 155 196 235 290 349
#
# _framework density 21.804380999999999
#
# number of rings (size 3 to 8) (size 9 to 14) (size 15 to 20)
#    0.000    1.750    5.000    1.125    1.750    2.500 
#    0.000   12.500    0.000    0.000    0.000    0.000 
#    0.000    0.000    0.000    0.000    0.000    0.000 
#
# Total GULP energy -89083.983942 kJ/mol
# GULP energy per Si atom -5567.748996 kJ/mol
# Density = 2.175475 g / cm^3
# Si number density = 21.804381 Si / 1000 Ang^3
#
#
#
# Elastic Constant Matrix: (Units=GPa)
#
#
# Indices 1 2 3 4 5 6 
#
# 1 69.6549 16.2276 5.7061 -6.2324 9.3696 -13.2177
# 2 16.2276 74.4050 5.1569 12.7354 -0.5787 -7.5124
# 3 5.7061 5.1569 35.6693 5.1850 -1.7269 -4.4311
# 4 -6.2324 12.7354 5.1850 32.1768 6.3226 -9.8947
# 5 9.3696 -0.5787 -1.7269 6.3226 16.4592 -0.5990
# 6 -13.2177 -7.5124 -4.4311 -9.8947 -0.5990 28.7421
#
#
#
# Elastic Compliance Matrix: (Units=1/GPa)
#
#
# Indices 1 2 3 4 5 6 
#
# 1 0.022407 -0.006015 -0.004208 0.015034 -0.018715 0.012869
# 2 -0.006015 0.016285 0.000177 -0.009651 0.007662 -0.001645
# 3 -0.004208 0.000177 0.030199 -0.007261 0.008376 0.000442
# 4 0.015034 -0.009651 -0.007261 0.050764 -0.028426 0.020155
# 5 -0.018715 0.007662 0.008376 -0.028426 0.082991 -0.013369
# 6 0.012869 -0.001645 0.000442 0.020155 -0.013369 0.047008
#
#
# Mechanical properties :
#
#
# Convention : Reuss Voigt Hill
#
# Bulk Modulus (GPa) = 20.49166 25.99004 23.24085
# Shear Modulus (GPa) = 17.48183 25.65152 21.56667
#
# Velocity S-wave (km/s) = 2.83460 3.43365 3.14841
# Velocity P-wave (km/s) = 4.48683 5.25979 4.88861
#
# Compressibility (1/GPa) = 0.04880035
#
# Stress axis : x y z
#
# Youngs Moduli (GPa) = 44.62867 61.40695 33.11397
#
# Poissons Ratio (x) = 0.36935 0.13933
# Poissons Ratio (y) = 0.26843 -0.00587
# Poissons Ratio (z) = 0.18778 -0.01089
#
# Static dielectric constant tensor:
#      x y z
#    x 1.783120 -0.000220 0.002350 
#    y -0.000220 1.948850 -0.062490 
#    z 0.002350 -0.062490 1.910330 
# 
# From -- ./inp_files/505175.got.cif
#   From: 2010.05.17/outbox.cif.g08.bks.cpg/sg2_253_cif.got.tgz:505175.got - 2010.06.03 11:33:40.
