data_PCOD9058555
_publ_section_title
;
Structure prediction by ZEFSAII (Michael W. Deem and Ramdas Pophale) SiO2 
 PCOD9058555
Probable space group: P -1
;
_chemical_formula_sum "Si O2"
_cell_formula_units_Z 14
_cell_length_a 12.611607
_cell_length_b 9.678468
_cell_length_c 9.219636
_cell_angle_alpha 82.945314
_cell_angle_beta 71.654153
_cell_angle_gamma 42.512428
_cell_volume 711.272430
_symmetry_space_group_name_H-M "P -1"
_symmetry_group_IT_number 2
_symmetry_cell_setting 'triclinic'
loop_
_space_group_symop_operation_xyz
x,y,z
-x,-y,-z
loop_
_atom_site_type_symbol
_atom_site_label
_atom_site_fract_x
_atom_site_fract_y
_atom_site_fract_z
Si Si1 0.349208 0.945292 0.165242
Si Si2 0.392675 0.457002 0.076115
Si Si3 0.158741 0.253070 0.951258
Si Si4 0.702295 0.432144 0.344016
Si Si5 0.558378 0.864658 0.349297
Si Si6 0.937371 0.212901 0.010669
Si Si7 0.642657 0.353022 0.666489
O O1 0.416639 0.959627 0.277831
O O2 0.286483 0.849872 0.257259
O O3 0.227586 0.149776 0.094157
O O4 0.499755 0.765678 0.011824
O O5 0.357521 0.507705 0.254329
O O6 0.500000 0.500000 0.000000
O O7 0.217154 0.620474 0.050489
O O8 0.089007 0.175527 0.923211
O O9 0.300277 0.186623 0.797337
O O10 0.000000 0.500000 0.000000
O O11 0.633242 0.646161 0.391765
O O12 0.860808 0.306236 0.191113
O O13 0.730356 0.306473 0.483919
O O14 0.549944 0.506934 0.306295
O O15 0.500000 0.000000 0.500000
O O16 0.000000 0.000000 0.000000
#
# Coordination Sequence:
#
# PCOD9058555 Si02
#       7
#     2   2   2   2   2   2   2
#     4  10  21  41  66  95 127 172 232 269 319 405
#     4  10  17  37  61  97 125 166 224 263 318 404
#     4  12  25  44  67  93 139 175 217 285 339 391
#     4  10  20  39  59  97 135 164 216 278 325 391
#     4  11  24  44  68  96 128 183 231 267 330 407
#     4  12  23  38  65  99 135 173 220 275 340 391
#     4   9  19  35  67  92 127 160 215 279 319 373
#
# _framework density 19.683036000000001
#
# number of rings (size 3 to 8) (size 9 to 14) (size 15 to 20)
#    0.000    1.429    5.714    2.143    2.000    2.286 
#    0.000    5.000    0.000    0.000    0.000    0.000 
#    0.000    0.000    0.000    0.000    0.000    0.000 
#
# Total GULP energy -78131.014948 kJ/mol
# GULP energy per Si atom -5580.786782 kJ/mol
# Density = 1.963824 g / cm^3
# Si number density = 19.683036 Si / 1000 Ang^3
#
#
#
# Elastic Constant Matrix: (Units=GPa)
#
#
# Indices 1 2 3 4 5 6 
#
# 1 81.5781 23.8953 32.9301 -5.2738 7.6695 9.2262
# 2 23.8953 123.5051 47.1173 -7.3938 16.9088 4.3425
# 3 32.9301 47.1173 114.1254 -7.7500 14.5215 4.8872
# 4 -5.2738 -7.3938 -7.7500 32.8312 13.5930 5.5802
# 5 7.6695 16.9088 14.5215 13.5930 29.4452 4.5133
# 6 9.2262 4.3425 4.8872 5.5802 4.5133 21.4133
#
#
#
# Elastic Compliance Matrix: (Units=1/GPa)
#
#
# Indices 1 2 3 4 5 6 
#
# 1 0.014919 -0.000939 -0.003105 0.003503 -0.002527 -0.005909
# 2 -0.000939 0.010538 -0.002974 0.004214 -0.006154 -0.000855
# 3 -0.003105 -0.002974 0.011802 0.003782 -0.004943 -0.000696
# 4 0.003503 0.004214 0.003782 0.044569 -0.024282 -0.009724
# 5 -0.002527 -0.006154 -0.004943 -0.024282 0.051979 -0.001163
# 6 -0.005909 -0.000855 -0.000696 -0.009724 -0.001163 0.052357
#
#
# Mechanical properties :
#
#
# Convention : Reuss Voigt Hill
#
# Bulk Modulus (GPa) = 43.05945 58.56601 50.81273
# Shear Modulus (GPa) = 24.04538 31.08898 27.56718
#
# Velocity S-wave (km/s) = 3.49897 3.97858 3.74646
# Velocity P-wave (km/s) = 6.18447 7.13615 6.67729
#
# Compressibility (1/GPa) = 0.02322371
#
# Stress axis : x y z
#
# Youngs Moduli (GPa) = 67.02990 94.89558 84.73424
#
# Poissons Ratio (x) = 0.08906 0.26308
# Poissons Ratio (y) = 0.06291 0.25200
# Poissons Ratio (z) = 0.20811 0.28222
#
# Static dielectric constant tensor:
#      x y z
#    x 1.686360 0.006790 0.018090 
#    y 0.006790 1.693240 -0.007810 
#    z 0.018090 -0.007810 1.715630 
# 
# From -- ./inp_files/243948.got.cif
#   From: 2010.05.17/outbox.cif.g08.bks.cpg/sg2_122_cif.got.tgz:243948.got - 2010.06.03 11:33:40.
