data_PCOD9058281
_publ_section_title
;
Structure prediction by ZEFSAII (Michael W. Deem and Ramdas Pophale) SiO2 
 PCOD9058281
Probable space group: P -1
;
_chemical_formula_sum "Si O2"
_cell_formula_units_Z 16
_cell_length_a 10.243761
_cell_length_b 7.949717
_cell_length_c 14.399007
_cell_angle_alpha 125.138884
_cell_angle_beta 74.600687
_cell_angle_gamma 134.783069
_cell_volume 660.536631
_symmetry_space_group_name_H-M "P -1"
_symmetry_group_IT_number 2
_symmetry_cell_setting 'triclinic'
loop_
_space_group_symop_operation_xyz
x,y,z
-x,-y,-z
loop_
_atom_site_type_symbol
_atom_site_label
_atom_site_fract_x
_atom_site_fract_y
_atom_site_fract_z
Si Si1 0.695545 0.435039 0.893041
Si Si2 0.718874 0.324908 0.486814
Si Si3 0.375636 0.957609 0.923617
Si Si4 0.950504 0.218887 0.952937
Si Si5 0.650728 0.509618 0.301349
Si Si6 0.099158 0.862915 0.500149
Si Si7 0.317556 0.383599 0.248578
Si Si8 0.364878 0.037900 0.342570
O O1 0.710078 0.550929 0.826955
O O2 0.861966 0.679104 0.007251
O O3 0.499318 0.232370 0.920686
O O4 0.709684 0.204734 0.795073
O O5 0.794249 0.189904 0.470222
O O6 0.698267 0.463677 0.619453
O O7 0.519244 0.093347 0.398906
O O8 0.878957 0.581592 0.467763
O O9 0.202944 0.903179 0.977187
O O10 0.310999 0.683653 0.794801
O O11 0.500000 0.000000 0.000000
O O12 0.000000 0.500000 0.000000
O O13 0.847198 0.961850 0.817684
O O14 0.520600 0.487061 0.243264
O O15 0.498331 0.344416 0.362739
O O16 0.834373 0.840226 0.388936
O O17 0.192174 0.928870 0.402873
#
# Coordination Sequence:
#
# PCOD9058281 Si02
#       8
#     2   2   2   2   2   2   2   2
#     4  11  25  44  72  98 137 177 220 281 332 399
#     4  11  25  42  68  99 135 176 223 276 329 401
#     4  11  23  47  68 101 131 177 228 274 333 397
#     4  12  25  46  72  95 137 174 224 280 333 395
#     4  11  24  42  70  98 137 180 218 278 336 395
#     4  11  23  42  66  97 133 176 221 274 331 397
#     4  12  24  46  68 101 136 179 222 276 342 390
#     4  11  22  45  66  97 137 176 221 272 335 389
#
# _framework density 24.222729999999999
#
# number of rings (size 3 to 8) (size 9 to 14) (size 15 to 20)
#    0.000    0.750    5.000    2.625    1.750    3.000 
#    2.250    0.000    0.000    0.000    0.000    0.000 
#    0.000    0.000    0.000    0.000    0.000    0.000 
#
# Total GULP energy -89650.547330 kJ/mol
# GULP energy per Si atom -5603.159208 kJ/mol
# Density = 2.416760 g / cm^3
# Si number density = 24.222730 Si / 1000 Ang^3
#
#
#
# Elastic Constant Matrix: (Units=GPa)
#
#
# Indices 1 2 3 4 5 6 
#
# 1 60.2800 10.6395 -2.1568 4.8057 -1.7392 0.0227
# 2 10.6395 121.6623 25.7666 7.3190 -12.5877 7.9805
# 3 -2.1568 25.7666 82.9879 15.4952 -8.4105 10.5017
# 4 4.8057 7.3190 15.4952 34.7102 -2.3432 2.0189
# 5 -1.7392 -12.5877 -8.4105 -2.3432 27.9902 -1.0209
# 6 0.0227 7.9805 10.5017 2.0189 -1.0209 44.7650
#
#
#
# Elastic Compliance Matrix: (Units=1/GPa)
#
#
# Indices 1 2 3 4 5 6 
#
# 1 0.017154 -0.001600 0.001491 -0.002668 0.000573 0.000060
# 2 -0.001600 0.009296 -0.002395 -0.000389 0.003293 -0.001002
# 3 0.001491 -0.002395 0.014545 -0.005851 0.002799 -0.002658
# 4 -0.002668 -0.000389 -0.005851 0.031911 0.000573 0.000017
# 5 0.000573 0.003293 0.002799 0.000573 0.038118 -0.000401
# 6 0.000060 -0.001002 -0.002658 0.000017 -0.000401 0.023131
#
#
# Mechanical properties :
#
#
# Convention : Reuss Voigt Hill
#
# Bulk Modulus (GPa) = 27.78687 37.04765 32.41726
# Shear Modulus (GPa) = 33.07778 36.87179 34.97479
#
# Velocity S-wave (km/s) = 3.69937 3.90577 3.80397
# Velocity P-wave (km/s) = 5.45375 5.97225 5.71888
#
# Compressibility (1/GPa) = 0.03598821
#
# Stress axis : x y z
#
# Youngs Moduli (GPa) = 58.29451 107.56835 68.75289
#
# Poissons Ratio (x) = 0.17212 -0.10253
# Poissons Ratio (y) = 0.09328 0.16465
# Poissons Ratio (z) = -0.08694 0.25761
#
# Static dielectric constant tensor:
#      x y z
#    x 1.930560 -0.052160 0.017520 
#    y -0.052160 1.951090 0.000860 
#    z 0.017520 0.000860 1.926910 
# 
# From -- ./inp_files/515212.got.cif
#   From: 2010.05.17/outbox.cif.g08.bks.cpg/sg2_258_cif.got.tgz:515212.got - 2010.06.03 11:33:40.
