data_PCOD9058417
_publ_section_title
;
Structure prediction by ZEFSAII (Michael W. Deem and Ramdas Pophale) SiO2 
 PCOD9058417
Probable space group: P -1
;
_chemical_formula_sum "Si O2"
_cell_formula_units_Z 16
_cell_length_a 20.721156
_cell_length_b 9.075908
_cell_length_c 26.558068
_cell_angle_alpha 150.878200
_cell_angle_beta 19.551235
_cell_angle_gamma 141.011677
_cell_volume 780.397894
_symmetry_space_group_name_H-M "P -1"
_symmetry_group_IT_number 2
_symmetry_cell_setting 'triclinic'
loop_
_space_group_symop_operation_xyz
x,y,z
-x,-y,-z
loop_
_atom_site_type_symbol
_atom_site_label
_atom_site_fract_x
_atom_site_fract_y
_atom_site_fract_z
Si Si1 0.677459 0.591088 0.088339
Si Si2 0.347899 0.898558 0.116899
Si Si3 0.602700 0.766260 0.988737
Si Si4 0.672826 0.293489 0.274370
Si Si5 0.028741 0.285811 0.529194
Si Si6 0.617717 0.384918 0.224003
Si Si7 0.308290 0.708003 0.471449
Si Si8 0.987622 0.373579 0.882498
O O1 0.470448 0.633295 0.284335
O O2 0.703430 0.932933 0.160078
O O3 0.674284 0.420458 0.986477
O O4 0.851947 0.385681 0.935647
O O5 0.129370 0.132299 0.357471
O O6 0.464681 0.896323 0.081987
O O7 0.500000 0.000000 0.000000
O O8 0.827750 0.563534 0.750667
O O9 0.500000 0.500000 0.000000
O O10 0.606572 0.050036 0.108105
O O11 0.500000 0.500000 0.500000
O O12 0.606371 0.361964 0.285352
O O13 0.882326 0.383117 0.149636
O O14 0.178574 0.460408 0.496070
O O15 0.000000 0.000000 0.500000
O O16 0.440000 0.658967 0.410828
O O17 0.825827 0.437745 0.066092
O O18 0.152979 0.045390 0.675374
#
# Coordination Sequence:
#
# PCOD9058417 Si02
#       8
#     2   2   2   2   2   2   2   2
#     4  11  25  46  71 101 147 179 226 288 346 406
#     4  12  24  42  68 104 139 179 222 278 342 404
#     4  12  23  43  68  99 141 180 229 276 332 415
#     4  12  26  48  70 104 137 177 232 294 349 400
#     4  12  24  41  67 102 139 181 231 272 335 411
#     4  11  24  45  73  98 137 184 227 286 342 409
#     4  11  22  45  73 101 138 181 236 277 339 419
#     4  11  24  48  71  99 135 187 233 283 342 410
#
# _framework density 20.502362000000002
#
# number of rings (size 3 to 8) (size 9 to 14) (size 15 to 20)
#    0.000    0.500    6.250    2.250    0.000    2.000 
#    9.000    0.000    0.000    0.000    0.000    0.000 
#    0.000    0.000    0.000    0.000    0.000    0.000 
#
# Total GULP energy -89332.385228 kJ/mol
# GULP energy per Si atom -5583.274077 kJ/mol
# Density = 2.045570 g / cm^3
# Si number density = 20.502362 Si / 1000 Ang^3
#
#
#
# Elastic Constant Matrix: (Units=GPa)
#
#
# Indices 1 2 3 4 5 6 
#
# 1 94.0472 17.7593 59.5140 -8.1301 5.9108 5.8566
# 2 17.7593 132.0134 37.7941 -11.9621 3.2311 10.9768
# 3 59.5140 37.7941 144.0346 -1.5907 -16.4490 3.5649
# 4 -8.1301 -11.9621 -1.5907 35.1566 -3.6223 -0.6915
# 5 5.9108 3.2311 -16.4490 -3.6223 33.8897 -2.2731
# 6 5.8566 10.9768 3.5649 -0.6915 -2.2731 26.9975
#
#
#
# Elastic Compliance Matrix: (Units=1/GPa)
#
#
# Indices 1 2 3 4 5 6 
#
# 1 0.016057 0.000650 -0.007421 0.002878 -0.006374 -0.003230
# 2 0.000650 0.008864 -0.002732 0.002744 -0.002226 -0.003501
# 3 -0.007421 -0.002732 0.011478 -0.001360 0.007099 0.001768
# 4 0.002878 0.002744 -0.001360 0.030150 0.001756 -0.000641
# 5 -0.006374 -0.002226 0.007099 0.001756 0.034755 0.004321
# 6 -0.003230 -0.003501 0.001768 -0.000641 0.004321 0.039279
#
#
# Mechanical properties :
#
#
# Convention : Reuss Voigt Hill
#
# Bulk Modulus (GPa) = 57.49473 66.69223 62.09348
# Shear Modulus (GPa) = 30.23224 36.21062 33.22143
#
# Velocity S-wave (km/s) = 3.84418 4.20714 4.02975
# Velocity P-wave (km/s) = 6.91430 7.49665 7.21135
#
# Compressibility (1/GPa) = 0.01739290
#
# Stress axis : x y z
#
# Youngs Moduli (GPa) = 62.27769 112.81740 87.12362
#
# Poissons Ratio (x) = -0.07333 0.64658
# Poissons Ratio (y) = -0.04048 0.23799
# Poissons Ratio (z) = 0.46219 0.30818
#
# Static dielectric constant tensor:
#      x y z
#    x 1.713910 0.031240 -0.000550 
#    y 0.031240 1.908360 -0.050830 
#    z -0.000550 -0.050830 1.777930 
# 
# From -- ./inp_files/592102.got.cif
#   From: 2010.05.17/outbox.cif.g08.bks.cpg/sg2_297_cif.got.tgz:592102.got - 2010.06.03 11:33:40.
