data_PCOD9058057
_publ_section_title
;
Structure prediction by ZEFSAII (Michael W. Deem and Ramdas Pophale) SiO2 
 PCOD9058057
Probable space group: P -1
;
_chemical_formula_sum "Si O2"
_cell_formula_units_Z 14
_cell_length_a 14.500903
_cell_length_b 14.216180
_cell_length_c 7.913621
_cell_angle_alpha 55.516178
_cell_angle_beta 106.576364
_cell_angle_gamma 150.339388
_cell_volume 573.689679
_symmetry_space_group_name_H-M "P -1"
_symmetry_group_IT_number 2
_symmetry_cell_setting 'triclinic'
loop_
_space_group_symop_operation_xyz
x,y,z
-x,-y,-z
loop_
_atom_site_type_symbol
_atom_site_label
_atom_site_fract_x
_atom_site_fract_y
_atom_site_fract_z
Si Si1 0.310186 0.492943 0.465320
Si Si2 0.765128 0.578319 0.105192
Si Si3 0.220523 0.024138 0.714188
Si Si4 0.681090 0.964475 0.749408
Si Si5 0.134669 0.059630 0.282149
Si Si6 0.217395 0.786469 0.758131
Si Si7 0.460388 0.862836 0.979767
O O1 0.297798 0.594727 0.241501
O O2 0.124002 0.209541 0.598010
O O3 0.551990 0.701160 0.361725
O O4 0.269302 0.478757 0.655570
O O5 0.999085 0.789575 0.942570
O O6 0.758683 0.707472 0.939689
O O7 0.564436 0.312386 0.167824
O O8 0.187652 0.068793 0.486228
O O9 0.265138 0.944883 0.742873
O O10 0.789177 0.956538 0.793459
O O11 0.799018 0.177089 0.470887
O O12 0.663187 0.004339 0.879963
O O13 0.385390 0.861839 0.785883
O O14 0.000000 0.500000 0.000000
O O15 0.500000 0.000000 0.000000
#
# Coordination Sequence:
#
# PCOD9058057 Si02
#       7
#     2   2   2   2   2   2   2
#     4  12  26  46  67 110 147 179 252 290 342 441
#     4  12  24  48  75 102 147 191 235 296 360 418
#     4  11  25  46  70 104 144 189 240 292 351 429
#     4  11  24  45  74 103 142 193 239 292 356 432
#     4  11  25  47  73 106 144 190 239 294 359 420
#     4  11  22  44  69  99 139 186 240 290 356 425
#     4  12  24  43  67 101 144 183 235 296 353 415
#
# _framework density 24.403435999999999
#
# number of rings (size 3 to 8) (size 9 to 14) (size 15 to 20)
#    0.000    0.571    4.286    5.143    2.000    1.714 
#    0.000    2.143    0.000    0.000    0.000    0.000 
#    0.000    0.000    0.000    0.000    0.000    0.000 
#
# Total GULP energy -78418.592726 kJ/mol
# GULP energy per Si atom -5601.328052 kJ/mol
# Density = 2.434789 g / cm^3
# Si number density = 24.403436 Si / 1000 Ang^3
#
#
#
# Elastic Constant Matrix: (Units=GPa)
#
#
# Indices 1 2 3 4 5 6 
#
# 1 106.6372 18.8723 54.1816 -1.7765 -10.1095 9.8083
# 2 18.8723 62.5412 2.6580 -10.2041 -1.4381 10.4790
# 3 54.1816 2.6580 132.1415 5.7817 -0.7814 -10.8016
# 4 -1.7765 -10.2041 5.7817 32.9881 3.4573 -2.6667
# 5 -10.1095 -1.4381 -0.7814 3.4573 39.5326 -9.8145
# 6 9.8083 10.4790 -10.8016 -2.6667 -9.8145 36.1612
#
#
#
# Elastic Compliance Matrix: (Units=1/GPa)
#
#
# Indices 1 2 3 4 5 6 
#
# 1 0.013410 -0.003069 -0.005748 0.000236 0.002229 -0.003842
# 2 -0.003069 0.018488 0.000275 0.005318 -0.001692 -0.004510
# 3 -0.005748 0.000275 0.010356 -0.001680 -0.000004 0.004448
# 4 0.000236 0.005318 -0.001680 0.032516 -0.002735 -0.000451
# 5 0.002229 -0.001692 -0.000004 -0.002735 0.027840 0.007239
# 6 -0.003842 -0.004510 0.004448 -0.000451 0.007239 0.033263
#
#
# Mechanical properties :
#
#
# Convention : Reuss Voigt Hill
#
# Bulk Modulus (GPa) = 39.72842 50.30485 45.01664
# Shear Modulus (GPa) = 30.98905 36.77690 33.88297
#
# Velocity S-wave (km/s) = 3.56738 3.88627 3.73023
# Velocity P-wave (km/s) = 5.76918 6.38718 6.08603
#
# Compressibility (1/GPa) = 0.02517090
#
# Stress axis : x y z
#
# Youngs Moduli (GPa) = 74.57201 54.08841 96.56285
#
# Poissons Ratio (x) = 0.16598 0.55504
# Poissons Ratio (y) = 0.22883 -0.02655
# Poissons Ratio (z) = 0.42863 -0.01487
#
# Static dielectric constant tensor:
#      x y z
#    x 1.982510 0.049100 -0.026260 
#    y 0.049100 2.017220 0.040740 
#    z -0.026260 0.040740 1.910800 
# 
# From -- ./inp_files/314719.got.cif
#   From: 2010.05.17/outbox.cif.g08.bks.cpg/sg2_158_cif.got.tgz:314719.got - 2010.06.03 11:33:40.
