data_PCOD9058241
_publ_section_title
;
Structure prediction by ZEFSAII (Michael W. Deem and Ramdas Pophale) SiO2 
 PCOD9058241
Probable space group: P -1
;
_chemical_formula_sum "Si O2"
_cell_formula_units_Z 14
_cell_length_a 8.853910
_cell_length_b 9.269516
_cell_length_c 11.714479
_cell_angle_alpha 111.219117
_cell_angle_beta 112.119147
_cell_angle_gamma 116.455669
_cell_volume 613.598273
_symmetry_space_group_name_H-M "P -1"
_symmetry_group_IT_number 2
_symmetry_cell_setting 'triclinic'
loop_
_space_group_symop_operation_xyz
x,y,z
-x,-y,-z
loop_
_atom_site_type_symbol
_atom_site_label
_atom_site_fract_x
_atom_site_fract_y
_atom_site_fract_z
Si Si1 0.659657 0.143666 0.353864
Si Si2 0.564671 0.444887 0.389587
Si Si3 0.943722 0.784378 0.422634
Si Si4 0.209674 0.262394 0.036339
Si Si5 0.203387 0.788861 0.044104
Si Si6 0.291832 0.011610 0.899805
Si Si7 0.708907 0.473535 0.061376
O O1 0.631999 0.310247 0.397031
O O2 0.836683 0.180721 0.497908
O O3 0.408898 0.920400 0.227524
O O4 0.751483 0.135390 0.256086
O O5 0.500000 0.500000 0.500000
O O6 0.775260 0.646304 0.439350
O O7 0.360259 0.319405 0.205091
O O8 0.822116 0.654643 0.236548
O O9 0.000000 0.000000 0.500000
O O10 0.131158 0.052584 0.893797
O O11 0.346284 0.459544 0.045030
O O12 0.996040 0.227044 0.990242
O O13 0.132471 0.567565 0.939827
O O14 0.305793 0.925862 0.995731
O O15 0.504963 0.249704 0.993480
#
# Coordination Sequence:
#
# PCOD9058241 Si02
#       7
#     2   2   2   2   2   2   2
#     4  11  25  45  74 105 141 186 242 289 351 423
#     4  12  29  47  70 108 149 190 229 298 362 421
#     4  12  27  48  73 104 143 191 239 293 355 425
#     4  12  25  43  73 106 148 177 239 292 361 412
#     4  11  24  43  72 109 139 185 234 297 351 421
#     4  11  22  44  76 102 137 182 248 288 338 427
#     4  11  24  46  71 104 139 191 236 292 352 420
#
# _framework density 22.816231999999999
#
# number of rings (size 3 to 8) (size 9 to 14) (size 15 to 20)
#    0.000    0.571    2.857    5.143    8.000    1.143 
#    0.000    1.429    0.000    0.000    0.000    0.000 
#    0.000    0.000    0.000    0.000    0.000    0.000 
#
# Total GULP energy -78287.428591 kJ/mol
# GULP energy per Si atom -5591.959185 kJ/mol
# Density = 2.276430 g / cm^3
# Si number density = 22.816232 Si / 1000 Ang^3
#
#
#
# Elastic Constant Matrix: (Units=GPa)
#
#
# Indices 1 2 3 4 5 6 
#
# 1 178.3473 53.4440 65.3632 3.4539 -1.8488 -46.5617
# 2 53.4440 117.8161 37.8194 5.8451 -7.6646 -33.0153
# 3 65.3632 37.8194 95.2907 -5.3180 0.6462 -12.3031
# 4 3.4539 5.8451 -5.3180 31.7068 -11.8626 -0.5465
# 5 -1.8488 -7.6646 0.6462 -11.8626 48.7382 10.0127
# 6 -46.5617 -33.0153 -12.3031 -0.5465 10.0127 49.3104
#
#
#
# Elastic Compliance Matrix: (Units=1/GPa)
#
#
# Indices 1 2 3 4 5 6 
#
# 1 0.009980 -0.000412 -0.005771 -0.002546 -0.001886 0.008063
# 2 -0.000412 0.011845 -0.003715 -0.002691 -0.000116 0.006609
# 3 -0.005771 -0.003715 0.015616 0.004184 0.000865 -0.004169
# 4 -0.002546 -0.002691 0.004184 0.036389 0.009233 -0.004633
# 5 -0.001886 -0.000116 0.000865 0.009233 0.023981 -0.006410
# 6 0.008063 0.006609 -0.004169 -0.004633 -0.006410 0.032528
#
#
# Mechanical properties :
#
#
# Convention : Reuss Voigt Hill
#
# Bulk Modulus (GPa) = 56.66662 78.30081 67.48372
# Shear Modulus (GPa) = 32.04809 41.60623 36.82716
#
# Velocity S-wave (km/s) = 3.75189 4.27492 4.02192
# Velocity P-wave (km/s) = 6.60749 7.66545 7.15605
#
# Compressibility (1/GPa) = 0.01764707
#
# Stress axis : x y z
#
# Youngs Moduli (GPa) = 100.19979 84.42386 64.03630
#
# Poissons Ratio (x) = 0.03476 0.36952
# Poissons Ratio (y) = 0.04125 0.23788
# Poissons Ratio (z) = 0.57820 0.31362
#
# Static dielectric constant tensor:
#      x y z
#    x 2.003050 0.028740 0.028300 
#    y 0.028740 1.847720 -0.022500 
#    z 0.028300 -0.022500 1.911010 
# 
# From -- ./inp_files/298912.got.cif
#   From: 2010.05.17/outbox.cif.g08.bks.cpg/sg2_150_cif.got.tgz:298912.got - 2010.06.03 11:33:40.
