data_PCOD9058587
_publ_section_title
;
Structure prediction by ZEFSAII (Michael W. Deem and Ramdas Pophale) SiO2 
 PCOD9058587
Probable space group: P -1
;
_chemical_formula_sum "Si O2"
_cell_formula_units_Z 14
_cell_length_a 10.094504
_cell_length_b 8.314693
_cell_length_c 14.558139
_cell_angle_alpha 129.760511
_cell_angle_beta 105.127635
_cell_angle_gamma 47.908525
_cell_volume 666.217650
_symmetry_space_group_name_H-M "P -1"
_symmetry_group_IT_number 2
_symmetry_cell_setting 'triclinic'
loop_
_space_group_symop_operation_xyz
x,y,z
-x,-y,-z
loop_
_atom_site_type_symbol
_atom_site_label
_atom_site_fract_x
_atom_site_fract_y
_atom_site_fract_z
Si Si1 0.483302 0.764947 0.065004
Si Si2 0.272016 0.203009 0.762861
Si Si3 0.906423 0.237269 0.150134
Si Si4 0.483599 0.587508 0.818189
Si Si5 0.795622 0.970763 0.733653
Si Si6 0.618401 0.809425 0.540596
Si Si7 0.629205 0.329493 0.371866
O O1 0.658411 0.720548 0.113457
O O2 0.307683 0.007107 0.184068
O O3 0.500000 0.500000 0.000000
O O4 0.459791 0.798211 0.963987
O O5 0.118017 0.498116 0.790842
O O6 0.456497 0.990522 0.654902
O O7 0.228333 0.008757 0.709343
O O8 0.698043 0.367794 0.177567
O O9 0.023751 0.113098 0.219555
O O10 0.000000 0.000000 0.000000
O O11 0.483257 0.625509 0.723523
O O12 0.666890 0.275273 0.770605
O O13 0.783622 0.792805 0.595004
O O14 0.695163 0.497251 0.428283
O O15 0.500000 0.000000 0.500000
O O16 0.500000 0.500000 0.500000
#
# Coordination Sequence:
#
# PCOD9058587 Si02
#       7
#     2   2   2   2   2   2   2
#     4   9  15  32  56  85 114 146 188 243 286 347
#     4  10  20  35  56  90 121 153 195 245 297 350
#     4  12  20  35  64  92 120 152 194 247 300 353
#     4  11  19  38  61  88 120 151 200 245 290 358
#     4  10  19  32  63  92 112 149 204 242 294 340
#     4  10  17  37  62  82 113 156 207 246 280 344
#     4  10  22  37  63  82 119 166 193 244 303 339
#
# _framework density 21.014154000000001
#
# number of rings (size 3 to 8) (size 9 to 14) (size 15 to 20)
#    0.000    1.714    7.143    0.857    0.000    0.571 
#    0.000    4.286    9.429    0.000    0.000    0.000 
#    0.000    0.000    0.000    0.000    0.000    0.000 
#
# Total GULP energy -77974.469935 kJ/mol
# GULP energy per Si atom -5569.604995 kJ/mol
# Density = 2.096632 g / cm^3
# Si number density = 21.014154 Si / 1000 Ang^3
#
#
#
# Elastic Constant Matrix: (Units=GPa)
#
#
# Indices 1 2 3 4 5 6 
#
# 1 27.7629 31.4756 21.5800 5.1157 13.3964 -1.1569
# 2 31.4756 127.0359 47.8581 -1.6907 10.4504 -5.7848
# 3 21.5800 47.8581 109.1368 -18.3308 9.5089 9.8053
# 4 5.1157 -1.6907 -18.3308 49.8030 7.2403 6.8010
# 5 13.3964 10.4504 9.5089 7.2403 31.7976 -2.7572
# 6 -1.1569 -5.7848 9.8053 6.8010 -2.7572 28.8198
#
#
#
# Elastic Compliance Matrix: (Units=1/GPa)
#
#
# Indices 1 2 3 4 5 6 
#
# 1 0.066693 -0.011944 -0.007746 -0.007600 -0.019882 0.002807
# 2 -0.011944 0.012127 -0.003587 -0.000536 0.002549 0.003545
# 3 -0.007746 -0.003587 0.014410 0.007379 -0.002231 -0.007888
# 4 -0.007600 -0.000536 0.007379 0.025654 -0.005494 -0.009503
# 5 -0.019882 0.002549 -0.002231 -0.005494 0.041403 0.005730
# 6 0.002807 0.003545 -0.007888 -0.009503 0.005730 0.040997
#
#
# Mechanical properties :
#
#
# Convention : Reuss Voigt Hill
#
# Bulk Modulus (GPa) = 21.42446 51.75143 36.58794
# Shear Modulus (GPa) = 18.98282 32.95219 25.96751
#
# Velocity S-wave (km/s) = 3.00881 3.96421 3.51909
# Velocity P-wave (km/s) = 4.72102 6.75527 5.82759
#
# Compressibility (1/GPa) = 0.04667563
#
# Stress axis : x y z
#
# Youngs Moduli (GPa) = 14.99418 82.46026 69.39647
#
# Poissons Ratio (x) = 0.98490 0.53756
# Poissons Ratio (y) = 0.17909 0.24891
# Poissons Ratio (z) = 0.11615 0.29577
#
# Static dielectric constant tensor:
#      x y z
#    x 1.850820 0.026080 0.004920 
#    y 0.026080 1.784160 -0.017410 
#    z 0.004920 -0.017410 1.851020 
# 
# From -- ./inp_files/266949.got.cif
#   From: 2010.05.17/outbox.cif.g08.bks.cpg/sg2_134_cif.got.tgz:266949.got - 2010.06.03 11:33:40.
