data_PCOD9058906
_publ_section_title
;
Structure prediction by ZEFSAII (Michael W. Deem and Ramdas Pophale) SiO2 
 PCOD9058906
Probable space group: P -1
;
_chemical_formula_sum "Si O2"
_cell_formula_units_Z 16
_cell_length_a 9.539218
_cell_length_b 10.560814
_cell_length_c 10.736238
_cell_angle_alpha 109.856312
_cell_angle_beta 138.483165
_cell_angle_gamma 54.646629
_cell_volume 575.892172
_symmetry_space_group_name_H-M "P -1"
_symmetry_group_IT_number 2
_symmetry_cell_setting 'triclinic'
loop_
_space_group_symop_operation_xyz
x,y,z
-x,-y,-z
loop_
_atom_site_type_symbol
_atom_site_label
_atom_site_fract_x
_atom_site_fract_y
_atom_site_fract_z
Si Si1 0.461810 0.158088 0.846541
Si Si2 0.653487 0.374378 0.358433
Si Si3 0.996807 0.536921 0.259323
Si Si4 0.238427 0.301848 0.135988
Si Si5 0.125726 0.069214 0.474978
Si Si6 0.858352 0.787336 0.710866
Si Si7 0.953912 0.879110 0.187933
Si Si8 0.324638 0.722013 0.154931
O O1 0.274314 0.329486 0.835907
O O2 0.538387 0.192914 0.776386
O O3 0.302902 0.074666 0.698694
O O4 0.710373 0.046119 0.048398
O O5 0.459371 0.329365 0.263808
O O6 0.866543 0.234332 0.373145
O O7 0.501708 0.537867 0.237147
O O8 0.804711 0.408326 0.576032
O O9 0.094548 0.381666 0.360177
O O10 0.021420 0.456054 0.115278
O O11 0.298627 0.182359 0.255300
O O12 0.156015 0.234922 0.943977
O O13 0.218512 0.086884 0.406297
O O14 0.077608 0.925566 0.395366
O O15 0.121900 0.752347 0.926076
O O16 0.166932 0.806152 0.200657
#
# Coordination Sequence:
#
# PCOD9058906 Si02
#       8
#     2   2   2   2   2   2   2   2
#     4  11  23  41  67  99 131 167 211 273 322 380
#     4  11  23  42  68  96 127 167 223 265 319 382
#     4   9  21  41  65  94 124 170 217 265 319 377
#     4   9  23  43  65  90 132 173 211 267 317 382
#     4  11  24  41  67 101 128 169 217 264 323 384
#     4   9  20  38  63  95 126 161 217 262 318 372
#     4  11  25  43  62  97 136 171 213 260 327 387
#     4  11  23  38  68  97 128 169 214 270 324 375
#
# _framework density 27.782979999999998
#
# number of rings (size 3 to 8) (size 9 to 14) (size 15 to 20)
#    0.750    1.000    1.250    2.250    3.500    7.000 
#    0.000    3.750    0.000    0.000    0.000    0.000 
#    0.000    0.000    0.000    0.000    0.000    0.000 
#
# Total GULP energy -89688.405563 kJ/mol
# GULP energy per Si atom -5605.525348 kJ/mol
# Density = 2.771974 g / cm^3
# Si number density = 27.782980 Si / 1000 Ang^3
#
#
#
# Elastic Constant Matrix: (Units=GPa)
#
#
# Indices 1 2 3 4 5 6 
#
# 1 73.9644 -2.4134 9.0141 8.9338 27.8391 27.4990
# 2 -2.4134 137.5655 63.9683 24.8635 13.2613 4.9743
# 3 9.0141 63.9683 114.1367 14.8168 5.2622 1.1636
# 4 8.9338 24.8635 14.8168 53.8369 5.8932 5.3972
# 5 27.8391 13.2613 5.2622 5.8932 48.7162 4.3071
# 6 27.4990 4.9743 1.1636 5.3972 4.3071 44.5294
#
#
#
# Elastic Compliance Matrix: (Units=1/GPa)
#
#
# Indices 1 2 3 4 5 6 
#
# 1 0.024487 0.004097 -0.003187 -0.002229 -0.013262 -0.013943
# 2 0.004097 0.011236 -0.005949 -0.003503 -0.004085 -0.002810
# 3 -0.003187 -0.005949 0.012304 -0.000546 0.001985 0.002186
# 4 -0.002229 -0.003503 -0.000546 0.020803 -0.000166 -0.000723
# 5 -0.013262 -0.004085 0.001985 -0.000166 0.028506 0.005857
# 6 -0.013943 -0.002810 0.002186 -0.000723 0.005857 0.030846
#
#
# Mechanical properties :
#
#
# Convention : Reuss Voigt Hill
#
# Bulk Modulus (GPa) = 26.35124 51.86716 39.10920
# Shear Modulus (GPa) = 33.13237 46.42300 39.77769
#
# Velocity S-wave (km/s) = 3.45707 4.09212 3.78792
# Velocity P-wave (km/s) = 5.04384 6.40597 5.76527
#
# Compressibility (1/GPa) = 0.03794888
#
# Stress axis : x y z
#
# Youngs Moduli (GPa) = 40.83835 88.99954 81.27113
#
# Poissons Ratio (x) = -0.36464 0.25903
# Poissons Ratio (y) = -0.16732 0.48349
# Poissons Ratio (z) = 0.13016 0.52947
#
# Static dielectric constant tensor:
#      x y z
#    x 2.173440 0.102530 -0.046920 
#    y 0.102530 2.226410 -0.022140 
#    z -0.046920 -0.022140 2.144640 
# 
# From -- ./inp_files/519082.got.cif
#   From: 2010.05.17/outbox.cif.g08.bks.cpg/sg2_260_cif.got.tgz:519082.got - 2010.06.03 11:33:40.
