data_PCOD9058956
_publ_section_title
;
Structure prediction by ZEFSAII (Michael W. Deem and Ramdas Pophale) SiO2 
 PCOD9058956
Probable space group: P -1
;
_chemical_formula_sum "Si O2"
_cell_formula_units_Z 16
_cell_length_a 13.931499
_cell_length_b 13.572330
_cell_length_c 5.360780
_cell_angle_alpha 96.331058
_cell_angle_beta 106.895781
_cell_angle_gamma 40.705709
_cell_volume 622.616214
_symmetry_space_group_name_H-M "P -1"
_symmetry_group_IT_number 2
_symmetry_cell_setting 'triclinic'
loop_
_space_group_symop_operation_xyz
x,y,z
-x,-y,-z
loop_
_atom_site_type_symbol
_atom_site_label
_atom_site_fract_x
_atom_site_fract_y
_atom_site_fract_z
Si Si1 0.520409 0.885106 0.331069
Si Si2 0.956195 0.446273 0.135559
Si Si3 0.229040 0.970822 0.158101
Si Si4 0.644198 0.619834 0.710562
Si Si5 0.932477 0.847796 0.394130
Si Si6 0.435242 0.686823 0.922061
Si Si7 0.184418 0.272790 0.644774
Si Si8 0.294799 0.603354 0.650880
O O1 0.614072 0.731431 0.523640
O O2 0.636535 0.840164 0.196370
O O3 0.500000 0.000000 0.500000
O O4 0.354861 0.961258 0.188731
O O5 0.873708 0.570413 0.327426
O O6 0.117255 0.287840 0.328025
O O7 0.816005 0.492565 0.923416
O O8 0.000000 0.500000 0.000000
O O9 0.332933 0.796163 0.113926
O O10 0.100140 0.072020 0.869347
O O11 0.163837 0.035343 0.407547
O O12 0.502864 0.729025 0.831504
O O13 0.639787 0.516864 0.546714
O O14 0.885080 0.768850 0.274839
O O15 0.112985 0.717646 0.569491
O O16 0.330448 0.692395 0.681286
O O17 0.596765 0.511923 0.069389
#
# Coordination Sequence:
#
# PCOD9058956 Si02
#       8
#     2   2   2   2   2   2   2   2
#     4  12  25  44  69 106 149 203 249 298 374 462
#     4  11  23  39  66 100 143 187 242 308 373 441
#     4  12  28  51  73 113 155 206 250 315 384 464
#     4  12  24  45  76 110 148 197 258 321 375 455
#     4  12  29  48  77 110 160 196 259 312 388 458
#     4  11  26  51  79 105 149 196 264 320 391 449
#     4  11  25  41  64 105 143 198 243 301 372 448
#     4  11  27  49  79 112 141 200 258 332 383 452
#
# _framework density 25.698011999999999
#
# number of rings (size 3 to 8) (size 9 to 14) (size 15 to 20)
#    0.000    0.500    3.750    3.375    8.750    1.500 
#    0.000    0.000    0.000    0.000    0.000    0.000 
#    0.000    0.000    0.000    0.000    0.000    0.000 
#
# Total GULP energy -89294.304419 kJ/mol
# GULP energy per Si atom -5580.894026 kJ/mol
# Density = 2.563952 g / cm^3
# Si number density = 25.698012 Si / 1000 Ang^3
#
#
#
# Elastic Constant Matrix: (Units=GPa)
#
#
# Indices 1 2 3 4 5 6 
#
# 1 63.5340 17.6436 27.3621 5.5337 15.0426 -9.4760
# 2 17.6436 97.5583 29.3999 -2.8902 16.1699 -13.6014
# 3 27.3621 29.3999 109.2371 -5.0740 20.2387 -2.6920
# 4 5.5337 -2.8902 -5.0740 49.2232 3.8514 1.8469
# 5 15.0426 16.1699 20.2387 3.8514 44.3261 1.3528
# 6 -9.4760 -13.6014 -2.6920 1.8469 1.3528 34.7845
#
#
#
# Elastic Compliance Matrix: (Units=1/GPa)
#
#
# Indices 1 2 3 4 5 6 
#
# 1 0.019696 -0.001050 -0.003812 -0.002504 -0.004495 0.004968
# 2 -0.001050 0.012318 -0.002303 0.000694 -0.003282 0.004443
# 3 -0.003812 -0.002303 0.011374 0.001753 -0.003181 -0.001028
# 4 -0.002504 0.000694 0.001753 0.021024 -0.001991 -0.001314
# 5 -0.004495 -0.003282 -0.003181 -0.001991 0.027021 -0.003699
# 6 0.004968 0.004443 -0.001028 -0.001314 -0.003699 0.031973
#
#
# Mechanical properties :
#
#
# Convention : Reuss Voigt Hill
#
# Bulk Modulus (GPa) = 34.41215 46.57117 40.49166
# Shear Modulus (GPa) = 33.91640 38.72837 36.32239
#
# Velocity S-wave (km/s) = 3.63686 3.88629 3.76364
# Velocity P-wave (km/s) = 5.57276 6.18866 5.88877
#
# Compressibility (1/GPa) = 0.02905951
#
# Stress axis : x y z
#
# Youngs Moduli (GPa) = 50.77157 81.18205 87.91700
#
# Poissons Ratio (x) = 0.08523 0.33515
# Poissons Ratio (y) = 0.05330 0.20243
# Poissons Ratio (z) = 0.19355 0.18692
#
# Static dielectric constant tensor:
#      x y z
#    x 2.079430 -0.099260 -0.107080 
#    y -0.099260 2.317410 0.010310 
#    z -0.107080 0.010310 1.863690 
# 
# From -- ./inp_files/98527.got.cif
#   From: 2010.05.17/outbox.cif.g08.bks.cpg/sg2_50_cif.got.tgz:98527.got - 2010.06.03 11:33:40.
