data_PCOD9058808
_publ_section_title
;
Structure prediction by ZEFSAII (Michael W. Deem and Ramdas Pophale) SiO2 
 PCOD9058808
Probable space group: P -1
;
_chemical_formula_sum "Si O2"
_cell_formula_units_Z 14
_cell_length_a 8.714295
_cell_length_b 14.370687
_cell_length_c 11.225475
_cell_angle_alpha 114.965388
_cell_angle_beta 101.643861
_cell_angle_gamma 34.322365
_cell_volume 688.329490
_symmetry_space_group_name_H-M "P -1"
_symmetry_group_IT_number 2
_symmetry_cell_setting 'triclinic'
loop_
_space_group_symop_operation_xyz
x,y,z
-x,-y,-z
loop_
_atom_site_type_symbol
_atom_site_label
_atom_site_fract_x
_atom_site_fract_y
_atom_site_fract_z
Si Si1 0.401520 0.043288 0.352327
Si Si2 0.221233 0.371688 0.799043
Si Si3 0.273889 0.065109 0.078840
Si Si4 0.266478 0.799509 0.291602
Si Si5 0.284443 0.687083 0.993260
Si Si6 0.116127 0.097084 0.539706
Si Si7 0.612528 0.672194 0.930424
O O1 0.612898 0.828202 0.282225
O O2 0.603190 0.029987 0.405585
O O3 0.281064 0.105071 0.234689
O O4 0.155940 0.159681 0.475367
O O5 0.398994 0.353915 0.736506
O O6 0.886648 0.538188 0.817669
O O7 0.263420 0.392609 0.950316
O O8 0.975195 0.232424 0.057315
O O9 0.500000 0.000000 0.000000
O O10 0.386414 0.886721 0.002254
O O11 0.183307 0.821455 0.153514
O O12 0.148120 0.772888 0.341879
O O13 0.129042 0.981198 0.411464
O O14 0.500000 0.500000 0.000000
O O15 0.443437 0.658692 0.896144
#
# Coordination Sequence:
#
# PCOD9058808 Si02
#       7
#     2   2   2   2   2   2   2
#     4   9  18  33  55  86 115 151 201 234 291 344
#     4   8  16  30  53  80 114 147 185 235 288 349
#     4  11  23  36  58  91 123 151 193 245 298 353
#     4   9  18  32  54  86 113 147 201 232 285 347
#     4  11  24  37  60  92 120 152 193 242 305 357
#     4   9  17  32  56  85 110 160 196 238 274 353
#     4   9  19  34  53  79 123 152 181 231 302 344
#
# _framework density 20.339096000000001
#
# number of rings (size 3 to 8) (size 9 to 14) (size 15 to 20)
#    0.000    2.571    0.000    2.143   10.000    0.000 
#    0.000    0.000    0.000    1.714   18.571    0.000 
#    0.000    0.000    0.000    0.000    0.000    0.000 
#
# Total GULP energy -77981.803185 kJ/mol
# GULP energy per Si atom -5570.128799 kJ/mol
# Density = 2.029280 g / cm^3
# Si number density = 20.339096 Si / 1000 Ang^3
#
#
#
# Elastic Constant Matrix: (Units=GPa)
#
#
# Indices 1 2 3 4 5 6 
#
# 1 119.4128 30.6732 38.4945 -13.0874 -27.9893 -20.7486
# 2 30.6732 71.1966 20.8026 -18.8305 -3.7172 -16.4436
# 3 38.4945 20.8026 79.2672 -17.9599 -12.3797 -18.6791
# 4 -13.0874 -18.8305 -17.9599 21.2331 -5.9798 4.4963
# 5 -27.9893 -3.7172 -12.3797 -5.9798 47.0351 4.0912
# 6 -20.7486 -16.4436 -18.6791 4.4963 4.0912 24.6905
#
#
#
# Elastic Compliance Matrix: (Units=1/GPa)
#
#
# Indices 1 2 3 4 5 6 
#
# 1 0.012742 -0.001768 -0.002036 0.005317 0.007074 0.005850
# 2 -0.001768 0.021701 0.002379 0.018616 0.002705 0.010929
# 3 -0.002036 0.002379 0.020426 0.017321 0.005576 0.011248
# 4 0.005317 0.018616 0.017321 0.084440 0.018933 0.011456
# 5 0.007074 0.002705 0.005576 0.018933 0.029239 0.003672
# 6 0.005850 0.010929 0.011248 0.011456 0.003672 0.058510
#
#
# Mechanical properties :
#
#
# Convention : Reuss Voigt Hill
#
# Bulk Modulus (GPa) = 19.22360 49.97968 34.60164
# Shear Modulus (GPa) = 20.22258 30.58548 25.40403
#
# Velocity S-wave (km/s) = 3.15663 3.88206 3.53799
# Velocity P-wave (km/s) = 4.77051 6.68733 5.80854
#
# Compressibility (1/GPa) = 0.05201939
#
# Stress axis : x y z
#
# Youngs Moduli (GPa) = 78.48048 46.08052 48.95774
#
# Poissons Ratio (x) = 0.08147 0.09967
# Poissons Ratio (y) = 0.13875 -0.11648
# Poissons Ratio (z) = 0.15978 -0.10963
#
# Static dielectric constant tensor:
#      x y z
#    x 1.812240 0.004010 -0.005560 
#    y 0.004010 1.725580 0.057520 
#    z -0.005560 0.057520 1.804090 
# 
# From -- ./inp_files/169164.got.cif
#   From: 2010.05.17/outbox.cif.g08.bks.cpg/sg2_85_cif.got.tgz:169164.got - 2010.06.03 11:33:40.
