data_PCOD9058603
_publ_section_title
;
Structure prediction by ZEFSAII (Michael W. Deem and Ramdas Pophale) SiO2 
 PCOD9058603
Probable space group: P -1
;
_chemical_formula_sum "Si O2"
_cell_formula_units_Z 14
_cell_length_a 13.297977
_cell_length_b 24.887068
_cell_length_c 14.899623
_cell_angle_alpha 19.705605
_cell_angle_beta 151.237717
_cell_angle_gamma 157.836610
_cell_volume 626.803566
_symmetry_space_group_name_H-M "P -1"
_symmetry_group_IT_number 2
_symmetry_cell_setting 'triclinic'
loop_
_space_group_symop_operation_xyz
x,y,z
-x,-y,-z
loop_
_atom_site_type_symbol
_atom_site_label
_atom_site_fract_x
_atom_site_fract_y
_atom_site_fract_z
Si Si1 0.530624 0.677037 0.840126
Si Si2 0.145511 0.639706 0.981084
Si Si3 0.171489 0.400872 0.533531
Si Si4 0.920929 0.042137 0.275788
Si Si5 0.355004 0.389794 0.313545
Si Si6 0.603217 0.051444 0.601782
Si Si7 0.002927 0.438302 0.700492
O O1 0.820365 0.840489 0.770157
O O2 0.445218 0.792038 0.648517
O O3 0.311351 0.553730 0.785627
O O4 0.496174 0.517496 0.133307
O O5 0.933876 0.663985 0.819829
O O6 0.416303 0.851722 0.829227
O O7 0.199317 0.528595 0.269657
O O8 0.000000 0.500000 0.000000
O O9 0.456540 0.467230 0.681601
O O10 0.918208 0.169635 0.676748
O O11 0.096190 0.474416 0.445153
O O12 0.857504 0.200450 0.979992
O O13 0.000000 0.000000 0.500000
O O14 0.698233 0.823436 0.401576
O O15 0.500000 0.000000 0.500000
O O16 0.000000 0.500000 0.500000
#
# Coordination Sequence:
#
# PCOD9058603 Si02
#       7
#     2   2   2   2   2   2   2
#     4  11  23  43  67  98 146 179 236 295 350 419
#     4  12  23  47  73 100 140 180 235 298 357 426
#     4  11  26  44  69 104 140 178 239 289 349 428
#     4  12  24  41  69  99 139 198 240 281 358 422
#     4  12  25  45  70 106 140 183 241 293 351 427
#     4  11  22  46  73  97 138 186 222 292 367 412
#     4  11  24  43  66 101 146 188 233 297 349 417
#
# _framework density 22.335546999999998
#
# number of rings (size 3 to 8) (size 9 to 14) (size 15 to 20)
#    0.000    0.571    7.143    1.286    2.000    4.571 
#    0.000    1.429    0.000    0.000    0.000    0.000 
#    0.000    0.000    0.000    0.000    0.000    0.000 
#
# Total GULP energy -78361.426040 kJ/mol
# GULP energy per Si atom -5597.244717 kJ/mol
# Density = 2.228471 g / cm^3
# Si number density = 22.335547 Si / 1000 Ang^3
#
#
#
# Elastic Constant Matrix: (Units=GPa)
#
#
# Indices 1 2 3 4 5 6 
#
# 1 67.3152 17.7333 33.5592 -2.2998 -25.3868 -12.8248
# 2 17.7333 166.1120 62.7487 -13.5475 -30.7205 -4.3130
# 3 33.5592 62.7487 126.5275 -14.6472 -38.4561 -2.7633
# 4 -2.2998 -13.5475 -14.6472 46.7644 -3.3819 -7.6422
# 5 -25.3868 -30.7205 -38.4561 -3.3819 46.8335 -0.8609
# 6 -12.8248 -4.3130 -2.7633 -7.6422 -0.8609 39.5823
#
#
#
# Elastic Compliance Matrix: (Units=1/GPa)
#
#
# Indices 1 2 3 4 5 6 
#
# 1 0.021323 0.001016 -0.002512 0.002551 0.010485 0.007565
# 2 0.001016 0.007825 -0.002823 0.001922 0.003530 0.001433
# 3 -0.002512 -0.002823 0.012682 0.003675 0.007477 0.000636
# 4 0.002551 0.001922 0.003675 0.024784 0.007566 0.006242
# 5 0.010485 0.003530 0.007477 0.007566 0.036158 0.006551
# 6 0.007565 0.001433 0.000636 0.006242 0.006551 0.029263
#
#
# Mechanical properties :
#
#
# Convention : Reuss Voigt Hill
#
# Bulk Modulus (GPa) = 30.12871 65.33747 47.73309
# Shear Modulus (GPa) = 32.95184 43.03026 37.99105
#
# Velocity S-wave (km/s) = 3.84514 4.39400 4.12870
# Velocity P-wave (km/s) = 5.76471 7.42018 6.64421
#
# Compressibility (1/GPa) = 0.03319093
#
# Stress axis : x y z
#
# Youngs Moduli (GPa) = 46.89792 127.79687 78.85423
#
# Poissons Ratio (x) = -0.12987 0.19809
# Poissons Ratio (y) = -0.04766 0.22263
# Poissons Ratio (z) = 0.11781 0.36081
#
# Static dielectric constant tensor:
#      x y z
#    x 1.849210 0.031440 0.073430 
#    y 0.031440 1.869370 0.009690 
#    z 0.073430 0.009690 1.826750 
# 
# From -- ./inp_files/432545.got.cif
#   From: 2010.05.17/outbox.cif.g08.bks.cpg/sg2_217_cif.got.tgz:432545.got - 2010.06.03 11:33:40.
