data_PCOD9058237
_publ_section_title
;
Structure prediction by ZEFSAII (Michael W. Deem and Ramdas Pophale) SiO2 
 PCOD9058237
Probable space group: P -1
;
_chemical_formula_sum "Si O2"
_cell_formula_units_Z 16
_cell_length_a 12.935912
_cell_length_b 9.191936
_cell_length_c 8.641561
_cell_angle_alpha 79.054608
_cell_angle_beta 98.451365
_cell_angle_gamma 44.271198
_cell_volume 641.420027
_symmetry_space_group_name_H-M "P -1"
_symmetry_group_IT_number 2
_symmetry_cell_setting 'triclinic'
loop_
_space_group_symop_operation_xyz
x,y,z
-x,-y,-z
loop_
_atom_site_type_symbol
_atom_site_label
_atom_site_fract_x
_atom_site_fract_y
_atom_site_fract_z
Si Si1 0.715175 0.564719 0.238646
Si Si2 0.861267 0.766935 0.464181
Si Si3 0.659774 0.411684 0.000328
Si Si4 0.478713 0.170852 0.315646
Si Si5 0.957036 0.161458 0.594057
Si Si6 0.973808 0.398757 0.134784
Si Si7 0.840594 0.058640 0.842517
Si Si8 0.578274 0.093968 0.690722
O O1 0.817947 0.420675 0.443228
O O2 0.534178 0.788283 0.205970
O O3 0.801281 0.592526 0.144600
O O4 0.733118 0.396883 0.175828
O O5 0.903135 0.743484 0.661343
O O6 0.000000 0.500000 0.500000
O O7 0.894093 0.883774 0.353843
O O8 0.671503 0.931570 0.369814
O O9 0.596801 0.621160 0.847618
O O10 0.779817 0.186174 0.966349
O O11 0.500000 0.500000 0.000000
O O12 0.483451 0.223872 0.482374
O O13 0.378358 0.127274 0.281983
O O14 0.884115 0.147762 0.721832
O O15 0.000000 0.000000 0.500000
O O16 0.003485 0.218404 0.077278
O O17 0.000000 0.500000 0.000000
O O18 0.698578 0.100564 0.745092
#
# Coordination Sequence:
#
# PCOD9058237 Si02
#       8
#     2   2   2   2   2   2   2   2
#     4  11  25  46  68 104 142 186 236 293 356 419
#     4  11  24  46  74 106 138 185 239 292 350 423
#     4  12  29  42  68 107 146 184 233 295 363 423
#     4  11  25  45  73 106 140 189 239 295 353 431
#     4  11  22  44  75  99 138 184 238 295 348 414
#     4  11  26  46  72  99 143 185 233 292 358 422
#     4  12  25  48  72 106 140 194 237 295 355 424
#     4  11  24  45  75  98 142 185 244 285 357 417
#
# _framework density 24.944655000000001
#
# number of rings (size 3 to 8) (size 9 to 14) (size 15 to 20)
#    0.000    0.750    5.000    2.250    5.250    6.000 
#    0.000    0.000    0.000    0.000    0.000    0.000 
#    0.000    0.000    0.000    0.000    0.000    0.000 
#
# Total GULP energy -89495.896857 kJ/mol
# GULP energy per Si atom -5593.493554 kJ/mol
# Density = 2.488788 g / cm^3
# Si number density = 24.944655 Si / 1000 Ang^3
#
#
#
# Elastic Constant Matrix: (Units=GPa)
#
#
# Indices 1 2 3 4 5 6 
#
# 1 191.8851 30.8716 62.1835 8.4633 -29.3324 3.0771
# 2 30.8716 110.5003 31.8687 28.0737 -7.9909 -8.0518
# 3 62.1835 31.8687 103.9724 2.6366 -20.3411 1.8225
# 4 8.4633 28.0737 2.6366 48.4317 4.1640 -7.4315
# 5 -29.3324 -7.9909 -20.3411 4.1640 54.6039 6.1603
# 6 3.0771 -8.0518 1.8225 -7.4315 6.1603 45.5850
#
#
#
# Elastic Compliance Matrix: (Units=1/GPa)
#
#
# Indices 1 2 3 4 5 6 
#
# 1 0.006845 -0.000554 -0.003388 -0.001051 0.002520 -0.000936
# 2 -0.000554 0.011858 -0.003024 -0.006502 0.000683 0.001101
# 3 -0.003388 -0.003024 0.013069 0.001258 0.002620 -0.000977
# 4 -0.001051 -0.006502 0.001258 0.025353 -0.003371 0.003461
# 5 0.002520 0.000683 0.002620 -0.003371 0.021406 -0.003597
# 6 -0.000936 0.001101 -0.000977 0.003461 -0.003597 0.023284
#
#
# Mechanical properties :
#
#
# Convention : Reuss Voigt Hill
#
# Bulk Modulus (GPa) = 56.05502 72.91171 64.48337
# Shear Modulus (GPa) = 41.08670 48.48639 44.78655
#
# Velocity S-wave (km/s) = 4.06287 4.41359 4.24186
# Velocity P-wave (km/s) = 6.67306 7.43410 7.06384
#
# Compressibility (1/GPa) = 0.01783962
#
# Stress axis : x y z
#
# Youngs Moduli (GPa) = 146.09021 84.32971 76.51746
#
# Poissons Ratio (x) = 0.04675 0.25924
# Poissons Ratio (y) = 0.08099 0.23139
# Poissons Ratio (z) = 0.49495 0.25501
#
# Static dielectric constant tensor:
#      x y z
#    x 2.054800 -0.057040 0.050550 
#    y -0.057040 1.994860 -0.008070 
#    z 0.050550 -0.008070 1.989120 
# 
# From -- ./inp_files/243542.got.cif
#   From: 2010.05.17/outbox.cif.g08.bks.cpg/sg2_122_cif.got.tgz:243542.got - 2010.06.03 11:33:40.
