data_PCOD9058392
_publ_section_title
;
Structure prediction by ZEFSAII (Michael W. Deem and Ramdas Pophale) SiO2 
 PCOD9058392
Probable space group: P -1
;
_chemical_formula_sum "Si O2"
_cell_formula_units_Z 16
_cell_length_a 15.539162
_cell_length_b 9.993702
_cell_length_c 9.362842
_cell_angle_alpha 136.874305
_cell_angle_beta 126.956534
_cell_angle_gamma 37.704119
_cell_volume 606.901115
_symmetry_space_group_name_H-M "P -1"
_symmetry_group_IT_number 2
_symmetry_cell_setting 'triclinic'
loop_
_space_group_symop_operation_xyz
x,y,z
-x,-y,-z
loop_
_atom_site_type_symbol
_atom_site_label
_atom_site_fract_x
_atom_site_fract_y
_atom_site_fract_z
Si Si1 0.608417 0.082238 0.562027
Si Si2 0.715018 0.188491 0.004305
Si Si3 0.320367 0.392751 0.887269
Si Si4 0.381245 0.934866 0.938289
Si Si5 0.722957 0.180871 0.507179
Si Si6 0.983971 0.291704 0.149065
Si Si7 0.694539 0.590437 0.611571
Si Si8 0.975243 0.295784 0.487104
O O1 0.651840 0.083648 0.765633
O O2 0.311543 0.202354 0.638694
O O3 0.659862 0.209838 0.621941
O O4 0.445736 0.235639 0.489150
O O5 0.662599 0.204125 0.121316
O O6 0.883214 0.974453 0.992193
O O7 0.662425 0.448260 0.081764
O O8 0.454061 0.221920 0.990903
O O9 0.169237 0.594113 0.968477
O O10 0.661342 0.072376 0.268241
O O11 0.299341 0.216258 0.140449
O O12 0.678901 0.431574 0.583633
O O13 0.890800 0.968734 0.517839
O O14 0.982993 0.264462 0.298775
O O15 0.005396 0.495751 0.302008
O O16 0.830241 0.404960 0.502087
#
# Coordination Sequence:
#
# PCOD9058392 Si02
#       8
#     2   2   2   2   2   2   2   2
#     4  11  25  46  72 103 140 181 238 285 337 418
#     4  12  24  46  72 107 133 185 237 284 346 414
#     4  11  25  43  73 103 138 183 225 296 347 397
#     4  11  28  44  69 110 141 173 236 290 344 418
#     4  12  25  49  68 102 146 184 226 287 346 416
#     4  11  22  45  72 101 139 180 237 288 336 411
#     4  11  26  44  73  99 141 192 224 282 355 407
#     4  11  23  46  71 102 138 185 233 286 341 411
#
# _framework density 26.363440000000001
#
# number of rings (size 3 to 8) (size 9 to 14) (size 15 to 20)
#    0.000    0.750    3.750    3.000    3.500    4.500 
#    0.000    0.000    0.000    0.000    0.000    0.000 
#    0.000    0.000    0.000    0.000    0.000    0.000 
#
# Total GULP energy -89990.371451 kJ/mol
# GULP energy per Si atom -5624.398216 kJ/mol
# Density = 2.630344 g / cm^3
# Si number density = 26.363440 Si / 1000 Ang^3
#
#
#
# Elastic Constant Matrix: (Units=GPa)
#
#
# Indices 1 2 3 4 5 6 
#
# 1 119.2925 25.1334 24.0339 6.1512 4.9312 -14.5414
# 2 25.1334 112.8016 22.1983 1.5560 -7.7143 -27.5867
# 3 24.0339 22.1983 87.6235 3.8024 3.3603 9.5709
# 4 6.1512 1.5560 3.8024 24.5909 3.3053 2.1643
# 5 4.9312 -7.7143 3.3603 3.3053 45.5076 7.6937
# 6 -14.5414 -27.5867 9.5709 2.1643 7.6937 58.9876
#
#
#
# Elastic Compliance Matrix: (Units=1/GPa)
#
#
# Indices 1 2 3 4 5 6 
#
# 1 0.009575 -0.001097 -0.002484 -0.001984 -0.001318 0.002495
# 2 -0.001097 0.011116 -0.003119 -0.000597 0.001385 0.005276
# 3 -0.002484 -0.003119 0.013392 -0.000821 -0.000487 -0.004150
# 4 -0.001984 -0.000597 -0.000821 0.041831 -0.002553 -0.001837
# 5 -0.001318 0.001385 -0.000487 -0.002553 0.022997 -0.002504
# 6 0.002495 0.005276 -0.004150 -0.001837 -0.002504 0.021102
#
#
# Mechanical properties :
#
#
# Convention : Reuss Voigt Hill
#
# Bulk Modulus (GPa) = 48.34886 51.38320 49.86603
# Shear Modulus (GPa) = 35.63568 42.37401 39.00485
#
# Velocity S-wave (km/s) = 3.68055 4.01347 3.85061
# Velocity P-wave (km/s) = 6.03664 6.40389 6.22298
#
# Compressibility (1/GPa) = 0.02068301
#
# Stress axis : x y z
#
# Youngs Moduli (GPa) = 104.43459 89.95645 74.67363
#
# Poissons Ratio (x) = 0.09869 0.18552
# Poissons Ratio (y) = 0.11458 0.23289
# Poissons Ratio (z) = 0.25945 0.28055
#
# Static dielectric constant tensor:
#      x y z
#    x 2.012870 -0.015570 0.029850 
#    y -0.015570 1.993350 0.012750 
#    z 0.029850 0.012750 2.045740 
# 
# From -- ./inp_files/420064.got.cif
#   From: 2010.05.17/outbox.cif.g08.bks.cpg/sg2_211_cif.got.tgz:420064.got - 2010.06.03 11:33:40.
