data_PCOD9058833
_publ_section_title
;
Structure prediction by ZEFSAII (Michael W. Deem and Ramdas Pophale) SiO2 
 PCOD9058833
Probable space group: P -1
;
_chemical_formula_sum "Si O2"
_cell_formula_units_Z 14
_cell_length_a 13.242165
_cell_length_b 8.468473
_cell_length_c 12.498223
_cell_angle_alpha 125.520908
_cell_angle_beta 146.923701
_cell_angle_gamma 73.389799
_cell_volume 555.186824
_symmetry_space_group_name_H-M "P -1"
_symmetry_group_IT_number 2
_symmetry_cell_setting 'triclinic'
loop_
_space_group_symop_operation_xyz
x,y,z
-x,-y,-z
loop_
_atom_site_type_symbol
_atom_site_label
_atom_site_fract_x
_atom_site_fract_y
_atom_site_fract_z
Si Si1 0.514004 0.232831 0.639537
Si Si2 0.063118 0.124237 0.218261
Si Si3 0.161147 0.228370 0.956755
Si Si4 0.759221 0.422301 0.723307
Si Si5 0.049493 0.796839 0.457063
Si Si6 0.493342 0.917677 0.817541
Si Si7 0.214142 0.651700 0.869048
O O1 0.306153 0.254120 0.472104
O O2 0.648567 0.378195 0.721571
O O3 0.500000 0.000000 0.500000
O O4 0.620416 0.306026 0.875434
O O5 0.941411 0.263959 0.184925
O O6 0.023712 0.987406 0.239463
O O7 0.000000 0.000000 0.000000
O O8 0.050494 0.288777 0.783284
O O9 0.239227 0.344661 0.191608
O O10 0.344641 0.179816 0.054438
O O11 0.633737 0.226512 0.456575
O O12 0.000000 0.500000 0.000000
O O13 0.297086 0.871540 0.701356
O O14 0.928119 0.610009 0.365125
O O15 0.000000 0.000000 0.500000
O O16 0.642779 0.172572 0.023381
#
# Coordination Sequence:
#
# PCOD9058833 Si02
#       7
#     2   2   2   2   2   2   2
#     4  12  19  34  60  94 137 170 204 255 328 407
#     4  11  23  37  63 102 140 171 210 259 336 420
#     4  11  24  42  65 101 136 176 219 271 340 404
#     4  12  21  36  64 100 138 174 206 264 337 412
#     4  12  28  48  70  93 128 182 242 287 324 382
#     4  11  24  43  67  98 138 171 217 281 343 401
#     4  11  24  42  64  97 131 174 222 274 332 396
#
# _framework density 25.216736000000001
#
# number of rings (size 3 to 8) (size 9 to 14) (size 15 to 20)
#    0.000    0.571    5.714    3.000    4.000    1.143 
#    0.000    2.857    0.000    0.000    0.000    0.000 
#    0.000    0.000    0.000    0.000    0.000    0.000 
#
# Total GULP energy -78030.709132 kJ/mol
# GULP energy per Si atom -5573.622081 kJ/mol
# Density = 2.515934 g / cm^3
# Si number density = 25.216736 Si / 1000 Ang^3
#
#
#
# Elastic Constant Matrix: (Units=GPa)
#
#
# Indices 1 2 3 4 5 6 
#
# 1 80.3568 4.9726 51.2689 -7.8357 14.5371 -9.9759
# 2 4.9726 28.3562 17.6600 -3.1352 10.0536 11.5295
# 3 51.2689 17.6600 124.3547 -9.9768 38.0756 2.5627
# 4 -7.8357 -3.1352 -9.9768 51.8961 -15.2318 -3.7451
# 5 14.5371 10.0536 38.0756 -15.2318 48.4501 -4.1204
# 6 -9.9759 11.5295 2.5627 -3.7451 -4.1204 25.5455
#
#
#
# Elastic Compliance Matrix: (Units=1/GPa)
#
#
# Indices 1 2 3 4 5 6 
#
# 1 0.019000 -0.003365 -0.008389 0.002823 0.003391 0.010741
# 2 -0.003365 0.051726 -0.002223 -0.003023 -0.011197 -0.026686
# 3 -0.008389 -0.002223 0.014739 -0.001800 -0.009645 -0.005571
# 4 0.002823 -0.003023 -0.001800 0.022287 0.008825 0.007338
# 5 0.003391 -0.011197 -0.009645 0.008825 0.033494 0.014041
# 6 0.010741 -0.026686 -0.005571 0.007338 0.014041 0.059284
#
#
# Mechanical properties :
#
#
# Convention : Reuss Voigt Hill
#
# Bulk Modulus (GPa) = 17.38743 42.31896 29.85320
# Shear Modulus (GPa) = 20.18955 35.78940 27.98947
#
# Velocity S-wave (km/s) = 2.83263 3.77141 3.33521
# Velocity P-wave (km/s) = 4.19625 5.98191 5.16681
#
# Compressibility (1/GPa) = 0.05751280
#
# Stress axis : x y z
#
# Youngs Moduli (GPa) = 52.63156 19.33265 67.84719
#
# Poissons Ratio (x) = 0.06505 0.56914
# Poissons Ratio (y) = 0.17709 0.15081
# Poissons Ratio (z) = 0.44150 0.04297
#
# Static dielectric constant tensor:
#      x y z
#    x 3.072640 -0.628770 -0.034760 
#    y -0.628770 2.919390 -0.344970 
#    z -0.034760 -0.344970 1.785330 
# 
# From -- ./inp_files/208533.got.cif
#   From: 2010.05.17/outbox.cif.g08.bks.cpg/sg2_105_cif.got.tgz:208533.got - 2010.06.03 11:33:40.
