data_PCOD9058482
_publ_section_title
;
Structure prediction by ZEFSAII (Michael W. Deem and Ramdas Pophale) SiO2 
 PCOD9058482
Probable space group: P -1
;
_chemical_formula_sum "Si O2"
_cell_formula_units_Z 10
_cell_length_a 7.597747
_cell_length_b 9.172838
_cell_length_c 11.429016
_cell_angle_alpha 140.156676
_cell_angle_beta 129.070448
_cell_angle_gamma 74.299064
_cell_volume 357.920795
_symmetry_space_group_name_H-M "P -1"
_symmetry_group_IT_number 2
_symmetry_cell_setting 'triclinic'
loop_
_space_group_symop_operation_xyz
x,y,z
-x,-y,-z
loop_
_atom_site_type_symbol
_atom_site_label
_atom_site_fract_x
_atom_site_fract_y
_atom_site_fract_z
Si Si1 0.881849 0.068027 0.770196
Si Si2 0.550856 0.807005 0.984787
Si Si3 0.034910 0.435608 0.759454
Si Si4 0.727365 0.599324 0.562841
Si Si5 0.350150 0.110653 0.668544
O O1 0.152416 0.124968 0.861606
O O2 0.840443 0.891439 0.756854
O O3 0.666064 0.910207 0.491095
O O4 0.881936 0.330998 0.971900
O O5 0.483372 0.817179 0.098257
O O6 0.388627 0.546064 0.694267
O O7 0.500000 0.000000 0.000000
O O8 0.935170 0.519163 0.653290
O O9 0.222945 0.304993 0.750253
O O10 0.794919 0.190443 0.553857
O O11 0.500000 0.500000 0.500000
#
# Coordination Sequence:
#
# PCOD9058482 Si02
#       5
#     2   2   2   2   2
#     4  12  25  47  78 102 153 196 228 308 370 413
#     4  12  24  46  76 106 146 186 244 303 357 440
#     4  11  22  45  76 104 149 189 238 298 367 429
#     4  12  27  46  72 112 142 195 253 287 357 443
#     4  11  24  46  76 110 141 191 245 297 365 437
#
# _framework density 27.939142
#
# number of rings (size 3 to 8) (size 9 to 14) (size 15 to 20)
#    0.000    0.400    8.000    1.200    0.000    4.000 
#    0.000    4.000    0.000    1.200    0.000    0.000 
#    0.000    0.000    0.000    0.000    0.000    0.000 
#
# Total GULP energy -55983.910245 kJ/mol
# GULP energy per Si atom -5598.391024 kJ/mol
# Density = 2.787555 g / cm^3
# Si number density = 27.939142 Si / 1000 Ang^3
#
#
#
# Elastic Constant Matrix: (Units=GPa)
#
#
# Indices 1 2 3 4 5 6 
#
# 1 138.9291 57.3148 30.5785 -10.4182 -6.5774 -20.6427
# 2 57.3148 237.1046 106.0462 2.3265 -17.8668 0.9517
# 3 30.5785 106.0462 197.2389 -11.4033 -27.9850 3.3005
# 4 -10.4182 2.3265 -11.4033 80.9597 -10.2611 -0.5953
# 5 -6.5774 -17.8668 -27.9850 -10.2611 29.6578 2.6104
# 6 -20.6427 0.9517 3.3005 -0.5953 2.6104 44.6240
#
#
#
# Elastic Compliance Matrix: (Units=1/GPa)
#
#
# Indices 1 2 3 4 5 6 
#
# 1 0.008812 -0.002031 -0.000178 0.001279 0.000644 0.004112
# 2 -0.002031 0.006052 -0.002943 -0.000830 0.000209 -0.000874
# 3 -0.000178 -0.002943 0.007684 0.001921 0.006184 -0.000924
# 4 0.001279 -0.000830 0.001921 0.013609 0.006280 0.000282
# 5 0.000644 0.000209 0.006184 0.006280 0.042219 -0.002550
# 6 0.004112 -0.000874 -0.000924 0.000282 -0.002550 0.024552
#
#
# Mechanical properties :
#
#
# Convention : Reuss Voigt Hill
#
# Bulk Modulus (GPa) = 81.66722 106.79463 94.23093
# Shear Modulus (GPa) = 42.62114 56.33717 49.47916
#
# Velocity S-wave (km/s) = 3.91000 4.49533 4.21285
# Velocity P-wave (km/s) = 7.04826 8.07781 7.58054
#
# Compressibility (1/GPa) = 0.01224482
#
# Stress axis : x y z
#
# Youngs Moduli (GPa) = 113.47554 165.23143 130.14662
#
# Poissons Ratio (x) = 0.33564 0.02311
# Poissons Ratio (y) = 0.23051 0.38299
# Poissons Ratio (z) = 0.02015 0.48624
#
# Static dielectric constant tensor:
#      x y z
#    x 2.538280 -0.080560 0.209050 
#    y -0.080560 2.086540 -0.052240 
#    z 0.209050 -0.052240 2.221440 
# 
# From -- ./inp_files/377447.got.cif
#   From: 2010.05.17/outbox.cif.g08.bks.cpg/sg2_189_cif.got.tgz:377447.got - 2010.06.03 11:33:40.
