data_PCOD9058882
_publ_section_title
;
Structure prediction by ZEFSAII (Michael W. Deem and Ramdas Pophale) SiO2 
 PCOD9058882
Probable space group: P -1
;
_chemical_formula_sum "Si O2"
_cell_formula_units_Z 16
_cell_length_a 19.034310
_cell_length_b 8.989881
_cell_length_c 12.397821
_cell_angle_alpha 87.413585
_cell_angle_beta 36.515333
_cell_angle_gamma 115.346086
_cell_volume 787.306538
_symmetry_space_group_name_H-M "P -1"
_symmetry_group_IT_number 2
_symmetry_cell_setting 'triclinic'
loop_
_space_group_symop_operation_xyz
x,y,z
-x,-y,-z
loop_
_atom_site_type_symbol
_atom_site_label
_atom_site_fract_x
_atom_site_fract_y
_atom_site_fract_z
Si Si1 0.355042 0.942282 0.758122
Si Si2 0.961607 0.292514 0.013914
Si Si3 0.173903 0.951841 0.587130
Si Si4 0.917096 0.516780 0.760135
Si Si5 0.125148 0.446339 0.402976
Si Si6 0.493525 0.045501 0.130045
Si Si7 0.665275 0.598506 0.716233
Si Si8 0.616906 0.348320 0.587045
O O1 0.181991 0.837489 0.905185
O O2 0.500000 0.000000 0.500000
O O3 0.467064 0.178145 0.680905
O O4 0.276268 0.734780 0.939662
O O5 0.863988 0.104804 0.237392
O O6 0.000000 0.500000 0.000000
O O7 0.166859 0.428047 0.726770
O O8 0.014466 0.698549 0.733236
O O9 0.370310 0.067940 0.305818
O O10 0.194005 0.137222 0.511123
O O11 0.980261 0.688393 0.574925
O O12 0.020230 0.461437 0.605829
O O13 0.216631 0.406261 0.360002
O O14 0.289182 0.699835 0.129742
O O15 0.404325 0.827506 0.316626
O O16 0.500000 0.000000 0.000000
O O17 0.577945 0.434153 0.722765
O O18 0.500000 0.500000 0.000000
#
# Coordination Sequence:
#
# PCOD9058882 Si02
#       8
#     2   2   2   2   2   2   2   2
#     4  12  22  38  69 104 126 166 228 291 335 383
#     4  12  23  42  69 100 129 173 230 290 335 387
#     4  12  23  41  64  93 134 179 222 273 339 408
#     4  11  23  39  66 100 129 166 231 290 333 391
#     4  11  23  38  64  99 130 169 224 282 341 393
#     4  12  18  36  67  92 122 168 227 277 327 389
#     4  12  26  42  66  97 141 188 218 261 351 422
#     4  12  24  43  68  99 137 174 227 287 336 400
#
# _framework density 20.322452999999999
#
# number of rings (size 3 to 8) (size 9 to 14) (size 15 to 20)
#    0.000    0.250    8.750    0.750    0.000    1.000 
#    0.000    1.875    0.000    0.000    0.000    0.000 
#    0.000    0.000    0.000    0.000    0.000    0.000 
#
# Total GULP energy -89245.629606 kJ/mol
# GULP energy per Si atom -5577.851850 kJ/mol
# Density = 2.027620 g / cm^3
# Si number density = 20.322453 Si / 1000 Ang^3
#
#
#
# Elastic Constant Matrix: (Units=GPa)
#
#
# Indices 1 2 3 4 5 6 
#
# 1 113.6353 40.2589 40.8801 4.3095 29.3167 10.0675
# 2 40.2589 73.5069 39.6381 16.0191 1.6917 16.0464
# 3 40.8801 39.6381 113.4652 2.7668 18.3391 -1.8217
# 4 4.3095 16.0191 2.7668 19.9436 0.7118 4.8893
# 5 29.3167 1.6917 18.3391 0.7118 31.0589 -0.7844
# 6 10.0675 16.0464 -1.8217 4.8893 -0.7844 33.7791
#
#
#
# Elastic Compliance Matrix: (Units=1/GPa)
#
#
# Indices 1 2 3 4 5 6 
#
# 1 0.015650 -0.008633 -0.000468 0.004508 -0.014169 -0.001570
# 2 -0.008633 0.028390 -0.008403 -0.018115 0.011765 -0.008471
# 3 -0.000468 -0.008403 0.012969 0.004299 -0.006755 0.004052
# 4 0.004508 -0.018115 0.004299 0.063853 -0.007319 -0.001918
# 5 -0.014169 0.011765 -0.006755 -0.007319 0.049098 0.000469
# 6 -0.001570 -0.008471 0.004052 -0.001918 0.000469 0.034603
#
#
# Mechanical properties :
#
#
# Convention : Reuss Voigt Hill
#
# Bulk Modulus (GPa) = 45.45065 60.24015 52.84540
# Shear Modulus (GPa) = 20.25055 28.94501 24.59778
#
# Velocity S-wave (km/s) = 3.16010 3.77807 3.48282
# Velocity P-wave (km/s) = 5.97732 6.98128 6.49871
#
# Compressibility (1/GPa) = 0.02200188
#
# Stress axis : x y z
#
# Youngs Moduli (GPa) = 63.89588 35.22363 77.10405
#
# Poissons Ratio (x) = 0.30408 0.03608
# Poissons Ratio (y) = 0.55159 0.64794
# Poissons Ratio (z) = 0.02990 0.29600
#
# Static dielectric constant tensor:
#      x y z
#    x 1.344370 -0.233860 0.191680 
#    y -0.233860 1.523190 0.165100 
#    z 0.191680 0.165100 1.509960 
# 
# From -- ./inp_files/461220.got.cif
#   From: 2010.05.17/outbox.cif.g08.bks.cpg/sg2_231_cif.got.tgz:461220.got - 2010.06.03 11:33:40.
