data_PCOD9058594
_publ_section_title
;
Structure prediction by ZEFSAII (Michael W. Deem and Ramdas Pophale) SiO2 
 PCOD9058594
Probable space group: P -1
;
_chemical_formula_sum "Si O2"
_cell_formula_units_Z 16
_cell_length_a 9.590165
_cell_length_b 9.638326
_cell_length_c 15.824812
_cell_angle_alpha 78.073974
_cell_angle_beta 109.854757
_cell_angle_gamma 149.236591
_cell_volume 692.584516
_symmetry_space_group_name_H-M "P -1"
_symmetry_group_IT_number 2
_symmetry_cell_setting 'triclinic'
loop_
_space_group_symop_operation_xyz
x,y,z
-x,-y,-z
loop_
_atom_site_type_symbol
_atom_site_label
_atom_site_fract_x
_atom_site_fract_y
_atom_site_fract_z
Si Si1 0.689889 0.723410 0.434170
Si Si2 0.574381 0.933008 0.788031
Si Si3 0.548717 0.436424 0.891294
Si Si4 0.449694 0.296280 0.347657
Si Si5 0.237334 0.460632 0.894998
Si Si6 0.005749 0.155392 0.214354
Si Si7 0.302438 0.654945 0.301869
Si Si8 0.721884 0.305280 0.521629
O O1 0.500000 0.500000 0.500000
O O2 0.686439 0.614465 0.366483
O O3 0.000000 0.000000 0.500000
O O4 0.163490 0.157059 0.297494
O O5 0.588062 0.111730 0.748915
O O6 0.894890 0.161967 0.859522
O O7 0.533121 0.802259 0.712076
O O8 0.339855 0.684178 0.837561
O O9 0.382056 0.444468 0.880118
O O10 0.822615 0.699998 0.857598
O O11 0.325443 0.153240 0.831010
O O12 0.648783 0.447481 0.997638
O O13 0.530898 0.276781 0.450345
O O14 0.082840 0.369620 0.245046
O O15 0.564985 0.767691 0.367851
O O16 0.176947 0.596981 0.374018
O O17 0.000000 0.500000 0.500000
O O18 0.500000 0.000000 0.500000
#
# Coordination Sequence:
#
# PCOD9058594 Si02
#       8
#     2   2   2   2   2   2   2   2
#     4  11  26  44  68  94 133 185 237 283 343 400
#     4  12  25  43  70 104 142 181 232 287 355 409
#     4  11  22  46  73 105 137 177 236 288 357 414
#     4  11  24  43  68  96 136 176 241 273 345 402
#     4  11  24  43  74 106 137 179 232 296 345 425
#     4  11  25  43  73 102 138 182 227 294 349 419
#     4  11  28  48  68 106 148 185 235 295 348 418
#     4  12  28  43  68  98 139 185 230 285 342 402
#
# _framework density 23.101872
#
# number of rings (size 3 to 8) (size 9 to 14) (size 15 to 20)
#    0.000    0.750    5.000    0.750    3.500   11.000 
#    0.000    3.750    0.000    0.000    0.000    0.000 
#    0.000    0.000    0.000    0.000    0.000    0.000 
#
# Total GULP energy -89542.651523 kJ/mol
# GULP energy per Si atom -5596.415720 kJ/mol
# Density = 2.304929 g / cm^3
# Si number density = 23.101872 Si / 1000 Ang^3
#
#
#
# Elastic Constant Matrix: (Units=GPa)
#
#
# Indices 1 2 3 4 5 6 
#
# 1 102.9643 29.4916 33.2016 4.1676 4.3172 -35.0573
# 2 29.4916 123.6725 35.6027 6.2846 0.0669 -9.0612
# 3 33.2016 35.6027 102.3898 10.0894 5.3987 -18.5480
# 4 4.1676 6.2846 10.0894 37.2367 -0.0039 1.8775
# 5 4.3172 0.0669 5.3987 -0.0039 25.7934 -2.4008
# 6 -35.0573 -9.0612 -18.5480 1.8775 -2.4008 26.5916
#
#
#
# Elastic Compliance Matrix: (Units=1/GPa)
#
#
# Indices 1 2 3 4 5 6 
#
# 1 0.018808 -0.002424 -0.000668 -0.002706 -0.000804 0.023622
# 2 -0.002424 0.009357 -0.002801 -0.000455 0.000795 -0.001857
# 3 -0.000668 -0.002801 0.012652 -0.003236 -0.001873 0.007049
# 4 -0.002706 -0.000455 -0.003236 0.028513 0.000395 -0.007957
# 5 -0.000804 0.000795 -0.001873 0.000395 0.039428 0.001437
# 6 0.023622 -0.001857 0.007049 -0.007957 0.001437 0.073724
#
#
# Mechanical properties :
#
#
# Convention : Reuss Voigt Hill
#
# Bulk Modulus (GPa) = 34.44591 58.40204 46.42398
# Shear Modulus (GPa) = 24.51649 33.30639 28.91144
#
# Velocity S-wave (km/s) = 3.26119 3.80112 3.54146
# Velocity P-wave (km/s) = 5.39660 6.67830 6.07137
#
# Compressibility (1/GPa) = 0.02903102
#
# Stress axis : x y z
#
# Youngs Moduli (GPa) = 53.16919 106.87281 79.04060
#
# Poissons Ratio (x) = 0.25907 0.05277
# Poissons Ratio (y) = 0.12889 0.22139
# Poissons Ratio (z) = 0.03550 0.29935
#
# Static dielectric constant tensor:
#      x y z
#    x 1.640310 0.074870 -0.119690 
#    y 0.074870 1.788480 0.002080 
#    z -0.119690 0.002080 1.852560 
# 
# From -- ./inp_files/519685.got.cif
#   From: 2010.05.17/outbox.cif.g08.bks.cpg/sg2_260_cif.got.tgz:519685.got - 2010.06.03 11:33:40.
