data_PCOD9058251
_publ_section_title
;
Structure prediction by ZEFSAII (Michael W. Deem and Ramdas Pophale) SiO2 
 PCOD9058251
Probable space group: P -1
;
_chemical_formula_sum "Si O2"
_cell_formula_units_Z 16
_cell_length_a 13.850986
_cell_length_b 18.108418
_cell_length_c 8.873895
_cell_angle_alpha 32.706590
_cell_angle_beta 138.507705
_cell_angle_gamma 139.681472
_cell_volume 740.480393
_symmetry_space_group_name_H-M "P -1"
_symmetry_group_IT_number 2
_symmetry_cell_setting 'triclinic'
loop_
_space_group_symop_operation_xyz
x,y,z
-x,-y,-z
loop_
_atom_site_type_symbol
_atom_site_label
_atom_site_fract_x
_atom_site_fract_y
_atom_site_fract_z
Si Si1 0.175548 0.654050 0.071763
Si Si2 0.654520 0.013778 0.244881
Si Si3 0.655619 0.874315 0.801713
Si Si4 0.677369 0.277221 0.210176
Si Si5 0.784485 0.641595 0.378540
Si Si6 0.819453 0.598478 0.826546
Si Si7 0.880723 0.858862 0.684137
Si Si8 0.083364 0.856839 0.215895
O O1 0.228691 0.519744 0.415776
O O2 0.234854 0.815145 0.938980
O O3 0.250706 0.692844 0.925644
O O4 0.987822 0.594198 0.977718
O O5 0.630396 0.967308 0.472349
O O6 0.731154 0.901886 0.464723
O O7 0.500000 0.000000 0.000000
O O8 0.503790 0.824915 0.815048
O O9 0.817003 0.980174 0.887337
O O10 0.682282 0.725908 0.039866
O O11 0.782071 0.207640 0.546301
O O12 0.709631 0.439669 0.029741
O O13 0.747600 0.631681 0.530606
O O14 0.965150 0.751119 0.381144
O O15 0.843909 0.719506 0.773557
O O16 0.000000 0.000000 0.500000
O O17 0.971187 0.847981 0.960385
#
# Coordination Sequence:
#
# PCOD9058251 Si02
#       8
#     2   2   2   2   2   2   2   2
#     4  11  22  45  71 101 138 182 234 285 350 410
#     4  12  28  47  68 103 147 184 224 292 361 410
#     4  12  26  43  70 107 141 184 237 287 346 413
#     4  11  24  42  72 105 137 184 233 291 347 408
#     4  11  22  44  76  97 135 186 235 288 335 415
#     4  11  22  45  71 104 141 179 236 286 350 409
#     4  12  27  43  71 106 138 186 232 284 351 413
#     4  12  23  44  72 102 140 182 242 283 331 424
#
# _framework density 21.607593999999999
#
# number of rings (size 3 to 8) (size 9 to 14) (size 15 to 20)
#    0.000    0.500    6.250    2.250    1.750    4.500 
#    2.250    1.250    0.000    0.000    0.000    0.000 
#    0.000    0.000    0.000    0.000    0.000    0.000 
#
# Total GULP energy -89379.001834 kJ/mol
# GULP energy per Si atom -5586.187615 kJ/mol
# Density = 2.155841 g / cm^3
# Si number density = 21.607594 Si / 1000 Ang^3
#
#
#
# Elastic Constant Matrix: (Units=GPa)
#
#
# Indices 1 2 3 4 5 6 
#
# 1 81.5370 25.6981 21.8142 -11.7571 13.8770 6.5106
# 2 25.6981 64.6645 39.3209 -23.0042 9.0548 -8.0965
# 3 21.8142 39.3209 135.9264 -17.3844 15.0041 -5.2528
# 4 -11.7571 -23.0042 -17.3844 38.9440 0.6948 3.8927
# 5 13.8770 9.0548 15.0041 0.6948 24.3956 -3.5644
# 6 6.5106 -8.0965 -5.2528 3.8927 -3.5644 37.3093
#
#
#
# Elastic Compliance Matrix: (Units=1/GPa)
#
#
# Indices 1 2 3 4 5 6 
#
# 1 0.015938 -0.004848 -0.000143 0.002513 -0.007962 -0.004876
# 2 -0.004848 0.025046 -0.004523 0.010957 -0.003459 0.004171
# 3 -0.000143 -0.004523 0.009324 0.001539 -0.004046 -0.000191
# 4 0.002513 0.010957 0.001539 0.033946 -0.007720 -0.002123
# 5 -0.007962 -0.003459 -0.004046 -0.007720 0.050343 0.005684
# 6 -0.004876 0.004171 -0.000191 -0.002123 0.005684 0.029297
#
#
# Mechanical properties :
#
#
# Convention : Reuss Voigt Hill
#
# Bulk Modulus (GPa) = 31.97026 50.64381 41.30704
# Shear Modulus (GPa) = 25.86012 33.14944 29.50478
#
# Velocity S-wave (km/s) = 3.46324 3.92108 3.69925
# Velocity P-wave (km/s) = 5.55158 6.63240 6.11591
#
# Compressibility (1/GPa) = 0.03127907
#
# Stress axis : x y z
#
# Youngs Moduli (GPa) = 62.74487 39.92694 107.24593
#
# Poissons Ratio (x) = 0.19357 0.01538
# Poissons Ratio (y) = 0.30419 0.48506
# Poissons Ratio (z) = 0.00900 0.18058
#
# Static dielectric constant tensor:
#      x y z
#    x 1.843700 -0.032800 -0.028840 
#    y -0.032800 1.802320 -0.026140 
#    z -0.028840 -0.026140 1.887950 
# 
# From -- ./inp_files/207419.got.cif
#   From: 2010.05.17/outbox.cif.g08.bks.cpg/sg2_104_cif.got.tgz:207419.got - 2010.06.03 11:33:40.
