data_PCOD9058019
_publ_section_title
;
Structure prediction by ZEFSAII (Michael W. Deem and Ramdas Pophale) SiO2 
 PCOD9058019
Probable space group: P -1
;
_chemical_formula_sum "Si O2"
_cell_formula_units_Z 14
_cell_length_a 8.103997
_cell_length_b 15.884193
_cell_length_c 14.068610
_cell_angle_alpha 153.243718
_cell_angle_beta 124.448614
_cell_angle_gamma 70.134744
_cell_volume 602.009065
_symmetry_space_group_name_H-M "P -1"
_symmetry_group_IT_number 2
_symmetry_cell_setting 'triclinic'
loop_
_space_group_symop_operation_xyz
x,y,z
-x,-y,-z
loop_
_atom_site_type_symbol
_atom_site_label
_atom_site_fract_x
_atom_site_fract_y
_atom_site_fract_z
Si Si1 0.525999 0.104040 0.293306
Si Si2 0.744679 0.028912 0.588422
Si Si3 0.158726 0.445799 0.566241
Si Si4 0.666658 0.700545 0.699588
Si Si5 0.405041 0.218532 0.901404
Si Si6 0.111503 0.457160 0.085432
Si Si7 0.125862 0.057672 0.262820
O O1 0.424845 0.133273 0.191118
O O2 0.744575 0.321437 0.596743
O O3 0.336563 0.071102 0.280587
O O4 0.595169 0.918983 0.146134
O O5 0.500000 0.000000 0.500000
O O6 0.723686 0.934938 0.381585
O O7 0.807392 0.912574 0.575345
O O8 0.917634 0.271782 0.892497
O O9 0.308847 0.397457 0.490478
O O10 0.056771 0.234164 0.380392
O O11 0.000000 0.500000 0.500000
O O12 0.330242 0.632765 0.876106
O O13 0.500000 0.500000 0.500000
O O14 0.914319 0.833553 0.954716
O O15 0.281853 0.362175 0.019462
O O16 0.000000 0.500000 0.000000
#
# Coordination Sequence:
#
# PCOD9058019 Si02
#       7
#     2   2   2   2   2   2   2
#     4  11  22  46  71  99 139 185 228 291 350 412
#     4  12  26  44  70 104 143 180 237 287 344 422
#     4  11  24  45  70 102 137 182 236 283 352 419
#     4  11  23  44  72  98 138 182 232 295 345 408
#     4  12  24  45  73 103 139 188 232 281 359 415
#     4  12  24  46  68 100 140 186 234 280 347 414
#     4  11  22  44  69 101 140 183 227 291 345 407
#
# _framework density 23.255462999999999
#
# number of rings (size 3 to 8) (size 9 to 14) (size 15 to 20)
#    0.000    0.571    5.714    4.714    0.000    0.571 
#    2.571    1.429    0.000    0.000    0.000    0.000 
#    0.000    0.000    0.000    0.000    0.000    0.000 
#
# Total GULP energy -78276.744057 kJ/mol
# GULP energy per Si atom -5591.196004 kJ/mol
# Density = 2.320253 g / cm^3
# Si number density = 23.255463 Si / 1000 Ang^3
#
#
#
# Elastic Constant Matrix: (Units=GPa)
#
#
# Indices 1 2 3 4 5 6 
#
# 1 27.2985 28.8999 17.8807 4.0632 13.1846 -13.9141
# 2 28.8999 193.9339 35.2245 11.7704 13.6278 -19.8175
# 3 17.8807 35.2245 155.4201 2.7725 35.1736 -2.2564
# 4 4.0632 11.7704 2.7725 47.0105 -4.3367 1.5254
# 5 13.1846 13.6278 35.1736 -4.3367 32.8357 6.5579
# 6 -13.9141 -19.8175 -2.2564 1.5254 6.5579 35.7197
#
#
#
# Elastic Compliance Matrix: (Units=1/GPa)
#
#
# Indices 1 2 3 4 5 6 
#
# 1 0.081243 -0.005106 0.001903 -0.010872 -0.041366 0.036994
# 2 -0.005106 0.006298 -0.000745 -0.001163 -0.000229 0.001550
# 3 0.001903 -0.000745 0.008895 -0.001592 -0.010780 0.002937
# 4 -0.010872 -0.001163 -0.001592 0.023904 0.011325 -0.008081
# 5 -0.041366 -0.000229 -0.010780 0.011325 0.066102 -0.029541
# 6 0.036994 0.001550 0.002937 -0.008081 -0.029541 0.049220
#
#
# Mechanical properties :
#
#
# Convention : Reuss Voigt Hill
#
# Bulk Modulus (GPa) = 11.29424 60.07362 35.68393
# Shear Modulus (GPa) = 18.31031 42.75633 30.53332
#
# Velocity S-wave (km/s) = 2.80903 4.29248 3.62740
# Velocity P-wave (km/s) = 3.92275 7.10319 5.73774
#
# Compressibility (1/GPa) = 0.08854068
#
# Stress axis : x y z
#
# Youngs Moduli (GPa) = 12.30868 158.79229 112.42606
#
# Poissons Ratio (x) = 0.81072 -0.21393
# Poissons Ratio (y) = 0.06284 0.08374
# Poissons Ratio (z) = -0.02342 0.11828
#
# Static dielectric constant tensor:
#      x y z
#    x 1.918330 -0.019320 -0.023760 
#    y -0.019320 1.948340 -0.015640 
#    z -0.023760 -0.015640 1.965390 
# 
# From -- ./inp_files/180806.got.cif
#   From: 2010.05.17/outbox.cif.g08.bks.cpg/sg2_91_cif.got.tgz:180806.got - 2010.06.03 11:33:40.
