data_PCOD9058980
_publ_section_title
;
Structure prediction by ZEFSAII (Michael W. Deem and Ramdas Pophale) SiO2 
 PCOD9058980
Probable space group: P -1
;
_chemical_formula_sum "Si O2"
_cell_formula_units_Z 16
_cell_length_a 10.807686
_cell_length_b 13.113903
_cell_length_c 10.005116
_cell_angle_alpha 78.827243
_cell_angle_beta 88.207182
_cell_angle_gamma 145.538912
_cell_volume 739.095076
_symmetry_space_group_name_H-M "P -1"
_symmetry_group_IT_number 2
_symmetry_cell_setting 'triclinic'
loop_
_space_group_symop_operation_xyz
x,y,z
-x,-y,-z
loop_
_atom_site_type_symbol
_atom_site_label
_atom_site_fract_x
_atom_site_fract_y
_atom_site_fract_z
Si Si1 0.233893 0.695515 0.519236
Si Si2 0.666515 0.341599 0.230903
Si Si3 0.180701 0.724566 0.027256
Si Si4 0.515577 0.466132 0.156968
Si Si5 0.059754 0.110908 0.842824
Si Si6 0.004779 0.924849 0.643831
Si Si7 0.642664 0.975552 0.865333
Si Si8 0.731783 0.103329 0.306508
O O1 0.305212 0.644944 0.615767
O O2 0.204035 0.764490 0.616292
O O3 0.000000 0.500000 0.500000
O O4 0.454181 0.884472 0.375004
O O5 0.584413 0.394147 0.168936
O O6 0.466596 0.116867 0.254431
O O7 0.920090 0.499752 0.118221
O O8 0.394745 0.794593 0.999381
O O9 0.197731 0.806574 0.868855
O O10 0.239162 0.839203 0.123440
O O11 0.711057 0.661645 0.187728
O O12 0.262244 0.297252 0.269794
O O13 0.500000 0.500000 0.000000
O O14 0.085797 0.053920 0.731608
O O15 0.838180 0.028039 0.855007
O O16 0.000000 0.000000 0.000000
O O17 0.149410 0.920690 0.646762
O O18 0.000000 0.000000 0.500000
#
# Coordination Sequence:
#
# PCOD9058980 Si02
#       8
#     2   2   2   2   2   2   2   2
#     4  11  28  45  70  97 139 185 220 275 352 416
#     4  12  23  44  68 102 134 178 229 280 344 404
#     4  11  24  39  70 103 132 175 228 288 338 398
#     4  12  24  44  73 102 137 183 235 284 342 421
#     4  12  24  45  70 101 137 191 231 280 348 411
#     4  12  27  45  72 102 141 182 234 292 344 408
#     4  11  23  39  69 100 137 171 226 281 341 397
#     4  11  26  47  66  99 142 173 228 280 343 409
#
# _framework density 21.648092999999999
#
# number of rings (size 3 to 8) (size 9 to 14) (size 15 to 20)
#    0.000    0.500    5.000    2.625    3.500    2.500 
#    0.000    0.000    0.000    0.000    0.000    0.000 
#    0.000    0.000    0.000    0.000    0.000    0.000 
#
# Total GULP energy -89388.956497 kJ/mol
# GULP energy per Si atom -5586.809781 kJ/mol
# Density = 2.159882 g / cm^3
# Si number density = 21.648093 Si / 1000 Ang^3
#
#
#
# Elastic Constant Matrix: (Units=GPa)
#
#
# Indices 1 2 3 4 5 6 
#
# 1 136.1424 56.9054 34.4941 -0.2064 7.5965 8.6958
# 2 56.9054 200.2283 52.9424 5.5607 2.5763 17.3646
# 3 34.4941 52.9424 119.6689 -3.4273 28.0313 3.8382
# 4 -0.2064 5.5607 -3.4273 45.2577 0.9085 -5.2255
# 5 7.5965 2.5763 28.0313 0.9085 33.6272 2.1241
# 6 8.6958 17.3646 3.8382 -5.2255 2.1241 32.5111
#
#
#
# Elastic Compliance Matrix: (Units=1/GPa)
#
#
# Indices 1 2 3 4 5 6 
#
# 1 0.008635 -0.001973 -0.001459 0.000062 -0.000519 -0.001040
# 2 -0.001973 0.006593 -0.002897 -0.001443 0.002588 -0.003052
# 3 -0.001459 -0.002897 0.012381 0.001646 -0.009901 0.001388
# 4 0.000062 -0.001443 0.001646 0.022948 -0.002173 0.004390
# 5 -0.000519 0.002588 -0.009901 -0.002173 0.038153 -0.002916
# 6 -0.001040 -0.003052 0.001388 0.004390 -0.002916 0.033399
#
#
# Mechanical properties :
#
#
# Convention : Reuss Voigt Hill
#
# Bulk Modulus (GPa) = 66.89624 82.74705 74.82164
# Shear Modulus (GPa) = 35.77751 43.05906 39.41829
#
# Velocity S-wave (km/s) = 4.06974 4.46471 4.27179
# Velocity P-wave (km/s) = 7.28371 8.05512 7.67910
#
# Compressibility (1/GPa) = 0.01494852
#
# Stress axis : x y z
#
# Youngs Moduli (GPa) = 115.80472 151.68340 80.77039
#
# Poissons Ratio (x) = 0.29929 0.11788
# Poissons Ratio (y) = 0.22850 0.23403
# Poissons Ratio (z) = 0.16901 0.43950
#
# Static dielectric constant tensor:
#      x y z
#    x 1.859550 -0.053250 -0.006080 
#    y -0.053250 1.743160 0.008220 
#    z -0.006080 0.008220 1.803440 
# 
# From -- ./inp_files/272930.got.cif
#   From: 2010.05.17/outbox.cif.g08.bks.cpg/sg2_137_cif.got.tgz:272930.got - 2010.06.03 11:33:40.
