data_PCOD9058611
_publ_section_title
;
Structure prediction by ZEFSAII (Michael W. Deem and Ramdas Pophale) SiO2 
 PCOD9058611
Probable space group: P -1
;
_chemical_formula_sum "Si O2"
_cell_formula_units_Z 16
_cell_length_a 14.256821
_cell_length_b 15.779070
_cell_length_c 15.211197
_cell_angle_alpha 151.943807
_cell_angle_beta 151.626370
_cell_angle_gamma 40.453580
_cell_volume 762.990013
_symmetry_space_group_name_H-M "P -1"
_symmetry_group_IT_number 2
_symmetry_cell_setting 'triclinic'
loop_
_space_group_symop_operation_xyz
x,y,z
-x,-y,-z
loop_
_atom_site_type_symbol
_atom_site_label
_atom_site_fract_x
_atom_site_fract_y
_atom_site_fract_z
Si Si1 0.723787 0.941359 0.631395
Si Si2 0.890258 0.423013 0.925679
Si Si3 0.040589 0.504789 0.313769
Si Si4 0.254427 0.893270 0.852242
Si Si5 0.617116 0.706907 0.024381
Si Si6 0.365968 0.399020 0.870478
Si Si7 0.141902 0.148867 0.146442
Si Si8 0.043484 0.985145 0.419089
O O1 0.722954 0.783903 0.415198
O O2 0.773470 0.871452 0.705355
O O3 0.500000 0.000000 0.500000
O O4 0.906631 0.085928 0.893846
O O5 0.866458 0.206175 0.701560
O O6 0.694891 0.532200 0.880326
O O7 0.000000 0.500000 0.000000
O O8 0.025114 0.472151 0.167019
O O9 0.127408 0.704540 0.588857
O O10 0.164126 0.353700 0.320516
O O11 0.816554 0.486661 0.148171
O O12 0.471307 0.823228 0.955129
O O13 0.154376 0.995106 0.783064
O O14 0.244659 0.018997 0.044556
O O15 0.531348 0.648008 0.995605
O O16 0.806862 0.844909 0.326211
O O17 0.500000 0.500000 0.000000
O O18 0.000000 0.000000 0.500000
#
# Coordination Sequence:
#
# PCOD9058611 Si02
#       8
#     2   2   2   2   2   2   2   2
#     4  11  23  42  63  95 131 176 243 285 336 404
#     4  11  22  46  74 101 137 177 225 283 353 412
#     4  11  23  42  69  96 138 182 224 285 344 397
#     4  12  24  45  68 102 144 175 233 282 340 418
#     4  11  26  44  71 106 136 186 231 280 346 411
#     4  11  23  43  65  98 139 184 230 282 333 402
#     4  11  24  41  66  94 133 184 224 291 341 393
#     4  12  23  47  76  98 141 181 218 292 352 405
#
# _framework density 20.970130000000001
#
# number of rings (size 3 to 8) (size 9 to 14) (size 15 to 20)
#    0.000    0.750    6.250    1.500    1.750    3.000 
#    2.250    1.250    0.000    0.000    0.000    0.000 
#    0.000    0.000    0.000    0.000    0.000    0.000 
#
# Total GULP energy -89435.218071 kJ/mol
# GULP energy per Si atom -5589.701129 kJ/mol
# Density = 2.092240 g / cm^3
# Si number density = 20.970130 Si / 1000 Ang^3
#
#
#
# Elastic Constant Matrix: (Units=GPa)
#
#
# Indices 1 2 3 4 5 6 
#
# 1 105.4099 42.2843 24.3468 0.6533 -25.3740 9.2034
# 2 42.2843 141.5871 40.2859 9.9187 -19.8793 -19.3011
# 3 24.3468 40.2859 45.2793 3.0623 -10.9314 -10.3298
# 4 0.6533 9.9187 3.0623 41.1103 -6.6663 1.2048
# 5 -25.3740 -19.8793 -10.9314 -6.6663 28.7241 7.3547
# 6 9.2034 -19.3011 -10.3298 1.2048 7.3547 29.6787
#
#
#
# Elastic Compliance Matrix: (Units=1/GPa)
#
#
# Indices 1 2 3 4 5 6 
#
# 1 0.016810 -0.003396 -0.005766 0.003727 0.014546 -0.013184
# 2 -0.003396 0.010852 -0.006295 -0.002262 0.000054 0.005998
# 3 -0.005766 -0.006295 0.033069 -0.001028 0.000565 0.009106
# 4 0.003727 -0.002262 -0.001028 0.026551 0.009116 -0.006322
# 5 0.014546 0.000054 0.000565 0.009116 0.054692 -0.018202
# 6 -0.013184 0.005998 0.009106 -0.006322 -0.018202 0.049620
#
#
# Mechanical properties :
#
#
# Convention : Reuss Voigt Hill
#
# Bulk Modulus (GPa) = 33.53585 56.23450 44.88517
# Shear Modulus (GPa) = 21.51039 32.25991 26.88515
#
# Velocity S-wave (km/s) = 3.20623 3.92647 3.58448
# Velocity P-wave (km/s) = 5.45284 6.88701 6.21145
#
# Compressibility (1/GPa) = 0.02981884
#
# Stress axis : x y z
#
# Youngs Moduli (GPa) = 59.48812 92.15200 30.23963
#
# Poissons Ratio (x) = 0.31293 0.17435
# Poissons Ratio (y) = 0.20201 0.19035
# Poissons Ratio (z) = 0.34299 0.58006
#
# Static dielectric constant tensor:
#      x y z
#    x 1.738300 0.011910 0.041720 
#    y 0.011910 1.716000 -0.018140 
#    z 0.041720 -0.018140 1.760290 
# 
# From -- ./inp_files/533948.got.cif
#   From: 2010.05.17/outbox.cif.g08.bks.cpg/sg2_267_cif.got.tgz:533948.got - 2010.06.03 11:33:40.
