data_PCOD9058541
_publ_section_title
;
Structure prediction by ZEFSAII (Michael W. Deem and Ramdas Pophale) SiO2 
 PCOD9058541
Probable space group: P -1
;
_chemical_formula_sum "Si O2"
_cell_formula_units_Z 14
_cell_length_a 11.926510
_cell_length_b 12.513416
_cell_length_c 11.358895
_cell_angle_alpha 93.022114
_cell_angle_beta 66.074408
_cell_angle_gamma 149.550763
_cell_volume 602.779906
_symmetry_space_group_name_H-M "P -1"
_symmetry_group_IT_number 2
_symmetry_cell_setting 'triclinic'
loop_
_space_group_symop_operation_xyz
x,y,z
-x,-y,-z
loop_
_atom_site_type_symbol
_atom_site_label
_atom_site_fract_x
_atom_site_fract_y
_atom_site_fract_z
Si Si1 0.127943 0.469422 0.220522
Si Si2 0.920600 0.530962 0.244933
Si Si3 0.951048 0.991265 0.720971
Si Si4 0.862969 0.090358 0.934488
Si Si5 0.825450 0.548388 0.541180
Si Si6 0.722409 0.893877 0.592043
Si Si7 0.080866 0.916973 0.826068
O O1 0.077932 0.437255 0.380655
O O2 0.006965 0.476691 0.205456
O O3 0.964811 0.231219 0.230305
O O4 0.502504 0.763196 0.059907
O O5 0.946692 0.593287 0.371876
O O6 0.568298 0.269171 0.334539
O O7 0.124486 0.773726 0.090218
O O8 0.681684 0.808356 0.732512
O O9 0.879620 0.846416 0.842919
O O10 0.050635 0.177609 0.758749
O O11 0.203366 0.136607 0.537540
O O12 0.986369 0.156465 0.013017
O O13 0.446867 0.246110 0.681163
O O14 0.975453 0.786153 0.505950
#
# Coordination Sequence:
#
# PCOD9058541 Si02
#       7
#     2   2   2   2   2   2   2
#     4  11  26  47  68 102 140 176 230 279 335 409
#     4  12  25  46  72 101 136 179 231 279 339 398
#     4  11  23  48  68 102 141 172 231 280 335 409
#     4  11  27  44  70 102 135 187 221 276 344 400
#     4  11  22  46  70 105 131 177 230 275 348 386
#     4  11  25  42  73 106 133 177 225 290 333 395
#     4  11  25  46  69 104 137 183 219 281 346 397
#
# _framework density 23.225724
#
# number of rings (size 3 to 8) (size 9 to 14) (size 15 to 20)
#    0.000    0.857    4.286    1.286    2.000    9.143 
#    0.000    0.000    0.000    0.000    0.000    0.000 
#    0.000    0.000    0.000    0.000    0.000    0.000 
#
# Total GULP energy -78367.763279 kJ/mol
# GULP energy per Si atom -5597.697377 kJ/mol
# Density = 2.317286 g / cm^3
# Si number density = 23.225724 Si / 1000 Ang^3
#
#
#
# Elastic Constant Matrix: (Units=GPa)
#
#
# Indices 1 2 3 4 5 6 
#
# 1 183.4347 59.7374 21.1794 13.0472 30.9947 4.0767
# 2 59.7374 116.0461 46.1182 -16.8126 14.9315 5.6095
# 3 21.1794 46.1182 64.5199 -14.1366 27.4226 8.2972
# 4 13.0472 -16.8126 -14.1366 58.1553 -3.5925 22.3705
# 5 30.9947 14.9315 27.4226 -3.5925 38.4811 2.8792
# 6 4.0767 5.6095 8.2972 22.3705 2.8792 39.3640
#
#
#
# Elastic Compliance Matrix: (Units=1/GPa)
#
#
# Indices 1 2 3 4 5 6 
#
# 1 0.008232 -0.005126 0.002960 -0.003807 -0.007252 0.001948
# 2 -0.005126 0.015485 -0.010912 0.004243 0.006462 -0.002259
# 3 0.002960 -0.010912 0.033512 0.005997 -0.020896 -0.007695
# 4 -0.003807 0.004243 0.005997 0.027373 0.000982 -0.017102
# 5 -0.007252 0.006462 -0.020896 0.000982 0.044270 0.000439
# 6 0.001948 -0.002259 -0.007695 -0.017102 0.000439 0.036833
#
#
# Mechanical properties :
#
#
# Convention : Reuss Voigt Hill
#
# Bulk Modulus (GPa) = 32.18405 68.67451 50.42928
# Shear Modulus (GPa) = 24.72541 42.99779 33.86160
#
# Velocity S-wave (km/s) = 3.26631 4.30734 3.82243
# Velocity P-wave (km/s) = 5.30210 7.37361 6.42193
#
# Compressibility (1/GPa) = 0.03107129
#
# Stress axis : x y z
#
# Youngs Moduli (GPa) = 121.47631 64.57720 29.83978
#
# Poissons Ratio (x) = 0.33105 -0.08831
# Poissons Ratio (y) = 0.62274 0.32562
# Poissons Ratio (z) = -0.35952 0.70469
#
# Static dielectric constant tensor:
#      x y z
#    x 1.850580 0.019470 0.022120 
#    y 0.019470 1.839630 -0.003580 
#    z 0.022120 -0.003580 1.896390 
# 
# From -- ./inp_files/27113.got.cif
#   From: 2010.05.17/outbox.cif.g08.bks.cpg/sg2_14_cif.got.tgz:27113.got - 2010.06.03 11:33:40.
