data_PCOD9058267
_publ_section_title
;
Structure prediction by ZEFSAII (Michael W. Deem and Ramdas Pophale) SiO2 
 PCOD9058267
Probable space group: P -1
;
_chemical_formula_sum "Si O2"
_cell_formula_units_Z 14
_cell_length_a 8.686935
_cell_length_b 11.943000
_cell_length_c 14.528070
_cell_angle_alpha 123.555740
_cell_angle_beta 127.199539
_cell_angle_gamma 99.072207
_cell_volume 671.848719
_symmetry_space_group_name_H-M "P -1"
_symmetry_group_IT_number 2
_symmetry_cell_setting 'triclinic'
loop_
_space_group_symop_operation_xyz
x,y,z
-x,-y,-z
loop_
_atom_site_type_symbol
_atom_site_label
_atom_site_fract_x
_atom_site_fract_y
_atom_site_fract_z
Si Si1 0.337827 0.827220 0.436324
Si Si2 0.200480 0.935308 0.129347
Si Si3 0.627612 0.259129 0.290044
Si Si4 0.721615 0.498014 0.816524
Si Si5 0.797121 0.915124 0.090325
Si Si6 0.155217 0.358222 0.479446
Si Si7 0.767244 0.650068 0.097291
O O1 0.316415 0.669571 0.312209
O O2 0.035932 0.745864 0.300338
O O3 0.500000 0.000000 0.500000
O O4 0.532833 0.927461 0.641963
O O5 0.979888 0.932720 0.086154
O O6 0.354730 0.048342 0.141999
O O7 0.002904 0.702515 0.960039
O O8 0.702408 0.446903 0.440208
O O9 0.912830 0.316709 0.428998
O O10 0.520353 0.223146 0.129087
O O11 0.430690 0.432150 0.660364
O O12 0.766262 0.544467 0.962886
O O13 0.791490 0.808339 0.126641
O O14 0.967951 0.140067 0.272427
O O15 0.500000 0.500000 0.000000
#
# Coordination Sequence:
#
# PCOD9058267 Si02
#       7
#     2   2   2   2   2   2   2
#     4  12  23  45  66  93 131 172 212 261 320 380
#     4  11  24  40  67  96 126 168 217 257 315 387
#     4  11  25  41  66  95 130 167 213 262 318 381
#     4  11  23  44  66  93 135 166 212 267 320 372
#     4  11  22  45  63  93 133 165 210 266 318 376
#     4  11  23  41  66  91 131 170 206 264 324 370
#     4  11  25  42  70  96 129 167 217 267 317 382
#
# _framework density 20.838025999999999
#
# number of rings (size 3 to 8) (size 9 to 14) (size 15 to 20)
#    0.000    0.857    7.143    1.286    2.000    2.857 
#    0.000    1.429    0.000    0.000    0.000    0.000 
#    0.000    0.000    0.000    0.000    0.000    0.000 
#
# Total GULP energy -78099.557151 kJ/mol
# GULP energy per Si atom -5578.539797 kJ/mol
# Density = 2.079060 g / cm^3
# Si number density = 20.838026 Si / 1000 Ang^3
#
#
#
# Elastic Constant Matrix: (Units=GPa)
#
#
# Indices 1 2 3 4 5 6 
#
# 1 36.9120 44.1330 30.1232 15.2020 22.0087 -9.4220
# 2 44.1330 85.7719 53.5315 15.6828 -3.3940 -12.2366
# 3 30.1232 53.5315 139.4803 10.2556 13.3082 -17.2014
# 4 15.2020 15.6828 10.2556 45.6679 -9.0103 -1.7100
# 5 22.0087 -3.3940 13.3082 -9.0103 45.9555 14.7990
# 6 -9.4220 -12.2366 -17.2014 -1.7100 14.7990 28.9880
#
#
#
# Elastic Compliance Matrix: (Units=1/GPa)
#
#
# Indices 1 2 3 4 5 6 
#
# 1 -0.108995 0.053774 -0.016455 0.036674 0.089364 -0.065951
# 2 0.053774 -0.010089 0.002300 -0.022083 -0.042809 0.035136
# 3 -0.016455 0.002300 0.008492 0.004117 0.007309 -0.002827
# 4 0.036674 -0.022083 0.004117 0.012336 -0.023726 0.017882
# 5 0.089364 -0.042809 0.007309 -0.023726 -0.042423 0.035570
# 6 -0.065951 0.035136 -0.002827 0.017882 0.035570 0.009111
#
#
# Mechanical properties :
#
#
# Convention : Reuss Voigt Hill
#
# Bulk Modulus (GPa) = -31.89335 57.52663 12.81664
# Shear Modulus (GPa) = -22.59820 33.08072 5.24126
#
# Velocity S-wave (km/s) = -3.29670 3.98869 1.58767
# Velocity P-wave (km/s) = 5.46165 6.99138 3.08624
#
# Compressibility (1/GPa) = -0.03135450
#
# Stress axis : x y z
#
# Youngs Moduli (GPa) = -9.17473 -99.11900 117.76071
#
# Poissons Ratio (x) = 5.33000 1.93775
# Poissons Ratio (y) = 0.49336 -0.27085
# Poissons Ratio (z) = -0.15097 0.22798
#
# Static dielectric constant tensor:
#      x y z
#    x 1.750780 0.025910 -0.007050 
#    y 0.025910 1.802540 0.036670 
#    z -0.007050 0.036670 1.716100 
# 
# From -- ./inp_files/188134.got.cif
#   From: 2010.05.17/outbox.cif.g08.bks.cpg/sg2_95_cif.got.tgz:188134.got - 2010.06.03 11:33:40.
