data_PCOD9058082
_publ_section_title
;
Structure prediction by ZEFSAII (Michael W. Deem and Ramdas Pophale) SiO2 
 PCOD9058082
Probable space group: P -1
;
_chemical_formula_sum "Si O2"
_cell_formula_units_Z 10
_cell_length_a 8.914799
_cell_length_b 8.925836
_cell_length_c 11.882052
_cell_angle_alpha 100.006651
_cell_angle_beta 67.463071
_cell_angle_gamma 44.294053
_cell_volume 438.650208
_symmetry_space_group_name_H-M "P -1"
_symmetry_group_IT_number 2
_symmetry_cell_setting 'triclinic'
loop_
_space_group_symop_operation_xyz
x,y,z
-x,-y,-z
loop_
_atom_site_type_symbol
_atom_site_label
_atom_site_fract_x
_atom_site_fract_y
_atom_site_fract_z
Si Si1 0.365607 0.748543 0.895735
Si Si2 0.179906 0.133618 0.184698
Si Si3 0.783870 0.124487 0.681878
Si Si4 0.219467 0.351996 0.807282
Si Si5 0.633987 0.783576 0.677566
O O1 0.592201 0.425906 0.820877
O O2 0.522843 0.709343 0.739924
O O3 0.356959 0.877685 0.015432
O O4 0.000000 0.000000 0.000000
O O5 0.384670 0.084743 0.194092
O O6 0.963280 0.420054 0.211612
O O7 0.031315 0.129682 0.313894
O O8 0.500349 0.244208 0.737776
O O9 0.000000 0.000000 0.500000
O O10 0.390755 0.053183 0.693645
O O11 0.000000 0.500000 0.000000
O O12 0.000000 0.500000 0.500000
#
# Coordination Sequence:
#
# PCOD9058082 Si02
#       5
#     2   2   2   2   2
#     4  12  22  44  69 102 132 175 225 274 323 402
#     4  11  24  44  73  93 134 186 221 262 342 395
#     4  11  25  44  66 101 140 168 220 284 330 387
#     4  11  22  44  70  97 132 174 228 268 320 413
#     4  11  25  45  68  99 137 172 223 278 330 394
#
# _framework density 22.797208000000001
#
# number of rings (size 3 to 8) (size 9 to 14) (size 15 to 20)
#    0.000    0.800    4.000    3.600    2.800    1.600 
#    7.200    0.000    0.000    0.000    0.000    0.000 
#    0.000    0.000    0.000    0.000    0.000    0.000 
#
# Total GULP energy -55833.790956 kJ/mol
# GULP energy per Si atom -5583.379096 kJ/mol
# Density = 2.274532 g / cm^3
# Si number density = 22.797208 Si / 1000 Ang^3
#
#
#
# Elastic Constant Matrix: (Units=GPa)
#
#
# Indices 1 2 3 4 5 6 
#
# 1 63.3670 13.9165 26.5639 -10.6681 -18.0749 15.3649
# 2 13.9165 212.0461 50.7329 -4.6653 -23.0136 33.7633
# 3 26.5639 50.7329 119.7118 -11.5531 -39.9690 6.0273
# 4 -10.6681 -4.6653 -11.5531 35.1534 12.2458 -8.9801
# 5 -18.0749 -23.0136 -39.9690 12.2458 44.6439 -10.9685
# 6 15.3649 33.7633 6.0273 -8.9801 -10.9685 35.3281
#
#
#
# Elastic Compliance Matrix: (Units=1/GPa)
#
#
# Indices 1 2 3 4 5 6 
#
# 1 0.020041 0.001075 -0.003195 0.002051 0.003370 -0.007631
# 2 0.001075 0.006274 -0.002681 -0.001370 0.000091 -0.006326
# 3 -0.003195 -0.002681 0.013508 0.000771 0.010457 0.005090
# 4 0.002051 -0.001370 0.000771 0.033155 -0.006646 0.006650
# 5 0.003370 0.000091 0.010457 -0.006646 0.036549 0.006322
# 6 -0.007631 -0.006326 0.005090 0.006650 0.006322 0.040456
#
#
# Mechanical properties :
#
#
# Convention : Reuss Voigt Hill
#
# Bulk Modulus (GPa) = 33.08933 64.17238 48.63086
# Shear Modulus (GPa) = 29.47110 43.28586 36.37848
#
# Velocity S-wave (km/s) = 3.59938 4.36217 3.99901
# Velocity P-wave (km/s) = 5.64094 7.31996 6.53460
#
# Compressibility (1/GPa) = 0.03022122
#
# Stress axis : x y z
#
# Youngs Moduli (GPa) = 49.89659 159.39387 74.03028
#
# Poissons Ratio (x) = -0.17138 0.23656
# Poissons Ratio (y) = -0.05365 0.19845
# Poissons Ratio (z) = 0.15944 0.42729
#
# Static dielectric constant tensor:
#      x y z
#    x 1.872070 -0.044420 0.001080 
#    y -0.044420 2.000780 -0.006830 
#    z 0.001080 -0.006830 1.894700 
# 
# From -- ./inp_files/144261.got.cif
#   From: 2010.05.17/outbox.cif.g08.bks.cpg/sg2_73_cif.got.tgz:144261.got - 2010.06.03 11:33:40.
