data_PCOD9058266
_publ_section_title
;
Structure prediction by ZEFSAII (Michael W. Deem and Ramdas Pophale) SiO2 
 PCOD9058266
Probable space group: P -1
;
_chemical_formula_sum "Si O2"
_cell_formula_units_Z 16
_cell_length_a 16.183990
_cell_length_b 6.990811
_cell_length_c 17.450627
_cell_angle_alpha 103.792420
_cell_angle_beta 30.758308
_cell_angle_gamma 126.072627
_cell_volume 622.066467
_symmetry_space_group_name_H-M "P -1"
_symmetry_group_IT_number 2
_symmetry_cell_setting 'triclinic'
loop_
_space_group_symop_operation_xyz
x,y,z
-x,-y,-z
loop_
_atom_site_type_symbol
_atom_site_label
_atom_site_fract_x
_atom_site_fract_y
_atom_site_fract_z
Si Si1 0.024264 0.695987 0.801720
Si Si2 0.288194 0.864457 0.383735
Si Si3 0.849391 0.597911 0.399442
Si Si4 0.260055 0.264364 0.363525
Si Si5 0.771746 0.398257 0.126964
Si Si6 0.313530 0.711961 0.182013
Si Si7 0.735867 0.702531 0.913606
Si Si8 0.378768 0.329775 0.660091
O O1 0.928729 0.754438 0.818341
O O2 0.123273 0.590568 0.675695
O O3 0.814291 0.436113 0.005592
O O4 0.207675 0.983765 0.741285
O O5 0.361442 0.816934 0.241976
O O6 0.990265 0.538856 0.608859
O O7 0.218731 0.420377 0.460657
O O8 0.483249 0.040486 0.317919
O O9 0.610209 0.478771 0.540439
O O10 0.108444 0.961409 0.206659
O O11 0.284708 0.092907 0.380528
O O12 0.500946 0.509405 0.139834
O O13 0.000000 0.000000 0.500000
O O14 0.759726 0.609566 0.189043
O O15 0.000000 0.500000 0.000000
O O16 0.339602 0.510017 0.117034
O O17 0.500000 0.000000 0.000000
O O18 0.500000 0.500000 0.500000
#
# Coordination Sequence:
#
# PCOD9058266 Si02
#       8
#     2   2   2   2   2   2   2   2
#     4  12  27  49  81 117 156 215 272 329 413 482
#     4  11  24  48  76 120 162 214 266 339 410 487
#     4  12  27  53  78 120 161 211 274 334 405 491
#     4  12  27  50  76 116 158 208 268 332 410 488
#     4  12  26  50  83 119 161 217 274 334 414 492
#     4  11  22  44  82 112 158 213 262 328 416 476
#     4  12  25  52  81 113 165 211 263 345 401 486
#     4  12  24  50  80 111 164 205 264 341 404 476
#
# _framework density 25.720724000000001
#
# number of rings (size 3 to 8) (size 9 to 14) (size 15 to 20)
#    0.000    0.250    6.250    1.500    1.750    1.500 
#    9.000    0.000    0.000    0.000    0.000    0.000 
#    0.000    0.000    0.000    0.000    0.000    0.000 
#
# Total GULP energy -89677.722227 kJ/mol
# GULP energy per Si atom -5604.857639 kJ/mol
# Density = 2.566218 g / cm^3
# Si number density = 25.720724 Si / 1000 Ang^3
#
#
#
# Elastic Constant Matrix: (Units=GPa)
#
#
# Indices 1 2 3 4 5 6 
#
# 1 107.3929 50.9929 60.1658 12.5977 -7.1708 22.2138
# 2 50.9929 195.2464 112.1714 20.4265 -4.9550 40.9795
# 3 60.1658 112.1714 192.2494 13.7939 10.9199 12.4517
# 4 12.5977 20.4265 13.7939 62.9787 8.6198 1.8078
# 5 -7.1708 -4.9550 10.9199 8.6198 65.9398 -0.4030
# 6 22.2138 40.9795 12.4517 1.8078 -0.4030 47.8508
#
#
#
# Elastic Compliance Matrix: (Units=1/GPa)
#
#
# Indices 1 2 3 4 5 6 
#
# 1 0.012743 0.000104 -0.003716 -0.001932 0.002231 -0.004946
# 2 0.000104 0.009885 -0.005298 -0.002120 0.001866 -0.007039
# 3 -0.003716 -0.005298 0.009300 0.000645 -0.002403 0.003798
# 4 -0.001932 -0.002120 0.000645 0.017127 -0.002704 0.001875
# 5 0.002231 0.001866 -0.002403 -0.002704 0.016289 -0.001769
# 6 -0.004946 -0.007039 0.003798 0.001875 -0.001769 0.028149
#
#
# Mechanical properties :
#
#
# Convention : Reuss Voigt Hill
#
# Bulk Modulus (GPa) = 70.88699 104.61655 87.75177
# Shear Modulus (GPa) = 43.09739 53.45777 48.27758
#
# Velocity S-wave (km/s) = 4.09784 4.56389 4.33713
# Velocity P-wave (km/s) = 7.07176 8.27855 7.69884
#
# Compressibility (1/GPa) = 0.01410696
#
# Stress axis : x y z
#
# Youngs Moduli (GPa) = 78.47432 101.16433 107.52565
#
# Poissons Ratio (x) = -0.01050 0.39960
# Poissons Ratio (y) = -0.00814 0.56967
# Poissons Ratio (z) = 0.29164 0.53596
#
# Static dielectric constant tensor:
#      x y z
#    x 2.058240 -0.004150 -0.082350 
#    y -0.004150 1.744220 0.178500 
#    z -0.082350 0.178500 1.907700 
# 
# From -- ./inp_files/613436.got.cif
#   From: 2010.05.17/outbox.cif.g08.bks.cpg/sg2_307_cif.got.tgz:613436.got - 2010.06.03 11:33:40.
