data_PCOD9058918
_publ_section_title
;
Structure prediction by ZEFSAII (Michael W. Deem and Ramdas Pophale) SiO2 
 PCOD9058918
Probable space group: P -1
;
_chemical_formula_sum "Si O2"
_cell_formula_units_Z 14
_cell_length_a 7.980125
_cell_length_b 7.732368
_cell_length_c 18.881376
_cell_angle_alpha 91.859453
_cell_angle_beta 35.418865
_cell_angle_gamma 106.747593
_cell_volume 602.054930
_symmetry_space_group_name_H-M "P -1"
_symmetry_group_IT_number 2
_symmetry_cell_setting 'triclinic'
loop_
_space_group_symop_operation_xyz
x,y,z
-x,-y,-z
loop_
_atom_site_type_symbol
_atom_site_label
_atom_site_fract_x
_atom_site_fract_y
_atom_site_fract_z
Si Si1 0.206491 0.098536 0.311416
Si Si2 0.496822 0.490340 0.740767
Si Si3 0.792222 0.247968 0.207585
Si Si4 0.504913 0.250095 0.445735
Si Si5 0.282720 0.939109 0.144298
Si Si6 0.467382 0.342493 0.608989
Si Si7 0.267617 0.201082 0.943510
O O1 0.221865 0.301619 0.331943
O O2 0.480686 0.091230 0.268960
O O3 0.315178 0.102728 0.192446
O O4 0.859685 0.918894 0.438608
O O5 0.228113 0.553148 0.803013
O O6 0.601512 0.384784 0.642746
O O7 0.353049 0.360571 0.856345
O O8 0.732953 0.214751 0.310847
O O9 0.107062 0.245644 0.067883
O O10 0.592409 0.266206 0.498369
O O11 0.504490 0.450688 0.424535
O O12 0.411782 0.812208 0.143850
O O13 0.907482 0.813001 0.254746
O O14 0.500000 0.000000 0.000000
O O15 0.000000 0.000000 0.000000
#
# Coordination Sequence:
#
# PCOD9058918 Si02
#       7
#     2   2   2   2   2   2   2
#     4   9  19  36  62  86 117 157 197 240 282 354
#     4   9  20  36  61  89 118 152 198 238 294 347
#     4   9  19  33  62  88 116 154 195 240 280 349
#     4   9  17  35  60  89 115 161 197 230 297 342
#     4  11  23  39  60  88 120 154 196 246 303 346
#     4   9  19  34  61  89 118 152 196 246 288 346
#     4  12  21  37  60  89 120 154 197 245 293 354
#
# _framework density 23.253693999999999
#
# number of rings (size 3 to 8) (size 9 to 14) (size 15 to 20)
#    0.857    1.429    1.429    1.714    0.000    1.143 
#    0.000    6.429    0.000   46.286    0.000    0.000 
#    0.000    0.000    0.000    0.000    0.000    0.000 
#
# Total GULP energy -78189.517053 kJ/mol
# GULP energy per Si atom -5584.965504 kJ/mol
# Density = 2.320077 g / cm^3
# Si number density = 23.253694 Si / 1000 Ang^3
#
#
#
# Elastic Constant Matrix: (Units=GPa)
#
#
# Indices 1 2 3 4 5 6 
#
# 1 38.5404 41.0362 43.8165 26.7300 -0.8193 12.4831
# 2 41.0362 58.8573 31.4284 4.5758 21.9627 33.6109
# 3 43.8165 31.4284 126.1784 24.8645 44.9670 24.5806
# 4 26.7300 4.5758 24.8645 34.3378 15.7597 15.4094
# 5 -0.8193 21.9627 44.9670 15.7597 28.6947 13.9882
# 6 12.4831 33.6109 24.5806 15.4094 13.9882 34.1198
#
#
#
# Elastic Compliance Matrix: (Units=1/GPa)
#
#
# Indices 1 2 3 4 5 6 
#
# 1 -0.004979 0.017579 0.005756 0.015582 -0.022708 -0.017370
# 2 0.017579 0.009535 -0.013131 -0.012266 0.026146 -0.011543
# 3 0.005756 -0.013131 0.012106 -0.013272 -0.006769 0.010877
# 4 0.015582 -0.012266 -0.013272 0.019330 0.020619 -0.001240
# 5 -0.022708 0.026146 -0.006769 0.020619 0.030170 -0.034253
# 6 -0.017370 -0.011543 0.010877 -0.001240 -0.034253 0.053801
#
#
# Mechanical properties :
#
#
# Convention : Reuss Voigt Hill
#
# Bulk Modulus (GPa) = 26.97641 50.68204 38.82922
# Shear Modulus (GPa) = 44.67829 26.58345 35.63087
#
# Velocity S-wave (km/s) = 4.38807 3.38478 3.91867
# Velocity P-wave (km/s) = 6.10734 6.09247 6.09991
#
# Compressibility (1/GPa) = 0.03706943
#
# Stress axis : x y z
#
# Youngs Moduli (GPa) = -200.84073 104.88165 82.60498
#
# Poissons Ratio (x) = -1.84374 -0.47550
# Poissons Ratio (y) = 3.53062 1.08472
# Poissons Ratio (z) = 1.15610 1.37725
#
# Static dielectric constant tensor:
#      x y z
#    x 1.864260 0.016040 0.019550 
#    y 0.016040 1.907100 0.048380 
#    z 0.019550 0.048380 1.841090 
# 
# From -- ./inp_files/555310.got.cif
#   From: 2010.05.17/outbox.cif.g08.bks.cpg/sg2_278_cif.got.tgz:555310.got - 2010.06.03 11:33:40.
