data_PCOD9058771
_publ_section_title
;
Structure prediction by ZEFSAII (Michael W. Deem and Ramdas Pophale) SiO2 
 PCOD9058771
Probable space group: P -1
;
_chemical_formula_sum "Si O2"
_cell_formula_units_Z 16
_cell_length_a 11.224907
_cell_length_b 8.631951
_cell_length_c 16.872948
_cell_angle_alpha 125.673431
_cell_angle_beta 30.028962
_cell_angle_gamma 126.516323
_cell_volume 648.074560
_symmetry_space_group_name_H-M "P -1"
_symmetry_group_IT_number 2
_symmetry_cell_setting 'triclinic'
loop_
_space_group_symop_operation_xyz
x,y,z
-x,-y,-z
loop_
_atom_site_type_symbol
_atom_site_label
_atom_site_fract_x
_atom_site_fract_y
_atom_site_fract_z
Si Si1 0.818864 0.612260 0.980327
Si Si2 0.354481 0.053735 0.742363
Si Si3 0.364450 0.675446 0.860290
Si Si4 0.159695 0.027921 0.277182
Si Si5 0.612423 0.355031 0.338901
Si Si6 0.172391 0.690753 0.418804
Si Si7 0.101403 0.004937 0.119154
Si Si8 0.619044 0.302032 0.873728
O O1 0.673119 0.490946 0.955582
O O2 0.096545 0.600420 0.805545
O O3 0.779779 0.830554 0.082366
O O4 0.730481 0.499703 0.078669
O O5 0.598889 0.214620 0.628117
O O6 0.453497 0.874174 0.668482
O O7 0.150856 0.976366 0.770427
O O8 0.577282 0.823023 0.827963
O O9 0.451543 0.620118 0.708512
O O10 0.160816 0.799568 0.997185
O O11 0.075250 0.994091 0.225450
O O12 0.981822 0.145011 0.456418
O O13 0.202763 0.833953 0.235250
O O14 0.500000 0.500000 0.500000
O O15 0.287940 0.653897 0.256868
O O16 0.000000 0.500000 0.500000
O O17 0.346206 0.168689 0.006866
#
# Coordination Sequence:
#
# PCOD9058771 Si02
#       8
#     2   2   2   2   2   2   2   2
#     4  12  25  48  80 118 153 206 270 323 397 470
#     4  12  29  53  81 115 163 208 262 333 401 472
#     4  11  22  48  80 113 156 208 265 326 384 477
#     4  11  23  48  79 114 159 209 270 326 401 461
#     4  12  30  49  78 119 161 210 264 324 406 476
#     4  12  30  50  73 115 169 210 262 335 408 471
#     4  11  23  48  86 117 157 207 277 329 392 480
#     4  11  25  47  85 113 153 214 275 326 393 486
#
# _framework density 24.688517999999998
#
# number of rings (size 3 to 8) (size 9 to 14) (size 15 to 20)
#    0.000    0.500    3.750    4.125    5.250    2.000 
#    2.250    0.000    0.000    0.000    0.000    0.000 
#    0.000    0.000    0.000    0.000    0.000    0.000 
#
# Total GULP energy -89684.319573 kJ/mol
# GULP energy per Si atom -5605.269973 kJ/mol
# Density = 2.463233 g / cm^3
# Si number density = 24.688518 Si / 1000 Ang^3
#
#
#
# Elastic Constant Matrix: (Units=GPa)
#
#
# Indices 1 2 3 4 5 6 
#
# 1 138.2726 59.0761 35.6833 -16.1915 18.2804 10.2546
# 2 59.0761 149.4565 67.4296 2.2829 11.1256 -3.2550
# 3 35.6833 67.4296 130.8218 24.2608 8.6024 -8.4205
# 4 -16.1915 2.2829 24.2608 51.3926 5.1541 -7.2772
# 5 18.2804 11.1256 8.6024 5.1541 48.8837 -1.2784
# 6 10.2546 -3.2550 -8.4205 -7.2772 -1.2784 42.0955
#
#
#
# Elastic Compliance Matrix: (Units=1/GPa)
#
#
# Indices 1 2 3 4 5 6 
#
# 1 0.010123 -0.003001 -0.001940 0.004219 -0.003270 -0.002456
# 2 -0.003001 0.009873 -0.004345 0.000817 -0.000427 0.000753
# 3 -0.001940 -0.004345 0.011542 -0.005691 0.000322 0.001471
# 4 0.004219 0.000817 -0.005691 0.024040 -0.003246 0.001954
# 5 -0.003270 -0.000427 0.000322 -0.003246 0.022087 0.000938
# 6 -0.002456 0.000753 0.001471 0.001954 0.000938 0.025073
#
#
# Mechanical properties :
#
#
# Convention : Reuss Voigt Hill
#
# Bulk Modulus (GPa) = 77.12451 82.54766 79.83608
# Shear Modulus (GPa) = 39.79890 45.56514 42.68202
#
# Velocity S-wave (km/s) = 4.01938 4.30071 4.16242
# Velocity P-wave (km/s) = 7.26962 7.62690 7.45040
#
# Compressibility (1/GPa) = 0.01296605
#
# Stress axis : x y z
#
# Youngs Moduli (GPa) = 98.78225 101.28445 86.64185
#
# Poissons Ratio (x) = 0.30392 0.16809
# Poissons Ratio (y) = 0.29641 0.37649
# Poissons Ratio (z) = 0.19164 0.44012
#
# Static dielectric constant tensor:
#      x y z
#    x 2.024610 -0.018160 -0.030060 
#    y -0.018160 1.975900 -0.002330 
#    z -0.030060 -0.002330 1.958850 
# 
# From -- ./inp_files/566895.got.cif
#   From: 2010.05.17/outbox.cif.g08.bks.cpg/sg2_284_cif.got.tgz:566895.got - 2010.06.03 11:33:40.
