data_PCOD9058828
_publ_section_title
;
Structure prediction by ZEFSAII (Michael W. Deem and Ramdas Pophale) SiO2 
 PCOD9058828
Probable space group: P -1
;
_chemical_formula_sum "Si O2"
_cell_formula_units_Z 14
_cell_length_a 13.451553
_cell_length_b 11.919188
_cell_length_c 10.749149
_cell_angle_alpha 155.748282
_cell_angle_beta 125.514592
_cell_angle_gamma 53.655987
_cell_volume 565.882803
_symmetry_space_group_name_H-M "P -1"
_symmetry_group_IT_number 2
_symmetry_cell_setting 'triclinic'
loop_
_space_group_symop_operation_xyz
x,y,z
-x,-y,-z
loop_
_atom_site_type_symbol
_atom_site_label
_atom_site_fract_x
_atom_site_fract_y
_atom_site_fract_z
Si Si1 0.658546 0.242356 0.177817
Si Si2 0.019412 0.245102 0.851068
Si Si3 0.773893 0.902868 0.705131
Si Si4 0.298909 0.241888 0.110596
Si Si5 0.185489 0.586514 0.919350
Si Si6 0.515497 0.745401 0.351809
Si Si7 0.395006 0.235211 0.896558
O O1 0.657624 0.747039 0.493410
O O2 0.691989 0.497034 0.533367
O O3 0.770253 0.076476 0.006205
O O4 0.625467 0.028847 0.040568
O O5 0.158073 0.198031 0.955908
O O6 0.000000 0.000000 0.500000
O O7 0.000000 0.500000 0.000000
O O8 0.922178 0.293319 0.941298
O O9 0.859714 0.634649 0.432538
O O10 0.771355 0.155042 0.858817
O O11 0.341684 0.285117 0.045889
O O12 0.296106 0.401889 0.895899
O O13 0.500000 0.000000 0.500000
O O14 0.423185 0.904102 0.551017
O O15 0.500000 0.500000 0.000000
O O16 0.531428 0.326876 0.089165
#
# Coordination Sequence:
#
# PCOD9058828 Si02
#       7
#     2   2   2   2   2   2   2
#     4  11  27  47  70 103 147 197 226 287 363 442
#     4  12  26  48  75 107 142 184 243 306 359 413
#     4  11  25  43  68 104 152 183 243 290 362 426
#     4  12  26  49  72 102 146 189 244 288 353 440
#     4  12  25  44  74 111 137 189 241 310 359 406
#     4  11  23  37  61 101 144 183 222 286 361 417
#     4  11  26  43  77 105 150 179 245 292 369 423
#
# _framework density 24.740106000000001
#
# number of rings (size 3 to 8) (size 9 to 14) (size 15 to 20)
#    0.000    0.571    2.857    4.286    0.000    7.429 
#    0.000    4.286    0.000    0.000    0.000    0.000 
#    0.000    0.000    0.000    0.000    0.000    0.000 
#
# Total GULP energy -78289.234433 kJ/mol
# GULP energy per Si atom -5592.088174 kJ/mol
# Density = 2.468380 g / cm^3
# Si number density = 24.740106 Si / 1000 Ang^3
#
#
#
# Elastic Constant Matrix: (Units=GPa)
#
#
# Indices 1 2 3 4 5 6 
#
# 1 121.4272 37.0109 47.0956 -20.3155 -13.6304 26.6054
# 2 37.0109 108.1277 40.0833 -20.3303 2.8004 27.5021
# 3 47.0956 40.0833 249.8719 -31.6553 -2.2987 11.1623
# 4 -20.3155 -20.3303 -31.6553 44.6887 10.9549 -0.6411
# 5 -13.6304 2.8004 -2.2987 10.9549 31.5235 -5.4635
# 6 26.6054 27.5021 11.1623 -0.6411 -5.4635 42.4221
#
#
#
# Elastic Compliance Matrix: (Units=1/GPa)
#
#
# Indices 1 2 3 4 5 6 
#
# 1 0.011125 -0.001620 -0.001247 0.002613 0.003060 -0.005165
# 2 -0.001620 0.013426 -0.000771 0.006046 -0.005454 -0.008096
# 3 -0.001247 -0.000771 0.004691 0.002665 -0.001063 -0.000049
# 4 0.002613 0.006046 0.002665 0.030841 -0.011184 -0.007234
# 5 0.003060 -0.005454 -0.001063 -0.011184 0.038498 0.006685
# 6 -0.005165 -0.008096 -0.000049 -0.007234 0.006685 0.032825
#
#
# Mechanical properties :
#
#
# Convention : Reuss Voigt Hill
#
# Bulk Modulus (GPa) = 45.52475 80.86739 63.19607
# Shear Modulus (GPa) = 34.24556 47.40933 40.82744
#
# Velocity S-wave (km/s) = 3.72454 4.38230 4.06674
# Velocity P-wave (km/s) = 6.07761 7.63962 6.90294
#
# Compressibility (1/GPa) = 0.02196607
#
# Stress axis : x y z
#
# Youngs Moduli (GPa) = 89.88559 74.48296 213.18317
#
# Poissons Ratio (x) = 0.12065 0.26586
# Poissons Ratio (y) = 0.14561 0.16435
# Poissons Ratio (z) = 0.11210 0.05742
#
# Static dielectric constant tensor:
#      x y z
#    x 1.800350 0.354390 0.307210 
#    y 0.354390 1.584850 -0.292070 
#    z 0.307210 -0.292070 1.777540 
# 
# From -- ./inp_files/452679.got.cif
#   From: 2010.05.17/outbox.cif.g08.bks.cpg/sg2_227_cif.got.tgz:452679.got - 2010.06.03 11:33:40.
