data_PCOD9058190
_publ_section_title
;
Structure prediction by ZEFSAII (Michael W. Deem and Ramdas Pophale) SiO2 
 PCOD9058190
Probable space group: P -1
;
_chemical_formula_sum "Si O2"
_cell_formula_units_Z 16
_cell_length_a 15.737142
_cell_length_b 8.779837
_cell_length_c 9.380588
_cell_angle_alpha 114.151737
_cell_angle_beta 34.649180
_cell_angle_gamma 113.493052
_cell_volume 667.572923
_symmetry_space_group_name_H-M "P -1"
_symmetry_group_IT_number 2
_symmetry_cell_setting 'triclinic'
loop_
_space_group_symop_operation_xyz
x,y,z
-x,-y,-z
loop_
_atom_site_type_symbol
_atom_site_label
_atom_site_fract_x
_atom_site_fract_y
_atom_site_fract_z
Si Si1 0.863719 0.147904 0.202044
Si Si2 0.950239 0.651246 0.729653
Si Si3 0.548319 0.862929 0.990495
Si Si4 0.931063 0.659164 0.215007
Si Si5 0.451158 0.788213 0.410791
Si Si6 0.692266 0.785538 0.287853
Si Si7 0.111898 0.165091 0.392726
Si Si8 0.425301 0.402926 0.357661
O O1 0.726497 0.215441 0.331183
O O2 0.918771 0.257993 0.310204
O O3 0.804967 0.952872 0.240634
O O4 0.994599 0.182309 0.916681
O O5 0.893756 0.777786 0.739203
O O6 0.000000 0.500000 0.500000
O O7 0.799346 0.643382 0.036075
O O8 0.474075 0.852822 0.242714
O O9 0.725963 0.870684 0.784657
O O10 0.499814 0.691792 0.907479
O O11 0.500000 0.000000 0.000000
O O12 0.951099 0.693846 0.367449
O O13 0.753772 0.625800 0.427674
O O14 0.000000 0.500000 0.000000
O O15 0.587544 0.869793 0.350830
O O16 0.479210 0.595831 0.331867
O O17 0.572231 0.697406 0.535357
O O18 0.000000 0.000000 0.500000
#
# Coordination Sequence:
#
# PCOD9058190 Si02
#       8
#     2   2   2   2   2   2   2   2
#     4  12  26  46  80 106 150 199 248 312 375 444
#     4  12  27  46  75 112 149 196 248 307 373 446
#     4  11  26  48  73 108 151 196 249 305 377 450
#     4  11  22  44  73 107 141 192 247 299 369 440
#     4  12  26  47  75 108 153 199 245 311 382 449
#     4  12  26  49  71 115 152 192 256 311 375 449
#     4  11  26  46  72 108 146 188 247 308 367 438
#     4  11  25  45  76 104 153 198 249 308 376 446
#
# _framework density 23.967417999999999
#
# number of rings (size 3 to 8) (size 9 to 14) (size 15 to 20)
#    0.000    0.500    3.750    3.750    7.000    1.000 
#    0.000    0.000    0.000    0.000    0.000    0.000 
#    0.000    0.000    0.000    0.000    0.000    0.000 
#
# Total GULP energy -89256.504887 kJ/mol
# GULP energy per Si atom -5578.531555 kJ/mol
# Density = 2.391287 g / cm^3
# Si number density = 23.967418 Si / 1000 Ang^3
#
#
#
# Elastic Constant Matrix: (Units=GPa)
#
#
# Indices 1 2 3 4 5 6 
#
# 1 125.4553 25.8234 12.3135 -5.6579 6.6383 -1.3899
# 2 25.8234 61.9044 3.2617 -9.7964 -1.2558 0.5424
# 3 12.3135 3.2617 66.3782 1.6510 8.2422 12.0021
# 4 -5.6579 -9.7964 1.6510 37.2784 -9.9506 6.7901
# 5 6.6383 -1.2558 8.2422 -9.9506 46.3507 -1.0466
# 6 -1.3899 0.5424 12.0021 6.7901 -1.0466 35.8263
#
#
#
# Elastic Compliance Matrix: (Units=1/GPa)
#
#
# Indices 1 2 3 4 5 6 
#
# 1 0.008944 -0.003681 -0.001500 0.000006 -0.001093 0.000872
# 2 -0.003681 0.018580 -0.000412 0.005142 0.002181 -0.001197
# 3 -0.001500 -0.000412 0.016782 -0.000887 -0.003097 -0.005597
# 4 0.000006 0.005142 -0.000887 0.031036 0.006836 -0.005463
# 5 -0.001093 0.002181 -0.003097 0.006836 0.023817 0.000362
# 6 0.000872 -0.001197 -0.005597 -0.005463 0.000362 0.030885
#
#
# Mechanical properties :
#
#
# Convention : Reuss Voigt Hill
#
# Bulk Modulus (GPa) = 30.19459 37.39278 33.79369
# Shear Modulus (GPa) = 32.83632 38.04704 35.44168
#
# Velocity S-wave (km/s) = 3.70542 3.98860 3.84962
# Velocity P-wave (km/s) = 5.56169 6.07020 5.82150
#
# Compressibility (1/GPa) = 0.03311852
#
# Stress axis : x y z
#
# Youngs Moduli (GPa) = 111.81178 53.82265 59.58637
#
# Poissons Ratio (x) = 0.19810 0.08940
# Poissons Ratio (y) = 0.41154 0.02458
# Poissons Ratio (z) = 0.16776 0.02220
#
# Static dielectric constant tensor:
#      x y z
#    x 1.846220 0.038260 -0.054370 
#    y 0.038260 2.006690 0.081610 
#    z -0.054370 0.081610 2.096120 
# 
# From -- ./inp_files/299075.got.cif
#   From: 2010.05.17/outbox.cif.g08.bks.cpg/sg2_150_cif.got.tgz:299075.got - 2010.06.03 11:33:40.
