data_PCOD9058571
_publ_section_title
;
Structure prediction by ZEFSAII (Michael W. Deem and Ramdas Pophale) SiO2 
 PCOD9058571
Probable space group: P -1
;
_chemical_formula_sum "Si O2"
_cell_formula_units_Z 16
_cell_length_a 19.122271
_cell_length_b 11.796976
_cell_length_c 8.951688
_cell_angle_alpha 31.865054
_cell_angle_beta 128.130981
_cell_angle_gamma 139.299492
_cell_volume 693.137171
_symmetry_space_group_name_H-M "P -1"
_symmetry_group_IT_number 2
_symmetry_cell_setting 'triclinic'
loop_
_space_group_symop_operation_xyz
x,y,z
-x,-y,-z
loop_
_atom_site_type_symbol
_atom_site_label
_atom_site_fract_x
_atom_site_fract_y
_atom_site_fract_z
Si Si1 0.259341 0.882583 0.174570
Si Si2 0.052849 0.777893 0.181063
Si Si3 0.912371 0.839924 0.690688
Si Si4 0.587146 0.515221 0.267032
Si Si5 0.349583 0.635360 0.772406
Si Si6 0.285562 0.655924 0.176317
Si Si7 0.617923 0.991821 0.362714
Si Si8 0.807184 0.928588 0.691288
O O1 0.359814 0.179458 0.997970
O O2 0.150896 0.847847 0.123404
O O3 0.278759 0.701944 0.505654
O O4 0.253446 0.794813 0.096183
O O5 0.000000 0.500000 0.500000
O O6 0.109288 0.978616 0.167061
O O7 0.967313 0.786838 0.958863
O O8 0.815542 0.574528 0.788118
O O9 0.865347 0.989583 0.540688
O O10 0.000000 0.000000 0.500000
O O11 0.590394 0.430580 0.196140
O O12 0.662907 0.465178 0.523494
O O13 0.469789 0.315153 0.403749
O O14 0.413332 0.875871 0.700561
O O15 0.273627 0.381116 0.054954
O O16 0.369879 0.870655 0.931103
O O17 0.734373 0.041423 0.490601
#
# Coordination Sequence:
#
# PCOD9058571 Si02
#       8
#     2   2   2   2   2   2   2   2
#     4  11  25  45  71 104 143 181 237 291 346 425
#     4  12  25  47  75 103 139 190 238 294 366 415
#     4  12  28  46  74 103 139 190 238 295 359 414
#     4  11  25  46  73 103 143 188 230 290 355 416
#     4  11  22  46  72 103 146 175 234 290 347 409
#     4  11  27  46  67 103 147 179 237 291 345 430
#     4  12  25  45  74 105 140 189 233 284 360 424
#     4  12  26  47  73 105 146 179 238 300 345 428
#
# _framework density 23.083454
#
# number of rings (size 3 to 8) (size 9 to 14) (size 15 to 20)
#    0.000    0.500    3.750    3.375    7.000    5.000 
#    0.000    0.000    0.000    0.000    0.000    0.000 
#    0.000    0.000    0.000    0.000    0.000    0.000 
#
# Total GULP energy -89644.355723 kJ/mol
# GULP energy per Si atom -5602.772233 kJ/mol
# Density = 2.303092 g / cm^3
# Si number density = 23.083454 Si / 1000 Ang^3
#
#
#
# Elastic Constant Matrix: (Units=GPa)
#
#
# Indices 1 2 3 4 5 6 
#
# 1 127.9640 59.4490 15.1661 1.0282 -13.7987 -20.0083
# 2 59.4490 109.6443 16.2123 -6.7233 -1.9036 -9.5410
# 3 15.1661 16.2123 87.1135 4.4284 -5.1253 3.9212
# 4 1.0282 -6.7233 4.4284 24.5486 0.5990 -5.7299
# 5 -13.7987 -1.9036 -5.1253 0.5990 30.5682 -2.4514
# 6 -20.0083 -9.5410 3.9212 -5.7299 -2.4514 40.4022
#
#
#
# Elastic Compliance Matrix: (Units=1/GPa)
#
#
# Indices 1 2 3 4 5 6 
#
# 1 0.012003 -0.005934 -0.000839 -0.000984 0.005313 0.004807
# 2 -0.005934 0.012889 -0.001748 0.004324 -0.002193 0.000755
# 3 -0.000839 -0.001748 0.012310 -0.003259 0.001448 -0.002398
# 4 -0.000984 0.004324 -0.003259 0.044222 -0.001022 0.007060
# 5 0.005313 -0.002193 0.001448 -0.001022 0.035558 0.003985
# 6 0.004807 0.000755 -0.002398 0.007060 0.003985 0.028786
#
#
# Mechanical properties :
#
#
# Convention : Reuss Voigt Hill
#
# Bulk Modulus (GPa) = 49.60596 56.26405 52.93501
# Shear Modulus (GPa) = 29.49328 34.69675 32.09502
#
# Velocity S-wave (km/s) = 3.57834 3.88119 3.73284
# Velocity P-wave (km/s) = 6.21363 6.67173 6.44675
#
# Compressibility (1/GPa) = 0.02015887
#
# Stress axis : x y z
#
# Youngs Moduli (GPa) = 83.30967 77.58530 81.23766
#
# Poissons Ratio (x) = 0.46038 0.06817
# Poissons Ratio (y) = 0.49435 0.14204
# Poissons Ratio (z) = 0.06991 0.13566
#
# Static dielectric constant tensor:
#      x y z
#    x 1.865300 0.000490 0.024350 
#    y 0.000490 1.857780 -0.004330 
#    z 0.024350 -0.004330 1.840010 
# 
# From -- ./inp_files/109512.got.cif
#   From: 2010.05.17/outbox.cif.g08.bks.cpg/sg2_55_cif.got.tgz:109512.got - 2010.06.03 11:33:40.
