data_PCOD9058886
_publ_section_title
;
Structure prediction by ZEFSAII (Michael W. Deem and Ramdas Pophale) SiO2 
 PCOD9058886
Probable space group: P -1
;
_chemical_formula_sum "Si O2"
_cell_formula_units_Z 14
_cell_length_a 8.668548
_cell_length_b 9.539887
_cell_length_c 10.564804
_cell_angle_alpha 72.816920
_cell_angle_beta 134.956863
_cell_angle_gamma 116.913347
_cell_volume 550.874611
_symmetry_space_group_name_H-M "P -1"
_symmetry_group_IT_number 2
_symmetry_cell_setting 'triclinic'
loop_
_space_group_symop_operation_xyz
x,y,z
-x,-y,-z
loop_
_atom_site_type_symbol
_atom_site_label
_atom_site_fract_x
_atom_site_fract_y
_atom_site_fract_z
Si Si1 0.297825 0.657494 0.344501
Si Si2 0.795580 0.931903 0.797632
Si Si3 0.544056 0.650038 0.069985
Si Si4 0.799995 0.702609 0.681173
Si Si5 0.721789 0.228551 0.954748
Si Si6 0.922336 0.203929 0.601371
Si Si7 0.413208 0.907383 0.769009
O O1 0.582343 0.729831 0.477141
O O2 0.227613 0.471803 0.330898
O O3 0.188548 0.722280 0.148060
O O4 0.204463 0.702539 0.409947
O O5 0.743288 0.751996 0.776268
O O6 0.566796 0.948447 0.718295
O O7 0.870829 0.038943 0.688191
O O8 0.000000 0.000000 0.000000
O O9 0.503925 0.785752 0.925974
O O10 0.500000 0.500000 0.000000
O O11 0.359250 0.633832 0.078074
O O12 0.803103 0.703474 0.258752
O O13 0.082814 0.790971 0.833212
O O14 0.497674 0.068734 0.852433
O O15 0.840288 0.172694 0.417039
#
# Coordination Sequence:
#
# PCOD9058886 Si02
#       7
#     2   2   2   2   2   2   2
#     4  11  24  39  68 101 131 171 221 277 330 385
#     4  12  20  40  72 103 130 167 219 286 330 382
#     4  12  30  46  66  96 139 185 220 265 335 403
#     4  11  23  38  65 100 134 167 219 275 332 381
#     4  12  25  44  66  96 136 175 221 270 330 396
#     4  12  24  45  72 102 131 174 224 278 331 394
#     4  12  25  43  72  98 134 173 226 275 334 390
#
# _framework density 25.414131999999999
#
# number of rings (size 3 to 8) (size 9 to 14) (size 15 to 20)
#    0.000    0.286    5.714    3.000    2.000    2.286 
#    0.000    0.000    0.000    0.000    0.000    0.000 
#    0.000    0.000    0.000    0.000    0.000    0.000 
#
# Total GULP energy -78267.261945 kJ/mol
# GULP energy per Si atom -5590.518710 kJ/mol
# Density = 2.535629 g / cm^3
# Si number density = 25.414132 Si / 1000 Ang^3
#
#
#
# Elastic Constant Matrix: (Units=GPa)
#
#
# Indices 1 2 3 4 5 6 
#
# 1 54.4761 6.2574 28.1634 2.3657 -1.9741 -28.0825
# 2 6.2574 108.3985 44.6208 14.0892 -3.3042 -46.0976
# 3 28.1634 44.6208 214.1551 22.6285 12.1100 -10.4745
# 4 2.3657 14.0892 22.6285 39.2959 -2.0415 -1.4437
# 5 -1.9741 -3.3042 12.1100 -2.0415 46.7577 2.4097
# 6 -28.0825 -46.0976 -10.4745 -1.4437 2.4097 39.5336
#
#
#
# Elastic Compliance Matrix: (Units=1/GPa)
#
#
# Indices 1 2 3 4 5 6 
#
# 1 0.071171 0.044295 -0.013087 -0.008812 0.004081 0.098168
# 2 0.044295 0.048654 -0.010890 -0.010556 0.003302 0.084725
# 3 -0.013087 -0.010890 0.007901 -0.000708 -0.002380 -0.019782
# 4 -0.008812 -0.010556 -0.000708 0.029585 0.001272 -0.017752
# 5 0.004081 0.003302 -0.002380 0.001272 0.022216 0.004810
# 6 0.098168 0.084725 -0.019782 -0.017752 0.004810 0.187638
#
#
# Mechanical properties :
#
#
# Convention : Reuss Voigt Hill
#
# Bulk Modulus (GPa) = 5.93956 59.45699 32.69828
# Shear Modulus (GPa) = 13.06677 44.98332 29.02504
#
# Velocity S-wave (km/s) = 2.26996 4.21172 3.38314
# Velocity P-wave (km/s) = 3.03520 6.86276 5.30612
#
# Compressibility (1/GPa) = 0.16836273
#
# Stress axis : x y z
#
# Youngs Moduli (GPa) = 14.05069 20.55336 126.55885
#
# Poissons Ratio (x) = -0.91042 1.65629
# Poissons Ratio (y) = -0.62238 1.37823
# Poissons Ratio (z) = 0.18388 0.22383
#
# Static dielectric constant tensor:
#      x y z
#    x 2.083250 0.013340 0.015960 
#    y 0.013340 1.995490 0.026660 
#    z 0.015960 0.026660 2.041620 
# 
# From -- ./inp_files/243458.got.cif
#   From: 2010.05.17/outbox.cif.g08.bks.cpg/sg2_122_cif.got.tgz:243458.got - 2010.06.03 11:33:40.
