data_PCOD9058291
_publ_section_title
;
Structure prediction by ZEFSAII (Michael W. Deem and Ramdas Pophale) SiO2 
 PCOD9058291
Probable space group: P -1
;
_chemical_formula_sum "Si O2"
_cell_formula_units_Z 16
_cell_length_a 11.059840
_cell_length_b 20.997427
_cell_length_c 9.231376
_cell_angle_alpha 29.207857
_cell_angle_beta 48.355959
_cell_angle_gamma 37.488727
_cell_volume 633.822631
_symmetry_space_group_name_H-M "P -1"
_symmetry_group_IT_number 2
_symmetry_cell_setting 'triclinic'
loop_
_space_group_symop_operation_xyz
x,y,z
-x,-y,-z
loop_
_atom_site_type_symbol
_atom_site_label
_atom_site_fract_x
_atom_site_fract_y
_atom_site_fract_z
Si Si1 0.193665 0.983622 0.677356
Si Si2 0.495078 0.496391 0.684682
Si Si3 0.183600 0.282158 0.135369
Si Si4 0.400180 0.832652 0.110453
Si Si5 0.169546 0.986661 0.249140
Si Si6 0.129256 0.473198 0.309282
Si Si7 0.831652 0.280719 0.064361
Si Si8 0.377108 0.265734 0.303658
O O1 0.399738 0.883596 0.619851
O O2 0.252143 0.913877 0.931129
O O3 0.022229 0.976318 0.761834
O O4 0.120269 0.165652 0.383118
O O5 0.500000 0.500000 0.500000
O O6 0.414960 0.672539 0.453827
O O7 0.709429 0.372740 0.834217
O O8 0.374525 0.423163 0.963031
O O9 0.389823 0.217315 0.018059
O O10 0.021815 0.451223 0.856192
O O11 0.234120 0.269622 0.289226
O O12 0.329494 0.945321 0.082781
O O13 0.234777 0.827897 0.602907
O O14 0.067339 0.146462 0.110253
O O15 0.300995 0.294640 0.471566
O O16 0.000000 0.500000 0.500000
O O17 0.208061 0.580391 0.073147
#
# Coordination Sequence:
#
# PCOD9058291 Si02
#       8
#     2   2   2   2   2   2   2   2
#     4  11  22  45  68 101 138 179 233 280 343 403
#     4  12  22  42  71 102 135 173 233 287 342 409
#     4  11  24  46  67 100 141 182 228 283 342 412
#     4  11  23  40  70 102 132 180 233 283 333 410
#     4  11  23  45  67 100 139 182 230 284 340 407
#     4  12  27  45  66 101 140 185 231 281 347 414
#     4  11  25  45  66  98 141 179 225 288 343 403
#     4  11  24  44  70  99 137 183 227 288 340 405
#
# _framework density 25.243656000000001
#
# number of rings (size 3 to 8) (size 9 to 14) (size 15 to 20)
#    0.000    0.750    5.000    3.750    0.000    5.000 
#    0.000    1.250    0.000    0.000    0.000    0.000 
#    0.000    0.000    0.000    0.000    0.000    0.000 
#
# Total GULP energy -89622.128326 kJ/mol
# GULP energy per Si atom -5601.383020 kJ/mol
# Density = 2.518620 g / cm^3
# Si number density = 25.243656 Si / 1000 Ang^3
#
#
#
# Elastic Constant Matrix: (Units=GPa)
#
#
# Indices 1 2 3 4 5 6 
#
# 1 76.2436 9.4729 3.8566 -4.2834 19.6931 6.2187
# 2 9.4729 149.3130 12.8842 11.1017 13.6564 32.4143
# 3 3.8566 12.8842 59.0680 -4.3024 15.6326 -3.8781
# 4 -4.2834 11.1017 -4.3024 28.2675 1.9211 -2.3455
# 5 19.6931 13.6564 15.6326 1.9211 43.1570 -7.6144
# 6 6.2187 32.4143 -3.8781 -2.3455 -7.6144 32.5472
#
#
#
# Elastic Compliance Matrix: (Units=1/GPa)
#
#
# Indices 1 2 3 4 5 6 
#
# 1 0.015868 0.000762 0.000967 0.002395 -0.008925 -0.005591
# 2 0.000762 0.010258 -0.002193 -0.004929 -0.004711 -0.012081
# 3 0.000967 -0.002193 0.019616 0.004697 -0.006506 0.003153
# 4 0.002395 -0.004929 0.004697 0.039121 -0.001663 0.007441
# 5 -0.008925 -0.004711 -0.006506 -0.001663 0.033520 0.013344
# 6 -0.005591 -0.012081 0.003153 0.007441 0.013344 0.047858
#
#
# Mechanical properties :
#
#
# Convention : Reuss Voigt Hill
#
# Bulk Modulus (GPa) = 22.31402 37.45021 29.88212
# Shear Modulus (GPa) = 27.45660 38.02172 32.73916
#
# Velocity S-wave (km/s) = 3.30155 3.88518 3.60519
# Velocity P-wave (km/s) = 4.83656 5.91556 5.40306
#
# Compressibility (1/GPa) = 0.04481487
#
# Stress axis : x y z
#
# Youngs Moduli (GPa) = 63.01923 97.48303 50.97983
#
# Poissons Ratio (x) = -0.07425 -0.04931
# Poissons Ratio (y) = -0.04800 0.11178
# Poissons Ratio (z) = -0.06096 0.21374
#
# Static dielectric constant tensor:
#      x y z
#    x 1.984600 -0.013990 -0.001000 
#    y -0.013990 2.062770 0.026750 
#    z -0.001000 0.026750 2.005370 
# 
# From -- ./inp_files/282605.got.cif
#   From: 2010.05.17/outbox.cif.g08.bks.cpg/sg2_142_cif.got.tgz:282605.got - 2010.06.03 11:33:40.
