data_PCOD9058498
_publ_section_title
;
Structure prediction by ZEFSAII (Michael W. Deem and Ramdas Pophale) SiO2 
 PCOD9058498
Probable space group: P -1
;
_chemical_formula_sum "Si O2"
_cell_formula_units_Z 10
_cell_length_a 6.266774
_cell_length_b 9.471352
_cell_length_c 12.261431
_cell_angle_alpha 59.594958
_cell_angle_beta 54.783213
_cell_angle_gamma 94.724277
_cell_volume 434.503018
_symmetry_space_group_name_H-M "P -1"
_symmetry_group_IT_number 2
_symmetry_cell_setting 'triclinic'
loop_
_space_group_symop_operation_xyz
x,y,z
-x,-y,-z
loop_
_atom_site_type_symbol
_atom_site_label
_atom_site_fract_x
_atom_site_fract_y
_atom_site_fract_z
Si Si1 0.843614 0.031849 0.637245
Si Si2 0.805202 0.669754 0.139299
Si Si3 0.147220 0.957245 0.125594
Si Si4 0.313822 0.609438 0.027378
Si Si5 0.880010 0.558572 0.614027
O O1 0.986565 0.094151 0.692561
O O2 0.850555 0.222417 0.525226
O O3 0.000000 0.000000 0.500000
O O4 0.545915 0.828566 0.834886
O O5 0.455573 0.492775 0.306334
O O6 0.934296 0.786985 0.169841
O O7 0.003039 0.579394 0.078383
O O8 0.837739 0.845350 0.987594
O O9 0.500000 0.000000 0.000000
O O10 0.205746 0.562484 0.202993
O O11 0.500000 0.500000 0.000000
O O12 0.000000 0.500000 0.500000
#
# Coordination Sequence:
#
# PCOD9058498 Si02
#       5
#     2   2   2   2   2
#     4  12  25  48  73 106 152 199 241 311 371 437
#     4  11  24  45  81 107 146 202 248 301 393 426
#     4  11  22  45  78 105 144 193 249 311 365 443
#     4  12  26  51  71 106 161 197 244 315 366 447
#     4  12  27  46  78 113 148 191 256 315 369 447
#
# _framework density 23.014800999999999
#
# number of rings (size 3 to 8) (size 9 to 14) (size 15 to 20)
#    0.000    0.400    6.000    2.400    2.800    4.000 
#    0.000    2.000    0.000    0.000    0.000    0.000 
#    0.000    0.000    0.000    0.000    0.000    0.000 
#
# Total GULP energy -55688.089480 kJ/mol
# GULP energy per Si atom -5568.808948 kJ/mol
# Density = 2.296242 g / cm^3
# Si number density = 23.014801 Si / 1000 Ang^3
#
#
#
# Elastic Constant Matrix: (Units=GPa)
#
#
# Indices 1 2 3 4 5 6 
#
# 1 100.0461 30.0260 46.8351 11.2432 -6.2450 -27.4458
# 2 30.0260 104.4360 58.9881 18.3309 4.1189 -25.2420
# 3 46.8351 58.9881 189.5819 9.6856 16.1940 -4.9198
# 4 11.2432 18.3309 9.6856 50.0690 21.5720 3.1029
# 5 -6.2450 4.1189 16.1940 21.5720 26.5007 18.2897
# 6 -27.4458 -25.2420 -4.9198 3.1029 18.2897 42.0490
#
#
#
# Elastic Compliance Matrix: (Units=1/GPa)
#
#
# Indices 1 2 3 4 5 6 
#
# 1 0.014557 0.000512 -0.003655 -0.005075 0.004262 0.007902
# 2 0.000512 0.015233 -0.003988 -0.003602 -0.004689 0.011317
# 3 -0.003655 -0.003988 0.007873 0.004281 -0.008083 -0.000659
# 4 -0.005075 -0.003602 0.004281 0.039290 -0.042585 0.010650
# 5 0.004262 -0.004689 -0.008083 -0.042585 0.110857 -0.046055
# 6 0.007902 0.011317 -0.000659 0.010650 -0.046055 0.054902
#
#
# Mechanical properties :
#
#
# Convention : Reuss Voigt Hill
#
# Bulk Modulus (GPa) = 42.73397 73.97362 58.35379
# Shear Modulus (GPa) = 18.88390 40.93806 29.91098
#
# Velocity S-wave (km/s) = 2.86756 4.22212 3.60896
# Velocity P-wave (km/s) = 5.43804 7.48198 6.54034
#
# Compressibility (1/GPa) = 0.02340059
#
# Stress axis : x y z
#
# Youngs Moduli (GPa) = 68.69542 65.64692 127.01241
#
# Poissons Ratio (x) = -0.03360 0.46426
# Poissons Ratio (y) = -0.03516 0.50652
# Poissons Ratio (z) = 0.25110 0.26180
#
# Static dielectric constant tensor:
#      x y z
#    x 1.992130 -0.036140 0.038380 
#    y -0.036140 1.950880 -0.058820 
#    z 0.038380 -0.058820 1.924950 
# 
# From -- ./inp_files/22259.got.cif
#   From: 2010.05.17/outbox.cif.g08.bks.cpg/sg2_12_cif.got.tgz:22259.got - 2010.06.03 11:33:40.
