data_PCOD9058072
_publ_section_title
;
Structure prediction by ZEFSAII (Michael W. Deem and Ramdas Pophale) SiO2 
 PCOD9058072
Probable space group: P -1
;
_chemical_formula_sum "Si O2"
_cell_formula_units_Z 14
_cell_length_a 14.429871
_cell_length_b 11.245700
_cell_length_c 5.403751
_cell_angle_alpha 58.812442
_cell_angle_beta 107.858106
_cell_angle_gamma 130.483847
_cell_volume 569.973316
_symmetry_space_group_name_H-M "P -1"
_symmetry_group_IT_number 2
_symmetry_cell_setting 'triclinic'
loop_
_space_group_symop_operation_xyz
x,y,z
-x,-y,-z
loop_
_atom_site_type_symbol
_atom_site_label
_atom_site_fract_x
_atom_site_fract_y
_atom_site_fract_z
Si Si1 0.071630 0.663684 0.559593
Si Si2 0.304875 0.971539 0.125742
Si Si3 0.429915 0.299141 0.222673
Si Si4 0.641010 0.295731 0.588793
Si Si5 0.793413 0.468136 0.020295
Si Si6 0.201978 0.101820 0.567297
Si Si7 0.061065 0.201480 0.482952
O O1 0.128422 0.606710 0.867623
O O2 0.000000 0.500000 0.500000
O O3 0.971285 0.692466 0.501296
O O4 0.190410 0.837591 0.352129
O O5 0.386861 0.162584 0.109581
O O6 0.372352 0.883859 0.227905
O O7 0.242457 0.987085 0.820573
O O8 0.516368 0.272890 0.482701
O O9 0.311336 0.244274 0.335391
O O10 0.500000 0.500000 0.000000
O O11 0.720660 0.397189 0.296129
O O12 0.705031 0.396334 0.787573
O O13 0.882872 0.677420 0.847995
O O14 0.163142 0.177585 0.668367
O O15 0.072785 0.978897 0.458585
#
# Coordination Sequence:
#
# PCOD9058072 Si02
#       7
#     2   2   2   2   2   2   2
#     4  11  22  44  76 115 153 196 246 315 378 459
#     4  11  25  46  72 109 144 193 255 311 378 449
#     4  12  28  50  73 103 149 200 258 312 379 448
#     4  11  27  47  80 110 152 199 254 316 378 450
#     4  11  24  45  76 115 150 195 252 308 384 447
#     4  11  26  44  72 104 147 198 248 313 382 455
#     4  11  22  44  70 108 152 193 248 306 386 455
#
# _framework density 24.562553000000001
#
# number of rings (size 3 to 8) (size 9 to 14) (size 15 to 20)
#    0.000    0.857    1.429    5.143    6.000    1.714 
#    2.571    0.000    0.000    0.000    0.000    0.000 
#    0.000    0.000    0.000    0.000    0.000    0.000 
#
# Total GULP energy -78321.120066 kJ/mol
# GULP energy per Si atom -5594.365719 kJ/mol
# Density = 2.450665 g / cm^3
# Si number density = 24.562553 Si / 1000 Ang^3
#
#
#
# Elastic Constant Matrix: (Units=GPa)
#
#
# Indices 1 2 3 4 5 6 
#
# 1 178.1806 60.8206 47.7953 -11.8890 14.6605 3.1055
# 2 60.8206 116.9203 49.6859 -23.9589 4.0769 5.1428
# 3 47.7953 49.6859 90.2725 -22.2877 2.3092 3.9636
# 4 -11.8890 -23.9589 -22.2877 49.5229 -3.0450 3.7833
# 5 14.6605 4.0769 2.3092 -3.0450 33.1113 -7.4040
# 6 3.1055 5.1428 3.9636 3.7833 -7.4040 29.1387
#
#
#
# Elastic Compliance Matrix: (Units=1/GPa)
#
#
# Indices 1 2 3 4 5 6 
#
# 1 0.007455 -0.002870 -0.002475 -0.000850 -0.002987 -0.000600
# 2 -0.002870 0.012800 -0.004559 0.003587 -0.000063 -0.001815
# 3 -0.002475 -0.004559 0.016085 0.004596 0.000609 -0.001562
# 4 -0.000850 0.003587 0.004596 0.024160 0.000926 -0.004069
# 5 -0.002987 -0.000063 0.000609 0.000926 0.033506 0.008640
# 6 -0.000600 -0.001815 -0.001562 -0.004069 0.008640 0.037639
#
#
# Mechanical properties :
#
#
# Convention : Reuss Voigt Hill
#
# Bulk Modulus (GPa) = 60.48545 77.99744 69.24145
# Shear Modulus (GPa) = 31.85444 37.49267 34.67356
#
# Velocity S-wave (km/s) = 3.60512 3.91118 3.76126
# Velocity P-wave (km/s) = 6.48133 7.22634 6.86395
#
# Compressibility (1/GPa) = 0.01653290
#
# Stress axis : x y z
#
# Youngs Moduli (GPa) = 134.13194 78.12404 62.17120
#
# Poissons Ratio (x) = 0.22424 0.15385
# Poissons Ratio (y) = 0.38499 0.28342
# Poissons Ratio (z) = 0.33193 0.35614
#
# Static dielectric constant tensor:
#      x y z
#    x 1.948230 -0.079370 0.035620 
#    y -0.079370 2.031950 0.023320 
#    z 0.035620 0.023320 1.978710 
# 
# From -- ./inp_files/94340.got.cif
#   From: 2010.05.17/outbox.cif.g08.bks.cpg/sg2_48_cif.got.tgz:94340.got - 2010.06.03 11:33:40.
