data_PCOD9058301
_publ_section_title
;
Structure prediction by ZEFSAII (Michael W. Deem and Ramdas Pophale) SiO2 
 PCOD9058301
Probable space group: P -1
;
_chemical_formula_sum "Si O2"
_cell_formula_units_Z 16
_cell_length_a 10.260096
_cell_length_b 24.281123
_cell_length_c 20.065980
_cell_angle_alpha 15.275880
_cell_angle_beta 32.321513
_cell_angle_gamma 33.153889
_cell_volume 695.552396
_symmetry_space_group_name_H-M "P -1"
_symmetry_group_IT_number 2
_symmetry_cell_setting 'triclinic'
loop_
_space_group_symop_operation_xyz
x,y,z
-x,-y,-z
loop_
_atom_site_type_symbol
_atom_site_label
_atom_site_fract_x
_atom_site_fract_y
_atom_site_fract_z
Si Si1 0.034233 0.540522 0.729655
Si Si2 0.494175 0.182520 0.344116
Si Si3 0.738688 0.065156 0.001265
Si Si4 0.752849 0.915139 0.026468
Si Si5 0.877715 0.366876 0.876930
Si Si6 0.512072 0.524097 0.616456
Si Si7 0.161118 0.810979 0.690906
Si Si8 0.515095 0.648274 0.614781
O O1 0.782916 0.704863 0.654080
O O2 0.064252 0.472421 0.719159
O O3 0.272859 0.615575 0.569792
O O4 0.000662 0.329941 0.032075
O O5 0.640792 0.117664 0.425418
O O6 0.500000 0.000000 0.500000
O O7 0.654882 0.341758 0.052968
O O8 0.613355 0.291201 0.818507
O O9 0.783760 0.053460 0.916144
O O10 0.569178 0.884774 0.300235
O O11 0.000000 0.000000 0.000000
O O12 0.714731 0.679267 0.342037
O O13 0.988193 0.859894 0.941720
O O14 0.500000 0.000000 0.000000
O O15 0.759858 0.512361 0.698417
O O16 0.442481 0.536489 0.709877
O O17 0.309409 0.666323 0.739225
O O18 0.000000 0.000000 0.500000
#
# Coordination Sequence:
#
# PCOD9058301 Si02
#       8
#     2   2   2   2   2   2   2   2
#     4  11  23  45  66  94 137 172 216 275 327 399
#     4  11  25  42  66 100 133 172 222 273 333 392
#     4  11  24  44  66  98 133 170 223 277 332 388
#     4  11  26  43  67  97 130 173 223 274 329 391
#     4  11  22  45  68  90 131 175 219 272 330 396
#     4  11  26  43  66 100 134 173 221 275 331 392
#     4  11  23  42  66  97 132 174 220 271 330 394
#     4  11  23  43  67  96 134 172 218 271 333 392
#
# _framework density 23.003298000000001
#
# number of rings (size 3 to 8) (size 9 to 14) (size 15 to 20)
#    0.000    1.000    2.500    3.750    3.500   10.500 
#    0.000    0.000    0.000    0.000    0.000    0.000 
#    0.000    0.000    0.000    0.000    0.000    0.000 
#
# Total GULP energy -89573.455430 kJ/mol
# GULP energy per Si atom -5598.340964 kJ/mol
# Density = 2.295094 g / cm^3
# Si number density = 23.003298 Si / 1000 Ang^3
#
#
#
# Elastic Constant Matrix: (Units=GPa)
#
#
# Indices 1 2 3 4 5 6 
#
# 1 188.9561 60.8808 24.0906 -27.6962 0.3215 17.6197
# 2 60.8808 106.6997 11.7801 -35.1525 -3.3521 8.1175
# 3 24.0906 11.7801 68.6315 -24.1439 -8.7989 -0.8385
# 4 -27.6962 -35.1525 -24.1439 37.2923 -1.7794 -5.4655
# 5 0.3215 -3.3521 -8.7989 -1.7794 35.6756 -12.6648
# 6 17.6197 8.1175 -0.8385 -5.4655 -12.6648 45.2635
#
#
#
# Elastic Compliance Matrix: (Units=1/GPa)
#
#
# Indices 1 2 3 4 5 6 
#
# 1 0.006968 -0.003634 -0.002132 -0.000106 -0.001871 -0.002637
# 2 -0.003634 0.016225 0.004695 0.016078 0.004115 0.001684
# 3 -0.002132 0.004695 0.022119 0.018309 0.008610 0.005017
# 4 -0.000106 0.016078 0.018309 0.055371 0.011407 0.007375
# 5 -0.001871 0.004115 0.008610 0.011407 0.035161 0.011365
# 6 -0.002637 0.001684 0.005017 0.007375 0.011365 0.026981
#
#
# Mechanical properties :
#
#
# Convention : Reuss Voigt Hill
#
# Bulk Modulus (GPa) = 23.16319 61.97671 42.56995
# Shear Modulus (GPa) = 27.87738 41.48200 34.67969
#
# Velocity S-wave (km/s) = 3.48499 4.25114 3.88699
# Velocity P-wave (km/s) = 5.12688 7.14824 6.22022
#
# Compressibility (1/GPa) = 0.04317194
#
# Stress axis : x y z
#
# Youngs Moduli (GPa) = 143.50702 61.63230 45.20996
#
# Poissons Ratio (x) = 0.22395 0.09637
# Poissons Ratio (y) = 0.52146 -0.21226
# Poissons Ratio (z) = 0.30590 -0.28936
#
# Static dielectric constant tensor:
#      x y z
#    x 1.846520 -0.024770 -0.018790 
#    y -0.024770 2.083140 0.072010 
#    z -0.018790 0.072010 1.960400 
# 
# From -- ./inp_files/226548.got.cif
#   From: 2010.05.17/outbox.cif.g08.bks.cpg/sg2_114_cif.got.tgz:226548.got - 2010.06.03 11:33:40.
