data_PCOD9058684
_publ_section_title
;
Structure prediction by ZEFSAII (Michael W. Deem and Ramdas Pophale) SiO2 
 PCOD9058684
Probable space group: P -1
;
_chemical_formula_sum "Si O2"
_cell_formula_units_Z 15
_cell_length_a 7.716747
_cell_length_b 11.871463
_cell_length_c 15.197545
_cell_angle_alpha 54.581158
_cell_angle_beta 126.440500
_cell_angle_gamma 82.652760
_cell_volume 633.277367
_symmetry_space_group_name_H-M "P -1"
_symmetry_group_IT_number 2
_symmetry_cell_setting 'triclinic'
loop_
_space_group_symop_operation_xyz
x,y,z
-x,-y,-z
loop_
_atom_site_type_symbol
_atom_site_label
_atom_site_fract_x
_atom_site_fract_y
_atom_site_fract_z
Si Si1 0.240057 0.290979 0.215616
Si Si2 0.088754 0.233884 0.623121
Si Si3 0.482794 0.706262 0.255403
Si Si4 0.404155 0.279227 0.462421
Si Si5 0.160813 0.098631 0.519474
Si Si6 0.119189 0.954494 0.860559
Si Si7 0.500000 0.500000 0.500000
Si Si8 0.214858 0.727718 0.835686
O O1 0.376289 0.303050 0.337733
O O2 0.054629 0.244453 0.217604
O O3 0.509086 0.116943 0.310483
O O4 0.000000 0.500000 0.000000
O O5 0.363097 0.218205 0.707889
O O6 0.074994 0.142409 0.575659
O O7 0.771196 0.467516 0.431044
O O8 0.124533 0.117392 0.770821
O O9 0.338045 0.695825 0.299280
O O10 0.266615 0.831552 0.050198
O O11 0.190640 0.250765 0.440087
O O12 0.333925 0.453126 0.412717
O O13 0.760954 0.080270 0.681993
O O14 0.916119 0.154628 0.349327
O O15 0.298883 0.798389 0.904063
O O16 0.500000 0.500000 0.000000
#
# Coordination Sequence:
#
# PCOD9058684 Si02
#       8
#     2   2   2   2   2   2   1   2
#     4  11  25  44  69 100 146 184 235 301 357 421
#     4  11  25  46  68 102 147 186 235 297 360 418
#     4  11  26  46  69 105 142 186 238 302 352 423
#     4  11  23  46  67 101 138 187 239 294 349 423
#     4  11  22  47  69  97 145 186 232 298 356 424
#     4  12  24  45  71 100 144 185 243 291 355 430
#     4  12  24  46  74  98 136 184 242 290 352 426
#     4  11  24  42  68 105 135 184 240 294 359 424
#
# _framework density 23.686302999999999
#
# number of rings (size 3 to 8) (size 9 to 14) (size 15 to 20)
#    0.000    0.800    5.333    2.000    3.733    2.133 
#    2.400    0.000    0.000    0.000    0.000    0.000 
#    0.000    0.000    0.000    0.000    0.000    0.000 
#
# Total GULP energy -83732.266473 kJ/mol
# GULP energy per Si atom -5582.151098 kJ/mol
# Density = 2.363239 g / cm^3
# Si number density = 23.686303 Si / 1000 Ang^3
#
#
#
# Elastic Constant Matrix: (Units=GPa)
#
#
# Indices 1 2 3 4 5 6 
#
# 1 62.4913 40.9962 1.3289 -24.7823 -23.2214 14.4118
# 2 40.9962 123.1121 71.0761 34.8520 -12.3819 -5.3788
# 3 1.3289 71.0761 147.9145 -15.7764 -39.1291 -0.2244
# 4 -24.7823 34.8520 -15.7764 7.0429 -9.5970 6.6164
# 5 -23.2214 -12.3819 -39.1291 -9.5970 47.5218 -2.1455
# 6 14.4118 -5.3788 -0.2244 6.6164 -2.1455 39.2041
#
#
#
# Elastic Compliance Matrix: (Units=1/GPa)
#
#
# Indices 1 2 3 4 5 6 
#
# 1 0.006141 0.004531 -0.004473 -0.014877 -0.002474 0.000714
# 2 0.004531 0.003624 0.000883 0.010446 0.005878 -0.002605
# 3 -0.004473 0.000883 0.005770 -0.008688 0.001191 0.003330
# 4 -0.014877 0.010446 -0.008688 -0.005003 -0.012395 0.007019
# 5 -0.002474 0.005878 0.001191 -0.012395 0.020065 0.004913
# 6 0.000714 -0.002605 0.003330 0.007019 0.004913 0.023991
#
#
# Mechanical properties :
#
#
# Convention : Reuss Voigt Hill
#
# Bulk Modulus (GPa) = 57.41141 62.25782 59.83461
# Shear Modulus (GPa) = 85.45574 33.42820 59.44197
#
# Velocity S-wave (km/s) = 6.01302 3.76079 5.01498
# Velocity P-wave (km/s) = 8.51466 6.72305 7.67134
#
# Compressibility (1/GPa) = 0.01741814
#
# Stress axis : x y z
#
# Youngs Moduli (GPa) = 162.84812 275.94469 173.30896
#
# Poissons Ratio (x) = -1.25043 0.77517
# Poissons Ratio (y) = -0.73794 -0.15304
# Poissons Ratio (z) = 0.72838 -0.24367
#
# Static dielectric constant tensor:
#      x y z
#    x 2.031630 -0.003940 -0.050750 
#    y -0.003940 1.924100 0.004080 
#    z -0.050750 0.004080 1.863680 
# 
# From -- ./inp_files/499003.got.cif
#   From: 2010.05.17/outbox.cif.g08.bks.cpg/sg2_250_cif.got.tgz:499003.got - 2010.06.03 11:33:40.
