data_PCOD9058649
_publ_section_title
;
Structure prediction by ZEFSAII (Michael W. Deem and Ramdas Pophale) SiO2 
 PCOD9058649
Probable space group: P -1
;
_chemical_formula_sum "Si O2"
_cell_formula_units_Z 16
_cell_length_a 11.249454
_cell_length_b 10.687828
_cell_length_c 11.004827
_cell_angle_alpha 98.677004
_cell_angle_beta 37.235001
_cell_angle_gamma 121.112332
_cell_volume 592.462339
_symmetry_space_group_name_H-M "P -1"
_symmetry_group_IT_number 2
_symmetry_cell_setting 'triclinic'
loop_
_space_group_symop_operation_xyz
x,y,z
-x,-y,-z
loop_
_atom_site_type_symbol
_atom_site_label
_atom_site_fract_x
_atom_site_fract_y
_atom_site_fract_z
Si Si1 0.947150 0.744111 0.643488
Si Si2 0.848911 0.806064 0.131689
Si Si3 0.661186 0.159832 0.301884
Si Si4 0.990029 0.449174 0.238252
Si Si5 0.496079 0.216830 0.204058
Si Si6 0.555088 0.152544 0.873079
Si Si7 0.636239 0.440695 0.689936
Si Si8 0.024722 0.065628 0.697493
O O1 0.974827 0.656987 0.719289
O O2 0.207738 0.834629 0.362399
O O3 0.943311 0.882350 0.723606
O O4 0.698740 0.587081 0.745361
O O5 0.610388 0.669686 0.216473
O O6 0.799668 0.812947 0.314533
O O7 0.065267 0.790191 0.942683
O O8 0.000000 0.000000 0.000000
O O9 0.743818 0.317112 0.333651
O O10 0.518808 0.136311 0.291079
O O11 0.500000 0.000000 0.500000
O O12 0.896866 0.524800 0.410089
O O13 0.250407 0.585427 0.970821
O O14 0.530745 0.168452 0.037953
O O15 0.213230 0.162617 0.442223
O O16 0.609645 0.307402 0.780031
O O17 0.254331 0.986028 0.063835
#
# Coordination Sequence:
#
# PCOD9058649 Si02
#       8
#     2   2   2   2   2   2   2   2
#     4  11  24  49  82 113 153 209 254 315 386 459
#     4  12  25  48  74 112 153 195 261 323 366 464
#     4  12  28  47  79 110 148 215 263 310 392 462
#     4  11  22  46  77 111 150 205 254 316 389 455
#     4  12  25  49  72 110 163 199 249 322 394 452
#     4  11  24  48  77 111 156 202 256 321 380 457
#     4  11  22  46  80 109 153 196 260 311 384 454
#     4  12  28  45  77 117 157 202 263 312 382 460
#
# _framework density 27.005935000000001
#
# number of rings (size 3 to 8) (size 9 to 14) (size 15 to 20)
#    0.000    0.500    3.750    5.250    3.500    2.000 
#    2.250    3.125    0.000    0.000    0.000    0.000 
#    0.000    0.000    0.000    0.000    0.000    0.000 
#
# Total GULP energy -89743.791521 kJ/mol
# GULP energy per Si atom -5608.986970 kJ/mol
# Density = 2.694447 g / cm^3
# Si number density = 27.005935 Si / 1000 Ang^3
#
#
#
# Elastic Constant Matrix: (Units=GPa)
#
#
# Indices 1 2 3 4 5 6 
#
# 1 162.2601 56.8131 40.8787 -2.8862 -6.0960 38.1398
# 2 56.8131 92.2029 36.2940 7.0482 -4.6717 30.6355
# 3 40.8787 36.2940 192.6347 6.7884 -1.9925 9.5854
# 4 -2.8862 7.0482 6.7884 55.5280 4.3327 -3.3378
# 5 -6.0960 -4.6717 -1.9925 4.3327 51.4870 -5.0618
# 6 38.1398 30.6355 9.5854 -3.3378 -5.0618 53.7809
#
#
#
# Elastic Compliance Matrix: (Units=1/GPa)
#
#
# Indices 1 2 3 4 5 6 
#
# 1 0.008615 -0.003737 -0.000964 0.000799 0.000209 -0.003740
# 2 -0.003737 0.016201 -0.001852 -0.002448 0.000538 -0.006350
# 3 -0.000964 -0.001852 0.005727 -0.000477 0.000048 0.000693
# 4 0.000799 -0.002448 -0.000477 0.018654 -0.001526 0.001927
# 5 0.000209 0.000538 0.000048 -0.001526 0.019754 0.001302
# 6 -0.003740 -0.006350 0.000693 0.001927 0.001302 0.024982
#
#
# Mechanical properties :
#
#
# Convention : Reuss Voigt Hill
#
# Bulk Modulus (GPa) = 57.34298 79.45213 68.39756
# Shear Modulus (GPa) = 44.30526 53.03332 48.66929
#
# Velocity S-wave (km/s) = 4.05480 4.43625 4.24980
# Velocity P-wave (km/s) = 6.57278 7.46488 7.03299
#
# Compressibility (1/GPa) = 0.01743893
#
# Stress axis : x y z
#
# Youngs Moduli (GPa) = 116.07085 61.72317 174.59673
#
# Poissons Ratio (x) = 0.23066 0.16833
# Poissons Ratio (y) = 0.43375 0.32329
# Poissons Ratio (z) = 0.11190 0.11429
#
# Static dielectric constant tensor:
#      x y z
#    x 2.143420 0.007580 -0.003540 
#    y 0.007580 2.180980 0.013070 
#    z -0.003540 0.013070 2.094240 
# 
# From -- ./inp_files/531833.got.cif
#   From: 2010.05.17/outbox.cif.g08.bks.cpg/sg2_266_cif.got.tgz:531833.got - 2010.06.03 11:33:40.
