data_PCOD9058064
_publ_section_title
;
Structure prediction by ZEFSAII (Michael W. Deem and Ramdas Pophale) SiO2 
 PCOD9058064
Probable space group: P -1
;
_chemical_formula_sum "Si O2"
_cell_formula_units_Z 16
_cell_length_a 10.700963
_cell_length_b 9.211523
_cell_length_c 13.604820
_cell_angle_alpha 105.096021
_cell_angle_beta 147.761652
_cell_angle_gamma 73.609976
_cell_volume 685.685019
_symmetry_space_group_name_H-M "P -1"
_symmetry_group_IT_number 2
_symmetry_cell_setting 'triclinic'
loop_
_space_group_symop_operation_xyz
x,y,z
-x,-y,-z
loop_
_atom_site_type_symbol
_atom_site_label
_atom_site_fract_x
_atom_site_fract_y
_atom_site_fract_z
Si Si1 0.346996 0.241146 0.398255
Si Si2 0.856726 0.101431 0.035284
Si Si3 0.552457 0.726658 0.307489
Si Si4 0.914161 0.496205 0.829036
Si Si5 0.960521 0.917250 0.558909
Si Si6 0.127281 0.854265 0.279462
Si Si7 0.580141 0.163192 0.061729
Si Si8 0.380019 0.476335 0.021333
O O1 0.365132 0.302132 0.531664
O O2 0.305823 0.377805 0.316805
O O3 0.591658 0.132905 0.532528
O O4 0.112794 0.158340 0.219376
O O5 0.682138 0.165856 0.019496
O O6 0.699425 0.165406 0.849718
O O7 0.937908 0.925211 0.083258
O O8 0.528451 0.567406 0.211539
O O9 0.739815 0.824110 0.399185
O O10 0.870481 0.325149 0.748943
O O11 0.000000 0.500000 0.000000
O O12 0.115239 0.533409 0.891076
O O13 0.949714 0.044041 0.659012
O O14 0.000000 0.000000 0.500000
O O15 0.195786 0.807392 0.718920
O O16 0.384978 0.295115 0.989416
O O17 0.500000 0.000000 0.000000
O O18 0.500000 0.500000 0.000000
#
# Coordination Sequence:
#
# PCOD9058064 Si02
#       8
#     2   2   2   2   2   2   2   2
#     4  12  25  50  74 110 151 190 260 305 375 457
#     4  11  23  47  70 109 149 187 252 310 368 448
#     4  12  25  44  77 110 152 196 249 315 371 451
#     4  12  28  51  74 111 157 199 254 313 382 452
#     4  11  26  44  68 113 150 188 253 307 371 448
#     4  11  26  46  77 105 148 201 246 313 376 450
#     4  11  22  44  70 102 149 191 241 311 361 445
#     4  12  25  45  78 109 144 204 247 302 389 438
#
# _framework density 23.334330000000001
#
# number of rings (size 3 to 8) (size 9 to 14) (size 15 to 20)
#    0.000    0.500    5.000    3.750    1.750    4.000 
#    0.000    0.000    0.000    0.000    0.000    0.000 
#    0.000    0.000    0.000    0.000    0.000    0.000 
#
# Total GULP energy -89361.492669 kJ/mol
# GULP energy per Si atom -5585.093292 kJ/mol
# Density = 2.328122 g / cm^3
# Si number density = 23.334330 Si / 1000 Ang^3
#
#
#
# Elastic Constant Matrix: (Units=GPa)
#
#
# Indices 1 2 3 4 5 6 
#
# 1 75.0973 9.2971 16.2455 -5.0745 6.3628 -6.2985
# 2 9.2971 104.3597 17.2833 -4.5581 -0.6157 5.7288
# 3 16.2455 17.2833 113.3141 -11.8256 7.0676 9.3642
# 4 -5.0745 -4.5581 -11.8256 46.2106 5.9851 5.8578
# 5 6.3628 -0.6157 7.0676 5.9851 35.6076 -7.9480
# 6 -6.2985 5.7288 9.3642 5.8578 -7.9480 30.2664
#
#
#
# Elastic Compliance Matrix: (Units=1/GPa)
#
#
# Indices 1 2 3 4 5 6 
#
# 1 0.014338 -0.001104 -0.001977 0.000755 -0.001593 0.003240
# 2 -0.001104 0.010009 -0.001125 0.000819 0.000026 -0.001928
# 3 -0.001977 -0.001125 0.010243 0.003349 -0.003355 -0.004897
# 4 0.000755 0.000819 0.003349 0.024462 -0.006570 -0.007493
# 5 -0.001593 0.000026 -0.003355 -0.006570 0.032484 0.010504
# 6 0.003240 -0.001928 -0.004897 -0.007493 0.010504 0.039803
#
#
# Mechanical properties :
#
#
# Convention : Reuss Voigt Hill
#
# Bulk Modulus (GPa) = 38.19984 42.04697 40.12340
# Shear Modulus (GPa) = 33.67541 39.07994 36.37767
#
# Velocity S-wave (km/s) = 3.80303 4.09685 3.95267
# Velocity P-wave (km/s) = 5.97413 6.35904 6.16959
#
# Compressibility (1/GPa) = 0.02617812
#
# Stress axis : x y z
#
# Youngs Moduli (GPa) = 69.74420 99.91303 97.62334
#
# Poissons Ratio (x) = 0.11033 0.19298
# Poissons Ratio (y) = 0.07701 0.10983
# Poissons Ratio (z) = 0.13787 0.11241
#
# Static dielectric constant tensor:
#      x y z
#    x 1.940470 0.030600 0.005940 
#    y 0.030600 1.888910 -0.002080 
#    z 0.005940 -0.002080 1.904120 
# 
# From -- ./inp_files/516021.got.cif
#   From: 2010.05.17/outbox.cif.g08.bks.cpg/sg2_259_cif.got.tgz:516021.got - 2010.06.03 11:33:40.
