data_PCOD9058234
_publ_section_title
;
Structure prediction by ZEFSAII (Michael W. Deem and Ramdas Pophale) SiO2 
 PCOD9058234
Probable space group: P -1
;
_chemical_formula_sum "Si O2"
_cell_formula_units_Z 12
_cell_length_a 29.210047
_cell_length_b 14.890137
_cell_length_c 11.133826
_cell_angle_alpha 31.395257
_cell_angle_beta 21.634232
_cell_angle_gamma 19.074305
_cell_volume 570.821635
_symmetry_space_group_name_H-M "P -1"
_symmetry_group_IT_number 2
_symmetry_cell_setting 'triclinic'
loop_
_space_group_symop_operation_xyz
x,y,z
-x,-y,-z
loop_
_atom_site_type_symbol
_atom_site_label
_atom_site_fract_x
_atom_site_fract_y
_atom_site_fract_z
Si Si1 0.857817 0.244189 0.664485
Si Si2 0.626621 0.246330 0.387584
Si Si3 0.996686 0.683503 0.572451
Si Si4 0.417167 0.045495 0.310717
Si Si5 0.699740 0.781512 0.341712
Si Si6 0.177664 0.170829 0.419819
O O1 0.760014 0.522468 0.528597
O O2 0.979247 0.177069 0.561748
O O3 0.695352 0.290397 0.060568
O O4 0.000000 0.000000 0.500000
O O5 0.500000 0.500000 0.500000
O O6 0.532530 0.176833 0.637502
O O7 0.808819 0.975513 0.335578
O O8 0.876654 0.849334 0.553650
O O9 0.222222 0.358634 0.373490
O O10 0.875206 0.677493 0.955379
O O11 0.345665 0.072913 0.587984
O O12 0.607327 0.964810 0.953223
O O13 0.500000 0.000000 0.500000
O O14 0.000000 0.500000 0.500000
#
# Coordination Sequence:
#
# PCOD9058234 Si02
#       6
#     2   2   2   2   2   2
#     4  11  25  45  68 101 143 176 219 291 353 389
#     4  12  26  44  67 104 145 176 218 291 355 392
#     4  11  23  45  76  99 133 185 231 276 336 417
#     4  11  23  46  72  98 137 184 228 281 334 411
#     4  11  22  44  75  98 128 180 240 271 327 419
#     4  12  26  44  73 100 131 186 242 264 331 426
#
# _framework density 21.022327000000001
#
# number of rings (size 3 to 8) (size 9 to 14) (size 15 to 20)
#    0.000    0.667    3.333    6.500    2.333    0.667 
#    3.000    1.667    0.000    0.000    0.000    0.000 
#    0.000    0.000    0.000    0.000    0.000    0.000 
#
# Total GULP energy -67116.907858 kJ/mol
# GULP energy per Si atom -5593.075655 kJ/mol
# Density = 2.097448 g / cm^3
# Si number density = 21.022327 Si / 1000 Ang^3
#
#
#
# Elastic Constant Matrix: (Units=GPa)
#
#
# Indices 1 2 3 4 5 6 
#
# 1 126.5138 30.4224 2.8885 -1.4779 -21.5453 14.6599
# 2 30.4224 81.0729 7.9392 8.1893 -8.4296 20.8986
# 3 2.8885 7.9392 77.5585 15.9132 -7.8685 5.4470
# 4 -1.4779 8.1893 15.9132 31.4103 -1.6097 1.2294
# 5 -21.5453 -8.4296 -7.8685 -1.6097 42.3701 2.6212
# 6 14.6599 20.8986 5.4470 1.2294 2.6212 48.3132
#
#
#
# Elastic Compliance Matrix: (Units=1/GPa)
#
#
# Indices 1 2 3 4 5 6 
#
# 1 0.009588 -0.002765 0.000251 0.001357 0.004549 -0.002023
# 2 -0.002765 0.015466 -0.000103 -0.003785 0.001869 -0.005844
# 3 0.000251 -0.000103 0.014768 -0.007241 0.002677 -0.001657
# 4 0.001357 -0.003785 -0.007241 0.036508 -0.000090 0.001118
# 5 0.004549 0.001869 0.002677 -0.000090 0.027025 -0.003955
# 6 -0.002023 -0.005844 -0.001657 0.001118 -0.003955 0.024213
#
#
# Mechanical properties :
#
#
# Convention : Reuss Voigt Hill
#
# Bulk Modulus (GPa) = 28.91229 40.84947 34.88088
# Shear Modulus (GPa) = 34.64221 40.67840 37.66031
#
# Velocity S-wave (km/s) = 4.06381 4.40365 4.23714
# Velocity P-wave (km/s) = 5.98351 6.73274 6.36915
#
# Compressibility (1/GPa) = 0.03458736
#
# Stress axis : x y z
#
# Youngs Moduli (GPa) = 104.29211 64.65970 67.71176
#
# Poissons Ratio (x) = 0.17880 -0.01700
# Poissons Ratio (y) = 0.28840 0.00700
# Poissons Ratio (z) = -0.02618 0.00668
#
# Static dielectric constant tensor:
#      x y z
#    x 1.782750 0.014420 0.010260 
#    y 0.014420 1.734090 0.006430 
#    z 0.010260 0.006430 1.764970 
# 
# From -- ./inp_files/433406.got.cif
#   From: 2010.05.17/outbox.cif.g08.bks.cpg/sg2_217_cif.got.tgz:433406.got - 2010.06.03 11:33:40.
