data_PCOD9058783
_publ_section_title
;
Structure prediction by ZEFSAII (Michael W. Deem and Ramdas Pophale) SiO2 
 PCOD9058783
Probable space group: P -1
;
_chemical_formula_sum "Si O2"
_cell_formula_units_Z 15
_cell_length_a 9.284665
_cell_length_b 11.953995
_cell_length_c 9.672782
_cell_angle_alpha 120.997765
_cell_angle_beta 112.803306
_cell_angle_gamma 109.205198
_cell_volume 630.610665
_symmetry_space_group_name_H-M "P -1"
_symmetry_group_IT_number 2
_symmetry_cell_setting 'triclinic'
loop_
_space_group_symop_operation_xyz
x,y,z
-x,-y,-z
loop_
_atom_site_type_symbol
_atom_site_label
_atom_site_fract_x
_atom_site_fract_y
_atom_site_fract_z
Si Si1 0.689407 0.707629 0.678469
Si Si2 0.500000 0.500000 0.000000
Si Si3 0.301576 0.202633 0.947861
Si Si4 0.983173 0.310618 0.143119
Si Si5 0.542857 0.770920 0.387463
Si Si6 0.802242 0.314795 0.624766
Si Si7 0.073573 0.843072 0.274050
Si Si8 0.497550 0.957462 0.128719
O O1 0.500000 0.500000 0.500000
O O2 0.638661 0.766244 0.563489
O O3 0.896875 0.733737 0.753477
O O4 0.707490 0.796521 0.886912
O O5 0.548435 0.600646 0.931441
O O6 0.542788 0.661858 0.200950
O O7 0.374613 0.104668 0.859362
O O8 0.075311 0.115654 0.746844
O O9 0.100861 0.514938 0.319270
O O10 0.992161 0.262371 0.959738
O O11 0.741606 0.194221 0.013192
O O12 0.305376 0.684627 0.277886
O O13 0.688190 0.974453 0.529284
O O14 0.960260 0.285910 0.704441
O O15 0.611423 0.135649 0.366182
O O16 0.500000 0.000000 0.000000
#
# Coordination Sequence:
#
# PCOD9058783 Si02
#       8
#     2   1   2   2   2   2   2   2
#     4  11  22  49  77 105 140 200 249 293 365 450
#     4  12  26  42  70 110 146 184 240 310 362 424
#     4  11  27  47  71 108 149 188 246 310 361 436
#     4  11  26  46  79 106 141 197 246 297 363 443
#     4  12  24  44  79 105 147 194 245 305 367 437
#     4  12  25  49  76 106 147 196 245 297 369 447
#     4  11  26  47  76 105 143 196 248 297 371 443
#     4  12  29  48  72 111 153 188 246 309 362 432
#
# _framework density 23.786467999999999
#
# number of rings (size 3 to 8) (size 9 to 14) (size 15 to 20)
#    0.000    0.533    4.000    3.200    5.600    3.733 
#    0.000    0.000    0.000    0.000    0.000    0.000 
#    0.000    0.000    0.000    0.000    0.000    0.000 
#
# Total GULP energy -83800.997867 kJ/mol
# GULP energy per Si atom -5586.733191 kJ/mol
# Density = 2.373233 g / cm^3
# Si number density = 23.786468 Si / 1000 Ang^3
#
#
#
# Elastic Constant Matrix: (Units=GPa)
#
#
# Indices 1 2 3 4 5 6 
#
# 1 125.3778 25.1755 42.5486 4.2623 7.1080 -9.9868
# 2 25.1755 110.1283 28.7778 1.7292 -12.4798 -11.4858
# 3 42.5486 28.7778 73.3383 8.2627 -10.0299 -6.6801
# 4 4.2623 1.7292 8.2627 53.7124 -0.6252 2.9078
# 5 7.1080 -12.4798 -10.0299 -0.6252 25.9402 -1.2130
# 6 -9.9868 -11.4858 -6.6801 2.9078 -1.2130 27.7809
#
#
#
# Elastic Compliance Matrix: (Units=1/GPa)
#
#
# Indices 1 2 3 4 5 6 
#
# 1 0.010916 -0.001322 -0.006506 0.000023 -0.006070 0.001546
# 2 -0.001322 0.010977 -0.002546 0.000001 0.004830 0.003662
# 3 -0.006506 -0.002546 0.020016 -0.002495 0.008333 0.002046
# 4 0.000023 0.000001 -0.002495 0.019134 -0.000632 -0.002621
# 5 -0.006070 0.004830 0.008333 -0.000632 0.045926 0.003890
# 6 0.001546 0.003662 0.002046 -0.002621 0.003890 0.039002
#
#
# Mechanical properties :
#
#
# Convention : Reuss Voigt Hill
#
# Bulk Modulus (GPa) = 47.25920 55.76088 51.51004
# Shear Modulus (GPa) = 28.77308 35.64286 32.20797
#
# Velocity S-wave (km/s) = 3.48176 3.87518 3.68373
# Velocity P-wave (km/s) = 6.00623 6.59666 6.30835
#
# Compressibility (1/GPa) = 0.02115990
#
# Stress axis : x y z
#
# Youngs Moduli (GPa) = 91.61055 91.09792 49.95932
#
# Poissons Ratio (x) = 0.12046 0.32504
# Poissons Ratio (y) = 0.12113 0.12721
# Poissons Ratio (z) = 0.59603 0.23197
#
# Static dielectric constant tensor:
#      x y z
#    x 1.937510 -0.041570 -0.018150 
#    y -0.041570 1.985290 0.075370 
#    z -0.018150 0.075370 1.955060 
# 
# From -- ./inp_files/190298.got.cif
#   From: 2010.05.17/outbox.cif.g08.bks.cpg/sg2_96_cif.got.tgz:190298.got - 2010.06.03 11:33:40.
