data_PCOD9058824
_publ_section_title
;
Structure prediction by ZEFSAII (Michael W. Deem and Ramdas Pophale) SiO2 
 PCOD9058824
Probable space group: P -1
;
_chemical_formula_sum "Si O2"
_cell_formula_units_Z 12
_cell_length_a 18.498677
_cell_length_b 8.993643
_cell_length_c 12.371659
_cell_angle_alpha 48.813244
_cell_angle_beta 152.561082
_cell_angle_gamma 144.051734
_cell_volume 542.948479
_symmetry_space_group_name_H-M "P -1"
_symmetry_group_IT_number 2
_symmetry_cell_setting 'triclinic'
loop_
_space_group_symop_operation_xyz
x,y,z
-x,-y,-z
loop_
_atom_site_type_symbol
_atom_site_label
_atom_site_fract_x
_atom_site_fract_y
_atom_site_fract_z
Si Si1 0.467664 0.554802 0.596989
Si Si2 0.491818 0.815009 0.297450
Si Si3 0.091909 0.171278 0.407570
Si Si4 0.866729 0.206641 0.253095
Si Si5 0.712079 0.237129 0.233889
Si Si6 0.646229 0.629994 0.027021
O O1 0.513411 0.764427 0.473094
O O2 0.548576 0.417613 0.715002
O O3 0.222973 0.331416 0.400452
O O4 0.549209 0.646437 0.782762
O O5 0.695125 0.079289 0.389156
O O6 0.307033 0.821501 0.032693
O O7 0.064224 0.323731 0.385074
O O8 0.859583 0.915954 0.196127
O O9 0.191807 0.059694 0.650716
O O10 0.886837 0.343673 0.325479
O O11 0.694400 0.445487 0.146137
O O12 0.500000 0.000000 0.000000
O O13 0.500000 0.500000 0.000000
#
# Coordination Sequence:
#
# PCOD9058824 Si02
#       6
#     2   2   2   2   2   2
#     4  11  22  42  62  90 129 165 200 254 313 369
#     4  10  20  39  67  85 124 174 198 246 318 369
#     4  11  23  38  65  95 123 157 213 260 301 358
#     4  10  19  40  62  90 123 163 209 251 300 367
#     4  10  17  37  63  85 116 162 206 239 299 365
#     4  12  23  39  66  96 124 159 208 262 307 359
#
# _framework density 22.101545999999999
#
# number of rings (size 3 to 8) (size 9 to 14) (size 15 to 20)
#    0.000    1.333    5.000    5.000    0.000    1.333 
#    0.000    8.333    0.000    0.000    0.000    0.000 
#    0.000    0.000    0.000    0.000    0.000    0.000 
#
# Total GULP energy -67031.692506 kJ/mol
# GULP energy per Si atom -5585.974375 kJ/mol
# Density = 2.205124 g / cm^3
# Si number density = 22.101546 Si / 1000 Ang^3
#
#
#
# Elastic Constant Matrix: (Units=GPa)
#
#
# Indices 1 2 3 4 5 6 
#
# 1 169.4034 45.2075 64.0722 -18.2529 -2.5519 1.8078
# 2 45.2075 65.4896 37.8456 -5.2318 -9.5546 16.7591
# 3 64.0722 37.8456 107.8402 -11.9774 -8.6679 13.8090
# 4 -18.2529 -5.2318 -11.9774 39.4482 1.3874 -3.4772
# 5 -2.5519 -9.5546 -8.6679 1.3874 48.4571 -16.2182
# 6 1.8078 16.7591 13.8090 -3.4772 -16.2182 40.6191
#
#
#
# Elastic Compliance Matrix: (Units=1/GPa)
#
#
# Indices 1 2 3 4 5 6 
#
# 1 0.008742 -0.004429 -0.003734 0.002582 -0.000201 0.002848
# 2 -0.004429 0.022877 -0.004485 -0.001065 0.001030 -0.007397
# 3 -0.003734 -0.004485 0.013573 0.001581 0.000551 -0.002242
# 4 0.002582 -0.001065 0.001581 0.027069 0.000159 0.002168
# 5 -0.000201 0.001030 0.000551 0.000159 0.023923 0.008962
# 6 0.002848 -0.007397 -0.002242 0.002168 0.008962 0.032070
#
#
# Mechanical properties :
#
#
# Convention : Reuss Voigt Hill
#
# Bulk Modulus (GPa) = 50.26340 70.77599 60.51970
# Shear Modulus (GPa) = 31.21464 38.74540 34.98002
#
# Velocity S-wave (km/s) = 3.76217 4.19150 3.98263
# Velocity P-wave (km/s) = 6.45471 7.45101 6.97068
#
# Compressibility (1/GPa) = 0.01989519
#
# Stress axis : x y z
#
# Youngs Moduli (GPa) = 114.39082 43.71207 73.67810
#
# Poissons Ratio (x) = 0.19359 0.27510
# Poissons Ratio (y) = 0.50662 0.33048
# Poissons Ratio (z) = 0.42711 0.19607
#
# Static dielectric constant tensor:
#      x y z
#    x 1.868080 -0.011190 0.004170 
#    y -0.011190 1.835540 0.071180 
#    z 0.004170 0.071180 1.893610 
# 
# From -- ./inp_files/461955.got.cif
#   From: 2010.05.17/outbox.cif.g08.bks.cpg/sg2_231_cif.got.tgz:461955.got - 2010.06.03 11:33:40.
