data_PCOD9058445
_publ_section_title
;
Structure prediction by ZEFSAII (Michael W. Deem and Ramdas Pophale) SiO2 
 PCOD9058445
Probable space group: P -1
;
_chemical_formula_sum "Si O2"
_cell_formula_units_Z 12
_cell_length_a 12.213569
_cell_length_b 21.549414
_cell_length_c 18.331953
_cell_angle_alpha 160.575919
_cell_angle_beta 147.749384
_cell_angle_gamma 21.881684
_cell_volume 580.914326
_symmetry_space_group_name_H-M "P -1"
_symmetry_group_IT_number 2
_symmetry_cell_setting 'triclinic'
loop_
_space_group_symop_operation_xyz
x,y,z
-x,-y,-z
loop_
_atom_site_type_symbol
_atom_site_label
_atom_site_fract_x
_atom_site_fract_y
_atom_site_fract_z
Si Si1 0.522390 0.413147 0.098591
Si Si2 0.091038 0.231046 0.272268
Si Si3 0.707620 0.614313 0.923113
Si Si4 0.344871 0.761171 0.251549
Si Si5 0.828674 0.328998 0.526637
Si Si6 0.260081 0.124672 0.410559
O O1 0.400456 0.473949 0.179346
O O2 0.351771 0.673216 0.239482
O O3 0.868104 0.247966 0.120184
O O4 0.531149 0.200939 0.832424
O O5 0.064993 0.230331 0.344086
O O6 0.000000 0.500000 0.500000
O O7 0.435403 0.944678 0.132873
O O8 0.784533 0.493136 0.752297
O O9 0.000000 0.500000 0.000000
O O10 0.539056 0.823354 0.426097
O O11 0.500000 0.500000 0.000000
O O12 0.015956 0.028247 0.330719
O O13 0.500000 0.500000 0.500000
O O14 0.042639 0.269700 0.518276
#
# Coordination Sequence:
#
# PCOD9058445 Si02
#       6
#     2   2   2   2   2   2
#     4  11  23  46  73  99 134 184 235 274 335 417
#     4  11  22  45  74 100 131 182 239 270 330 422
#     4  11  26  44  68 102 144 178 218 292 352 393
#     4  12  26  43  74 100 130 186 242 269 329 421
#     4  12  25  45  67 103 145 175 219 292 356 390
#     4  11  23  45  74  97 137 185 226 281 335 412
#
# _framework density 20.657088999999999
#
# number of rings (size 3 to 8) (size 9 to 14) (size 15 to 20)
#    0.000    0.667    3.333    6.500    2.333    0.667 
#    3.000    1.667    0.000    0.000    0.000    0.000 
#    0.000    0.000    0.000    0.000    0.000    0.000 
#
# Total GULP energy -67112.227951 kJ/mol
# GULP energy per Si atom -5592.685663 kJ/mol
# Density = 2.061007 g / cm^3
# Si number density = 20.657089 Si / 1000 Ang^3
#
#
#
# Elastic Constant Matrix: (Units=GPa)
#
#
# Indices 1 2 3 4 5 6 
#
# 1 120.0083 26.6829 61.4986 24.9877 -9.3490 16.5052
# 2 26.6829 148.8924 55.5601 19.2151 7.7373 16.6182
# 3 61.4986 55.5601 128.1509 2.7373 0.7241 8.9174
# 4 24.9877 19.2151 2.7373 37.8626 4.5398 7.4210
# 5 -9.3490 7.7373 0.7241 4.5398 51.2138 -0.9460
# 6 16.5052 16.6182 8.9174 7.4210 -0.9460 31.5607
#
#
#
# Elastic Compliance Matrix: (Units=1/GPa)
#
#
# Indices 1 2 3 4 5 6 
#
# 1 0.014398 0.001573 -0.007128 -0.009383 0.003249 -0.004040
# 2 0.001573 0.009053 -0.004348 -0.004590 -0.000673 -0.003302
# 3 -0.007128 -0.004348 0.012925 0.005956 -0.001338 0.000925
# 4 -0.009383 -0.004590 0.005956 0.035578 -0.004310 -0.002854
# 5 0.003249 -0.000673 -0.001338 -0.004310 0.020634 0.000665
# 6 -0.004040 -0.003302 0.000925 -0.002854 0.000665 0.035966
#
#
# Mechanical properties :
#
#
# Convention : Reuss Voigt Hill
#
# Bulk Modulus (GPa) = 60.35329 76.05939 68.20634
# Shear Modulus (GPa) = 32.49182 41.01477 36.75329
#
# Velocity S-wave (km/s) = 3.97030 4.46074 4.22264
# Velocity P-wave (km/s) = 7.09210 7.96435 7.54085
#
# Compressibility (1/GPa) = 0.01656911
#
# Stress axis : x y z
#
# Youngs Moduli (GPa) = 69.45221 110.46412 77.36851
#
# Poissons Ratio (x) = -0.17372 0.55150
# Poissons Ratio (y) = -0.10922 0.33639
# Poissons Ratio (z) = 0.49508 0.48029
#
# Static dielectric constant tensor:
#      x y z
#    x 1.769580 -0.003850 0.002750 
#    y -0.003850 1.749080 -0.014690 
#    z 0.002750 -0.014690 1.738370 
# 
# From -- ./inp_files/168994.got.cif
#   From: 2010.05.17/outbox.cif.g08.bks.cpg/sg2_85_cif.got.tgz:168994.got - 2010.06.03 11:33:40.
