data_PCOD9058855
_publ_section_title
;
Structure prediction by ZEFSAII (Michael W. Deem and Ramdas Pophale) SiO2 
 PCOD9058855
Probable space group: P -1
;
_chemical_formula_sum "Si O2"
_cell_formula_units_Z 14
_cell_length_a 24.551425
_cell_length_b 7.644402
_cell_length_c 10.474556
_cell_angle_alpha 43.752394
_cell_angle_beta 146.325226
_cell_angle_gamma 144.679541
_cell_volume 624.422126
_symmetry_space_group_name_H-M "P -1"
_symmetry_group_IT_number 2
_symmetry_cell_setting 'triclinic'
loop_
_space_group_symop_operation_xyz
x,y,z
-x,-y,-z
loop_
_atom_site_type_symbol
_atom_site_label
_atom_site_fract_x
_atom_site_fract_y
_atom_site_fract_z
Si Si1 0.362212 0.333686 0.794652
Si Si2 0.365370 0.510848 0.451367
Si Si3 0.933023 0.931082 0.199736
Si Si4 0.834033 0.750987 0.380579
Si Si5 0.292785 0.683180 0.974675
Si Si6 0.211008 0.892222 0.314329
Si Si7 0.593001 0.643284 0.722764
O O1 0.335934 0.504793 0.544680
O O2 0.287272 0.289843 0.796525
O O3 0.318578 0.005852 0.824631
O O4 0.500000 0.500000 0.000000
O O5 0.503760 0.624557 0.662263
O O6 0.281168 0.170340 0.405403
O O7 0.343985 0.701646 0.206946
O O8 0.885758 0.916004 0.259614
O O9 0.845662 0.587656 0.157973
O O10 0.068686 0.056514 0.420626
O O11 0.906142 0.129769 0.951050
O O12 0.814122 0.420133 0.517199
O O13 0.356447 0.570848 0.063972
O O14 0.299065 0.030394 0.290012
O O15 0.500000 0.500000 0.500000
#
# Coordination Sequence:
#
# PCOD9058855 Si02
#       7
#     2   2   2   2   2   2   2
#     4  12  28  34  53  92 127 150 181 233 304 346
#     4   9  20  39  57  81 115 158 191 230 280 344
#     4   9  21  42  66  80 108 155 204 234 279 333
#     4  11  23  38  57  92 119 145 189 247 283 337
#     4   9  20  41  59  81 111 158 197 229 279 346
#     4   9  18  37  66  84 106 147 205 238 276 330
#     4   7  15  31  60  78 103 150 190 223 265 330
#
# _framework density 22.420729999999999
#
# number of rings (size 3 to 8) (size 9 to 14) (size 15 to 20)
#    0.000    3.143    0.000    1.286   10.000    2.857 
#    0.000    2.857    0.000    0.000    0.000    0.000 
#    0.000    0.000    0.000    0.000    0.000    0.000 
#
# Total GULP energy -78086.707257 kJ/mol
# GULP energy per Si atom -5577.621947 kJ/mol
# Density = 2.236970 g / cm^3
# Si number density = 22.420730 Si / 1000 Ang^3
#
#
#
# Elastic Constant Matrix: (Units=GPa)
#
#
# Indices 1 2 3 4 5 6 
#
# 1 49.3614 -5.3594 8.2313 -5.7591 -7.9603 10.0054
# 2 -5.3594 39.7790 21.9022 6.6533 8.0336 -7.6638
# 3 8.2313 21.9022 103.3915 10.8777 -6.9774 0.9051
# 4 -5.7591 6.6533 10.8777 35.0413 5.7371 2.4205
# 5 -7.9603 8.0336 -6.9774 5.7371 25.7174 -0.0323
# 6 10.0054 -7.6638 0.9051 2.4205 -0.0323 18.8231
#
#
#
# Elastic Compliance Matrix: (Units=1/GPa)
#
#
# Indices 1 2 3 4 5 6 
#
# 1 0.024896 -0.000338 -0.001859 0.004668 0.006248 -0.013871
# 2 -0.000338 0.035710 -0.008187 -0.003282 -0.012729 0.015512
# 3 -0.001859 -0.008187 0.012346 -0.003408 0.006089 -0.002490
# 4 0.004668 -0.003282 -0.003408 0.032462 -0.005706 -0.007837
# 5 0.006248 -0.012729 0.006089 -0.005706 0.047709 -0.007981
# 6 -0.013871 0.015512 -0.002490 -0.007837 -0.007981 0.067929
#
#
# Mechanical properties :
#
#
# Convention : Reuss Voigt Hill
#
# Bulk Modulus (GPa) = 19.16286 26.89780 23.03033
# Shear Modulus (GPa) = 19.28916 27.10020 23.19468
#
# Velocity S-wave (km/s) = 2.93632 3.48042 3.21988
# Velocity P-wave (km/s) = 4.47900 5.30792 4.91098
#
# Compressibility (1/GPa) = 0.05218428
#
# Stress axis : x y z
#
# Youngs Moduli (GPa) = 40.16728 28.00369 81.00049
#
# Poissons Ratio (x) = 0.00945 0.15054
# Poissons Ratio (y) = 0.01356 0.66318
# Poissons Ratio (z) = 0.07465 0.22928
#
# Static dielectric constant tensor:
#      x y z
#    x 1.888950 0.026410 -0.023920 
#    y 0.026410 1.814050 0.023360 
#    z -0.023920 0.023360 1.858020 
# 
# From -- ./inp_files/476308.got.cif
#   From: 2010.05.17/outbox.cif.g08.bks.cpg/sg2_239_cif.got.tgz:476308.got - 2010.06.03 11:33:40.
