data_PCOD9058171
_publ_section_title
;
Structure prediction by ZEFSAII (Michael W. Deem and Ramdas Pophale) SiO2 
 PCOD9058171
Probable space group: P -1
;
_chemical_formula_sum "Si O2"
_cell_formula_units_Z 16
_cell_length_a 8.912053
_cell_length_b 16.639294
_cell_length_c 9.171503
_cell_angle_alpha 46.806828
_cell_angle_beta 75.589993
_cell_angle_gamma 106.377962
_cell_volume 737.460114
_symmetry_space_group_name_H-M "P -1"
_symmetry_group_IT_number 2
_symmetry_cell_setting 'triclinic'
loop_
_space_group_symop_operation_xyz
x,y,z
-x,-y,-z
loop_
_atom_site_type_symbol
_atom_site_label
_atom_site_fract_x
_atom_site_fract_y
_atom_site_fract_z
Si Si1 0.353276 0.091857 0.457684
Si Si2 0.414369 0.693818 0.351027
Si Si3 0.175920 0.371795 0.769504
Si Si4 0.059696 0.626555 0.716643
Si Si5 0.609408 0.713299 0.006368
Si Si6 0.225371 0.129805 0.735357
Si Si7 0.742576 0.598349 0.624436
Si Si8 0.784154 0.206980 0.247558
O O1 0.275333 0.071463 0.664060
O O2 0.596639 0.202067 0.271016
O O3 0.284575 0.946326 0.586901
O O4 0.282247 0.160648 0.291632
O O5 0.353780 0.536856 0.567009
O O6 0.226500 0.668520 0.503895
O O7 0.468700 0.727607 0.125100
O O8 0.612099 0.811800 0.248427
O O9 0.238354 0.282433 0.930378
O O10 0.161119 0.364228 0.608407
O O11 0.973376 0.320524 0.958540
O O12 0.152688 0.756868 0.644533
O O13 0.871017 0.590345 0.721645
O O14 0.000000 0.500000 0.000000
O O15 0.471396 0.560360 0.147152
O O16 0.258121 0.272031 0.501338
O O17 0.000000 0.000000 0.000000
#
# Coordination Sequence:
#
# PCOD9058171 Si02
#       8
#     2   2   2   2   2   2   2   2
#     4  11  27  44  69  97 142 184 227 276 347 408
#     4  11  23  44  69 100 139 173 225 287 334 407
#     4  11  22  44  72  99 141 173 228 285 342 404
#     4  12  25  44  70 105 139 178 230 283 339 409
#     4  11  24  43  70 104 137 178 229 285 340 404
#     4  12  25  47  70 100 138 184 229 281 343 405
#     4  11  25  43  71 104 135 182 228 281 344 403
#     4  11  25  46  65 101 141 181 224 282 340 409
#
# _framework density 21.696090999999999
#
# number of rings (size 3 to 8) (size 9 to 14) (size 15 to 20)
#    0.000    0.750    5.000    2.250    3.500    3.000 
#    0.000    1.250    0.000    0.000    0.000    0.000 
#    0.000    0.000    0.000    0.000    0.000    0.000 
#
# Total GULP energy -89482.943147 kJ/mol
# GULP energy per Si atom -5592.683947 kJ/mol
# Density = 2.164671 g / cm^3
# Si number density = 21.696091 Si / 1000 Ang^3
#
#
#
# Elastic Constant Matrix: (Units=GPa)
#
#
# Indices 1 2 3 4 5 6 
#
# 1 60.8142 21.4346 7.9207 0.6539 0.0244 15.0828
# 2 21.4346 116.1944 4.5830 -4.2812 7.2578 3.3156
# 3 7.9207 4.5830 38.3622 -6.4190 -5.7501 11.6071
# 4 0.6539 -4.2812 -6.4190 23.2354 -0.5915 -1.7378
# 5 0.0244 7.2578 -5.7501 -0.5915 35.5281 10.2964
# 6 15.0828 3.3156 11.6071 -1.7378 10.2964 36.5811
#
#
#
# Elastic Compliance Matrix: (Units=1/GPa)
#
#
# Indices 1 2 3 4 5 6 
#
# 1 0.020010 -0.003673 -0.001002 -0.002079 0.003017 -0.008547
# 2 -0.003673 0.009496 -0.001033 0.001635 -0.002596 0.001790
# 3 -0.001002 -0.001033 0.032806 0.008230 0.009162 -0.012090
# 4 -0.002079 0.001635 0.008230 0.045699 0.001832 -0.000247
# 5 0.003017 -0.002596 0.009162 0.001832 0.034078 -0.013421
# 6 -0.008547 0.001790 -0.012090 -0.000247 -0.013421 0.038300
#
#
# Mechanical properties :
#
#
# Convention : Reuss Voigt Hill
#
# Bulk Modulus (GPa) = 19.64819 31.47194 25.56006
# Shear Modulus (GPa) = 23.94971 31.16442 27.55707
#
# Velocity S-wave (km/s) = 3.32606 3.79411 3.56777
# Velocity P-wave (km/s) = 4.88119 5.80784 5.36456
#
# Compressibility (1/GPa) = 0.05089528
#
# Stress axis : x y z
#
# Youngs Moduli (GPa) = 49.97604 105.30878 30.48197
#
# Poissons Ratio (x) = 0.38678 0.03055
# Poissons Ratio (y) = 0.18355 0.03149
# Poissons Ratio (z) = 0.05009 0.10880
#
# Static dielectric constant tensor:
#      x y z
#    x 1.797620 -0.019840 -0.008130 
#    y -0.019840 1.788250 -0.013470 
#    z -0.008130 -0.013470 1.776760 
# 
# From -- ./inp_files/205596.got.cif
#   From: 2010.05.17/outbox.cif.g08.bks.cpg/sg2_103_cif.got.tgz:205596.got - 2010.06.03 11:33:40.
