data_PCOD9058466
_publ_section_title
;
Structure prediction by ZEFSAII (Michael W. Deem and Ramdas Pophale) SiO2 
 PCOD9058466
Probable space group: P -1
;
_chemical_formula_sum "Si O2"
_cell_formula_units_Z 16
_cell_length_a 10.776970
_cell_length_b 12.017035
_cell_length_c 5.553088
_cell_angle_alpha 93.082833
_cell_angle_beta 60.536441
_cell_angle_gamma 81.998499
_cell_volume 613.794192
_symmetry_space_group_name_H-M "P -1"
_symmetry_group_IT_number 2
_symmetry_cell_setting 'triclinic'
loop_
_space_group_symop_operation_xyz
x,y,z
-x,-y,-z
loop_
_atom_site_type_symbol
_atom_site_label
_atom_site_fract_x
_atom_site_fract_y
_atom_site_fract_z
Si Si1 0.587111 0.374599 0.463715
Si Si2 0.129870 0.557846 0.646168
Si Si3 0.832535 0.664984 0.172389
Si Si4 0.886505 0.230190 0.539246
Si Si5 0.178682 0.157977 0.445942
Si Si6 0.426166 0.246538 0.939016
Si Si7 0.345725 0.842552 0.949868
Si Si8 0.832783 0.044585 0.244241
O O1 0.500000 0.500000 0.500000
O O2 0.752561 0.393654 0.301338
O O3 0.526859 0.339714 0.778321
O O4 0.573673 0.270555 0.284398
O O5 0.182645 0.424597 0.610117
O O6 0.138206 0.633557 0.410980
O O7 0.961120 0.593799 0.881166
O O8 0.889882 0.766682 0.254065
O O9 0.689160 0.719580 0.168388
O O10 0.823511 0.172232 0.365391
O O11 0.055808 0.177824 0.365753
O O12 0.808513 0.183612 0.827576
O O13 0.202393 0.032495 0.510349
O O14 0.311060 0.213786 0.239482
O O15 0.558386 0.149636 0.903630
O O16 0.294859 0.948531 0.833176
O O17 0.000000 0.000000 0.000000
#
# Coordination Sequence:
#
# PCOD9058466 Si02
#       8
#     2   2   2   2   2   2   2   2
#     4  12  25  47  71 106 150 193 241 298 353 438
#     4  11  22  45  74  99 149 183 238 306 347 434
#     4  11  25  46  66 111 147 187 234 300 366 422
#     4  12  24  47  77 112 135 187 252 297 359 435
#     4  12  27  44  74 105 147 184 239 304 362 428
#     4  12  26  44  69 103 148 188 236 285 367 434
#     4  12  26  46  74 107 140 193 246 292 366 425
#     4  12  26  47  80 109 139 185 249 311 358 420
#
# _framework density 26.067368999999999
#
# number of rings (size 3 to 8) (size 9 to 14) (size 15 to 20)
#    0.000    0.250    6.250    2.625    0.000    2.500 
#    0.000    3.125    0.000    0.000    0.000    0.000 
#    0.000    0.000    0.000    0.000    0.000    0.000 
#
# Total GULP energy -89120.445528 kJ/mol
# GULP energy per Si atom -5570.027846 kJ/mol
# Density = 2.600804 g / cm^3
# Si number density = 26.067369 Si / 1000 Ang^3
#
#
#
# Elastic Constant Matrix: (Units=GPa)
#
#
# Indices 1 2 3 4 5 6 
#
# 1 113.0988 32.1715 22.8788 -1.7416 2.7659 -18.6324
# 2 32.1715 140.8288 39.1644 -14.8843 5.5481 -27.7862
# 3 22.8788 39.1644 72.9585 -17.6905 -21.5957 -5.2402
# 4 -1.7416 -14.8843 -17.6905 41.8622 -4.5167 5.3390
# 5 2.7659 5.5481 -21.5957 -4.5167 31.1499 -17.0554
# 6 -18.6324 -27.7862 -5.2402 5.3390 -17.0554 38.7499
#
#
#
# Elastic Compliance Matrix: (Units=1/GPa)
#
#
# Indices 1 2 3 4 5 6 
#
# 1 0.010371 -0.000861 -0.003471 -0.001953 -0.001548 0.003488
# 2 -0.000861 0.009881 -0.005527 0.000237 -0.002971 0.004583
# 3 -0.003471 -0.005527 0.030173 0.012577 0.029297 0.009610
# 4 -0.001953 0.000237 0.012577 0.030404 0.015119 0.003396
# 5 -0.001548 -0.002971 0.029297 0.015119 0.072103 0.030740
# 6 0.003488 0.004583 0.009610 0.003396 0.030740 0.045132
#
#
# Mechanical properties :
#
#
# Convention : Reuss Voigt Hill
#
# Bulk Modulus (GPa) = 32.56613 57.25728 44.91170
# Shear Modulus (GPa) = 21.92798 37.86381 29.89590
#
# Velocity S-wave (km/s) = 2.90350 3.81535 3.39022
# Velocity P-wave (km/s) = 4.87448 6.43599 5.70888
#
# Compressibility (1/GPa) = 0.03070675
#
# Stress axis : x y z
#
# Youngs Moduli (GPa) = 96.41899 101.20412 33.14172
#
# Poissons Ratio (x) = 0.08716 0.11504
# Poissons Ratio (y) = 0.08304 0.18318
# Poissons Ratio (z) = 0.33469 0.55936
#
# Static dielectric constant tensor:
#      x y z
#    x 2.083140 -0.054600 0.007380 
#    y -0.054600 2.006940 0.004340 
#    z 0.007380 0.004340 2.105530 
# 
# From -- ./inp_files/70281.got.cif
#   From: 2010.05.17/outbox.cif.g08.bks.cpg/sg2_36_cif.got.tgz:70281.got - 2010.06.03 11:33:40.
