data_PCOD9058440
_publ_section_title
;
Structure prediction by ZEFSAII (Michael W. Deem and Ramdas Pophale) SiO2 
 PCOD9058440
Probable space group: P -1
;
_chemical_formula_sum "Si O2"
_cell_formula_units_Z 12
_cell_length_a 6.976945
_cell_length_b 19.345430
_cell_length_c 11.753170
_cell_angle_alpha 35.340242
_cell_angle_beta 67.499411
_cell_angle_gamma 41.329930
_cell_volume 483.990940
_symmetry_space_group_name_H-M "P -1"
_symmetry_group_IT_number 2
_symmetry_cell_setting 'triclinic'
loop_
_space_group_symop_operation_xyz
x,y,z
-x,-y,-z
loop_
_atom_site_type_symbol
_atom_site_label
_atom_site_fract_x
_atom_site_fract_y
_atom_site_fract_z
Si Si1 0.458091 0.825604 0.935150
Si Si2 0.688808 0.296719 0.395921
Si Si3 0.358031 0.536403 0.607018
Si Si4 0.311478 0.913668 0.466836
Si Si5 0.523700 0.992537 0.140392
Si Si6 0.100547 0.319954 0.177956
O O1 0.752756 0.746070 0.893085
O O2 0.499988 0.138371 0.997613
O O3 0.522892 0.654609 0.139572
O O4 0.060764 0.052581 0.676425
O O5 0.510832 0.431624 0.369917
O O6 0.503712 0.286616 0.371293
O O7 0.803687 0.360625 0.215537
O O8 0.500000 0.500000 0.500000
O O9 0.079313 0.244580 0.593829
O O10 0.562403 0.863060 0.567931
O O11 0.245797 0.040171 0.210582
O O12 0.000000 0.000000 0.500000
O O13 0.500000 0.000000 0.000000
O O14 0.000000 0.500000 0.000000
#
# Coordination Sequence:
#
# PCOD9058440 Si02
#       6
#     2   2   2   2   2   2
#     4  11  22  45  73  94 145 186 224 299 347 414
#     4  11  24  43  71 102 143 181 236 286 355 417
#     4  11  26  46  68 103 138 192 237 284 357 417
#     4  12  24  43  74 107 138 186 238 286 355 424
#     4  11  27  47  69 105 143 185 239 291 353 422
#     4  12  22  46  69 105 144 179 233 292 353 417
#
# _framework density 24.793851
#
# number of rings (size 3 to 8) (size 9 to 14) (size 15 to 20)
#    0.000    0.667    6.667    1.500    4.667    2.667 
#    3.000    0.000    0.000    0.000    0.000    0.000 
#    0.000    0.000    0.000    0.000    0.000    0.000 
#
# Total GULP energy -67197.725741 kJ/mol
# GULP energy per Si atom -5599.810478 kJ/mol
# Density = 2.473742 g / cm^3
# Si number density = 24.793851 Si / 1000 Ang^3
#
#
#
# Elastic Constant Matrix: (Units=GPa)
#
#
# Indices 1 2 3 4 5 6 
#
# 1 123.8390 31.8316 22.2473 -1.9856 -3.4650 39.8971
# 2 31.8316 126.5924 28.5410 20.0104 3.4876 35.1425
# 3 22.2473 28.5410 93.3575 -7.9252 -15.1963 16.1202
# 4 -1.9856 20.0104 -7.9252 49.8091 11.5575 -4.4365
# 5 -3.4650 3.4876 -15.1963 11.5575 45.8155 -3.2720
# 6 39.8971 35.1425 16.1202 -4.4365 -3.2720 55.9879
#
#
#
# Elastic Compliance Matrix: (Units=1/GPa)
#
#
# Indices 1 2 3 4 5 6 
#
# 1 0.010652 -0.000429 -0.001221 -0.000217 -0.000011 -0.006988
# 2 -0.000429 0.011319 -0.002853 -0.005374 -0.000946 -0.006459
# 3 -0.001221 -0.002853 0.012782 0.002202 0.003764 -0.000625
# 4 -0.000217 -0.005374 0.002202 0.024053 -0.004621 0.004530
# 5 -0.000011 -0.000946 0.003764 -0.004621 0.024353 0.000575
# 6 -0.006988 -0.006459 -0.000625 0.004530 0.000575 0.027467
#
#
# Mechanical properties :
#
#
# Convention : Reuss Voigt Hill
#
# Bulk Modulus (GPa) = 38.83839 56.55872 47.69855
# Shear Modulus (GPa) = 38.99696 47.73376 43.36536
#
# Velocity S-wave (km/s) = 3.97022 4.39250 4.18669
# Velocity P-wave (km/s) = 6.05932 6.97040 6.53077
#
# Compressibility (1/GPa) = 0.02574772
#
# Stress axis : x y z
#
# Youngs Moduli (GPa) = 93.87892 88.34712 78.23299
#
# Poissons Ratio (x) = 0.03787 0.09552
# Poissons Ratio (y) = 0.04024 0.22321
# Poissons Ratio (z) = 0.11462 0.25207
#
# Static dielectric constant tensor:
#      x y z
#    x 1.927590 0.044610 -0.021040 
#    y 0.044610 1.822310 0.109640 
#    z -0.021040 0.109640 1.892490 
# 
# From -- ./inp_files/406480.got.cif
#   From: 2010.05.17/outbox.cif.g08.bks.cpg/sg2_204_cif.got.tgz:406480.got - 2010.06.03 11:33:40.
