data_PCOD9058558
_publ_section_title
;
Structure prediction by ZEFSAII (Michael W. Deem and Ramdas Pophale) SiO2 
 PCOD9058558
Probable space group: P -1
;
_chemical_formula_sum "Si O2"
_cell_formula_units_Z 12
_cell_length_a 6.103528
_cell_length_b 14.096738
_cell_length_c 9.388886
_cell_angle_alpha 61.467096
_cell_angle_beta 98.163647
_cell_angle_gamma 54.742054
_cell_volume 471.129684
_symmetry_space_group_name_H-M "P -1"
_symmetry_group_IT_number 2
_symmetry_cell_setting 'triclinic'
loop_
_space_group_symop_operation_xyz
x,y,z
-x,-y,-z
loop_
_atom_site_type_symbol
_atom_site_label
_atom_site_fract_x
_atom_site_fract_y
_atom_site_fract_z
Si Si1 0.648370 0.898666 0.277470
Si Si2 0.180617 0.533986 0.127769
Si Si3 0.241389 0.279191 0.299582
Si Si4 0.242489 0.337556 0.729386
Si Si5 0.222186 0.936377 0.702618
Si Si6 0.138372 0.786400 0.026096
O O1 0.727237 0.803028 0.498656
O O2 0.777314 0.775294 0.253206
O O3 0.830731 0.946940 0.276568
O O4 0.256083 0.059226 0.101955
O O5 0.382579 0.349203 0.289985
O O6 0.880474 0.615737 0.152266
O O7 0.278838 0.614872 0.138175
O O8 0.098591 0.577835 0.920511
O O9 0.438621 0.153340 0.278970
O O10 0.000000 0.500000 0.500000
O O11 0.616293 0.244780 0.817752
O O12 0.201659 0.832358 0.856720
O O13 0.000000 0.000000 0.500000
#
# Coordination Sequence:
#
# PCOD9058558 Si02
#       6
#     2   2   2   2   2   2
#     4  12  25  46  74 104 143 178 234 293 338 416
#     4  11  25  46  71 101 143 181 233 288 342 418
#     4  11  22  46  71 102 141 181 228 290 344 407
#     4  12  27  48  69 103 140 188 234 282 353 412
#     4  12  24  42  75 108 136 180 233 284 352 408
#     4  12  25  45  72 104 139 186 229 287 348 408
#
# _framework density 25.470694999999999
#
# number of rings (size 3 to 8) (size 9 to 14) (size 15 to 20)
#    0.000    0.333    6.667    2.000    0.000    6.667 
#    0.000    0.000    0.000    0.000    0.000    0.000 
#    0.000    0.000    0.000    0.000    0.000    0.000 
#
# Total GULP energy -67075.078954 kJ/mol
# GULP energy per Si atom -5589.589913 kJ/mol
# Density = 2.541272 g / cm^3
# Si number density = 25.470695 Si / 1000 Ang^3
#
#
#
# Elastic Constant Matrix: (Units=GPa)
#
#
# Indices 1 2 3 4 5 6 
#
# 1 70.3639 23.1207 31.4777 -7.1952 -6.1931 26.4196
# 2 23.1207 129.3777 5.6240 11.3545 4.1868 24.2626
# 3 31.4777 5.6240 118.5459 9.7450 -11.5836 -15.6892
# 4 -7.1952 11.3545 9.7450 25.5427 3.3624 -5.0795
# 5 -6.1931 4.1868 -11.5836 3.3624 44.8980 -0.2052
# 6 26.4196 24.2626 -15.6892 -5.0795 -0.2052 48.8736
#
#
#
# Elastic Compliance Matrix: (Units=1/GPa)
#
#
# Indices 1 2 3 4 5 6 
#
# 1 0.025616 -0.002170 -0.009320 0.008702 0.000612 -0.014855
# 2 -0.002170 0.009389 -0.000035 -0.005477 -0.000792 -0.004071
# 3 -0.009320 -0.000035 0.012791 -0.006123 0.002515 0.008536
# 4 0.008702 -0.005477 -0.006123 0.047001 -0.003384 0.000920
# 5 0.000612 -0.000792 0.002515 -0.003384 0.023336 0.000616
# 6 -0.014855 -0.004071 0.008536 0.000920 0.000616 0.033350
#
#
# Mechanical properties :
#
#
# Convention : Reuss Voigt Hill
#
# Bulk Modulus (GPa) = 40.41475 48.74805 44.58140
# Shear Modulus (GPa) = 27.35502 41.06720 34.21111
#
# Velocity S-wave (km/s) = 3.28072 4.01974 3.66888
# Velocity P-wave (km/s) = 5.50022 6.38160 5.95723
#
# Compressibility (1/GPa) = 0.02474344
#
# Stress axis : x y z
#
# Youngs Moduli (GPa) = 39.03868 106.51315 78.18041
#
# Poissons Ratio (x) = 0.23116 0.72867
# Poissons Ratio (y) = 0.08473 0.00275
# Poissons Ratio (z) = 0.36385 0.00375
#
# Static dielectric constant tensor:
#      x y z
#    x 2.039980 -0.030840 0.076520 
#    y -0.030840 2.033210 -0.086900 
#    z 0.076520 -0.086900 2.088320 
# 
# From -- ./inp_files/53510.got.cif
#   From: 2010.05.17/outbox.cif.g08.bks.cpg/sg2_27_cif.got.tgz:53510.got - 2010.06.03 11:33:40.
