data_PCOD9058973
_publ_section_title
;
Structure prediction by ZEFSAII (Michael W. Deem and Ramdas Pophale) SiO2 
 PCOD9058973
Probable space group: P -1
;
_chemical_formula_sum "Si O2"
_cell_formula_units_Z 14
_cell_length_a 8.114251
_cell_length_b 21.555562
_cell_length_c 4.958685
_cell_angle_alpha 86.420880
_cell_angle_beta 65.542983
_cell_angle_gamma 47.277806
_cell_volume 548.178851
_symmetry_space_group_name_H-M "P -1"
_symmetry_group_IT_number 2
_symmetry_cell_setting 'triclinic'
loop_
_space_group_symop_operation_xyz
x,y,z
-x,-y,-z
loop_
_atom_site_type_symbol
_atom_site_label
_atom_site_fract_x
_atom_site_fract_y
_atom_site_fract_z
Si Si1 0.693997 0.071297 0.181626
Si Si2 0.438196 0.576767 0.854550
Si Si3 0.957668 0.255536 0.209777
Si Si4 0.031833 0.549450 0.662417
Si Si5 0.470868 0.067809 0.819574
Si Si6 0.484714 0.323719 0.829042
Si Si7 0.690325 0.742851 0.701364
O O1 0.613475 0.036055 0.447263
O O2 0.519268 0.173211 0.373810
O O3 0.607271 0.083436 0.927326
O O4 0.000000 0.000000 0.000000
O O5 0.660983 0.520343 0.485658
O O6 0.155617 0.657252 0.897407
O O7 0.500000 0.500000 0.000000
O O8 0.468037 0.631437 0.003808
O O9 0.126665 0.244995 0.334052
O O10 0.703609 0.280513 0.470158
O O11 0.168809 0.160017 0.951262
O O12 0.172819 0.404810 0.965101
O O13 0.000000 0.500000 0.500000
O O14 0.911010 0.636071 0.544324
O O15 0.500000 0.000000 0.000000
O O16 0.494281 0.253082 0.975064
#
# Coordination Sequence:
#
# PCOD9058973 Si02
#       7
#     2   2   2   2   2   2   2
#     4  11  25  48  77 110 145 190 241 302 376 433
#     4  11  23  39  67  94 136 184 237 294 352 427
#     4  11  25  42  68  99 136 187 235 296 367 418
#     4   8  18  39  59  93 129 178 232 280 342 418
#     4  11  27  47  76 109 149 186 242 305 368 449
#     4   9  22  43  62  92 136 183 236 281 364 413
#     4   9  22  44  67  99 144 177 242 293 352 435
#
# _framework density 25.539111999999999
#
# number of rings (size 3 to 8) (size 9 to 14) (size 15 to 20)
#    0.857    1.143    0.000    1.714    8.000    4.000 
#   12.857    0.000    0.000    0.000    0.000    0.000 
#    0.000    0.000    0.000    0.000    0.000    0.000 
#
# Total GULP energy -78084.581403 kJ/mol
# GULP energy per Si atom -5577.470100 kJ/mol
# Density = 2.548098 g / cm^3
# Si number density = 25.539112 Si / 1000 Ang^3
#
#
#
# Elastic Constant Matrix: (Units=GPa)
#
#
# Indices 1 2 3 4 5 6 
#
# 1 54.2130 31.2789 32.4283 3.8652 -8.2195 -12.1561
# 2 31.2789 176.6194 37.6189 1.1340 -29.2432 -30.8737
# 3 32.4283 37.6189 137.6646 -7.8625 -33.5251 -19.2592
# 4 3.8652 1.1340 -7.8625 44.5323 -4.4794 -16.5962
# 5 -8.2195 -29.2432 -33.5251 -4.4794 41.9666 0.9442
# 6 -12.1561 -30.8737 -19.2592 -16.5962 0.9442 48.7916
#
#
#
# Elastic Compliance Matrix: (Units=1/GPa)
#
#
# Indices 1 2 3 4 5 6 
#
# 1 0.023494 -0.003239 -0.005209 -0.002776 -0.002131 0.000845
# 2 -0.003239 0.007933 0.000939 0.002860 0.005827 0.005444
# 3 -0.005209 0.000939 0.011608 0.005494 0.009369 0.005566
# 4 -0.002776 0.002860 0.005494 0.029349 0.008676 0.013102
# 5 -0.002131 0.005827 0.009369 0.008676 0.035676 0.009115
# 6 0.000845 0.005444 0.005566 0.013102 0.009115 0.030628
#
#
# Mechanical properties :
#
#
# Convention : Reuss Voigt Hill
#
# Bulk Modulus (GPa) = 35.69007 63.46101 49.57554
# Shear Modulus (GPa) = 30.66617 44.86949 37.76783
#
# Velocity S-wave (km/s) = 3.46895 4.19608 3.84972
# Velocity P-wave (km/s) = 5.48177 6.95547 6.26212
#
# Compressibility (1/GPa) = 0.02801900
#
# Stress axis : x y z
#
# Youngs Moduli (GPa) = 42.56360 126.04921 86.14388
#
# Poissons Ratio (x) = 0.40824 0.44869
# Poissons Ratio (y) = 0.13785 -0.08087
# Poissons Ratio (z) = 0.22170 -0.11833
#
# Static dielectric constant tensor:
#      x y z
#    x 2.067080 0.085030 0.020520 
#    y 0.085030 2.201170 0.153820 
#    z 0.020520 0.153820 2.436220 
# 
# From -- ./inp_files/52666.got.cif
#   From: 2010.05.17/outbox.cif.g08.bks.cpg/sg2_27_cif.got.tgz:52666.got - 2010.06.03 11:33:40.
