data_PCOD9058597
_publ_section_title
;
Structure prediction by ZEFSAII (Michael W. Deem and Ramdas Pophale) SiO2 
 PCOD9058597
Probable space group: P -1
;
_chemical_formula_sum "Si O2"
_cell_formula_units_Z 16
_cell_length_a 12.846661
_cell_length_b 8.916230
_cell_length_c 11.818638
_cell_angle_alpha 118.904655
_cell_angle_beta 88.228636
_cell_angle_gamma 47.143890
_cell_volume 719.493555
_symmetry_space_group_name_H-M "P -1"
_symmetry_group_IT_number 2
_symmetry_cell_setting 'triclinic'
loop_
_space_group_symop_operation_xyz
x,y,z
-x,-y,-z
loop_
_atom_site_type_symbol
_atom_site_label
_atom_site_fract_x
_atom_site_fract_y
_atom_site_fract_z
Si Si1 0.812766 0.700895 0.618522
Si Si2 0.220281 0.750701 0.856190
Si Si3 0.837125 0.312147 0.562307
Si Si4 0.992345 0.076943 0.776425
Si Si5 0.863955 0.754962 0.187980
Si Si6 0.704461 0.733682 0.384962
Si Si7 0.471853 0.633711 0.667636
Si Si8 0.296901 0.782526 0.108515
O O1 0.818565 0.541367 0.653015
O O2 0.739283 0.731416 0.513631
O O3 0.000000 0.500000 0.500000
O O4 0.737896 0.978787 0.764576
O O5 0.236032 0.526720 0.762926
O O6 0.394622 0.594835 0.739103
O O7 0.219691 0.845617 0.010402
O O8 0.058912 0.014098 0.879566
O O9 0.650229 0.475944 0.648822
O O10 0.000000 0.000000 0.500000
O O11 0.878471 0.224026 0.396315
O O12 0.806523 0.233124 0.826630
O O13 0.038793 0.196881 0.762245
O O14 0.799011 0.740886 0.297196
O O15 0.684973 0.029924 0.228016
O O16 0.000000 0.500000 0.000000
O O17 0.500000 0.000000 0.500000
O O18 0.500000 0.500000 0.500000
O O19 0.500000 0.500000 0.000000
#
# Coordination Sequence:
#
# PCOD9058597 Si02
#       8
#     2   2   2   2   2   2   2   2
#     4  12  26  47  69 109 145 193 258 307 370 466
#     4  11  23  45  73 100 147 192 239 309 381 448
#     4  12  26  45  75 104 149 198 259 318 374 440
#     4  11  24  47  69 101 142 195 252 299 379 454
#     4  11  25  42  75 116 152 185 253 324 389 453
#     4  12  24  43  78 110 144 196 256 313 369 464
#     4  11  22  46  73 106 138 195 257 306 372 466
#     4  12  27  45  74 111 155 193 245 319 400 460
#
# _framework density 22.237864999999999
#
# number of rings (size 3 to 8) (size 9 to 14) (size 15 to 20)
#    0.000    0.500    5.000    3.375    3.500    4.000 
#    0.000    0.625    0.000    0.000    0.000    0.000 
#    0.000    0.000    0.000    0.000    0.000    0.000 
#
# Total GULP energy -89249.491914 kJ/mol
# GULP energy per Si atom -5578.093245 kJ/mol
# Density = 2.218725 g / cm^3
# Si number density = 22.237865 Si / 1000 Ang^3
#
#
#
# Elastic Constant Matrix: (Units=GPa)
#
#
# Indices 1 2 3 4 5 6 
#
# 1 217.4139 89.6073 49.6032 21.9485 -21.8420 9.8021
# 2 89.6073 125.6463 53.2978 11.8445 5.7117 -8.5353
# 3 49.6032 53.2978 128.6756 18.5184 6.3132 1.5009
# 4 21.9485 11.8445 18.5184 40.6422 -6.7600 -4.6390
# 5 -21.8420 5.7117 6.3132 -6.7600 51.3607 3.4628
# 6 9.8021 -8.5353 1.5009 -4.6390 3.4628 47.2109
#
#
#
# Elastic Compliance Matrix: (Units=1/GPa)
#
#
# Indices 1 2 3 4 5 6 
#
# 1 0.007709 -0.005445 -0.000582 -0.002011 0.003896 -0.003050
# 2 -0.005445 0.013735 -0.003516 0.000396 -0.003631 0.004031
# 3 -0.000582 -0.003516 0.010059 -0.003616 -0.001496 -0.001080
# 4 -0.002011 0.000396 -0.003616 0.028086 0.003030 0.003141
# 5 0.003896 -0.003631 -0.001496 0.003030 0.022299 -0.002756
# 6 -0.003050 0.004031 -0.001080 0.003141 -0.002756 0.023089
#
#
# Mechanical properties :
#
#
# Convention : Reuss Voigt Hill
#
# Bulk Modulus (GPa) = 80.54522 95.19468 87.86995
# Shear Modulus (GPa) = 39.00102 46.45792 42.72947
#
# Velocity S-wave (km/s) = 4.19240 4.57567 4.38822
# Velocity P-wave (km/s) = 7.72874 8.41523 8.07928
#
# Compressibility (1/GPa) = 0.01241539
#
# Stress axis : x y z
#
# Youngs Moduli (GPa) = 129.72566 72.80570 99.41627
#
# Poissons Ratio (x) = 0.39645 0.05790
# Poissons Ratio (y) = 0.70639 0.34954
# Poissons Ratio (z) = 0.07555 0.25598
#
# Static dielectric constant tensor:
#      x y z
#    x 1.841550 0.072420 -0.015560 
#    y 0.072420 1.879450 -0.058660 
#    z -0.015560 -0.058660 1.841150 
# 
# From -- ./inp_files/419738.got.cif
#   From: 2010.05.17/outbox.cif.g08.bks.cpg/sg2_210_cif.got.tgz:419738.got - 2010.06.03 11:33:40.
