data_PCOD9058464
_publ_section_title
;
Structure prediction by ZEFSAII (Michael W. Deem and Ramdas Pophale) SiO2 
 PCOD9058464
Probable space group: P -1
;
_chemical_formula_sum "Si O2"
_cell_formula_units_Z 14
_cell_length_a 8.185852
_cell_length_b 10.693304
_cell_length_c 11.619113
_cell_angle_alpha 62.153528
_cell_angle_beta 123.341339
_cell_angle_gamma 137.467455
_cell_volume 570.900934
_symmetry_space_group_name_H-M "P -1"
_symmetry_group_IT_number 2
_symmetry_cell_setting 'triclinic'
loop_
_space_group_symop_operation_xyz
x,y,z
-x,-y,-z
loop_
_atom_site_type_symbol
_atom_site_label
_atom_site_fract_x
_atom_site_fract_y
_atom_site_fract_z
Si Si1 0.071053 0.562387 0.830788
Si Si2 0.785944 0.970308 0.070747
Si Si3 0.185956 0.690131 0.563626
Si Si4 0.430818 0.869188 0.197317
Si Si5 0.817329 0.726557 0.750906
Si Si6 0.489162 0.415247 0.912137
Si Si7 0.707750 0.955961 0.508905
O O1 0.819220 0.347446 0.811675
O O2 0.986166 0.675021 0.795371
O O3 0.188070 0.635519 0.718028
O O4 0.273147 0.584051 0.984931
O O5 0.614645 0.912668 0.144309
O O6 0.765395 0.797860 0.104549
O O7 0.062887 0.153761 0.137321
O O8 0.664977 0.016259 0.909565
O O9 0.470893 0.828434 0.561619
O O10 0.000000 0.500000 0.500000
O O11 0.117991 0.826863 0.483684
O O12 0.578086 0.922194 0.350638
O O13 0.544674 0.535563 0.769537
O O14 0.828033 0.856832 0.606912
O O15 0.500000 0.500000 0.000000
#
# Coordination Sequence:
#
# PCOD9058464 Si02
#       7
#     2   2   2   2   2   2   2
#     4  12  23  46  74  98 140 186 231 289 344 401
#     4  11  24  44  73  99 133 185 232 282 344 407
#     4  11  24  46  71  99 143 190 224 280 349 416
#     4  11  22  45  74  99 135 185 233 282 342 410
#     4  12  26  45  71 105 139 178 236 289 341 408
#     4  12  26  46  69 103 141 180 232 288 345 414
#     4  11  26  45  70 107 141 180 232 284 346 410
#
# _framework density 24.522642000000001
#
# number of rings (size 3 to 8) (size 9 to 14) (size 15 to 20)
#    0.000    0.571    4.286    4.714    0.000    6.857 
#    0.000    0.000    0.000    0.000    0.000    0.000 
#    0.000    0.000    0.000    0.000    0.000    0.000 
#
# Total GULP energy -78486.047769 kJ/mol
# GULP energy per Si atom -5606.146269 kJ/mol
# Density = 2.446683 g / cm^3
# Si number density = 24.522642 Si / 1000 Ang^3
#
#
#
# Elastic Constant Matrix: (Units=GPa)
#
#
# Indices 1 2 3 4 5 6 
#
# 1 51.0216 14.4506 15.9283 -7.0266 -13.1362 -0.0357
# 2 14.4506 180.4801 42.7097 -12.7881 1.8764 -11.0705
# 3 15.9283 42.7097 155.9211 -17.6922 -9.6157 -6.6801
# 4 -7.0266 -12.7881 -17.6922 38.2712 -3.1477 -3.2163
# 5 -13.1362 1.8764 -9.6157 -3.1477 35.9644 -4.9388
# 6 -0.0357 -11.0705 -6.6801 -3.2163 -4.9388 32.2842
#
#
#
# Elastic Compliance Matrix: (Units=1/GPa)
#
#
# Indices 1 2 3 4 5 6 
#
# 1 0.023111 -0.001358 -0.000925 0.004180 0.008786 0.001129
# 2 -0.001358 0.006188 -0.001385 0.001264 -0.000827 0.001833
# 3 -0.000925 -0.001385 0.007456 0.003143 0.002240 0.001722
# 4 0.004180 0.001264 0.003143 0.029641 0.005567 0.004893
# 5 0.008786 -0.000827 0.002240 0.005567 0.032938 0.005783
# 6 0.001129 0.001833 0.001722 0.004893 0.005783 0.033333
#
#
# Mechanical properties :
#
#
# Convention : Reuss Voigt Hill
#
# Bulk Modulus (GPa) = 33.99047 59.28890 46.63968
# Shear Modulus (GPa) = 33.37585 42.25957 37.81771
#
# Velocity S-wave (km/s) = 3.69321 4.15575 3.93129
# Velocity P-wave (km/s) = 5.66368 6.87435 6.29818
#
# Compressibility (1/GPa) = 0.02942001
#
# Stress axis : x y z
#
# Youngs Moduli (GPa) = 43.26919 161.60538 134.12056
#
# Poissons Ratio (x) = 0.21939 0.12401
# Poissons Ratio (y) = 0.05874 0.18580
# Poissons Ratio (z) = 0.04001 0.22387
#
# Static dielectric constant tensor:
#      x y z
#    x 1.998440 -0.019960 0.038760 
#    y -0.019960 1.970240 -0.044660 
#    z 0.038760 -0.044660 1.904620 
# 
# From -- ./inp_files/381502.got.cif
#   From: 2010.05.17/outbox.cif.g08.bks.cpg/sg2_191_cif.got.tgz:381502.got - 2010.06.03 11:33:40.
