data_PCOD9058235
_publ_section_title
;
Structure prediction by ZEFSAII (Michael W. Deem and Ramdas Pophale) SiO2 
 PCOD9058235
Probable space group: P -1
;
_chemical_formula_sum "Si O2"
_cell_formula_units_Z 16
_cell_length_a 6.593820
_cell_length_b 9.759844
_cell_length_c 17.507630
_cell_angle_alpha 61.268097
_cell_angle_beta 124.597092
_cell_angle_gamma 132.526795
_cell_volume 674.722225
_symmetry_space_group_name_H-M "P -1"
_symmetry_group_IT_number 2
_symmetry_cell_setting 'triclinic'
loop_
_space_group_symop_operation_xyz
x,y,z
-x,-y,-z
loop_
_atom_site_type_symbol
_atom_site_label
_atom_site_fract_x
_atom_site_fract_y
_atom_site_fract_z
Si Si1 0.568249 0.984326 0.689785
Si Si2 0.407048 0.934047 0.084024
Si Si3 0.247862 0.173831 0.345138
Si Si4 0.826388 0.268552 0.190766
Si Si5 0.243325 0.261058 0.783399
Si Si6 0.219138 0.147867 0.570449
Si Si7 0.778752 0.610819 0.087262
Si Si8 0.732974 0.525214 0.424111
O O1 0.515137 0.150112 0.626885
O O2 0.902275 0.079232 0.764532
O O3 0.538997 0.875056 0.635890
O O4 0.317028 0.830035 0.732789
O O5 0.545315 0.812858 0.166074
O O6 0.056205 0.806597 0.060330
O O7 0.574411 0.126527 0.116145
O O8 0.500000 0.000000 0.000000
O O9 0.425710 0.320466 0.411278
O O10 0.117703 0.266436 0.240260
O O11 0.962151 0.973680 0.360885
O O12 0.892691 0.473016 0.152763
O O13 0.305852 0.359285 0.853856
O O14 0.253930 0.385013 0.680740
O O15 0.260725 0.342772 0.544093
O O16 0.000000 0.000000 0.500000
O O17 0.500000 0.500000 0.000000
O O18 0.000000 0.500000 0.500000
#
# Coordination Sequence:
#
# PCOD9058235 Si02
#       8
#     2   2   2   2   2   2   2   2
#     4  11  22  44  75  98 137 197 243 299 376 428
#     4  12  27  47  75 108 150 194 247 311 380 449
#     4  11  24  45  71  99 140 188 244 302 368 431
#     4  11  24  44  72 103 139 191 245 300 372 444
#     4  12  25  48  76 103 152 196 244 310 371 440
#     4  11  26  44  67 103 144 186 243 307 362 437
#     4  12  29  46  74 112 151 193 251 308 377 457
#     4  12  27  46  74 110 147 198 249 305 371 440
#
# _framework density 23.713460999999999
#
# number of rings (size 3 to 8) (size 9 to 14) (size 15 to 20)
#    0.000    0.500    3.750    3.750    5.250    6.500 
#    0.000    0.000    0.000    0.000    0.000    0.000 
#    0.000    0.000    0.000    0.000    0.000    0.000 
#
# Total GULP energy -89526.277136 kJ/mol
# GULP energy per Si atom -5595.392321 kJ/mol
# Density = 2.365949 g / cm^3
# Si number density = 23.713461 Si / 1000 Ang^3
#
#
#
# Elastic Constant Matrix: (Units=GPa)
#
#
# Indices 1 2 3 4 5 6 
#
# 1 88.8917 35.7621 17.2449 8.9112 -4.2749 -11.1339
# 2 35.7621 132.8269 14.6043 23.2271 0.4113 -15.8649
# 3 17.2449 14.6043 72.9363 7.2416 -7.1810 0.2033
# 4 8.9112 23.2271 7.2416 46.4121 0.3342 -3.4279
# 5 -4.2749 0.4113 -7.1810 0.3342 38.7744 6.8803
# 6 -11.1339 -15.8649 0.2033 -3.4279 6.8803 54.9903
#
#
#
# Elastic Compliance Matrix: (Units=1/GPa)
#
#
# Indices 1 2 3 4 5 6 
#
# 1 0.013226 -0.003002 -0.002403 -0.000542 0.000749 0.001693
# 2 -0.003002 0.009337 -0.000877 -0.003808 -0.000908 0.001965
# 3 -0.002403 -0.000877 0.014879 -0.001532 0.002732 -0.001232
# 4 -0.000542 -0.003808 -0.001532 0.023825 -0.000571 0.000354
# 5 0.000749 -0.000908 0.002732 -0.000571 0.027021 -0.003537
# 6 0.001693 0.001965 -0.001232 0.000354 -0.003537 0.019564
#
#
# Mechanical properties :
#
#
# Convention : Reuss Voigt Hill
#
# Bulk Modulus (GPa) = 40.19597 47.76415 43.98006
# Shear Modulus (GPa) = 38.84777 43.17162 41.00970
#
# Velocity S-wave (km/s) = 4.05188 4.27142 4.16310
# Velocity P-wave (km/s) = 6.23521 6.67178 6.45718
#
# Compressibility (1/GPa) = 0.02487811
#
# Stress axis : x y z
#
# Youngs Moduli (GPa) = 75.60836 107.10515 67.20970
#
# Poissons Ratio (x) = 0.32153 0.16151
# Poissons Ratio (y) = 0.22697 0.05891
# Poissons Ratio (z) = 0.18170 0.09389
#
# Static dielectric constant tensor:
#      x y z
#    x 1.908980 -0.014850 -0.024520 
#    y -0.014850 1.899040 -0.027710 
#    z -0.024520 -0.027710 1.984050 
# 
# From -- ./inp_files/547995.got.cif
#   From: 2010.05.17/outbox.cif.g08.bks.cpg/sg2_274_cif.got.tgz:547995.got - 2010.06.03 11:33:40.
