data_PCOD9058600
_publ_section_title
;
Structure prediction by ZEFSAII (Michael W. Deem and Ramdas Pophale) SiO2 
 PCOD9058600
Probable space group: P -1
;
_chemical_formula_sum "Si O2"
_cell_formula_units_Z 16
_cell_length_a 11.540351
_cell_length_b 8.357084
_cell_length_c 17.112477
_cell_angle_alpha 34.021428
_cell_angle_beta 126.867022
_cell_angle_gamma 126.745495
_cell_volume 719.695767
_symmetry_space_group_name_H-M "P -1"
_symmetry_group_IT_number 2
_symmetry_cell_setting 'triclinic'
loop_
_space_group_symop_operation_xyz
x,y,z
-x,-y,-z
loop_
_atom_site_type_symbol
_atom_site_label
_atom_site_fract_x
_atom_site_fract_y
_atom_site_fract_z
Si Si1 0.691909 0.366983 0.932910
Si Si2 0.828887 0.657577 0.722880
Si Si3 0.670382 0.619672 0.992072
Si Si4 0.364191 0.746112 0.310410
Si Si5 0.645231 0.711644 0.217972
Si Si6 0.891318 0.353174 0.446268
Si Si7 0.690668 0.767742 0.397575
Si Si8 0.090845 0.634009 0.725369
O O1 0.811439 0.554437 0.846891
O O2 0.702206 0.464858 0.987320
O O3 0.528187 0.398166 0.826990
O O4 0.695581 0.024417 0.068157
O O5 0.685014 0.478234 0.690554
O O6 0.964165 0.575493 0.763228
O O7 0.848242 0.004892 0.583293
O O8 0.693829 0.963929 0.845408
O O9 0.500000 0.500000 0.000000
O O10 0.784252 0.543896 0.131564
O O11 0.542433 0.834549 0.349178
O O12 0.306540 0.555576 0.440358
O O13 0.744485 0.483251 0.331449
O O14 0.670382 0.776623 0.293579
O O15 0.963397 0.423586 0.361539
O O16 0.000000 0.500000 0.500000
O O17 0.828318 0.021480 0.376076
#
# Coordination Sequence:
#
# PCOD9058600 Si02
#       8
#     2   2   2   2   2   2   2   2
#     4  11  26  46  72 114 152 188 247 308 365 436
#     4  12  28  48  70 110 152 191 244 306 367 440
#     4  12  25  47  79 109 145 197 249 301 369 441
#     4  11  25  43  75 109 145 187 252 303 361 434
#     4  11  24  46  76 104 150 195 242 307 373 425
#     4  12  29  48  76 107 148 198 248 301 375 443
#     4  11  22  46  73 108 144 195 241 306 364 435
#     4  12  26  49  75 103 152 199 244 300 375 442
#
# _framework density 22.231617
#
# number of rings (size 3 to 8) (size 9 to 14) (size 15 to 20)
#    0.000    0.500    5.000    1.875    7.000    1.500 
#    0.000    0.000    0.000    0.000    0.000    0.000 
#    0.000    0.000    0.000    0.000    0.000    0.000 
#
# Total GULP energy -89606.024620 kJ/mol
# GULP energy per Si atom -5600.376539 kJ/mol
# Density = 2.218102 g / cm^3
# Si number density = 22.231617 Si / 1000 Ang^3
#
#
#
# Elastic Constant Matrix: (Units=GPa)
#
#
# Indices 1 2 3 4 5 6 
#
# 1 110.1136 13.4477 56.5610 5.5883 -15.1702 11.3492
# 2 13.4477 75.0341 17.6036 10.9778 -4.3863 -5.2061
# 3 56.5610 17.6036 153.1032 -8.6158 6.6230 5.0837
# 4 5.5883 10.9778 -8.6158 37.6246 -8.2735 -6.0339
# 5 -15.1702 -4.3863 6.6230 -8.2735 40.3551 4.3096
# 6 11.3492 -5.2061 5.0837 -6.0339 4.3096 22.4056
#
#
#
# Elastic Compliance Matrix: (Units=1/GPa)
#
#
# Indices 1 2 3 4 5 6 
#
# 1 0.013611 -0.001031 -0.005069 -0.002808 0.006106 -0.007914
# 2 -0.001031 0.014717 -0.001653 -0.003933 0.000336 0.003193
# 3 -0.005069 -0.001653 0.008837 0.002819 -0.003122 0.001538
# 4 -0.002808 -0.003933 0.002819 0.030770 0.003565 0.007470
# 5 0.006106 0.000336 -0.003122 0.003565 0.029096 -0.006943
# 6 -0.007914 0.003193 0.001538 0.007470 -0.006943 0.052381
#
#
# Mechanical properties :
#
#
# Convention : Reuss Voigt Hill
#
# Bulk Modulus (GPa) = 46.17373 57.05282 51.61327
# Shear Modulus (GPa) = 29.04657 36.78630 32.91643
#
# Velocity S-wave (km/s) = 3.61854 4.07219 3.85205
# Velocity P-wave (km/s) = 6.18651 6.91585 6.56132
#
# Compressibility (1/GPa) = 0.02165734
#
# Stress axis : x y z
#
# Youngs Moduli (GPa) = 73.47196 67.95070 113.16285
#
# Poissons Ratio (x) = 0.07009 0.57362
# Poissons Ratio (y) = 0.07578 0.18705
# Poissons Ratio (z) = 0.37242 0.11232
#
# Static dielectric constant tensor:
#      x y z
#    x 1.831100 -0.002610 -0.003880 
#    y -0.002610 1.803150 0.019870 
#    z -0.003880 0.019870 1.811680 
# 
# From -- ./inp_files/392858.got.cif
#   From: 2010.05.17/outbox.cif.g08.bks.cpg/sg2_197_cif.got.tgz:392858.got - 2010.06.03 11:33:40.
