data_PCOD9058622
_publ_section_title
;
Structure prediction by ZEFSAII (Michael W. Deem and Ramdas Pophale) SiO2 
 PCOD9058622
Probable space group: P -1
;
_chemical_formula_sum "Si O2"
_cell_formula_units_Z 16
_cell_length_a 8.448240
_cell_length_b 8.811293
_cell_length_c 23.887982
_cell_angle_alpha 37.182069
_cell_angle_beta 132.911895
_cell_angle_gamma 107.376292
_cell_volume 656.909366
_symmetry_space_group_name_H-M "P -1"
_symmetry_group_IT_number 2
_symmetry_cell_setting 'triclinic'
loop_
_space_group_symop_operation_xyz
x,y,z
-x,-y,-z
loop_
_atom_site_type_symbol
_atom_site_label
_atom_site_fract_x
_atom_site_fract_y
_atom_site_fract_z
Si Si1 0.516043 0.279203 0.630786
Si Si2 0.016871 0.353606 0.880953
Si Si3 0.499808 0.703742 0.595909
Si Si4 0.049384 0.812759 0.311504
Si Si5 0.309526 0.700462 0.828373
Si Si6 0.966472 0.121496 0.394569
Si Si7 0.216495 0.303232 0.063289
Si Si8 0.195732 0.200927 0.855541
O O1 0.553011 0.509233 0.609898
O O2 0.231615 0.470721 0.478883
O O3 0.727355 0.142220 0.671724
O O4 0.584314 0.019193 0.766676
O O5 0.174080 0.514039 0.858108
O O6 0.093180 0.147808 0.904411
O O7 0.708104 0.541960 0.743341
O O8 0.098978 0.257911 0.992069
O O9 0.500000 0.000000 0.500000
O O10 0.208073 0.842323 0.503034
O O11 0.871592 0.886237 0.193111
O O12 0.869296 0.015011 0.258938
O O13 0.610188 0.565928 0.951578
O O14 0.278329 0.785182 0.730105
O O15 0.947389 0.437964 0.295323
O O16 0.000000 0.000000 0.500000
O O17 0.000000 0.500000 0.000000
O O18 0.500000 0.000000 0.000000
#
# Coordination Sequence:
#
# PCOD9058622 Si02
#       8
#     2   2   2   2   2   2   2   2
#     4  11  25  43  75 109 138 187 238 305 357 423
#     4  11  24  47  72 100 141 195 233 291 361 431
#     4  12  21  48  74 102 138 184 248 289 356 428
#     4  11  22  46  75 100 138 181 246 287 360 430
#     4  11  24  47  72  99 139 193 239 291 362 432
#     4  11  26  43  70 106 139 188 236 299 354 422
#     4  12  29  45  68 108 150 188 238 299 363 425
#     4  11  24  43  70 102 140 188 234 287 361 433
#
# _framework density 24.356480000000001
#
# number of rings (size 3 to 8) (size 9 to 14) (size 15 to 20)
#    0.000    0.750    5.000    1.875    3.500    8.000 
#    0.000    0.000    0.000    0.000    0.000    0.000 
#    0.000    0.000    0.000    0.000    0.000    0.000 
#
# Total GULP energy -89313.342750 kJ/mol
# GULP energy per Si atom -5582.083922 kJ/mol
# Density = 2.430104 g / cm^3
# Si number density = 24.356480 Si / 1000 Ang^3
#
#
#
# Elastic Constant Matrix: (Units=GPa)
#
#
# Indices 1 2 3 4 5 6 
#
# 1 64.3287 39.0138 31.6498 -3.4723 -0.5513 -17.0429
# 2 39.0138 112.8381 43.6163 24.8470 -11.6816 -15.3309
# 3 31.6498 43.6163 125.8542 29.0634 -11.3919 -0.2416
# 4 -3.4723 24.8470 29.0634 50.2008 -8.4865 -1.9164
# 5 -0.5513 -11.6816 -11.3919 -8.4865 44.8528 8.9846
# 6 -17.0429 -15.3309 -0.2416 -1.9164 8.9846 41.4572
#
#
#
# Elastic Compliance Matrix: (Units=1/GPa)
#
#
# Indices 1 2 3 4 5 6 
#
# 1 0.026177 -0.007742 -0.006279 0.009050 -0.003382 0.009013
# 2 -0.007742 0.013736 -0.001199 -0.006299 0.001741 0.001221
# 3 -0.006279 -0.001199 0.011586 -0.006335 0.002096 -0.003704
# 4 0.009050 -0.006299 -0.006335 0.027697 0.001646 0.002278
# 5 -0.003382 0.001741 0.002096 0.001646 0.024758 -0.006024
# 6 0.009013 0.001221 -0.003704 0.002278 -0.006024 0.029667
#
#
# Mechanical properties :
#
#
# Convention : Reuss Voigt Hill
#
# Bulk Modulus (GPa) = 47.48429 59.06454 53.27441
# Shear Modulus (GPa) = 29.22630 39.88489 34.55560
#
# Velocity S-wave (km/s) = 3.46777 4.05105 3.77071
# Velocity P-wave (km/s) = 5.96421 6.79588 6.39358
#
# Compressibility (1/GPa) = 0.02105960
#
# Stress axis : x y z
#
# Youngs Moduli (GPa) = 38.20143 72.80303 86.31288
#
# Poissons Ratio (x) = 0.56365 0.54192
# Poissons Ratio (y) = 0.29576 0.10346
# Poissons Ratio (z) = 0.23985 0.08727
#
# Static dielectric constant tensor:
#      x y z
#    x 1.500170 0.050130 -0.296310 
#    y 0.050130 1.983520 -0.006520 
#    z -0.296310 -0.006520 1.845900 
# 
# From -- ./inp_files/257021.got.cif
#   From: 2010.05.17/outbox.cif.g08.bks.cpg/sg2_129_cif.got.tgz:257021.got - 2010.06.03 11:33:40.
