data_PCOD9058156
_publ_section_title
;
Structure prediction by ZEFSAII (Michael W. Deem and Ramdas Pophale) SiO2 
 PCOD9058156
Probable space group: P -1
;
_chemical_formula_sum "Si O2"
_cell_formula_units_Z 16
_cell_length_a 17.038242
_cell_length_b 18.751829
_cell_length_c 11.068313
_cell_angle_alpha 145.738695
_cell_angle_beta 46.660148
_cell_angle_gamma 156.831557
_cell_volume 738.878313
_symmetry_space_group_name_H-M "P -1"
_symmetry_group_IT_number 2
_symmetry_cell_setting 'triclinic'
loop_
_space_group_symop_operation_xyz
x,y,z
-x,-y,-z
loop_
_atom_site_type_symbol
_atom_site_label
_atom_site_fract_x
_atom_site_fract_y
_atom_site_fract_z
Si Si1 0.130296 0.492240 0.713892
Si Si2 0.253365 0.706011 0.139995
Si Si3 0.504970 0.512510 0.654833
Si Si4 0.280083 0.508845 0.995917
Si Si5 0.482363 0.140286 0.353151
Si Si6 0.673270 0.563706 0.892488
Si Si7 0.029533 0.112942 0.291170
Si Si8 0.132831 0.964528 0.385692
O O1 0.343020 0.728323 0.743336
O O2 0.021628 0.250752 0.449577
O O3 0.956281 0.425194 0.793232
O O4 0.199465 0.559682 0.877058
O O5 0.424647 0.976115 0.282832
O O6 0.316311 0.688921 0.166345
O O7 0.500000 0.500000 0.500000
O O8 0.462409 0.610024 0.882189
O O9 0.730438 0.686596 0.696831
O O10 0.313400 0.236644 0.522496
O O11 0.281452 0.465936 0.072512
O O12 0.054033 0.245811 0.806242
O O13 0.579852 0.363637 0.623801
O O14 0.260450 0.964877 0.285241
O O15 0.500000 0.500000 0.000000
O O16 0.878470 0.849464 0.034960
O O17 0.960933 0.062264 0.433757
#
# Coordination Sequence:
#
# PCOD9058156 Si02
#       8
#     2   2   2   2   2   2   2   2
#     4  11  22  44  72 107 132 181 238 290 342 405
#     4  11  23  45  70 100 141 182 235 292 339 397
#     4  12  22  37  66 104 137 174 230 293 348 402
#     4  12  25  43  70 103 140 186 229 289 351 406
#     4  12  25  45  71 102 143 187 235 277 344 424
#     4  12  26  48  69 101 147 189 221 284 361 423
#     4  12  22  43  71 103 137 176 230 286 353 407
#     4  12  21  43  70 101 144 173 230 300 338 401
#
# _framework density 21.654446
#
# number of rings (size 3 to 8) (size 9 to 14) (size 15 to 20)
#    0.000    0.250    7.500    2.250    0.000    1.000 
#    4.500    0.625    0.000    0.000    0.000    0.000 
#    0.000    0.000    0.000    0.000    0.000    0.000 
#
# Total GULP energy -89544.848262 kJ/mol
# GULP energy per Si atom -5596.553016 kJ/mol
# Density = 2.160516 g / cm^3
# Si number density = 21.654446 Si / 1000 Ang^3
#
#
#
# Elastic Constant Matrix: (Units=GPa)
#
#
# Indices 1 2 3 4 5 6 
#
# 1 142.1133 54.0926 31.0745 2.6659 -15.1754 -9.7171
# 2 54.0926 153.4410 40.6197 -2.7915 -7.5818 -4.9399
# 3 31.0745 40.6197 90.8752 12.2533 -15.9110 -6.0444
# 4 2.6659 -2.7915 12.2533 28.9665 -5.4104 -10.1503
# 5 -15.1754 -7.5818 -15.9110 -5.4104 37.6284 2.0244
# 6 -9.7171 -4.9399 -6.0444 -10.1503 2.0244 23.0450
#
#
#
# Elastic Compliance Matrix: (Units=1/GPa)
#
#
# Indices 1 2 3 4 5 6 
#
# 1 0.008729 -0.002470 -0.001399 0.001069 0.002421 0.003042
# 2 -0.002470 0.008309 -0.003224 0.002719 -0.000354 0.001123
# 3 -0.001399 -0.003224 0.014371 -0.005621 0.004074 -0.000345
# 4 0.001069 0.002719 -0.005621 0.044379 0.003974 0.018757
# 5 0.002421 -0.000354 0.004074 0.003974 0.029713 0.001154
# 6 0.003042 0.001123 -0.000345 0.018757 0.001154 0.052987
#
#
# Mechanical properties :
#
#
# Convention : Reuss Voigt Hill
#
# Bulk Modulus (GPa) = 58.05293 70.88923 64.47108
# Shear Modulus (GPa) = 28.02462 35.30415 31.66438
#
# Velocity S-wave (km/s) = 3.60137 4.04213 3.82810
# Velocity P-wave (km/s) = 6.64531 7.38869 7.02683
#
# Compressibility (1/GPa) = 0.01722566
#
# Stress axis : x y z
#
# Youngs Moduli (GPa) = 114.55853 120.34616 69.58236
#
# Poissons Ratio (x) = 0.29726 0.09732
# Poissons Ratio (y) = 0.28296 0.22430
# Poissons Ratio (z) = 0.16023 0.38794
#
# Static dielectric constant tensor:
#      x y z
#    x 1.804330 -0.022650 -0.010040 
#    y -0.022650 1.776840 0.016710 
#    z -0.010040 0.016710 1.829810 
# 
# From -- ./inp_files/467167.got.cif
#   From: 2010.05.17/outbox.cif.g08.bks.cpg/sg2_234_cif.got.tgz:467167.got - 2010.06.03 11:33:40.
