data_PCOD9058781
_publ_section_title
;
Structure prediction by ZEFSAII (Michael W. Deem and Ramdas Pophale) SiO2 
 PCOD9058781
Probable space group: P -1
;
_chemical_formula_sum "Si O2"
_cell_formula_units_Z 14
_cell_length_a 15.309031
_cell_length_b 11.338734
_cell_length_c 12.718540
_cell_angle_alpha 46.957991
_cell_angle_beta 142.534477
_cell_angle_gamma 152.407744
_cell_volume 620.301037
_symmetry_space_group_name_H-M "P -1"
_symmetry_group_IT_number 2
_symmetry_cell_setting 'triclinic'
loop_
_space_group_symop_operation_xyz
x,y,z
-x,-y,-z
loop_
_atom_site_type_symbol
_atom_site_label
_atom_site_fract_x
_atom_site_fract_y
_atom_site_fract_z
Si Si1 0.150114 0.133011 0.314600
Si Si2 0.273635 0.295169 0.980223
Si Si3 0.847200 0.487148 0.140380
Si Si4 0.960746 0.295180 0.031142
Si Si5 0.354040 0.099156 0.869755
Si Si6 0.015629 0.729659 0.586748
Si Si7 0.529150 0.425031 0.336687
O O1 0.386216 0.298646 0.383459
O O2 0.943401 0.945482 0.147398
O O3 0.090685 0.948291 0.456417
O O4 0.139255 0.311238 0.228811
O O5 0.200757 0.402798 0.897398
O O6 0.500000 0.500000 0.000000
O O7 0.348586 0.246966 0.177997
O O8 0.015798 0.665949 0.095302
O O9 0.920178 0.387686 0.328413
O O10 0.603411 0.249752 0.995180
O O11 0.000000 0.500000 0.000000
O O12 0.722163 0.020566 0.014106
O O13 0.374502 0.309507 0.749706
O O14 0.160522 0.871001 0.745496
O O15 0.747728 0.504041 0.489767
#
# Coordination Sequence:
#
# PCOD9058781 Si02
#       7
#     2   2   2   2   2   2   2
#     4  12  25  44  72 102 139 190 226 285 351 407
#     4  11  22  49  76  96 137 189 240 277 345 423
#     4  11  26  45  72 103 140 185 233 288 347 409
#     4  12  24  42  72 105 135 180 236 278 347 418
#     4  11  23  44  68  98 145 187 227 281 347 420
#     4  12  25  42  68 106 144 176 231 293 348 403
#     4  11  24  42  68 103 136 185 232 284 341 411
#
# _framework density 22.569685
#
# number of rings (size 3 to 8) (size 9 to 14) (size 15 to 20)
#    0.000    0.571    7.143    2.143    0.000    3.429 
#    0.000    0.714    0.000    0.000    0.000    0.000 
#    0.000    0.000    0.000    0.000    0.000    0.000 
#
# Total GULP energy -78299.188054 kJ/mol
# GULP energy per Si atom -5592.799147 kJ/mol
# Density = 2.251832 g / cm^3
# Si number density = 22.569685 Si / 1000 Ang^3
#
#
#
# Elastic Constant Matrix: (Units=GPa)
#
#
# Indices 1 2 3 4 5 6 
#
# 1 135.7574 51.2360 47.7337 -8.6267 17.1087 3.9362
# 2 51.2360 86.0489 32.7914 -5.4095 4.2931 14.6191
# 3 47.7337 32.7914 101.3403 -0.5749 30.1589 -4.4246
# 4 -8.6267 -5.4095 -0.5749 37.3504 3.9839 -5.1577
# 5 17.1087 4.2931 30.1589 3.9839 36.2407 -6.4123
# 6 3.9362 14.6191 -4.4246 -5.1577 -6.4123 42.9920
#
#
#
# Elastic Compliance Matrix: (Units=1/GPa)
#
#
# Indices 1 2 3 4 5 6 
#
# 1 0.010649 -0.005173 -0.002600 0.001981 -0.002399 0.000396
# 2 -0.005173 0.017063 -0.004195 0.000165 0.002956 -0.005300
# 3 -0.002600 -0.004195 0.015869 0.000467 -0.011237 0.001678
# 4 0.001981 0.000165 0.000467 0.028042 -0.003969 0.002583
# 5 -0.002399 0.002956 -0.011237 -0.003969 0.038758 0.003363
# 6 0.000396 -0.005300 0.001678 0.002583 0.003363 0.026010
#
#
# Mechanical properties :
#
#
# Convention : Reuss Voigt Hill
#
# Bulk Modulus (GPa) = 50.89894 65.18542 58.04218
# Shear Modulus (GPa) = 29.96232 36.07567 33.01899
#
# Velocity S-wave (km/s) = 3.64750 4.00235 3.82904
# Velocity P-wave (km/s) = 6.35137 7.09246 6.73212
#
# Compressibility (1/GPa) = 0.01964677
#
# Stress axis : x y z
#
# Youngs Moduli (GPa) = 93.90283 58.60486 63.01414
#
# Poissons Ratio (x) = 0.30318 0.16382
# Poissons Ratio (y) = 0.48579 0.26432
# Poissons Ratio (z) = 0.24412 0.24583
#
# Static dielectric constant tensor:
#      x y z
#    x 1.901570 -0.032610 -0.023260 
#    y -0.032610 1.862190 -0.007340 
#    z -0.023260 -0.007340 1.826810 
# 
# From -- ./inp_files/451140.got.cif
#   From: 2010.05.17/outbox.cif.g08.bks.cpg/sg2_226_cif.got.tgz:451140.got - 2010.06.03 11:33:40.
