data_PCOD9058245
_publ_section_title
;
Structure prediction by ZEFSAII (Michael W. Deem and Ramdas Pophale) SiO2 
 PCOD9058245
Probable space group: P -1
;
_chemical_formula_sum "Si O2"
_cell_formula_units_Z 14
_cell_length_a 5.491555
_cell_length_b 11.609956
_cell_length_c 11.728606
_cell_angle_alpha 125.414945
_cell_angle_beta 73.568993
_cell_angle_gamma 103.893291
_cell_volume 581.749203
_symmetry_space_group_name_H-M "P -1"
_symmetry_group_IT_number 2
_symmetry_cell_setting 'triclinic'
loop_
_space_group_symop_operation_xyz
x,y,z
-x,-y,-z
loop_
_atom_site_type_symbol
_atom_site_label
_atom_site_fract_x
_atom_site_fract_y
_atom_site_fract_z
Si Si1 0.033116 0.822075 0.570962
Si Si2 0.203288 0.629227 0.077020
Si Si3 0.387276 0.647435 0.300852
Si Si4 0.503625 0.648637 0.817637
Si Si5 0.448534 0.831862 0.723972
Si Si6 0.160698 0.140668 0.722780
Si Si7 0.223298 0.097708 0.962725
O O1 0.125509 0.700760 0.409320
O O2 0.226328 0.818485 0.651254
O O3 0.732929 0.810119 0.630255
O O4 0.105472 0.978737 0.600765
O O5 0.074539 0.768173 0.211481
O O6 0.545888 0.484107 0.706789
O O7 0.341521 0.663587 0.960924
O O8 0.000000 0.500000 0.000000
O O9 0.359247 0.588266 0.142456
O O10 0.603781 0.778497 0.331361
O O11 0.384917 0.714311 0.761187
O O12 0.741595 0.761167 0.884292
O O13 0.448818 0.991691 0.866461
O O14 0.194312 0.138739 0.856341
O O15 0.000000 0.000000 0.000000
#
# Coordination Sequence:
#
# PCOD9058245 Si02
#       7
#     2   2   2   2   2   2   2
#     4  11  28  48  74 103 146 195 254 289 356 431
#     4  12  24  41  71 107 145 182 236 299 377 429
#     4  12  27  45  68 106 145 194 237 300 361 435
#     4  12  23  44  71 103 147 180 244 304 367 431
#     4  11  26  48  73 106 140 194 245 304 355 425
#     4  11  23  44  69 104 143 189 240 299 359 433
#     4  11  22  44  76 107 143 185 241 305 368 429
#
# _framework density 24.065355
#
# number of rings (size 3 to 8) (size 9 to 14) (size 15 to 20)
#    0.000    0.571    2.857    5.571    4.000    2.857 
#    0.000    0.000    0.000    0.000    0.000    0.000 
#    0.000    0.000    0.000    0.000    0.000    0.000 
#
# Total GULP energy -78347.785523 kJ/mol
# GULP energy per Si atom -5596.270395 kJ/mol
# Density = 2.401058 g / cm^3
# Si number density = 24.065355 Si / 1000 Ang^3
#
#
#
# Elastic Constant Matrix: (Units=GPa)
#
#
# Indices 1 2 3 4 5 6 
#
# 1 85.1588 40.1316 31.1124 -18.1550 -13.3122 -13.0079
# 2 40.1316 145.2895 18.5434 -9.7710 5.1142 -20.2381
# 3 31.1124 18.5434 84.9046 3.7677 -17.2039 -15.2001
# 4 -18.1550 -9.7710 3.7677 27.1679 -9.0235 -9.8714
# 5 -13.3122 5.1142 -17.2039 -9.0235 43.9659 -6.2746
# 6 -13.0079 -20.2381 -15.2001 -9.8714 -6.2746 48.7394
#
#
#
# Elastic Compliance Matrix: (Units=1/GPa)
#
#
# Indices 1 2 3 4 5 6 
#
# 1 0.022807 -0.003375 -0.004690 0.021691 0.011208 0.009059
# 2 -0.003375 0.008358 -0.000532 0.001172 -0.001614 0.002433
# 3 -0.004690 -0.000532 0.015241 -0.002738 0.004516 0.003308
# 4 0.021691 0.001172 -0.002738 0.067513 0.022352 0.021973
# 5 0.011208 -0.001614 0.004516 0.022352 0.034493 0.012697
# 6 0.009059 0.002433 0.003308 0.021973 0.012697 0.031062
#
#
# Mechanical properties :
#
#
# Convention : Reuss Voigt Hill
#
# Bulk Modulus (GPa) = 34.23300 54.99197 44.61249
# Shear Modulus (GPa) = 24.22425 39.01235 31.61830
#
# Velocity S-wave (km/s) = 3.17614 4.03066 3.62864
# Velocity P-wave (km/s) = 5.26369 6.67550 6.01119
#
# Compressibility (1/GPa) = 0.02921158
#
# Stress axis : x y z
#
# Youngs Moduli (GPa) = 43.84646 119.65246 65.61054
#
# Poissons Ratio (x) = 0.40382 0.30772
# Poissons Ratio (y) = 0.14798 0.03491
# Poissons Ratio (z) = 0.20564 0.06367
#
# Static dielectric constant tensor:
#      x y z
#    x 1.917050 -0.033800 0.039130 
#    y -0.033800 1.849650 0.032090 
#    z 0.039130 0.032090 1.917850 
# 
# From -- ./inp_files/365155.got.cif
#   From: 2010.05.17/outbox.cif.g08.bks.cpg/sg2_183_cif.got.tgz:365155.got - 2010.06.03 11:33:40.
