data_PCOD9058995
_publ_section_title
;
Structure prediction by ZEFSAII (Michael W. Deem and Ramdas Pophale) SiO2 
 PCOD9058995
Probable space group: P -1
;
_chemical_formula_sum "Si O2"
_cell_formula_units_Z 14
_cell_length_a 17.435680
_cell_length_b 7.883778
_cell_length_c 13.966179
_cell_angle_alpha 40.492775
_cell_angle_beta 37.228268
_cell_angle_gamma 36.140251
_cell_volume 646.793017
_symmetry_space_group_name_H-M "P -1"
_symmetry_group_IT_number 2
_symmetry_cell_setting 'triclinic'
loop_
_space_group_symop_operation_xyz
x,y,z
-x,-y,-z
loop_
_atom_site_type_symbol
_atom_site_label
_atom_site_fract_x
_atom_site_fract_y
_atom_site_fract_z
Si Si1 0.156279 0.877810 0.344442
Si Si2 0.608727 0.113608 0.606783
Si Si3 0.292377 0.628892 0.743839
Si Si4 0.288847 0.783013 0.883476
Si Si5 0.666799 0.834957 0.862992
Si Si6 0.150310 0.225233 0.010342
Si Si7 0.429110 0.225219 0.382280
O O1 0.262677 0.512466 0.413689
O O2 0.244569 0.017669 0.247236
O O3 0.000000 0.000000 0.500000
O O4 0.139630 0.010014 0.195061
O O5 0.470876 0.411277 0.663196
O O6 0.726916 0.190572 0.412820
O O7 0.666146 0.866026 0.736995
O O8 0.549430 0.997526 0.630179
O O9 0.231991 0.398044 0.897522
O O10 0.252662 0.519769 0.044003
O O11 0.463558 0.639165 0.788000
O O12 0.500000 0.000000 0.500000
O O13 0.222780 0.030130 0.925955
O O14 0.247203 0.857847 0.780469
O O15 0.500000 0.000000 0.000000
O O16 0.000000 0.500000 0.000000
#
# Coordination Sequence:
#
# PCOD9058995 Si02
#       7
#     2   2   2   2   2   2   2
#     4  12  29  49  73 113 160 195 248 319 384 446
#     4  11  23  39  72 108 145 182 252 311 366 431
#     4  11  23  43  69 110 142 189 245 311 366 446
#     4  12  24  46  77 106 143 192 261 307 369 445
#     4  12  23  45  74 105 149 196 251 307 366 449
#     4  12  29  49  75 105 154 203 245 310 387 449
#     4  12  25  44  78 113 145 197 256 313 370 447
#
# _framework density 21.645256
#
# number of rings (size 3 to 8) (size 9 to 14) (size 15 to 20)
#    0.000    0.286    7.143    0.857    6.000    1.714 
#    2.571    1.429    0.000    0.000    0.000    0.000 
#    0.000    0.000    0.000    0.000    0.000    0.000 
#
# Total GULP energy -78087.074339 kJ/mol
# GULP energy per Si atom -5577.648167 kJ/mol
# Density = 2.159599 g / cm^3
# Si number density = 21.645256 Si / 1000 Ang^3
#
#
#
# Elastic Constant Matrix: (Units=GPa)
#
#
# Indices 1 2 3 4 5 6 
#
# 1 99.2313 52.8771 46.6961 13.1900 13.1223 22.1081
# 2 52.8771 106.4173 44.4506 12.0453 4.5164 -1.1042
# 3 46.6961 44.4506 131.3950 2.4422 15.9311 -3.7514
# 4 13.1900 12.0453 2.4422 33.6023 1.5946 2.3658
# 5 13.1223 4.5164 15.9311 1.5946 47.2781 -5.0673
# 6 22.1081 -1.1042 -3.7514 2.3658 -5.0673 40.4572
#
#
#
# Elastic Compliance Matrix: (Units=1/GPa)
#
#
# Indices 1 2 3 4 5 6 
#
# 1 0.019811 -0.007606 -0.004189 -0.003703 -0.004497 -0.011768
# 2 -0.007606 0.014339 -0.002219 -0.002426 0.002079 0.004744
# 3 -0.004189 -0.002219 0.010118 0.001589 -0.001783 0.002851
# 4 -0.003703 -0.002426 0.001589 0.031970 -0.000333 0.000194
# 5 -0.004497 0.002079 -0.001783 -0.000333 0.023381 0.005297
# 6 -0.011768 0.004744 0.002851 0.000194 0.005297 0.032194
#
#
# Mechanical properties :
#
#
# Convention : Reuss Voigt Hill
#
# Bulk Modulus (GPa) = 61.58138 69.45457 65.51797
# Shear Modulus (GPa) = 30.25647 37.13552 33.69600
#
# Velocity S-wave (km/s) = 3.74282 4.14652 3.94983
# Velocity P-wave (km/s) = 6.86952 7.42174 7.15096
#
# Compressibility (1/GPa) = 0.01623868
#
# Stress axis : x y z
#
# Youngs Moduli (GPa) = 50.47823 69.74135 98.83077
#
# Poissons Ratio (x) = 0.53043 0.41404
# Poissons Ratio (y) = 0.38392 0.21934
# Poissons Ratio (z) = 0.21147 0.15478
#
# Static dielectric constant tensor:
#      x y z
#    x 1.638980 -0.111840 -0.060950 
#    y -0.111840 1.756480 -0.064760 
#    z -0.060950 -0.064760 1.871460 
# 
# From -- ./inp_files/461782.got.cif
#   From: 2010.05.17/outbox.cif.g08.bks.cpg/sg2_231_cif.got.tgz:461782.got - 2010.06.03 11:33:40.
