data_PCOD9058949
_publ_section_title
;
Structure prediction by ZEFSAII (Michael W. Deem and Ramdas Pophale) SiO2 
 PCOD9058949
Probable space group: P -1
;
_chemical_formula_sum "Si O2"
_cell_formula_units_Z 13
_cell_length_a 9.693831
_cell_length_b 11.867036
_cell_length_c 8.547718
_cell_angle_alpha 104.398846
_cell_angle_beta 59.900609
_cell_angle_gamma 142.469476
_cell_volume 497.088624
_symmetry_space_group_name_H-M "P -1"
_symmetry_group_IT_number 2
_symmetry_cell_setting 'triclinic'
loop_
_space_group_symop_operation_xyz
x,y,z
-x,-y,-z
loop_
_atom_site_type_symbol
_atom_site_label
_atom_site_fract_x
_atom_site_fract_y
_atom_site_fract_z
Si Si1 0.237293 0.691107 0.785956
Si Si2 0.340857 0.664403 0.042723
Si Si3 0.755640 0.783287 0.356451
Si Si4 0.222870 0.389761 0.440442
Si Si5 0.174273 0.911331 0.951282
Si Si6 0.241406 0.960408 0.560764
Si Si7 0.500000 0.500000 0.000000
O O1 0.153245 0.762545 0.947384
O O2 0.455321 0.863539 0.601184
O O3 0.966176 0.483444 0.800323
O O4 0.356070 0.677959 0.848698
O O5 0.566254 0.882219 0.049749
O O6 0.387402 0.568084 0.064302
O O7 0.443330 0.612944 0.436332
O O8 0.788856 0.703482 0.438034
O O9 0.855437 0.967342 0.412238
O O10 0.916155 0.830157 0.130335
O O11 0.351980 0.403621 0.221197
O O12 0.923394 0.234188 0.501788
O O13 0.189440 0.931364 0.763691
#
# Coordination Sequence:
#
# PCOD9058949 Si02
#       7
#     2   2   2   2   2   2   1
#     4  11  26  46  69 101 142 186 226 280 354 414
#     4  11  25  45  71  99 140 183 229 286 344 413
#     4  11  24  41  66 100 136 183 232 279 342 409
#     4  11  23  39  65  96 136 175 224 285 337 402
#     4  12  25  43  69 100 137 182 231 284 346 414
#     4  12  24  41  67 100 136 179 231 285 341 407
#     4  12  22  44  72 102 136 180 230 288 342 396
#
# _framework density 26.152277000000002
#
# number of rings (size 3 to 8) (size 9 to 14) (size 15 to 20)
#    0.000    0.615    0.000    8.308    0.000    5.538 
#    0.000    0.000    0.000    0.000    0.000    0.000 
#    0.000    0.000    0.000    0.000    0.000    0.000 
#
# Total GULP energy -72609.723262 kJ/mol
# GULP energy per Si atom -5585.363328 kJ/mol
# Density = 2.609275 g / cm^3
# Si number density = 26.152277 Si / 1000 Ang^3
#
#
#
# Elastic Constant Matrix: (Units=GPa)
#
#
# Indices 1 2 3 4 5 6 
#
# 1 90.5755 42.1338 16.3942 0.7672 13.9581 2.0956
# 2 42.1338 178.7667 34.2461 -28.0788 3.5122 26.1140
# 3 16.3942 34.2461 107.3322 -19.1632 18.0332 7.3493
# 4 0.7672 -28.0788 -19.1632 28.6344 -3.9932 -10.5595
# 5 13.9581 3.5122 18.0332 -3.9932 35.8395 8.1377
# 6 2.0956 26.1140 7.3493 -10.5595 8.1377 34.6352
#
#
#
# Elastic Compliance Matrix: (Units=1/GPa)
#
#
# Indices 1 2 3 4 5 6 
#
# 1 0.013985 -0.004123 -0.000916 -0.004984 -0.005651 0.002266
# 2 -0.004123 0.008389 -0.001125 0.006304 0.003107 -0.004645
# 3 -0.000916 -0.001125 0.011749 0.006681 -0.005072 0.001640
# 4 -0.004984 0.006304 0.006681 0.049147 0.001445 0.008775
# 5 -0.005651 0.003107 -0.005072 0.001445 0.034460 -0.008580
# 6 0.002266 -0.004645 0.001640 0.008775 -0.008580 0.036581
#
#
# Mechanical properties :
#
#
# Convention : Reuss Voigt Hill
#
# Bulk Modulus (GPa) = 45.88531 62.46918 54.17724
# Shear Modulus (GPa) = 28.75143 38.74849 33.74996
#
# Velocity S-wave (km/s) = 3.31930 3.85340 3.59627
# Velocity P-wave (km/s) = 5.68101 6.61338 6.16484
#
# Compressibility (1/GPa) = 0.02179347
#
# Stress axis : x y z
#
# Youngs Moduli (GPa) = 71.50446 119.20446 85.11668
#
# Poissons Ratio (x) = 0.49153 0.07796
# Poissons Ratio (y) = 0.29484 0.09578
# Poissons Ratio (z) = 0.06549 0.13414
#
# Static dielectric constant tensor:
#      x y z
#    x 2.052220 0.039270 -0.048010 
#    y 0.039270 2.036120 -0.014400 
#    z -0.048010 -0.014400 2.029320 
# 
# From -- ./inp_files/188358.got.cif
#   From: 2010.05.17/outbox.cif.g08.bks.cpg/sg2_95_cif.got.tgz:188358.got - 2010.06.03 11:33:40.
