data_PCOD9058007
_publ_section_title
;
Structure prediction by ZEFSAII (Michael W. Deem and Ramdas Pophale) SiO2 
 PCOD9058007
Probable space group: P -1
;
_chemical_formula_sum "Si O2"
_cell_formula_units_Z 14
_cell_length_a 9.140700
_cell_length_b 15.770417
_cell_length_c 12.851538
_cell_angle_alpha 26.075002
_cell_angle_beta 109.546669
_cell_angle_gamma 118.698363
_cell_volume 691.415641
_symmetry_space_group_name_H-M "P -1"
_symmetry_group_IT_number 2
_symmetry_cell_setting 'triclinic'
loop_
_space_group_symop_operation_xyz
x,y,z
-x,-y,-z
loop_
_atom_site_type_symbol
_atom_site_label
_atom_site_fract_x
_atom_site_fract_y
_atom_site_fract_z
Si Si1 0.264722 0.017408 0.794686
Si Si2 0.811390 0.308825 0.676500
Si Si3 0.668154 0.103610 0.499009
Si Si4 0.466629 0.528889 0.622514
Si Si5 0.420002 0.065875 0.115577
Si Si6 0.631380 0.514389 0.108123
Si Si7 0.059677 0.025989 0.367339
O O1 0.412220 0.979694 0.807822
O O2 0.106482 0.013520 0.696404
O O3 0.362288 0.257725 0.597577
O O4 0.203143 0.830190 0.071403
O O5 0.684919 0.424088 0.514026
O O6 0.000000 0.500000 0.500000
O O7 0.734769 0.122771 0.775060
O O8 0.684661 0.325257 0.304184
O O9 0.500000 0.000000 0.500000
O O10 0.631025 0.952002 0.756904
O O11 0.841919 0.122106 0.466951
O O12 0.443604 0.517275 0.757089
O O13 0.460552 0.306347 0.827385
O O14 0.500000 0.500000 0.000000
O O15 0.795493 0.738745 0.885243
O O16 0.000000 0.000000 0.500000
#
# Coordination Sequence:
#
# PCOD9058007 Si02
#       7
#     2   2   2   2   2   2   2
#     4  11  25  43  67 102 138 173 228 285 333 400
#     4  11  25  44  68 100 142 177 225 282 337 402
#     4  12  23  42  71  98 129 180 226 269 342 404
#     4  11  22  44  68  98 134 182 227 278 338 398
#     4  11  23  44  73  97 134 183 229 273 340 401
#     4  12  22  41  70  95 134 179 223 281 334 402
#     4  12  26  42  67 102 139 171 225 283 340 402
#
# _framework density 20.248311000000001
#
# number of rings (size 3 to 8) (size 9 to 14) (size 15 to 20)
#    0.000    0.571    5.714    4.286    0.000    4.571 
#    0.000    0.000    0.000    0.000    0.000    0.000 
#    0.000    0.000    0.000    0.000    0.000    0.000 
#
# Total GULP energy -78229.164615 kJ/mol
# GULP energy per Si atom -5587.797473 kJ/mol
# Density = 2.020222 g / cm^3
# Si number density = 20.248311 Si / 1000 Ang^3
#
#
#
# Elastic Constant Matrix: (Units=GPa)
#
#
# Indices 1 2 3 4 5 6 
#
# 1 104.6853 72.1360 47.3307 -0.2850 2.2998 11.7269
# 2 72.1360 98.6008 25.1709 2.2392 7.2439 30.6906
# 3 47.3307 25.1709 113.7928 -15.8673 11.2152 9.3864
# 4 -0.2850 2.2392 -15.8673 55.1412 -7.2174 -0.4470
# 5 2.2998 7.2439 11.2152 -7.2174 48.2184 -2.2984
# 6 11.7269 30.6906 9.3864 -0.4470 -2.2984 47.5025
#
#
#
# Elastic Compliance Matrix: (Units=1/GPa)
#
#
# Indices 1 2 3 4 5 6 
#
# 1 0.025135 -0.019214 -0.007301 -0.000648 0.003662 0.007822
# 2 -0.019214 0.028229 0.003272 -0.001066 -0.004931 -0.014390
# 3 -0.007301 0.003272 0.011996 0.002915 -0.002630 -0.002782
# 4 -0.000648 -0.001066 0.002915 0.019337 0.002435 0.000573
# 5 0.003662 -0.004931 -0.002630 0.002435 0.022468 0.003912
# 6 0.007822 -0.014390 -0.002782 0.000573 0.003912 0.029162
#
#
# Mechanical properties :
#
#
# Convention : Reuss Voigt Hill
#
# Bulk Modulus (GPa) = 52.98323 67.37268 60.17796
# Shear Modulus (GPa) = 26.44061 41.66851 34.05456
#
# Velocity S-wave (km/s) = 3.61753 4.54130 4.10548
# Velocity P-wave (km/s) = 6.60850 7.80022 7.22896
#
# Compressibility (1/GPa) = 0.01887390
#
# Stress axis : x y z
#
# Youngs Moduli (GPa) = 39.78592 35.42466 83.36158
#
# Poissons Ratio (x) = 0.68064 0.60861
# Poissons Ratio (y) = 0.76443 -0.27274
# Poissons Ratio (z) = 0.29047 -0.11590
#
# Static dielectric constant tensor:
#      x y z
#    x 1.298340 -0.248810 -0.228610 
#    y -0.248810 1.601440 -0.124530 
#    z -0.228610 -0.124530 1.601540 
# 
# From -- ./inp_files/226438.got.cif
#   From: 2010.05.17/outbox.cif.g08.bks.cpg/sg2_114_cif.got.tgz:226438.got - 2010.06.03 11:33:40.
