data_PCOD9058753
_publ_section_title
;
Structure prediction by ZEFSAII (Michael W. Deem and Ramdas Pophale) SiO2 
 PCOD9058753
Probable space group: P -1
;
_chemical_formula_sum "Si O2"
_cell_formula_units_Z 15
_cell_length_a 12.128678
_cell_length_b 9.244076
_cell_length_c 8.462949
_cell_angle_alpha 48.507099
_cell_angle_beta 59.630109
_cell_angle_gamma 68.344926
_cell_volume 612.348044
_symmetry_space_group_name_H-M "P -1"
_symmetry_group_IT_number 2
_symmetry_cell_setting 'triclinic'
loop_
_space_group_symop_operation_xyz
x,y,z
-x,-y,-z
loop_
_atom_site_type_symbol
_atom_site_label
_atom_site_fract_x
_atom_site_fract_y
_atom_site_fract_z
Si Si1 0.918013 0.552642 0.177492
Si Si2 0.328054 0.642333 0.599658
Si Si3 0.181765 0.056105 0.454147
Si Si4 0.438261 0.494251 0.315714
Si Si5 0.901968 0.958438 0.817932
Si Si6 0.357126 0.092898 0.565930
Si Si7 0.246580 0.746829 0.087418
Si Si8 0.000000 0.500000 0.500000
O O1 0.778935 0.500352 0.263809
O O2 0.955099 0.449951 0.388295
O O3 0.914892 0.779111 0.055683
O O4 0.000000 0.500000 0.000000
O O5 0.256799 0.848135 0.530057
O O6 0.415929 0.630041 0.388337
O O7 0.412185 0.568464 0.740606
O O8 0.044130 0.033714 0.650245
O O9 0.142706 0.123319 0.258777
O O10 0.277306 0.166537 0.415765
O O11 0.372705 0.285818 0.518987
O O12 0.373430 0.616163 0.132921
O O13 0.797801 0.119070 0.829130
O O14 0.500000 0.000000 0.500000
O O15 0.278136 0.915386 0.818589
O O16 0.127077 0.611426 0.251163
#
# Coordination Sequence:
#
# PCOD9058753 Si02
#       8
#     2   2   2   2   2   2   2   1
#     4  12  25  45  77 114 152 208 262 326 400 464
#     4  11  22  48  72 106 149 203 259 315 386 471
#     4  11  23  46  72 109 155 191 264 322 382 477
#     4  11  25  48  78 102 158 206 263 324 381 484
#     4  11  25  45  76 112 153 203 256 329 395 474
#     4  12  28  50  77 114 157 206 263 328 395 470
#     4  12  28  48  77 119 154 207 260 323 413 463
#     4  12  28  48  74 116 164 194 266 330 392 480
#
# _framework density 24.495875999999999
#
# number of rings (size 3 to 8) (size 9 to 14) (size 15 to 20)
#    0.000    0.533    5.333    1.600    3.733    2.667 
#    0.000    2.667    0.000    0.000    0.000    0.000 
#    0.000    0.000    0.000    0.000    0.000    0.000 
#
# Total GULP energy -83589.803569 kJ/mol
# GULP energy per Si atom -5572.653571 kJ/mol
# Density = 2.444012 g / cm^3
# Si number density = 24.495876 Si / 1000 Ang^3
#
#
#
# Elastic Constant Matrix: (Units=GPa)
#
#
# Indices 1 2 3 4 5 6 
#
# 1 166.9312 32.5038 26.1738 4.4363 8.0392 5.3583
# 2 32.5038 108.6463 19.4460 -7.9541 16.7145 0.4268
# 3 26.1738 19.4460 59.3304 -4.0220 3.3511 2.5100
# 4 4.4363 -7.9541 -4.0220 35.3449 0.4574 13.4493
# 5 8.0392 16.7145 3.3511 0.4574 33.6640 5.6613
# 6 5.3583 0.4268 2.5100 13.4493 5.6613 71.3677
#
#
#
# Elastic Compliance Matrix: (Units=1/GPa)
#
#
# Indices 1 2 3 4 5 6 
#
# 1 0.006765 -0.001595 -0.002526 -0.001453 -0.000537 -0.000093
# 2 -0.001595 0.011059 -0.002481 0.002444 -0.004908 0.000070
# 3 -0.002526 -0.002481 0.018969 0.002256 0.000066 -0.000893
# 4 -0.001453 0.002444 0.002256 0.031528 -0.000530 -0.005884
# 5 -0.000537 -0.004908 0.000066 -0.000530 0.032679 -0.002425
# 6 -0.000093 0.000070 -0.000893 -0.005884 -0.002425 0.015351
#
#
# Mechanical properties :
#
#
# Convention : Reuss Voigt Hill
#
# Bulk Modulus (GPa) = 42.39250 54.57278 48.48264
# Shear Modulus (GPa) = 36.38557 45.19430 40.78993
#
# Velocity S-wave (km/s) = 3.85824 4.29998 4.08508
# Velocity P-wave (km/s) = 6.09849 6.85418 6.48735
#
# Compressibility (1/GPa) = 0.02358908
#
# Stress axis : x y z
#
# Youngs Moduli (GPa) = 147.82973 90.42274 52.71717
#
# Poissons Ratio (x) = 0.14424 0.13314
# Poissons Ratio (y) = 0.23581 0.13080
# Poissons Ratio (z) = 0.37336 0.22435
#
# Static dielectric constant tensor:
#      x y z
#    x 1.920500 -0.010500 0.068630 
#    y -0.010500 2.047580 0.073390 
#    z 0.068630 0.073390 2.037650 
# 
# From -- ./inp_files/241881.got.cif
#   From: 2010.05.17/outbox.cif.g08.bks.cpg/sg2_121_cif.got.tgz:241881.got - 2010.06.03 11:33:40.
