data_PCOD9058006
_publ_section_title
;
Structure prediction by ZEFSAII (Michael W. Deem and Ramdas Pophale) SiO2 
 PCOD9058006
Probable space group: P -1
;
_chemical_formula_sum "Si O2"
_cell_formula_units_Z 14
_cell_length_a 18.145004
_cell_length_b 11.899714
_cell_length_c 9.741638
_cell_angle_alpha 69.389612
_cell_angle_beta 53.742686
_cell_angle_gamma 25.922138
_cell_volume 637.635358
_symmetry_space_group_name_H-M "P -1"
_symmetry_group_IT_number 2
_symmetry_cell_setting 'triclinic'
loop_
_space_group_symop_operation_xyz
x,y,z
-x,-y,-z
loop_
_atom_site_type_symbol
_atom_site_label
_atom_site_fract_x
_atom_site_fract_y
_atom_site_fract_z
Si Si1 0.884077 0.901319 0.176207
Si Si2 0.688949 0.486920 0.177847
Si Si3 0.725137 0.173306 0.534615
Si Si4 0.559092 0.811426 0.930700
Si Si5 0.932457 0.577646 0.882974
Si Si6 0.112807 0.577537 0.516941
Si Si7 0.608940 0.581278 0.524962
O O1 0.031270 0.601871 0.132653
O O2 0.827371 0.007094 0.348566
O O3 0.644375 0.151966 0.264701
O O4 0.039413 0.820722 0.977050
O O5 0.542216 0.541793 0.299232
O O6 0.595160 0.652025 0.355021
O O7 0.625159 0.633123 0.046498
O O8 0.741984 0.295246 0.483064
O O9 0.870073 0.929706 0.594840
O O10 0.753007 0.599122 0.696910
O O11 0.500000 0.000000 0.000000
O O12 0.324902 0.066961 0.000538
O O13 0.080142 0.491027 0.666481
O O14 0.000000 0.500000 0.000000
O O15 0.259741 0.488983 0.489012
#
# Coordination Sequence:
#
# PCOD9058006 Si02
#       7
#     2   2   2   2   2   2   2
#     4  11  23  43  68 101 129 174 227 267 341 393
#     4  11  22  44  68  98 132 173 227 275 326 397
#     4  11  24  45  70  97 131 181 230 276 326 397
#     4  12  25  43  69 101 136 177 226 270 339 409
#     4  12  26  43  70 103 139 174 219 281 344 404
#     4  12  26  45  69 100 140 179 218 282 341 395
#     4  11  27  44  68  98 138 177 229 275 332 393
#
# _framework density 21.956123000000002
#
# number of rings (size 3 to 8) (size 9 to 14) (size 15 to 20)
#    0.000    0.571    4.286    3.857    4.000    4.571 
#    0.000    0.714    0.000    0.000    0.000    0.000 
#    0.000    0.000    0.000    0.000    0.000    0.000 
#
# Total GULP energy -78249.048652 kJ/mol
# GULP energy per Si atom -5589.217761 kJ/mol
# Density = 2.190615 g / cm^3
# Si number density = 21.956123 Si / 1000 Ang^3
#
#
#
# Elastic Constant Matrix: (Units=GPa)
#
#
# Indices 1 2 3 4 5 6 
#
# 1 98.1990 25.9962 41.3251 0.9522 -13.0402 -9.5816
# 2 25.9962 75.2998 39.1784 -3.2099 5.9102 -11.7751
# 3 41.3251 39.1784 134.8514 -5.3425 -14.0203 -3.3169
# 4 0.9522 -3.2099 -5.3425 37.0015 -11.7999 -6.2364
# 5 -13.0402 5.9102 -14.0203 -11.7999 34.4119 2.0698
# 6 -9.5816 -11.7751 -3.3169 -6.2364 2.0698 45.2301
#
#
#
# Elastic Compliance Matrix: (Units=1/GPa)
#
#
# Indices 1 2 3 4 5 6 
#
# 1 0.012825 -0.003235 -0.002444 0.000768 0.004587 0.001592
# 2 -0.003235 0.018049 -0.004879 -0.000548 -0.006735 0.003888
# 3 -0.002444 -0.004879 0.010179 0.002545 0.004987 -0.000919
# 4 0.000768 -0.000548 0.002545 0.031869 0.012106 0.004047
# 5 0.004587 -0.006735 0.004987 0.012106 0.038167 -0.000493
# 6 0.001592 0.003888 -0.000919 0.004047 -0.000493 0.023972
#
#
# Mechanical properties :
#
#
# Convention : Reuss Voigt Hill
#
# Bulk Modulus (GPa) = 50.15592 57.92774 54.04183
# Shear Modulus (GPa) = 30.70853 36.78540 33.74697
#
# Velocity S-wave (km/s) = 3.74389 4.09761 3.92474
# Velocity P-wave (km/s) = 6.44843 6.98770 6.72347
#
# Compressibility (1/GPa) = 0.01993783
#
# Stress axis : x y z
#
# Youngs Moduli (GPa) = 77.97140 55.40574 98.24483
#
# Poissons Ratio (x) = 0.17921 0.24012
# Poissons Ratio (y) = 0.25220 0.47931
# Poissons Ratio (z) = 0.19057 0.27031
#
# Static dielectric constant tensor:
#      x y z
#    x 1.789070 -0.030370 -0.033300 
#    y -0.030370 1.845970 0.032520 
#    z -0.033300 0.032520 1.807670 
# 
# From -- ./inp_files/172604.got.cif
#   From: 2010.05.17/outbox.cif.g08.bks.cpg/sg2_87_cif.got.tgz:172604.got - 2010.06.03 11:33:40.
