data_PCOD9058745
_publ_section_title
;
Structure prediction by ZEFSAII (Michael W. Deem and Ramdas Pophale) SiO2 
 PCOD9058745
Probable space group: P -1
;
_chemical_formula_sum "Si O2"
_cell_formula_units_Z 16
_cell_length_a 9.023914
_cell_length_b 12.356327
_cell_length_c 21.612277
_cell_angle_alpha 149.827635
_cell_angle_beta 49.965385
_cell_angle_gamma 144.667083
_cell_volume 684.324830
_symmetry_space_group_name_H-M "P -1"
_symmetry_group_IT_number 2
_symmetry_cell_setting 'triclinic'
loop_
_space_group_symop_operation_xyz
x,y,z
-x,-y,-z
loop_
_atom_site_type_symbol
_atom_site_label
_atom_site_fract_x
_atom_site_fract_y
_atom_site_fract_z
Si Si1 0.164481 0.512626 0.518636
Si Si2 0.918272 0.859624 0.884084
Si Si3 0.660927 0.776788 0.727871
Si Si4 0.582585 0.308424 0.123493
Si Si5 0.592880 0.158257 0.726084
Si Si6 0.218281 0.252815 0.881587
Si Si7 0.238902 0.755239 0.408586
Si Si8 0.821759 0.287261 0.857700
O O1 0.342237 0.450625 0.418252
O O2 0.000000 0.500000 0.500000
O O3 0.978103 0.294332 0.515672
O O4 0.345418 0.835684 0.654844
O O5 0.639416 0.754056 0.889716
O O6 0.866357 0.569558 0.735771
O O7 0.137791 0.120683 0.907431
O O8 0.000000 0.000000 0.000000
O O9 0.455045 0.627388 0.765356
O O10 0.654140 0.976804 0.783040
O O11 0.954015 0.000727 0.789918
O O12 0.871165 0.537127 0.131045
O O13 0.500000 0.000000 0.000000
O O14 0.467314 0.298913 0.816965
O O15 0.699119 0.132608 0.622346
O O16 0.791123 0.293597 0.795572
O O17 0.253062 0.534261 0.008783
O O18 0.500000 0.000000 0.500000
#
# Coordination Sequence:
#
# PCOD9058745 Si02
#       8
#     2   2   2   2   2   2   2   2
#     4  12  23  48  71 102 141 182 247 297 352 425
#     4  11  24  44  75 110 140 188 243 305 361 423
#     4  11  25  44  75  99 140 192 232 289 366 429
#     4  11  25  44  70 101 147 184 232 293 364 436
#     4  12  27  44  74 105 141 185 247 304 346 434
#     4  11  22  48  68 107 143 184 235 303 351 433
#     4  12  25  42  76 108 138 191 242 297 369 427
#     4  12  27  46  68 108 147 187 236 293 374 433
#
# _framework density 23.380709
#
# number of rings (size 3 to 8) (size 9 to 14) (size 15 to 20)
#    0.000    0.500    6.250    2.250    3.500    2.500 
#    0.000    1.250    0.000    0.000    0.000    0.000 
#    0.000    0.000    0.000    0.000    0.000    0.000 
#
# Total GULP energy -89501.177861 kJ/mol
# GULP energy per Si atom -5593.823616 kJ/mol
# Density = 2.332749 g / cm^3
# Si number density = 23.380709 Si / 1000 Ang^3
#
#
#
# Elastic Constant Matrix: (Units=GPa)
#
#
# Indices 1 2 3 4 5 6 
#
# 1 50.7084 16.7427 27.0434 -15.0590 3.1424 -15.6639
# 2 16.7427 103.8009 26.9144 -22.0133 -4.3356 -19.2413
# 3 27.0434 26.9144 118.6359 -12.4500 -9.3532 -6.1075
# 4 -15.0590 -22.0133 -12.4500 41.9905 -9.4956 4.3934
# 5 3.1424 -4.3356 -9.3532 -9.4956 35.3108 -4.0270
# 6 -15.6639 -19.2413 -6.1075 4.3934 -4.0270 28.5268
#
#
#
# Elastic Compliance Matrix: (Units=1/GPa)
#
#
# Indices 1 2 3 4 5 6 
#
# 1 0.028921 0.000985 -0.005276 0.007809 -0.000132 0.014194
# 2 0.000985 0.013077 -0.001754 0.006662 0.003814 0.008498
# 3 -0.005276 -0.001754 0.010308 0.001114 0.003101 -0.001607
# 4 0.007809 0.006662 0.001114 0.032053 0.009659 0.005447
# 5 -0.000132 0.003814 0.003101 0.009659 0.032940 0.006327
# 6 0.014194 0.008498 -0.001607 0.005447 0.006327 0.048291
#
#
# Mechanical properties :
#
#
# Convention : Reuss Voigt Hill
#
# Bulk Modulus (GPa) = 24.86566 46.06067 35.46317
# Shear Modulus (GPa) = 26.16618 34.66192 30.41405
#
# Velocity S-wave (km/s) = 3.34898 3.85450 3.61060
# Velocity P-wave (km/s) = 5.06087 6.28909 5.70811
#
# Compressibility (1/GPa) = 0.04021610
#
# Stress axis : x y z
#
# Youngs Moduli (GPa) = 34.57696 76.46878 97.00774
#
# Poissons Ratio (x) = -0.07531 0.51183
# Poissons Ratio (y) = -0.03405 0.17014
# Poissons Ratio (z) = 0.18244 0.13412
#
# Static dielectric constant tensor:
#      x y z
#    x -0.546010 0.163720 1.297530 
#    y 0.163720 1.872300 -0.089760 
#    z 1.297530 -0.089760 1.307660 
# 
# From -- ./inp_files/589702.got.cif
#   From: 2010.05.17/outbox.cif.g08.bks.cpg/sg2_295_cif.got.tgz:589702.got - 2010.06.03 11:33:40.
