data_PCOD9058233
_publ_section_title
;
Structure prediction by ZEFSAII (Michael W. Deem and Ramdas Pophale) SiO2 
 PCOD9058233
Probable space group: P -1
;
_chemical_formula_sum "Si O2"
_cell_formula_units_Z 14
_cell_length_a 5.135002
_cell_length_b 10.637471
_cell_length_c 19.921189
_cell_angle_alpha 141.568920
_cell_angle_beta 124.611845
_cell_angle_gamma 69.296613
_cell_volume 547.705425
_symmetry_space_group_name_H-M "P -1"
_symmetry_group_IT_number 2
_symmetry_cell_setting 'triclinic'
loop_
_space_group_symop_operation_xyz
x,y,z
-x,-y,-z
loop_
_atom_site_type_symbol
_atom_site_label
_atom_site_fract_x
_atom_site_fract_y
_atom_site_fract_z
Si Si1 0.103792 0.933633 0.660473
Si Si2 0.590299 0.638409 0.638652
Si Si3 0.522170 0.336543 0.084930
Si Si4 0.740980 0.859961 0.450623
Si Si5 0.017206 0.020547 0.824620
Si Si6 0.429566 0.663969 0.112527
Si Si7 0.294414 0.447604 0.228534
O O1 0.942431 0.809162 0.522646
O O2 0.897234 0.979718 0.712917
O O3 0.343886 0.797400 0.669243
O O4 0.265646 0.158980 0.753796
O O5 0.500000 0.500000 0.500000
O O6 0.928884 0.795907 0.748728
O O7 0.594095 0.541949 0.672602
O O8 0.618885 0.867228 0.064472
O O9 0.905367 0.409935 0.160805
O O10 0.353217 0.518655 0.104619
O O11 0.400802 0.289428 0.123963
O O12 0.501266 0.652930 0.310916
O O13 0.500000 0.000000 0.500000
O O14 0.000000 0.000000 0.500000
O O15 0.819532 0.196331 0.891429
O O16 0.500000 0.500000 0.000000
#
# Coordination Sequence:
#
# PCOD9058233 Si02
#       7
#     2   2   2   2   2   2   2
#     4  11  26  46  79 109 150 200 259 318 374 460
#     4  11  29  52  77 106 150 209 273 315 374 454
#     4  12  27  47  76 115 161 195 253 315 394 463
#     4  12  28  48  77 113 155 194 254 321 392 456
#     4  11  26  45  78 114 150 206 255 314 383 461
#     4  11  22  44  75 115 155 195 248 311 387 465
#     4  12  29  49  76 110 153 208 251 321 386 451
#
# _framework density 25.561185999999999
#
# number of rings (size 3 to 8) (size 9 to 14) (size 15 to 20)
#    0.000    0.571    1.429    4.714   16.000    2.286 
#    0.000    0.000    0.000    0.000    0.000    0.000 
#    0.000    0.000    0.000    0.000    0.000    0.000 
#
# Total GULP energy -78179.685565 kJ/mol
# GULP energy per Si atom -5584.263255 kJ/mol
# Density = 2.550301 g / cm^3
# Si number density = 25.561186 Si / 1000 Ang^3
#
#
#
# Elastic Constant Matrix: (Units=GPa)
#
#
# Indices 1 2 3 4 5 6 
#
# 1 134.8416 34.6949 50.2997 1.5246 13.2090 27.8804
# 2 34.6949 83.3868 44.8804 -4.0615 8.7865 26.0373
# 3 50.2997 44.8804 150.5978 -5.4123 6.8058 21.7303
# 4 1.5246 -4.0615 -5.4123 40.6554 11.0325 2.0012
# 5 13.2090 8.7865 6.8058 11.0325 52.3424 4.5599
# 6 27.8804 26.0373 21.7303 2.0012 4.5599 47.6052
#
#
#
# Elastic Compliance Matrix: (Units=1/GPa)
#
#
# Indices 1 2 3 4 5 6 
#
# 1 0.009501 -0.001531 -0.002137 -0.000208 -0.001505 -0.003599
# 2 -0.001531 0.016834 -0.003381 0.002124 -0.001866 -0.006678
# 3 -0.002137 -0.003381 0.008520 0.000952 -0.000130 -0.000815
# 4 -0.000208 0.002124 0.000952 0.026635 -0.005865 -0.002032
# 5 -0.001505 -0.001866 -0.000130 -0.005865 0.021034 0.000194
# 6 -0.003599 -0.006678 -0.000815 -0.002032 0.000194 0.027205
#
#
# Mechanical properties :
#
#
# Convention : Reuss Voigt Hill
#
# Bulk Modulus (GPa) = 48.17839 69.84181 59.01010
# Shear Modulus (GPa) = 38.24165 44.05068 41.14616
#
# Velocity S-wave (km/s) = 3.87212 4.15582 4.01648
# Velocity P-wave (km/s) = 6.23540 7.10003 6.68172
#
# Compressibility (1/GPa) = 0.02075619
#
# Stress axis : x y z
#
# Youngs Moduli (GPa) = 105.25038 59.40239 117.37705
#
# Poissons Ratio (x) = 0.09092 0.25088
# Poissons Ratio (y) = 0.16109 0.39690
# Poissons Ratio (z) = 0.22496 0.20086
#
# Static dielectric constant tensor:
#      x y z
#    x 2.069010 0.077620 -0.202610 
#    y 0.077620 2.034880 0.057260 
#    z -0.202610 0.057260 1.614290 
# 
# From -- ./inp_files/106572.got.cif
#   From: 2010.05.17/outbox.cif.g08.bks.cpg/sg2_54_cif.got.tgz:106572.got - 2010.06.03 11:33:40.
