data_PCOD9058589
_publ_section_title
;
Structure prediction by ZEFSAII (Michael W. Deem and Ramdas Pophale) SiO2 
 PCOD9058589
Probable space group: P -1
;
_chemical_formula_sum "Si O2"
_cell_formula_units_Z 16
_cell_length_a 8.289942
_cell_length_b 16.386149
_cell_length_c 5.700028
_cell_angle_alpha 75.603840
_cell_angle_beta 65.684914
_cell_angle_gamma 61.544074
_cell_volume 619.030580
_symmetry_space_group_name_H-M "P -1"
_symmetry_group_IT_number 2
_symmetry_cell_setting 'triclinic'
loop_
_space_group_symop_operation_xyz
x,y,z
-x,-y,-z
loop_
_atom_site_type_symbol
_atom_site_label
_atom_site_fract_x
_atom_site_fract_y
_atom_site_fract_z
Si Si1 0.797531 0.012967 0.997744
Si Si2 0.438947 0.206394 0.123469
Si Si3 0.825053 0.467212 0.166750
Si Si4 0.823834 0.854991 0.403993
Si Si5 0.913356 0.285589 0.956902
Si Si6 0.923743 0.121384 0.400837
Si Si7 0.610161 0.393833 0.684669
Si Si8 0.510746 0.256018 0.548328
O O1 0.726831 0.943845 0.230071
O O2 0.645399 0.117534 0.041238
O O3 0.886401 0.972050 0.719533
O O4 0.000000 0.000000 0.000000
O O5 0.298013 0.156762 0.301286
O O6 0.432882 0.265165 0.321530
O O7 0.397824 0.256278 0.859716
O O8 0.747373 0.444991 0.481888
O O9 0.609971 0.538865 0.151885
O O10 0.904513 0.369719 0.056401
O O11 0.000000 0.500000 0.000000
O O12 0.895665 0.760006 0.284974
O O13 0.018041 0.855602 0.397735
O O14 0.726732 0.325215 0.870028
O O15 0.928302 0.197894 0.159809
O O16 0.691857 0.152487 0.508507
O O17 0.586005 0.334502 0.520045
#
# Coordination Sequence:
#
# PCOD9058589 Si02
#       8
#     2   2   2   2   2   2   2   2
#     4  11  24  43  71 102 144 195 247 304 364 443
#     4  12  29  44  73 110 146 195 251 311 373 437
#     4  11  26  45  74 109 146 191 244 308 378 449
#     4  11  26  43  70 104 145 193 241 319 363 438
#     4  11  22  46  73 102 148 194 245 299 377 445
#     4  11  23  43  74  98 142 197 243 298 368 435
#     4  11  25  46  74 106 150 192 243 309 372 453
#     4  12  25  47  73 104 146 196 250 295 372 451
#
# _framework density 25.846865999999999
#
# number of rings (size 3 to 8) (size 9 to 14) (size 15 to 20)
#    0.000    0.750    3.750    2.250    7.000    3.000 
#    0.000    0.000    0.000    0.000    0.000    0.000 
#    0.000    0.000    0.000    0.000    0.000    0.000 
#
# Total GULP energy -89346.840073 kJ/mol
# GULP energy per Si atom -5584.177505 kJ/mol
# Density = 2.578804 g / cm^3
# Si number density = 25.846866 Si / 1000 Ang^3
#
#
#
# Elastic Constant Matrix: (Units=GPa)
#
#
# Indices 1 2 3 4 5 6 
#
# 1 68.2331 -12.3933 41.3393 -11.4919 -7.3944 8.5030
# 2 -12.3933 35.1650 15.3228 -1.1272 -7.4585 -2.7467
# 3 41.3393 15.3228 163.5464 -17.4795 -23.0520 7.9060
# 4 -11.4919 -1.1272 -17.4795 38.1421 1.0914 4.3124
# 5 -7.3944 -7.4585 -23.0520 1.0914 46.5326 -4.5401
# 6 8.5030 -2.7467 7.9060 4.3124 -4.5401 30.9654
#
#
#
# Elastic Compliance Matrix: (Units=1/GPa)
#
#
# Indices 1 2 3 4 5 6 
#
# 1 0.021187 0.010028 -0.005353 0.004619 0.001830 -0.003937
# 2 0.010028 0.035469 -0.005131 0.001324 0.004925 0.002240
# 3 -0.005353 -0.005131 0.008581 0.002227 0.002416 -0.001132
# 4 0.004619 0.001324 0.002227 0.029288 0.000809 -0.005680
# 5 0.001830 0.004925 0.002416 0.000809 0.024014 0.002726
# 6 -0.003937 0.002240 -0.001132 -0.005680 0.002726 0.035054
#
#
# Mechanical properties :
#
#
# Convention : Reuss Voigt Hill
#
# Bulk Modulus (GPa) = 15.54553 39.49801 27.52177
# Shear Modulus (GPa) = 28.41765 37.97305 33.19535
#
# Velocity S-wave (km/s) = 3.31941 3.83711 3.58761
# Velocity P-wave (km/s) = 4.55180 5.91151 5.27564
#
# Compressibility (1/GPa) = 0.06432717
#
# Stress axis : x y z
#
# Youngs Moduli (GPa) = 47.19835 28.19348 116.53010
#
# Poissons Ratio (x) = -0.28273 0.62379
# Poissons Ratio (y) = -0.47332 0.59787
# Poissons Ratio (z) = 0.25266 0.14465
#
# Static dielectric constant tensor:
#      x y z
#    x 2.113820 0.193920 0.031080 
#    y 0.193920 2.464390 0.201770 
#    z 0.031080 0.201770 2.252310 
# 
# From -- ./inp_files/47355.got.cif
#   From: 2010.05.17/outbox.cif.g08.bks.cpg/sg2_24_cif.got.tgz:47355.got - 2010.06.03 11:33:40.
