data_PCOD9058329
_publ_section_title
;
Structure prediction by ZEFSAII (Michael W. Deem and Ramdas Pophale) SiO2 
 PCOD9058329
Probable space group: P -1
;
_chemical_formula_sum "Si O2"
_cell_formula_units_Z 16
_cell_length_a 8.066978
_cell_length_b 13.674751
_cell_length_c 9.288858
_cell_angle_alpha 112.664166
_cell_angle_beta 132.535955
_cell_angle_gamma 92.746200
_cell_volume 620.945715
_symmetry_space_group_name_H-M "P -1"
_symmetry_group_IT_number 2
_symmetry_cell_setting 'triclinic'
loop_
_space_group_symop_operation_xyz
x,y,z
-x,-y,-z
loop_
_atom_site_type_symbol
_atom_site_label
_atom_site_fract_x
_atom_site_fract_y
_atom_site_fract_z
Si Si1 0.381385 0.067443 0.371635
Si Si2 0.982645 0.711717 0.653507
Si Si3 0.881055 0.267999 0.720206
Si Si4 0.277065 0.188460 0.888500
Si Si5 0.731982 0.366255 0.420984
Si Si6 0.504565 0.621598 0.131523
Si Si7 0.041335 0.400717 0.155832
Si Si8 0.173757 0.974422 0.882816
O O1 0.599856 0.202768 0.580500
O O2 0.112301 0.048482 0.262119
O O3 0.500000 0.000000 0.500000
O O4 0.334344 0.028589 0.153602
O O5 0.110434 0.629853 0.627478
O O6 0.985706 0.710699 0.827140
O O7 0.149462 0.844356 0.770174
O O8 0.703501 0.661067 0.400006
O O9 0.859426 0.315196 0.580555
O O10 0.998174 0.176963 0.727484
O O11 0.065948 0.375099 0.990933
O O12 0.392080 0.266275 0.856262
O O13 0.265724 0.062240 0.849588
O O14 0.448943 0.274542 0.165199
O O15 0.755290 0.484683 0.576755
O O16 0.500000 0.500000 0.000000
O O17 0.221165 0.592332 0.985122
#
# Coordination Sequence:
#
# PCOD9058329 Si02
#       8
#     2   2   2   2   2   2   2   2
#     4  11  22  45  69  97 146 187 227 291 347 415
#     4  12  25  44  71 104 140 188 230 288 355 417
#     4  12  25  45  72 105 138 185 233 290 358 413
#     4  12  25  45  70 104 144 184 234 288 349 416
#     4  12  25  47  69 102 145 181 232 299 349 414
#     4  12  24  46  74 103 139 187 234 289 352 419
#     4  12  26  45  74 103 139 185 239 289 355 418
#     4  11  26  42  71 105 140 184 238 283 352 422
#
# _framework density 25.767146
#
# number of rings (size 3 to 8) (size 9 to 14) (size 15 to 20)
#    0.000    0.250    6.250    3.000    1.750    2.500 
#    0.000    0.000    0.000    0.000    0.000    0.000 
#    0.000    0.000    0.000    0.000    0.000    0.000 
#
# Total GULP energy -89640.006247 kJ/mol
# GULP energy per Si atom -5602.500390 kJ/mol
# Density = 2.570850 g / cm^3
# Si number density = 25.767146 Si / 1000 Ang^3
#
#
#
# Elastic Constant Matrix: (Units=GPa)
#
#
# Indices 1 2 3 4 5 6 
#
# 1 46.0642 8.8859 11.1627 -9.2744 4.7873 -3.6406
# 2 8.8859 126.8354 30.5137 -3.7113 -4.9466 1.0594
# 3 11.1627 30.5137 106.5012 -19.3788 8.9536 -1.8267
# 4 -9.2744 -3.7113 -19.3788 49.4362 -0.4746 -1.2389
# 5 4.7873 -4.9466 8.9536 -0.4746 36.4695 -1.4153
# 6 -3.6406 1.0594 -1.8267 -1.2389 -1.4153 27.2694
#
#
#
# Elastic Compliance Matrix: (Units=1/GPa)
#
#
# Indices 1 2 3 4 5 6 
#
# 1 0.023581 -0.001422 -0.001050 0.003958 -0.002856 0.003165
# 2 -0.001422 0.008681 -0.002632 -0.000644 0.001977 -0.000630
# 3 -0.001050 -0.002632 0.011238 0.004002 -0.002897 0.000746
# 4 0.003958 -0.000644 0.004002 0.022524 -0.001227 0.001781
# 5 -0.002856 0.001977 -0.002897 -0.001227 0.028789 0.000786
# 6 0.003165 -0.000630 0.000746 0.001781 0.000786 0.037290
#
#
# Mechanical properties :
#
#
# Convention : Reuss Voigt Hill
#
# Bulk Modulus (GPa) = 30.03643 42.28061 36.15852
# Shear Modulus (GPa) = 32.59289 37.89092 35.24191
#
# Velocity S-wave (km/s) = 3.56040 3.83889 3.70226
# Velocity P-wave (km/s) = 5.34641 6.00781 5.68673
#
# Compressibility (1/GPa) = 0.03329291
#
# Stress axis : x y z
#
# Youngs Moduli (GPa) = 42.40664 115.19891 88.98145
#
# Poissons Ratio (x) = 0.16376 0.09341
# Poissons Ratio (y) = 0.06028 0.23422
# Poissons Ratio (z) = 0.04452 0.30323
#
# Static dielectric constant tensor:
#      x y z
#    x 2.036320 0.018050 -0.020100 
#    y 0.018050 2.065300 0.064160 
#    z -0.020100 0.064160 1.982620 
# 
# From -- ./inp_files/187053.got.cif
#   From: 2010.05.17/outbox.cif.g08.bks.cpg/sg2_94_cif.got.tgz:187053.got - 2010.06.03 11:33:40.
