data_PCOD9058931
_publ_section_title
;
Structure prediction by ZEFSAII (Michael W. Deem and Ramdas Pophale) SiO2 
 PCOD9058931
Probable space group: P -1
;
_chemical_formula_sum "Si O2"
_cell_formula_units_Z 14
_cell_length_a 17.565749
_cell_length_b 21.411412
_cell_length_c 8.295596
_cell_angle_alpha 152.075463
_cell_angle_beta 148.002291
_cell_angle_gamma 26.196452
_cell_volume 621.551037
_symmetry_space_group_name_H-M "P -1"
_symmetry_group_IT_number 2
_symmetry_cell_setting 'triclinic'
loop_
_space_group_symop_operation_xyz
x,y,z
-x,-y,-z
loop_
_atom_site_type_symbol
_atom_site_label
_atom_site_fract_x
_atom_site_fract_y
_atom_site_fract_z
Si Si1 0.413613 0.333681 0.414013
Si Si2 0.212863 0.173353 0.600195
Si Si3 0.190554 0.462127 0.761459
Si Si4 0.112358 0.679084 0.837739
Si Si5 0.607475 0.498947 0.540110
Si Si6 0.486208 0.868386 0.577819
Si Si7 0.092413 0.818713 0.818860
O O1 0.249743 0.509046 0.595770
O O2 0.491841 0.378022 0.509557
O O3 0.547039 0.217780 0.532917
O O4 0.320271 0.249024 0.993006
O O5 0.097750 0.242214 0.386453
O O6 0.050301 0.226783 0.553617
O O7 0.348114 0.976559 0.432592
O O8 0.168804 0.614505 0.971888
O O9 0.332171 0.287645 0.529173
O O10 0.000000 0.500000 0.500000
O O11 0.267046 0.456039 0.057738
O O12 0.120580 0.808164 0.039675
O O13 0.500000 0.500000 0.500000
O O14 0.734580 0.315993 0.277733
O O15 0.500000 0.000000 0.000000
O O16 0.000000 0.000000 0.000000
#
# Coordination Sequence:
#
# PCOD9058931 Si02
#       7
#     2   2   2   2   2   2   2
#     4   9  17  37  59  87 116 161 207 247 289 376
#     4   9  17  33  67  86 111 151 221 245 289 343
#     4  11  23  39  63  92 127 156 204 257 305 356
#     4   8  18  34  60  86 111 159 207 238 296 368
#     4  11  25  40  60  91 128 162 198 255 313 353
#     4   9  20  36  62  92 118 153 205 255 298 359
#     4   9  21  39  63  81 119 165 206 241 302 370
#
# _framework density 22.524296
#
# number of rings (size 3 to 8) (size 9 to 14) (size 15 to 20)
#    0.857    1.714    0.000    1.286    8.000    0.000 
#    2.571   12.143    0.000    0.000    0.000    0.000 
#    0.000    0.000    0.000    0.000    0.000    0.000 
#
# Total GULP energy -77953.965471 kJ/mol
# GULP energy per Si atom -5568.140391 kJ/mol
# Density = 2.247303 g / cm^3
# Si number density = 22.524296 Si / 1000 Ang^3
#
#
#
# Elastic Constant Matrix: (Units=GPa)
#
#
# Indices 1 2 3 4 5 6 
#
# 1 100.9930 38.4361 19.2443 12.4717 18.9928 11.4710
# 2 38.4361 117.8017 20.6401 14.6294 4.6029 35.8184
# 3 19.2443 20.6401 59.5187 -1.0276 7.2257 0.9682
# 4 12.4717 14.6294 -1.0276 31.4324 5.4833 14.5769
# 5 18.9928 4.6029 7.2257 5.4833 28.0579 -1.5792
# 6 11.4710 35.8184 0.9682 14.5769 -1.5792 37.2830
#
#
#
# Elastic Compliance Matrix: (Units=1/GPa)
#
#
# Indices 1 2 3 4 5 6 
#
# 1 0.013309 -0.003268 -0.002307 -0.002418 -0.007421 -0.000265
# 2 -0.003268 0.013900 -0.003560 0.000468 0.000057 -0.012437
# 3 -0.002307 -0.003560 0.019170 0.002599 -0.003160 0.002482
# 4 -0.002418 0.000468 0.002599 0.041681 -0.008179 -0.016416
# 5 -0.007421 0.000057 -0.003160 -0.008179 0.043481 0.007350
# 6 -0.000265 -0.012437 0.002482 -0.016416 0.007350 0.045517
#
#
# Mechanical properties :
#
#
# Convention : Reuss Voigt Hill
#
# Bulk Modulus (GPa) = 35.57441 48.32826 41.95134
# Shear Modulus (GPa) = 24.42645 32.68751 28.55698
#
# Velocity S-wave (km/s) = 3.29667 3.81361 3.56452
# Velocity P-wave (km/s) = 5.50625 6.39485 5.96711
#
# Compressibility (1/GPa) = 0.02811009
#
# Stress axis : x y z
#
# Youngs Moduli (GPa) = 75.13641 71.94320 52.16503
#
# Poissons Ratio (x) = 0.23508 0.12032
# Poissons Ratio (y) = 0.24551 0.18572
# Poissons Ratio (z) = 0.17331 0.25614
#
# Static dielectric constant tensor:
#      x y z
#    x 1.872370 0.027940 0.067830 
#    y 0.027940 1.878300 -0.050170 
#    z 0.067830 -0.050170 1.858640 
# 
# From -- ./inp_files/338017.got.cif
#   From: 2010.05.17/outbox.cif.g08.bks.cpg/sg2_170_cif.got.tgz:338017.got - 2010.06.03 11:33:40.
