data_PCOD9058877
_publ_section_title
;
Structure prediction by ZEFSAII (Michael W. Deem and Ramdas Pophale) SiO2 
 PCOD9058877
Probable space group: P -1
;
_chemical_formula_sum "Si O2"
_cell_formula_units_Z 16
_cell_length_a 5.864328
_cell_length_b 14.412887
_cell_length_c 12.980020
_cell_angle_alpha 38.690779
_cell_angle_beta 70.679835
_cell_angle_gamma 78.233882
_cell_volume 644.442003
_symmetry_space_group_name_H-M "P -1"
_symmetry_group_IT_number 2
_symmetry_cell_setting 'triclinic'
loop_
_space_group_symop_operation_xyz
x,y,z
-x,-y,-z
loop_
_atom_site_type_symbol
_atom_site_label
_atom_site_fract_x
_atom_site_fract_y
_atom_site_fract_z
Si Si1 0.466662 0.582658 0.542101
Si Si2 0.153679 0.213294 0.791566
Si Si3 0.062464 0.384301 0.324738
Si Si4 0.741017 0.350906 0.825485
Si Si5 0.398865 0.079021 0.047589
Si Si6 0.799412 0.114008 0.298535
Si Si7 0.265824 0.179995 0.297964
Si Si8 0.042543 0.099753 0.700301
O O1 0.500000 0.500000 0.500000
O O2 0.605225 0.736758 0.350960
O O3 0.579631 0.469809 0.698829
O O4 0.218288 0.610750 0.609619
O O5 0.217349 0.182115 0.926807
O O6 0.965151 0.336771 0.725983
O O7 0.037164 0.095712 0.828047
O O8 0.166031 0.557448 0.167268
O O9 0.149580 0.299434 0.285877
O O10 0.126473 0.265729 0.506524
O O11 0.594153 0.188436 0.984005
O O12 0.500000 0.000000 0.000000
O O13 0.233060 0.957385 0.241509
O O14 0.563648 0.207747 0.236605
O O15 0.077819 0.182783 0.225446
O O16 0.758902 0.988664 0.504249
O O17 0.804349 0.015404 0.279989
#
# Coordination Sequence:
#
# PCOD9058877 Si02
#       8
#     2   2   2   2   2   2   2   2
#     4  12  21  35  60  88 124 162 208 254 305 368
#     4  12  23  39  58  88 129 167 208 253 302 380
#     4  11  23  38  64  94 121 164 205 263 318 377
#     4  12  23  39  58  87 125 169 203 256 306 371
#     4  12  25  39  58  87 130 174 207 248 305 384
#     4   9  20  39  61  93 126 160 207 274 319 380
#     4   9  20  38  64  92 125 157 211 268 331 372
#     4  11  23  39  62  93 123 168 210 252 321 374
#
# _framework density 24.827679
#
# number of rings (size 3 to 8) (size 9 to 14) (size 15 to 20)
#    0.000    1.000    5.000    2.250    1.750    4.000 
#    0.000    0.000    0.000    1.500    0.000    0.000 
#    0.000    0.000    0.000    0.000    0.000    0.000 
#
# Total GULP energy -89082.790357 kJ/mol
# GULP energy per Si atom -5567.674397 kJ/mol
# Density = 2.477117 g / cm^3
# Si number density = 24.827679 Si / 1000 Ang^3
#
#
#
# Elastic Constant Matrix: (Units=GPa)
#
#
# Indices 1 2 3 4 5 6 
#
# 1 123.5813 64.5021 21.2446 -9.0914 -2.5392 -19.5944
# 2 64.5021 142.7215 12.1244 -10.2517 0.4371 -29.9319
# 3 21.2446 12.1244 59.6670 -13.8672 -16.0579 12.6382
# 4 -9.0914 -10.2517 -13.8672 21.6011 12.3336 -10.7480
# 5 -2.5392 0.4371 -16.0579 12.3336 36.2999 -0.7464
# 6 -19.5944 -29.9319 12.6382 -10.7480 -0.7464 36.7317
#
#
#
# Elastic Compliance Matrix: (Units=1/GPa)
#
#
# Indices 1 2 3 4 5 6 
#
# 1 0.012003 -0.003114 -0.004587 0.005878 -0.003003 0.007103
# 2 -0.003114 0.012173 -0.002676 0.012109 -0.005403 0.012612
# 3 -0.004587 -0.002676 0.024447 0.000374 0.010137 -0.012724
# 4 0.005878 0.012109 0.000374 0.091091 -0.029719 0.038924
# 5 -0.003003 -0.005403 0.010137 -0.029719 0.041628 -0.017343
# 6 0.007103 0.012612 -0.012724 0.038924 -0.017343 0.056706
#
#
# Mechanical properties :
#
#
# Convention : Reuss Voigt Hill
#
# Bulk Modulus (GPa) = 35.88411 57.96799 46.92605
# Shear Modulus (GPa) = 18.65034 34.13311 26.39173
#
# Velocity S-wave (km/s) = 2.74376 3.71185 3.26390
# Velocity P-wave (km/s) = 4.95200 6.46292 5.75724
#
# Compressibility (1/GPa) = 0.02786749
#
# Stress axis : x y z
#
# Youngs Moduli (GPa) = 83.31593 82.15083 40.90461
#
# Poissons Ratio (x) = 0.25580 0.18765
# Poissons Ratio (y) = 0.25943 0.10947
# Poissons Ratio (z) = 0.38221 0.21985
#
# Static dielectric constant tensor:
#      x y z
#    x 3.085460 -1.001770 -0.674490 
#    y -1.001770 3.179400 0.608250 
#    z -0.674490 0.608250 2.453750 
# 
# From -- ./inp_files/484201.got.cif
#   From: 2010.05.17/outbox.cif.g08.bks.cpg/sg2_243_cif.got.tgz:484201.got - 2010.06.03 11:33:40.
