data_PCOD9058977
_publ_section_title
;
Structure prediction by ZEFSAII (Michael W. Deem and Ramdas Pophale) SiO2 
 PCOD9058977
Probable space group: P -1
;
_chemical_formula_sum "Si O2"
_cell_formula_units_Z 14
_cell_length_a 8.942775
_cell_length_b 10.179002
_cell_length_c 6.594972
_cell_angle_alpha 91.142151
_cell_angle_beta 74.312587
_cell_angle_gamma 77.244867
_cell_volume 561.675471
_symmetry_space_group_name_H-M "P -1"
_symmetry_group_IT_number 2
_symmetry_cell_setting 'triclinic'
loop_
_space_group_symop_operation_xyz
x,y,z
-x,-y,-z
loop_
_atom_site_type_symbol
_atom_site_label
_atom_site_fract_x
_atom_site_fract_y
_atom_site_fract_z
Si Si1 0.397921 0.324073 0.993696
Si Si2 0.082801 0.769067 0.514533
Si Si3 0.869930 0.100064 0.902988
Si Si4 0.350984 0.176996 0.654770
Si Si5 0.617119 0.460219 0.652087
Si Si6 0.751614 0.861705 0.754675
Si Si7 0.688577 0.113117 0.325409
O O1 0.292866 0.302613 0.830817
O O2 0.541377 0.370287 0.834536
O O3 0.355244 0.419151 0.209206
O O4 0.396325 0.178615 0.083543
O O5 0.062382 0.811207 0.284322
O O6 0.214388 0.630453 0.481954
O O7 0.162566 0.884355 0.583993
O O8 0.930268 0.767337 0.709759
O O9 0.776483 0.006076 0.810423
O O10 0.738206 0.185432 0.110008
O O11 0.000000 0.000000 0.000000
O O12 0.269363 0.168071 0.472019
O O13 0.532501 0.172947 0.517818
O O14 0.334970 0.032281 0.741952
O O15 0.500000 0.500000 0.500000
#
# Coordination Sequence:
#
# PCOD9058977 Si02
#       7
#     2   2   2   2   2   2   2
#     4  11  25  46  75 101 140 192 236 301 361 411
#     4  12  26  45  74 108 147 193 236 289 366 428
#     4  12  24  42  70 109 154 190 229 286 367 436
#     4  11  23  41  66 108 148 182 235 299 351 429
#     4  11  27  53  74 100 142 191 251 303 346 424
#     4  12  25  42  71 110 151 182 234 302 362 434
#     4  11  23  39  68 105 145 189 236 286 359 430
#
# _framework density 24.925425000000001
#
# number of rings (size 3 to 8) (size 9 to 14) (size 15 to 20)
#    0.000    0.571    5.714    2.143    2.000    2.286 
#    0.000    1.429    0.000    0.000    0.000    0.000 
#    0.000    0.000    0.000    0.000    0.000    0.000 
#
# Total GULP energy -78006.095859 kJ/mol
# GULP energy per Si atom -5571.863990 kJ/mol
# Density = 2.486869 g / cm^3
# Si number density = 24.925425 Si / 1000 Ang^3
#
#
#
# Elastic Constant Matrix: (Units=GPa)
#
#
# Indices 1 2 3 4 5 6 
#
# 1 77.0980 13.5989 27.9745 -6.0302 3.0288 2.8447
# 2 13.5989 62.2442 22.1078 10.5837 16.1713 14.1283
# 3 27.9745 22.1078 125.4681 4.3116 17.3098 11.7655
# 4 -6.0302 10.5837 4.3116 47.4273 21.3391 6.5119
# 5 3.0288 16.1713 17.3098 21.3391 47.7250 7.0044
# 6 2.8447 14.1283 11.7655 6.5119 7.0044 38.8132
#
#
#
# Elastic Compliance Matrix: (Units=1/GPa)
#
#
# Indices 1 2 3 4 5 6 
#
# 1 0.014711 -0.002667 -0.002900 0.002810 -0.000286 0.000352
# 2 -0.002667 0.019950 -0.001753 -0.001959 -0.004281 -0.005434
# 3 -0.002900 -0.001753 0.009425 0.000588 -0.002665 -0.001624
# 4 0.002810 -0.001959 0.000588 0.027362 -0.011645 -0.002160
# 5 -0.000286 -0.004281 -0.002665 -0.011645 0.028719 -0.000842
# 6 0.000352 -0.005434 -0.001624 -0.002160 -0.000842 0.028723
#
#
# Mechanical properties :
#
#
# Convention : Reuss Voigt Hill
#
# Bulk Modulus (GPa) = 33.96099 43.57476 38.76788
# Shear Modulus (GPa) = 32.60580 40.20171 36.40375
#
# Velocity S-wave (km/s) = 3.62074 4.02042 3.82580
# Velocity P-wave (km/s) = 5.57981 6.25074 5.92478
#
# Compressibility (1/GPa) = 0.02944555
#
# Stress axis : x y z
#
# Youngs Moduli (GPa) = 67.97500 50.12550 106.09605
#
# Poissons Ratio (x) = 0.13370 0.30770
# Poissons Ratio (y) = 0.18131 0.18599
# Poissons Ratio (z) = 0.19714 0.08787
#
# Static dielectric constant tensor:
#      x y z
#    x 2.061240 -0.075020 0.025680 
#    y -0.075020 2.015070 -0.033280 
#    z 0.025680 -0.033280 2.090250 
# 
# From -- ./inp_files/27496.got.cif
#   From: 2010.05.17/outbox.cif.g08.bks.cpg/sg2_14_cif.got.tgz:27496.got - 2010.06.03 11:33:40.
