data_PCOD9058105
_publ_section_title
;
Structure prediction by ZEFSAII (Michael W. Deem and Ramdas Pophale) SiO2 
 PCOD9058105
Probable space group: P -1
;
_chemical_formula_sum "Si O2"
_cell_formula_units_Z 14
_cell_length_a 8.639037
_cell_length_b 7.545756
_cell_length_c 11.679268
_cell_angle_alpha 118.712797
_cell_angle_beta 107.037043
_cell_angle_gamma 54.884921
_cell_volume 546.057160
_symmetry_space_group_name_H-M "P -1"
_symmetry_group_IT_number 2
_symmetry_cell_setting 'triclinic'
loop_
_space_group_symop_operation_xyz
x,y,z
-x,-y,-z
loop_
_atom_site_type_symbol
_atom_site_label
_atom_site_fract_x
_atom_site_fract_y
_atom_site_fract_z
Si Si1 0.642987 0.384645 0.097401
Si Si2 0.112498 0.577493 0.683749
Si Si3 0.706727 0.710973 0.693549
Si Si4 0.644268 0.352275 0.675253
Si Si5 0.663252 0.952373 0.406588
Si Si6 0.278591 0.106044 0.010091
Si Si7 0.924249 0.940361 0.259519
O O1 0.812634 0.429103 0.171718
O O2 0.512883 0.484048 0.214725
O O3 0.500000 0.500000 0.000000
O O4 0.737490 0.108846 0.011619
O O5 0.249707 0.304221 0.597963
O O6 0.899189 0.639007 0.649231
O O7 0.124278 0.791847 0.694980
O O8 0.648824 0.514544 0.624890
O O9 0.759758 0.721236 0.840758
O O10 0.524200 0.951572 0.683523
O O11 0.850724 0.217671 0.735709
O O12 0.618463 0.149866 0.552006
O O13 0.827256 0.938077 0.356142
O O14 0.159598 0.159181 0.885009
O O15 0.500000 0.000000 0.000000
#
# Coordination Sequence:
#
# PCOD9058105 Si02
#       7
#     2   2   2   2   2   2   2
#     4  11  26  46  70 108 150 185 246 308 358 437
#     4  11  28  47  73 114 144 194 249 299 368 431
#     4  12  25  46  79 109 143 201 245 301 371 431
#     4  12  27  48  75 109 145 203 244 294 375 437
#     4  12  26  53  74 104 156 194 243 305 360 438
#     4  11  22  44  71 103 144 188 246 298 366 428
#     4  11  26  47  74 110 151 189 245 307 361 440
#
# _framework density 25.638339999999999
#
# number of rings (size 3 to 8) (size 9 to 14) (size 15 to 20)
#    0.000    0.571    4.286    2.571    6.000    2.857 
#    0.000    0.000    0.000    0.000    0.000    0.000 
#    0.000    0.000    0.000    0.000    0.000    0.000 
#
# Total GULP energy -78412.033515 kJ/mol
# GULP energy per Si atom -5600.859537 kJ/mol
# Density = 2.557999 g / cm^3
# Si number density = 25.638340 Si / 1000 Ang^3
#
#
#
# Elastic Constant Matrix: (Units=GPa)
#
#
# Indices 1 2 3 4 5 6 
#
# 1 118.8814 48.7035 29.8832 -0.8844 14.0034 -24.2425
# 2 48.7035 133.4662 27.6850 1.0714 12.4331 -11.3581
# 3 29.8832 27.6850 92.3180 2.1516 25.3238 10.9090
# 4 -0.8844 1.0714 2.1516 43.7724 2.2056 11.4574
# 5 14.0034 12.4331 25.3238 2.2056 26.9323 3.7437
# 6 -24.2425 -11.3581 10.9090 11.4574 3.7437 41.4116
#
#
#
# Elastic Compliance Matrix: (Units=1/GPa)
#
#
# Indices 1 2 3 4 5 6 
#
# 1 0.012375 -0.002872 -0.003208 -0.001456 -0.003082 0.007983
# 2 -0.002872 0.009134 -0.001595 -0.000530 -0.001391 0.001517
# 3 -0.003208 -0.001595 0.016386 0.001330 -0.012293 -0.005889
# 4 -0.001456 -0.000530 0.001330 0.024955 -0.001159 -0.008148
# 5 -0.003082 -0.001391 -0.012293 -0.001159 0.051485 -0.003281
# 6 0.007983 0.001517 -0.005889 -0.008148 -0.003281 0.033339
#
#
# Mechanical properties :
#
#
# Convention : Reuss Voigt Hill
#
# Bulk Modulus (GPa) = 44.35623 61.91213 53.13418
# Shear Modulus (GPa) = 29.31861 38.31618 33.81739
#
# Velocity S-wave (km/s) = 3.38530 3.87005 3.63577
# Velocity P-wave (km/s) = 5.71128 6.64608 6.19633
#
# Compressibility (1/GPa) = 0.02254475
#
# Stress axis : x y z
#
# Youngs Moduli (GPa) = 80.80717 109.47722 61.02777
#
# Poissons Ratio (x) = 0.31443 0.19581
# Poissons Ratio (y) = 0.23209 0.09733
# Poissons Ratio (z) = 0.25927 0.17459
#
# Static dielectric constant tensor:
#      x y z
#    x 2.043060 0.049710 0.024160 
#    y 0.049710 2.012810 -0.009280 
#    z 0.024160 -0.009280 2.106870 
# 
# From -- ./inp_files/314711.got.cif
#   From: 2010.05.17/outbox.cif.g08.bks.cpg/sg2_158_cif.got.tgz:314711.got - 2010.06.03 11:33:40.
