data_PCOD9058925
_publ_section_title
;
Structure prediction by ZEFSAII (Michael W. Deem and Ramdas Pophale) SiO2 
 PCOD9058925
Probable space group: P -1
;
_chemical_formula_sum "Si O2"
_cell_formula_units_Z 11
_cell_length_a 12.747070
_cell_length_b 5.471356
_cell_length_c 12.850525
_cell_angle_alpha 59.911212
_cell_angle_beta 148.249595
_cell_angle_gamma 117.192997
_cell_volume 407.143101
_symmetry_space_group_name_H-M "P -1"
_symmetry_group_IT_number 2
_symmetry_cell_setting 'triclinic'
loop_
_space_group_symop_operation_xyz
x,y,z
-x,-y,-z
loop_
_atom_site_type_symbol
_atom_site_label
_atom_site_fract_x
_atom_site_fract_y
_atom_site_fract_z
Si Si1 0.000000 0.000000 0.500000
Si Si2 0.236221 0.146871 0.296037
Si Si3 0.174242 0.725328 0.171686
Si Si4 0.166947 0.736386 0.504364
Si Si5 0.475018 0.336435 0.903203
Si Si6 0.886595 0.477881 0.164461
O O1 0.846023 0.165052 0.410575
O O2 0.927110 0.162522 0.299097
O O3 0.296955 0.479347 0.280245
O O4 0.296601 0.974300 0.282354
O O5 0.275548 0.970662 0.470614
O O6 0.991854 0.159033 0.069266
O O7 0.035988 0.574800 0.178138
O O8 0.265648 0.426896 0.657513
O O9 0.959685 0.664480 0.285626
O O10 0.500000 0.500000 0.000000
O O11 0.652111 0.478201 0.950511
O O12 0.500000 0.000000 0.000000
#
# Coordination Sequence:
#
# PCOD9058925 Si02
#       6
#     1   2   2   2   2   2
#     4  12  20  36  64  92 118 168 208 246 302 372
#     4   9  18  34  59  87 116 153 202 252 294 357
#     4   9  18  34  59  88 114 155 203 245 303 354
#     4  11  24  40  63  92 125 164 206 252 308 363
#     4  12  28  41  59  91 130 162 204 252 303 369
#     4  11  23  39  62  88 124 162 201 251 306 362
#
# _framework density 27.017527000000001
#
# number of rings (size 3 to 8) (size 9 to 14) (size 15 to 20)
#    0.000    1.455    3.636    1.636    2.545    0.000 
#    0.000    0.909    0.000    0.000    0.000   15.273 
#    0.000    0.000    0.000    0.182    0.000    0.000 
#
# Total GULP energy -61325.616420 kJ/mol
# GULP energy per Si atom -5575.056038 kJ/mol
# Density = 2.695603 g / cm^3
# Si number density = 27.017527 Si / 1000 Ang^3
#
#
#
# Elastic Constant Matrix: (Units=GPa)
#
#
# Indices 1 2 3 4 5 6 
#
# 1 105.9159 46.0309 39.7349 -9.1010 -18.0562 -3.3968
# 2 46.0309 161.9194 41.8016 -37.0380 -3.6798 -48.8597
# 3 39.7349 41.8016 104.5176 -15.0813 -13.1276 10.4730
# 4 -9.1010 -37.0380 -15.0813 62.5836 15.9260 -3.4543
# 5 -18.0562 -3.6798 -13.1276 15.9260 36.9195 -1.5327
# 6 -3.3968 -48.8597 10.4730 -3.4543 -1.5327 55.4847
#
#
#
# Elastic Compliance Matrix: (Units=1/GPa)
#
#
# Indices 1 2 3 4 5 6 
#
# 1 0.013031 -0.004356 -0.002613 -0.003035 0.006213 -0.002563
# 2 -0.004356 0.015149 -0.005246 0.009376 -0.005929 0.014484
# 3 -0.002613 -0.005246 0.013606 -0.001468 0.003365 -0.007346
# 4 -0.003035 0.009376 -0.001468 0.024074 -0.011060 0.009541
# 5 0.006213 -0.005929 0.003365 -0.011060 0.035286 -0.005190
# 6 -0.002563 0.014484 -0.007346 0.009541 -0.005190 0.032458
#
#
# Mechanical properties :
#
#
# Convention : Reuss Voigt Hill
#
# Bulk Modulus (GPa) = 57.61463 69.72086 63.66774
# Shear Modulus (GPa) = 30.52164 47.31659 38.91912
#
# Velocity S-wave (km/s) = 3.36474 4.18943 3.79953
# Velocity P-wave (km/s) = 6.03875 7.01880 6.54714
#
# Compressibility (1/GPa) = 0.01735670
#
# Stress axis : x y z
#
# Youngs Moduli (GPa) = 76.74012 66.01057 73.49677
#
# Poissons Ratio (x) = 0.28757 0.19201
# Poissons Ratio (y) = 0.33431 0.38555
# Poissons Ratio (z) = 0.20049 0.34627
#
# Static dielectric constant tensor:
#      x y z
#    x 2.105120 -0.145900 0.024420 
#    y -0.145900 1.518640 -0.155260 
#    z 0.024420 -0.155260 2.100200 
# 
# From -- ./inp_files/29281.got.cif
#   From: 2010.05.17/outbox.cif.g08.bks.cpg/sg2_15_cif.got.tgz:29281.got - 2010.06.03 11:33:40.
