data_PCOD9058642
_publ_section_title
;
Structure prediction by ZEFSAII (Michael W. Deem and Ramdas Pophale) SiO2 
 PCOD9058642
Probable space group: P -1
;
_chemical_formula_sum "Si O2"
_cell_formula_units_Z 16
_cell_length_a 8.457461
_cell_length_b 17.521367
_cell_length_c 11.450812
_cell_angle_alpha 80.053044
_cell_angle_beta 53.743215
_cell_angle_gamma 124.750334
_cell_volume 717.993169
_symmetry_space_group_name_H-M "P -1"
_symmetry_group_IT_number 2
_symmetry_cell_setting 'triclinic'
loop_
_space_group_symop_operation_xyz
x,y,z
-x,-y,-z
loop_
_atom_site_type_symbol
_atom_site_label
_atom_site_fract_x
_atom_site_fract_y
_atom_site_fract_z
Si Si1 0.137121 0.206033 0.727262
Si Si2 0.180664 0.610251 0.019273
Si Si3 0.733630 0.317086 0.290532
Si Si4 0.515704 0.920018 0.457687
Si Si5 0.633367 0.801432 0.990543
Si Si6 0.370837 0.077120 0.855709
Si Si7 0.407332 0.433432 0.430888
Si Si8 0.396506 0.591316 0.301075
O O1 0.412801 0.237526 0.538334
O O2 0.105727 0.266814 0.634610
O O3 0.365044 0.309655 0.714116
O O4 0.770985 0.043290 0.975905
O O5 0.392080 0.720984 0.002147
O O6 0.094214 0.490590 0.112067
O O7 0.775413 0.511614 0.212881
O O8 0.371049 0.693067 0.792299
O O9 0.750195 0.230812 0.323309
O O10 0.450931 0.890950 0.352806
O O11 0.500000 0.000000 0.500000
O O12 0.942275 0.037573 0.259786
O O13 0.465818 0.803939 0.159450
O O14 0.612388 0.706981 0.074038
O O15 0.000000 0.000000 0.000000
O O16 0.500000 0.500000 0.500000
O O17 0.345111 0.482022 0.355227
O O18 0.000000 0.500000 0.500000
#
# Coordination Sequence:
#
# PCOD9058642 Si02
#       8
#     2   2   2   2   2   2   2   2
#     4  10  17  37  62  85 120 169 209 254 320 372
#     4  10  23  39  66  92 121 171 217 268 314 381
#     4  10  20  40  64  84 130 172 211 254 338 373
#     4  11  23  38  65  95 133 173 208 263 332 384
#     4  11  21  39  67  95 124 167 225 260 315 388
#     4  10  18  37  64  90 123 170 212 260 316 384
#     4   9  20  34  59  89 122 158 209 258 319 371
#     4  11  20  34  64  94 122 157 213 266 314 381
#
# _framework density 22.284334999999999
#
# number of rings (size 3 to 8) (size 9 to 14) (size 15 to 20)
#    0.000    1.750    5.000    2.250    1.750    0.500 
#    0.000    0.625   27.500    9.000    0.000    0.000 
#    0.000    0.000    0.000    0.000    0.000    0.000 
#
# Total GULP energy -89294.713459 kJ/mol
# GULP energy per Si atom -5580.919591 kJ/mol
# Density = 2.223362 g / cm^3
# Si number density = 22.284335 Si / 1000 Ang^3
#
#
#
# Elastic Constant Matrix: (Units=GPa)
#
#
# Indices 1 2 3 4 5 6 
#
# 1 46.0482 9.3320 7.2516 -8.8574 14.8994 -6.0083
# 2 9.3320 129.4718 17.1349 4.7390 13.0811 10.5808
# 3 7.2516 17.1349 66.7296 -10.6480 24.2992 7.2821
# 4 -8.8574 4.7390 -10.6480 35.8304 -6.3443 6.5715
# 5 14.8994 13.0811 24.2992 -6.3443 36.4987 -4.7712
# 6 -6.0083 10.5808 7.2821 6.5715 -4.7712 36.2042
#
#
#
# Elastic Compliance Matrix: (Units=1/GPa)
#
#
# Indices 1 2 3 4 5 6 
#
# 1 0.026295 -0.001459 0.001822 0.005020 -0.010269 0.002159
# 2 -0.001459 0.008485 -0.001212 -0.001796 -0.002271 -0.002451
# 3 0.001822 -0.001212 0.022236 0.005820 -0.014997 -0.006849
# 4 0.005020 -0.001796 0.005820 0.032082 -0.000448 -0.005695
# 5 -0.010269 -0.002271 -0.014997 -0.000448 0.043326 0.007767
# 6 0.002159 -0.002451 -0.006849 -0.005695 0.007767 0.032131
#
#
# Mechanical properties :
#
#
# Convention : Reuss Voigt Hill
#
# Bulk Modulus (GPa) = 18.07737 34.40963 26.24350
# Shear Modulus (GPa) = 27.07193 35.60871 31.34032
#
# Velocity S-wave (km/s) = 3.48924 4.00174 3.75425
# Velocity P-wave (km/s) = 4.93587 6.06849 5.53125
#
# Compressibility (1/GPa) = 0.05531778
#
# Stress axis : x y z
#
# Youngs Moduli (GPa) = 38.02959 117.85801 44.97179
#
# Poissons Ratio (x) = 0.17197 -0.08195
# Poissons Ratio (y) = 0.05549 0.05452
# Poissons Ratio (z) = -0.06930 0.14288
#
# Static dielectric constant tensor:
#      x y z
#    x 1.772920 -0.236380 0.048090 
#    y -0.236380 1.363100 0.060450 
#    z 0.048090 0.060450 1.863100 
# 
# From -- ./inp_files/402066.got.cif
#   From: 2010.05.17/outbox.cif.g08.bks.cpg/sg2_202_cif.got.tgz:402066.got - 2010.06.03 11:33:40.
