data_PCOD9058280
_publ_section_title
;
Structure prediction by ZEFSAII (Michael W. Deem and Ramdas Pophale) SiO2 
 PCOD9058280
Probable space group: P -1
;
_chemical_formula_sum "Si O2"
_cell_formula_units_Z 12
_cell_length_a 12.382450
_cell_length_b 7.081575
_cell_length_c 9.844818
_cell_angle_alpha 67.955033
_cell_angle_beta 48.784408
_cell_angle_gamma 43.131860
_cell_volume 434.522474
_symmetry_space_group_name_H-M "P -1"
_symmetry_group_IT_number 2
_symmetry_cell_setting 'triclinic'
loop_
_space_group_symop_operation_xyz
x,y,z
-x,-y,-z
loop_
_atom_site_type_symbol
_atom_site_label
_atom_site_fract_x
_atom_site_fract_y
_atom_site_fract_z
Si Si1 0.514746 0.790163 0.389177
Si Si2 0.750927 0.844160 0.976840
Si Si3 0.439343 0.690538 0.209267
Si Si4 0.116412 0.720530 0.389233
Si Si5 0.836716 0.643487 0.338241
Si Si6 0.126596 0.852630 0.068300
O O1 0.436439 0.698396 0.373333
O O2 0.715948 0.589128 0.366025
O O3 0.335382 0.024551 0.576267
O O4 0.587398 0.891494 0.191367
O O5 0.955422 0.519922 0.865172
O O6 0.664653 0.018316 0.860053
O O7 0.820619 0.976397 0.964393
O O8 0.340063 0.588619 0.251994
O O9 0.669373 0.461145 0.047246
O O10 0.108793 0.513332 0.522293
O O11 0.036389 0.816575 0.278462
O O12 0.000000 0.000000 0.500000
O O13 0.000000 0.000000 0.000000
#
# Coordination Sequence:
#
# PCOD9058280 Si02
#       6
#     2   2   2   2   2   2
#     4  11  25  42  64 101 137 177 222 271 334 410
#     4  11  22  45  66  94 137 179 219 275 336 397
#     4  11  23  41  68  96 130 175 224 273 333 396
#     4  11  22  45  67  95 133 170 223 282 327 389
#     4  11  23  44  66  94 139 177 221 275 336 391
#     4  11  23  42  70  99 127 175 229 276 333 395
#
# _framework density 27.616520999999999
#
# number of rings (size 3 to 8) (size 9 to 14) (size 15 to 20)
#    0.000    1.000    3.333    6.000    0.000    1.333 
#    9.000    0.000    0.000    0.000    0.000    0.000 
#    0.000    0.000    0.000    0.000    0.000    0.000 
#
# Total GULP energy -67293.020848 kJ/mol
# GULP energy per Si atom -5607.751737 kJ/mol
# Density = 2.755366 g / cm^3
# Si number density = 27.616521 Si / 1000 Ang^3
#
#
#
# Elastic Constant Matrix: (Units=GPa)
#
#
# Indices 1 2 3 4 5 6 
#
# 1 148.5727 25.1606 33.5259 -7.5785 12.6113 -34.8882
# 2 25.1606 101.3187 43.1956 15.7479 8.2307 -38.3770
# 3 33.5259 43.1956 116.4468 15.9489 9.1111 -22.7890
# 4 -7.5785 15.7479 15.9489 66.3269 -8.8613 4.9828
# 5 12.6113 8.2307 9.1111 -8.8613 61.0903 -12.4629
# 6 -34.8882 -38.3770 -22.7890 4.9828 -12.4629 50.1142
#
#
#
# Elastic Compliance Matrix: (Units=1/GPa)
#
#
# Indices 1 2 3 4 5 6 
#
# 1 0.008323 0.000552 -0.001640 0.000768 -0.000354 0.005306
# 2 0.000552 0.016159 -0.003355 -0.003837 0.000023 0.011620
# 3 -0.001640 -0.003355 0.010927 -0.002234 -0.000907 0.001254
# 4 0.000768 -0.003837 -0.002234 0.017258 0.002262 -0.004572
# 5 -0.000354 0.000023 -0.000907 0.002262 0.017620 0.003516
# 6 0.005306 0.011620 0.001254 -0.004572 0.003516 0.034446
#
#
# Mechanical properties :
#
#
# Convention : Reuss Voigt Hill
#
# Bulk Modulus (GPa) = 37.70547 63.34471 50.52509
# Shear Modulus (GPa) = 40.82947 53.13670 46.98309
#
# Velocity S-wave (km/s) = 3.84923 4.39120 4.12912
# Velocity P-wave (km/s) = 5.78258 6.97834 6.40841
#
# Compressibility (1/GPa) = 0.02652135
#
# Stress axis : x y z
#
# Youngs Moduli (GPa) = 120.15473 61.88449 91.51870
#
# Poissons Ratio (x) = -0.03413 0.15008
# Poissons Ratio (y) = -0.06627 0.30707
# Poissons Ratio (z) = 0.19703 0.20764
#
# Static dielectric constant tensor:
#      x y z
#    x 2.261660 0.048970 -0.051010 
#    y 0.048970 2.102210 -0.027740 
#    z -0.051010 -0.027740 2.179880 
# 
# From -- ./inp_files/158919.got.cif
#   From: 2010.05.17/outbox.cif.g08.bks.cpg/sg2_80_cif.got.tgz:158919.got - 2010.06.03 11:33:40.
