data_PCOD9058567
_publ_section_title
;
Structure prediction by ZEFSAII (Michael W. Deem and Ramdas Pophale) SiO2 
 PCOD9058567
Probable space group: P -1
;
_chemical_formula_sum "Si O2"
_cell_formula_units_Z 14
_cell_length_a 7.815973
_cell_length_b 13.983909
_cell_length_c 11.194572
_cell_angle_alpha 51.513956
_cell_angle_beta 114.379310
_cell_angle_gamma 141.082086
_cell_volume 595.278266
_symmetry_space_group_name_H-M "P -1"
_symmetry_group_IT_number 2
_symmetry_cell_setting 'triclinic'
loop_
_space_group_symop_operation_xyz
x,y,z
-x,-y,-z
loop_
_atom_site_type_symbol
_atom_site_label
_atom_site_fract_x
_atom_site_fract_y
_atom_site_fract_z
Si Si1 0.928284 0.858441 0.776482
Si Si2 0.099826 0.639754 0.315831
Si Si3 0.516963 0.465214 0.707570
Si Si4 0.640068 0.754115 0.395277
Si Si5 0.044075 0.686262 0.809298
Si Si6 0.287180 0.588550 0.848568
Si Si7 0.967629 0.844398 0.067385
O O1 0.060276 0.834687 0.732904
O O2 0.597387 0.697040 0.818477
O O3 0.044167 0.876086 0.926596
O O4 0.058727 0.052902 0.642552
O O5 0.417578 0.752310 0.304038
O O6 0.000000 0.500000 0.500000
O O7 0.904573 0.519242 0.239515
O O8 0.090466 0.783567 0.218005
O O9 0.529122 0.615234 0.576662
O O10 0.363229 0.333435 0.653756
O O11 0.826963 0.569647 0.729379
O O12 0.355516 0.340289 0.871844
O O13 0.300052 0.730493 0.802006
O O14 0.891239 0.562970 0.980516
O O15 0.000000 0.000000 0.000000
#
# Coordination Sequence:
#
# PCOD9058567 Si02
#       7
#     2   2   2   2   2   2   2
#     4  12  25  44  71 109 143 187 245 309 360 427
#     4  12  25  47  74 106 145 196 245 294 369 446
#     4  11  22  46  71  99 145 199 234 293 371 437
#     4  11  26  44  71 104 147 189 241 297 369 435
#     4  11  23  43  75 103 143 194 244 299 365 435
#     4  11  24  44  74 106 143 190 248 302 362 435
#     4  12  24  43  75 106 143 191 247 304 357 429
#
# _framework density 23.518412999999999
#
# number of rings (size 3 to 8) (size 9 to 14) (size 15 to 20)
#    0.000    0.571    7.143    1.286    0.000    2.286 
#    0.000    0.714    0.000    0.000    0.000    0.000 
#    0.000    0.000    0.000    0.000    0.000    0.000 
#
# Total GULP energy -78105.924843 kJ/mol
# GULP energy per Si atom -5578.994632 kJ/mol
# Density = 2.346488 g / cm^3
# Si number density = 23.518413 Si / 1000 Ang^3
#
#
#
# Elastic Constant Matrix: (Units=GPa)
#
#
# Indices 1 2 3 4 5 6 
#
# 1 111.3856 19.5708 24.7322 -7.9286 19.7756 -16.1083
# 2 19.5708 77.6756 45.8381 -7.3980 -0.3453 -16.4879
# 3 24.7322 45.8381 109.0989 -8.9002 14.4177 -11.5328
# 4 -7.9286 -7.3980 -8.9002 33.8943 -0.6759 1.5611
# 5 19.7756 -0.3453 14.4177 -0.6759 29.9051 -0.3631
# 6 -16.1083 -16.4879 -11.5328 1.5611 -0.3631 36.2269
#
#
#
# Elastic Compliance Matrix: (Units=1/GPa)
#
#
# Indices 1 2 3 4 5 6 
#
# 1 0.011352 -0.001660 -0.000336 0.001874 -0.007273 0.004031
# 2 -0.001660 0.019142 -0.007622 0.001635 0.005098 0.005528
# 3 -0.000336 -0.007622 0.013470 0.001644 -0.006316 0.000536
# 4 0.001874 0.001635 0.001644 0.030669 -0.001311 0.000766
# 5 -0.007273 0.005098 -0.006316 -0.001311 0.041293 -0.002454
# 6 0.004031 0.005528 0.000536 0.000766 -0.002454 0.032025
#
#
# Mechanical properties :
#
#
# Convention : Reuss Voigt Hill
#
# Bulk Modulus (GPa) = 40.44007 53.16024 46.80016
# Shear Modulus (GPa) = 28.50140 33.87320 31.18730
#
# Velocity S-wave (km/s) = 3.48498 3.79922 3.64549
# Velocity P-wave (km/s) = 5.78151 6.47288 6.13694
#
# Compressibility (1/GPa) = 0.02472795
#
# Stress axis : x y z
#
# Youngs Moduli (GPa) = 88.09282 52.24068 74.23864
#
# Poissons Ratio (x) = 0.08672 0.02492
# Poissons Ratio (y) = 0.14624 0.56586
# Poissons Ratio (z) = 0.02958 0.39819
#
# Static dielectric constant tensor:
#      x y z
#    x 1.986130 -0.010210 0.042350 
#    y -0.010210 1.912840 -0.021080 
#    z 0.042350 -0.021080 1.955480 
# 
# From -- ./inp_files/209323.got.cif
#   From: 2010.05.17/outbox.cif.g08.bks.cpg/sg2_105_cif.got.tgz:209323.got - 2010.06.03 11:33:40.
