data_PCOD9058950
_publ_section_title
;
Structure prediction by ZEFSAII (Michael W. Deem and Ramdas Pophale) SiO2 
 PCOD9058950
Probable space group: P -1
;
_chemical_formula_sum "Si O2"
_cell_formula_units_Z 12
_cell_length_a 13.507412
_cell_length_b 9.167497
_cell_length_c 7.702646
_cell_angle_alpha 46.415027
_cell_angle_beta 84.688347
_cell_angle_gamma 111.530702
_cell_volume 551.714572
_symmetry_space_group_name_H-M "P -1"
_symmetry_group_IT_number 2
_symmetry_cell_setting 'triclinic'
loop_
_space_group_symop_operation_xyz
x,y,z
-x,-y,-z
loop_
_atom_site_type_symbol
_atom_site_label
_atom_site_fract_x
_atom_site_fract_y
_atom_site_fract_z
Si Si1 0.143239 0.855373 0.955173
Si Si2 0.985962 0.997393 0.710282
Si Si3 0.736808 0.698951 0.191957
Si Si4 0.807607 0.453904 0.617345
Si Si5 0.325919 0.807399 0.822002
Si Si6 0.458233 0.616326 0.772233
O O1 0.025349 0.834688 0.928889
O O2 0.197524 0.778783 0.856656
O O3 0.243125 0.140144 0.772424
O O4 0.133591 0.695860 0.252580
O O5 0.088201 0.276283 0.537082
O O6 0.000000 0.000000 0.500000
O O7 0.849262 0.885329 0.889682
O O8 0.760097 0.497819 0.415070
O O9 0.606078 0.566722 0.230602
O O10 0.688397 0.287689 0.900088
O O11 0.352963 0.641907 0.843123
O O12 0.431393 0.099142 0.530123
O O13 0.500000 0.500000 0.000000
#
# Coordination Sequence:
#
# PCOD9058950 Si02
#       6
#     2   2   2   2   2   2
#     4   9  22  42  65  93 123 166 202 259 310 365
#     4  11  23  39  65  97 128 162 203 255 318 373
#     4  11  24  39  65  95 122 166 212 251 313 368
#     4   9  21  42  62  89 129 155 211 255 301 373
#     4   9  23  43  63  91 123 166 211 249 318 356
#     4  11  25  43  64  90 131 164 207 264 304 374
#
# _framework density 21.750377
#
# number of rings (size 3 to 8) (size 9 to 14) (size 15 to 20)
#    1.000    1.000    0.000    3.000    7.000    7.333 
#    0.000    0.000    0.000    0.000    0.000    0.000 
#    0.000    0.000    0.000    0.000    0.000    0.000 
#
# Total GULP energy -66842.601583 kJ/mol
# GULP energy per Si atom -5570.216799 kJ/mol
# Density = 2.170087 g / cm^3
# Si number density = 21.750377 Si / 1000 Ang^3
#
#
#
# Elastic Constant Matrix: (Units=GPa)
#
#
# Indices 1 2 3 4 5 6 
#
# 1 59.8684 21.7735 15.9277 -11.3345 21.0243 -1.5513
# 2 21.7735 42.3446 8.5636 2.2780 11.9203 7.8073
# 3 15.9277 8.5636 102.7163 0.9207 18.1833 6.7715
# 4 -11.3345 2.2780 0.9207 24.2161 -5.2251 0.3551
# 5 21.0243 11.9203 18.1833 -5.2251 32.9210 11.4695
# 6 -1.5513 7.8073 6.7715 0.3551 11.4695 42.8685
#
#
#
# Elastic Compliance Matrix: (Units=1/GPa)
#
#
# Indices 1 2 3 4 5 6 
#
# 1 0.028934 -0.012667 -0.001593 0.011747 -0.013641 0.007158
# 2 -0.012667 0.032579 0.000317 -0.009689 -0.003533 -0.005416
# 3 -0.001593 0.000317 0.010956 -0.002349 -0.005388 -0.000385
# 4 0.011747 -0.009689 -0.002349 0.048803 0.004740 0.000888
# 5 -0.013641 -0.003533 -0.005388 0.004740 0.048258 -0.011950
# 6 0.007158 -0.005416 -0.000385 0.000888 -0.011950 0.027823
#
#
# Mechanical properties :
#
#
# Convention : Reuss Voigt Hill
#
# Bulk Modulus (GPa) = 22.42958 33.05100 27.74029
# Shear Modulus (GPa) = 20.82459 30.57874 25.70167
#
# Velocity S-wave (km/s) = 3.09760 3.75359 3.44127
# Velocity P-wave (km/s) = 4.80918 5.83220 5.34522
#
# Compressibility (1/GPa) = 0.04458397
#
# Stress axis : x y z
#
# Youngs Moduli (GPa) = 34.56179 30.69422 91.27162
#
# Poissons Ratio (x) = 0.38881 0.14539
# Poissons Ratio (y) = 0.43780 -0.02897
# Poissons Ratio (z) = 0.05506 -0.00974
#
# Static dielectric constant tensor:
#      x y z
#    x 1.800490 -0.045840 -0.000320 
#    y -0.045840 1.797650 -0.003100 
#    z -0.000320 -0.003100 1.824610 
# 
# From -- ./inp_files/294067.got.cif
#   From: 2010.05.17/outbox.cif.g08.bks.cpg/sg2_148_cif.got.tgz:294067.got - 2010.06.03 11:33:40.
