data_PCOD9058068
_publ_section_title
;
Structure prediction by ZEFSAII (Michael W. Deem and Ramdas Pophale) SiO2 
 PCOD9058068
Probable space group: P -1
;
_chemical_formula_sum "Si O2"
_cell_formula_units_Z 16
_cell_length_a 14.709102
_cell_length_b 7.943219
_cell_length_c 9.500851
_cell_angle_alpha 77.740664
_cell_angle_beta 138.713172
_cell_angle_gamma 92.774281
_cell_volume 705.030088
_symmetry_space_group_name_H-M "P -1"
_symmetry_group_IT_number 2
_symmetry_cell_setting 'triclinic'
loop_
_space_group_symop_operation_xyz
x,y,z
-x,-y,-z
loop_
_atom_site_type_symbol
_atom_site_label
_atom_site_fract_x
_atom_site_fract_y
_atom_site_fract_z
Si Si1 0.709974 0.310069 0.454794
Si Si2 0.150300 0.945399 0.116390
Si Si3 0.381596 0.166096 0.376833
Si Si4 0.814083 0.980415 0.174829
Si Si5 0.297012 0.476958 0.997781
Si Si6 0.909696 0.267339 0.428983
Si Si7 0.554244 0.809259 0.962728
Si Si8 0.532737 0.684949 0.258640
O O1 0.774250 0.228877 0.689361
O O2 0.830139 0.304769 0.478193
O O3 0.631002 0.502366 0.366274
O O4 0.596246 0.194510 0.283455
O O5 0.239765 0.091559 0.238048
O O6 0.154189 0.939927 0.953143
O O7 0.000000 0.000000 0.000000
O O8 0.344051 0.325558 0.193755
O O9 0.425771 0.241235 0.560208
O O10 0.500000 0.000000 0.500000
O O11 0.658211 0.935839 0.006849
O O12 0.925710 0.799641 0.350612
O O13 0.850097 0.103476 0.319642
O O14 0.379672 0.634129 0.100183
O O15 0.139934 0.569370 0.762568
O O16 0.363104 0.384000 0.949352
O O17 0.542240 0.811876 0.115951
#
# Coordination Sequence:
#
# PCOD9058068 Si02
#       8
#     2   2   2   2   2   2   2   2
#     4  11  23  45  71 100 139 187 228 286 347 417
#     4  12  27  47  69  98 148 188 226 286 355 409
#     4  12  28  46  72 108 137 184 235 285 349 420
#     4  11  27  44  68 107 138 186 233 290 341 412
#     4  11  22  45  71 103 137 181 231 285 346 411
#     4  11  24  45  72  98 142 185 233 285 350 406
#     4  11  22  44  70 105 135 177 243 284 348 404
#     4  11  24  43  73 105 140 177 232 293 349 404
#
# _framework density 22.694067
#
# number of rings (size 3 to 8) (size 9 to 14) (size 15 to 20)
#    0.000    0.750    5.000    2.625    5.250    1.000 
#    2.250    0.625    0.000    0.000    0.000    0.000 
#    0.000    0.000    0.000    0.000    0.000    0.000 
#
# Total GULP energy -89552.986766 kJ/mol
# GULP energy per Si atom -5597.061673 kJ/mol
# Density = 2.264241 g / cm^3
# Si number density = 22.694067 Si / 1000 Ang^3
#
#
#
# Elastic Constant Matrix: (Units=GPa)
#
#
# Indices 1 2 3 4 5 6 
#
# 1 122.3306 47.1551 64.5639 -4.2590 -2.6022 -3.9716
# 2 47.1551 71.7566 30.6057 -2.8868 -10.8981 -3.9420
# 3 64.5639 30.6057 129.6471 -29.9365 -17.4436 -7.9248
# 4 -4.2590 -2.8868 -29.9365 49.3457 -1.1829 -5.1949
# 5 -2.6022 -10.8981 -17.4436 -1.1829 47.8804 3.2573
# 6 -3.9716 -3.9420 -7.9248 -5.1949 3.2573 38.8984
#
#
#
# Elastic Compliance Matrix: (Units=1/GPa)
#
#
# Indices 1 2 3 4 5 6 
#
# 1 0.014269 -0.007212 -0.006690 -0.003415 -0.003332 -0.000814
# 2 -0.007212 0.019466 -0.000306 0.000521 0.003878 0.000919
# 3 -0.006690 -0.000306 0.013797 0.008180 0.004605 0.002804
# 4 -0.003415 0.000521 0.008180 0.025516 0.003237 0.004507
# 5 -0.003332 0.003878 0.004605 0.003237 0.023381 -0.000535
# 6 -0.000814 0.000919 0.002804 0.004507 -0.000535 0.026936
#
#
# Mechanical properties :
#
#
# Convention : Reuss Voigt Hill
#
# Bulk Modulus (GPa) = 52.30998 67.59817 59.95407
# Shear Modulus (GPa) = 31.61510 39.31888 35.46699
#
# Velocity S-wave (km/s) = 3.73647 4.16692 3.95755
# Velocity P-wave (km/s) = 6.45872 7.28027 6.88177
#
# Compressibility (1/GPa) = 0.01911681
#
# Stress axis : x y z
#
# Youngs Moduli (GPa) = 70.08083 51.37157 72.48002
#
# Poissons Ratio (x) = 0.37048 0.48490
# Poissons Ratio (y) = 0.50541 0.02216
# Poissons Ratio (z) = 0.46885 0.01571
#
# Static dielectric constant tensor:
#      x y z
#    x 1.847460 0.018480 -0.014210 
#    y 0.018480 1.879240 -0.048510 
#    z -0.014210 -0.048510 1.892790 
# 
# From -- ./inp_files/298412.got.cif
#   From: 2010.05.17/outbox.cif.g08.bks.cpg/sg2_150_cif.got.tgz:298412.got - 2010.06.03 11:33:40.
