data_PCOD9058390
_publ_section_title
;
Structure prediction by ZEFSAII (Michael W. Deem and Ramdas Pophale) SiO2 
 PCOD9058390
Probable space group: P -1
;
_chemical_formula_sum "Si O2"
_cell_formula_units_Z 16
_cell_length_a 8.721339
_cell_length_b 8.515938
_cell_length_c 9.972511
_cell_angle_alpha 61.844857
_cell_angle_beta 104.982188
_cell_angle_gamma 93.328207
_cell_volume 629.043728
_symmetry_space_group_name_H-M "P -1"
_symmetry_group_IT_number 2
_symmetry_cell_setting 'triclinic'
loop_
_space_group_symop_operation_xyz
x,y,z
-x,-y,-z
loop_
_atom_site_type_symbol
_atom_site_label
_atom_site_fract_x
_atom_site_fract_y
_atom_site_fract_z
Si Si1 0.782582 0.270007 0.601818
Si Si2 0.519327 0.197335 0.359796
Si Si3 0.377416 0.167894 0.880104
Si Si4 0.053528 0.724093 0.820167
Si Si5 0.880848 0.883776 0.381288
Si Si6 0.210816 0.401238 0.324496
Si Si7 0.147630 0.072273 0.085496
Si Si8 0.412690 0.674650 0.965304
O O1 0.663105 0.273897 0.447604
O O2 0.766592 0.446370 0.620670
O O3 0.961475 0.221496 0.604704
O O4 0.755247 0.099426 0.758604
O O5 0.362970 0.331775 0.299124
O O6 0.556974 0.192734 0.209765
O O7 0.500000 0.000000 0.500000
O O8 0.265499 0.141368 0.742071
O O9 0.255837 0.179172 0.971434
O O10 0.502276 0.311584 0.876162
O O11 0.500000 0.000000 0.000000
O O12 0.225230 0.667594 0.942306
O O13 0.963814 0.564773 0.797456
O O14 0.928669 0.804047 0.867490
O O15 0.090847 0.908479 0.676350
O O16 0.826763 0.783838 0.538246
O O17 0.000000 0.000000 0.000000
O O18 0.500000 0.500000 0.000000
#
# Coordination Sequence:
#
# PCOD9058390 Si02
#       8
#     2   2   2   2   2   2   2   2
#     4  11  25  43  71 101 137 177 228 288 344 405
#     4  12  26  49  71 101 139 187 233 281 342 423
#     4  12  24  44  70 101 136 180 232 277 341 413
#     4  11  23  46  69 100 134 186 230 279 339 423
#     4  11  23  44  70  98 134 188 225 275 343 417
#     4  12  26  42  70 103 138 176 229 288 346 399
#     4  11  22  45  71  99 133 183 232 275 342 417
#     4  12  28  45  70 104 142 179 229 295 346 400
#
# _framework density 25.435433
#
# number of rings (size 3 to 8) (size 9 to 14) (size 15 to 20)
#    0.000    0.500    3.750    5.625    5.250    2.000 
#    0.000    1.875    0.000    0.000    0.000    0.000 
#    0.000    0.000    0.000    0.000    0.000    0.000 
#
# Total GULP energy -89476.057865 kJ/mol
# GULP energy per Si atom -5592.253617 kJ/mol
# Density = 2.537754 g / cm^3
# Si number density = 25.435433 Si / 1000 Ang^3
#
#
#
# Elastic Constant Matrix: (Units=GPa)
#
#
# Indices 1 2 3 4 5 6 
#
# 1 122.2468 38.7385 29.7171 4.4124 28.5489 5.5503
# 2 38.7385 122.5513 23.7891 20.3575 27.1230 9.8369
# 3 29.7171 23.7891 85.3532 12.0427 19.0010 32.0231
# 4 4.4124 20.3575 12.0427 53.4428 16.1414 16.6989
# 5 28.5489 27.1230 19.0010 16.1414 55.2994 10.2323
# 6 5.5503 9.8369 32.0231 16.6989 10.2323 36.8309
#
#
#
# Elastic Compliance Matrix: (Units=1/GPa)
#
#
# Indices 1 2 3 4 5 6 
#
# 1 0.010428 -0.002175 -0.003185 0.001153 -0.003997 0.002367
# 2 -0.002175 0.010112 -0.001385 -0.002813 -0.002698 0.000856
# 3 -0.003185 -0.001385 0.019571 0.002159 -0.001960 -0.016601
# 4 0.001153 -0.002813 0.002159 0.024094 -0.004985 -0.010839
# 5 -0.003997 -0.002698 -0.001960 -0.004985 0.023846 -0.001338
# 6 0.002367 0.000856 -0.016601 -0.010839 -0.001338 0.046286
#
#
# Mechanical properties :
#
#
# Convention : Reuss Voigt Hill
#
# Bulk Modulus (GPa) = 37.56411 57.18228 47.37320
# Shear Modulus (GPa) = 31.90809 44.97506 38.44157
#
# Velocity S-wave (km/s) = 3.54570 4.20956 3.89181
# Velocity P-wave (km/s) = 5.61811 6.79392 6.23380
#
# Compressibility (1/GPa) = 0.02662116
#
# Stress axis : x y z
#
# Youngs Moduli (GPa) = 95.89548 98.89394 51.09605
#
# Poissons Ratio (x) = 0.21508 0.16276
# Poissons Ratio (y) = 0.20856 0.07075
# Poissons Ratio (z) = 0.30546 0.13693
#
# Static dielectric constant tensor:
#      x y z
#    x 2.047910 0.163130 0.114350 
#    y 0.163130 2.162660 0.180960 
#    z 0.114350 0.180960 2.274220 
# 
# From -- ./inp_files/381459.got.cif
#   From: 2010.05.17/outbox.cif.g08.bks.cpg/sg2_191_cif.got.tgz:381459.got - 2010.06.03 11:33:40.
