data_PCOD9058147
_publ_section_title
;
Structure prediction by ZEFSAII (Michael W. Deem and Ramdas Pophale) SiO2 
 PCOD9058147
Probable space group: P -1
;
_chemical_formula_sum "Si O2"
_cell_formula_units_Z 15
_cell_length_a 24.838447
_cell_length_b 11.846207
_cell_length_c 9.059504
_cell_angle_alpha 140.949702
_cell_angle_beta 148.519667
_cell_angle_gamma 28.891344
_cell_volume 667.816388
_symmetry_space_group_name_H-M "P -1"
_symmetry_group_IT_number 2
_symmetry_cell_setting 'triclinic'
loop_
_space_group_symop_operation_xyz
x,y,z
-x,-y,-z
loop_
_atom_site_type_symbol
_atom_site_label
_atom_site_fract_x
_atom_site_fract_y
_atom_site_fract_z
Si Si1 0.001110 0.702190 0.657178
Si Si2 0.784798 0.421998 0.759906
Si Si3 0.200225 0.943637 0.212962
Si Si4 0.500000 0.500000 0.500000
Si Si5 0.350799 0.084318 0.203074
Si Si6 0.120775 0.224534 0.032941
Si Si7 0.556826 0.387232 0.184259
Si Si8 0.005446 0.073537 0.408773
O O1 0.975239 0.778194 0.506197
O O2 0.000000 0.500000 0.500000
O O3 0.144308 0.616685 0.959398
O O4 0.889301 0.931382 0.723828
O O5 0.735054 0.662392 0.817063
O O6 0.661414 0.429055 0.498988
O O7 0.892354 0.197366 0.680520
O O8 0.354609 0.760831 0.433745
O O9 0.163354 0.148745 0.225095
O O10 0.143524 0.831317 0.881708
O O11 0.469736 0.489962 0.235162
O O12 0.257424 0.122857 0.160511
O O13 0.500000 0.000000 0.500000
O O14 0.376748 0.881949 0.957220
O O15 0.000000 0.500000 0.000000
O O16 0.057035 0.105249 0.711033
O O17 0.500000 0.500000 0.000000
#
# Coordination Sequence:
#
# PCOD9058147 Si02
#       8
#     2   2   2   1   2   2   2   2
#     4  11  23  43  73 107 141 192 254 317 383 467
#     4  11  23  42  77 101 140 201 254 309 392 466
#     4  11  25  43  68 108 147 193 246 320 387 459
#     4  12  28  44  74 112 156 202 262 318 396 486
#     4  12  26  45  74 113 148 207 264 310 403 481
#     4  12  25  45  73 110 151 189 261 333 386 465
#     4  12  25  50  75 104 157 209 257 322 390 483
#     4  11  22  44  72 103 142 195 252 307 396 460
#
# _framework density 22.461264
#
# number of rings (size 3 to 8) (size 9 to 14) (size 15 to 20)
#    0.000    0.533    2.667    7.600    1.867    1.067 
#    0.000    2.000    0.000    0.000    0.000    0.000 
#    0.000    0.000    0.000    0.000    0.000    0.000 
#
# Total GULP energy -83602.092921 kJ/mol
# GULP energy per Si atom -5573.472861 kJ/mol
# Density = 2.241014 g / cm^3
# Si number density = 22.461264 Si / 1000 Ang^3
#
#
#
# Elastic Constant Matrix: (Units=GPa)
#
#
# Indices 1 2 3 4 5 6 
#
# 1 73.6495 10.5815 4.1354 -2.8395 -14.9977 3.1189
# 2 10.5815 104.1001 25.3640 -6.5792 1.8290 23.6428
# 3 4.1354 25.3640 79.3828 -0.2799 -0.5875 5.3631
# 4 -2.8395 -6.5792 -0.2799 45.9362 6.2052 2.1128
# 5 -14.9977 1.8290 -0.5875 6.2052 40.7438 -4.3481
# 6 3.1189 23.6428 5.3631 2.1128 -4.3481 34.5348
#
#
#
# Elastic Compliance Matrix: (Units=1/GPa)
#
#
# Indices 1 2 3 4 5 6 
#
# 1 0.014959 -0.001699 -0.000233 -0.000110 0.005656 0.000567
# 2 -0.001699 0.012741 -0.003418 0.002431 -0.002525 -0.008505
# 3 -0.000233 -0.003418 0.013681 -0.000485 0.000372 0.000313
# 4 -0.000110 0.002431 -0.000485 0.022808 -0.004002 -0.003478
# 5 0.005656 -0.002525 0.000372 -0.004002 0.027878 0.004915
# 6 0.000567 -0.008505 0.000313 -0.003478 0.004915 0.035511
#
#
# Mechanical properties :
#
#
# Convention : Reuss Voigt Hill
#
# Bulk Modulus (GPa) = 32.59362 37.47715 35.03539
# Shear Modulus (GPa) = 33.66868 38.71306 36.19087
#
# Velocity S-wave (km/s) = 3.87585 4.15607 4.01840
# Velocity P-wave (km/s) = 5.87981 6.30492 6.09607
#
# Compressibility (1/GPa) = 0.03068085
#
# Stress axis : x y z
#
# Youngs Moduli (GPa) = 66.85122 78.48493 73.09221
#
# Poissons Ratio (x) = 0.13333 0.01705
# Poissons Ratio (y) = 0.11357 0.24983
# Poissons Ratio (z) = 0.01560 0.26826
#
# Static dielectric constant tensor:
#      x y z
#    x 1.981610 0.040510 -0.004360 
#    y 0.040510 1.792030 -0.013190 
#    z -0.004360 -0.013190 1.869350 
# 
# From -- ./inp_files/353865.got.cif
#   From: 2010.05.17/outbox.cif.g08.bks.cpg/sg2_177_cif.got.tgz:353865.got - 2010.06.03 11:33:40.
