data_PCOD9058227
_publ_section_title
;
Structure prediction by ZEFSAII (Michael W. Deem and Ramdas Pophale) SiO2 
 PCOD9058227
Probable space group: P -1
;
_chemical_formula_sum "Si O2"
_cell_formula_units_Z 16
_cell_length_a 6.600067
_cell_length_b 21.445811
_cell_length_c 20.395783
_cell_angle_alpha 158.054655
_cell_angle_beta 138.769274
_cell_angle_gamma 52.084444
_cell_volume 669.436065
_symmetry_space_group_name_H-M "P -1"
_symmetry_group_IT_number 2
_symmetry_cell_setting 'triclinic'
loop_
_space_group_symop_operation_xyz
x,y,z
-x,-y,-z
loop_
_atom_site_type_symbol
_atom_site_label
_atom_site_fract_x
_atom_site_fract_y
_atom_site_fract_z
Si Si1 0.309527 0.802140 0.739705
Si Si2 0.393861 0.114933 0.872121
Si Si3 0.189417 0.634857 0.411922
Si Si4 0.336334 0.060098 0.428196
Si Si5 0.462893 0.549035 0.112830
Si Si6 0.301291 0.179391 0.762111
Si Si7 0.614955 0.395845 0.315303
Si Si8 0.359751 0.166522 0.386336
O O1 0.316846 0.779736 0.641812
O O2 0.435526 0.677984 0.695025
O O3 0.933879 0.763870 0.630989
O O4 0.500000 0.000000 0.000000
O O5 0.387114 0.192388 0.873013
O O6 0.645122 0.007509 0.823320
O O7 0.509422 0.245239 0.087541
O O8 0.019560 0.990643 0.674881
O O9 0.364856 0.498798 0.342537
O O10 0.309707 0.693794 0.424849
O O11 0.801491 0.571535 0.255588
O O12 0.561098 0.252613 0.699227
O O13 0.340383 0.112008 0.403566
O O14 0.433193 0.880767 0.274468
O O15 0.500000 0.500000 0.000000
O O16 0.235651 0.359267 0.901459
O O17 0.000000 0.000000 0.500000
O O18 0.000000 0.500000 0.500000
#
# Coordination Sequence:
#
# PCOD9058227 Si02
#       8
#     2   2   2   2   2   2   2   2
#     4  12  26  45  72 106 144 197 245 297 367 438
#     4  11  25  47  72 103 150 194 242 309 370 434
#     4  12  26  47  71 106 151 184 251 308 358 444
#     4  11  24  49  75 107 148 193 247 305 373 442
#     4  12  27  48  80 109 145 198 248 304 379 444
#     4  11  28  48  76 111 147 192 247 313 377 445
#     4  12  27  43  70 107 146 196 240 300 370 436
#     4  11  22  44  75 100 144 193 244 297 368 429
#
# _framework density 23.900714000000001
#
# number of rings (size 3 to 8) (size 9 to 14) (size 15 to 20)
#    0.000    0.500    3.750    3.375    7.000    5.500 
#    0.000    0.000    0.000    0.000    0.000    0.000 
#    0.000    0.000    0.000    0.000    0.000    0.000 
#
# Total GULP energy -89372.275092 kJ/mol
# GULP energy per Si atom -5585.767193 kJ/mol
# Density = 2.384632 g / cm^3
# Si number density = 23.900714 Si / 1000 Ang^3
#
#
#
# Elastic Constant Matrix: (Units=GPa)
#
#
# Indices 1 2 3 4 5 6 
#
# 1 85.1576 13.2532 14.6519 8.0860 -14.8807 12.1159
# 2 13.2532 60.5907 -4.9902 0.9357 -6.0256 21.5370
# 3 14.6519 -4.9902 97.9693 0.3648 -17.6461 14.5774
# 4 8.0860 0.9357 0.3648 29.5629 3.1211 0.2209
# 5 -14.8807 -6.0256 -17.6461 3.1211 44.7394 4.5982
# 6 12.1159 21.5370 14.5774 0.2209 4.5982 37.5552
#
#
#
# Elastic Compliance Matrix: (Units=1/GPa)
#
#
# Indices 1 2 3 4 5 6 
#
# 1 0.013881 -0.001008 -0.000579 -0.004252 0.004987 -0.004261
# 2 -0.001008 0.023372 0.004842 -0.001084 0.006416 -0.015737
# 3 -0.000579 0.004842 0.012965 -0.000777 0.006492 -0.008413
# 4 -0.004252 -0.001084 -0.000777 0.035501 -0.004616 0.002651
# 5 0.004987 0.006416 0.006492 -0.004616 0.028921 -0.011322
# 6 -0.004261 -0.015737 -0.008413 0.002651 -0.011322 0.041663
#
#
# Mechanical properties :
#
#
# Convention : Reuss Voigt Hill
#
# Bulk Modulus (GPa) = 17.62782 32.17192 24.89987
# Shear Modulus (GPa) = 29.63844 37.09170 33.36507
#
# Velocity S-wave (km/s) = 3.52528 3.94370 3.74034
# Velocity P-wave (km/s) = 4.89505 5.85038 5.39391
#
# Compressibility (1/GPa) = 0.05672852
#
# Stress axis : x y z
#
# Youngs Moduli (GPa) = 72.04113 42.78669 77.13352
#
# Poissons Ratio (x) = 0.04311 0.04467
# Poissons Ratio (y) = 0.07259 -0.37351
# Poissons Ratio (z) = 0.04172 -0.20719
#
# Static dielectric constant tensor:
#      x y z
#    x 1.931290 -0.057050 0.041150 
#    y -0.057050 1.981950 0.064100 
#    z 0.041150 0.064100 1.912980 
# 
# From -- ./inp_files/323529.got.cif
#   From: 2010.05.17/outbox.cif.g08.bks.cpg/sg2_162_cif.got.tgz:323529.got - 2010.06.03 11:33:40.
