data_PCOD9058371
_publ_section_title
;
Structure prediction by ZEFSAII (Michael W. Deem and Ramdas Pophale) SiO2 
 PCOD9058371
Probable space group: P -1
;
_chemical_formula_sum "Si O2"
_cell_formula_units_Z 16
_cell_length_a 9.298616
_cell_length_b 12.036728
_cell_length_c 11.762620
_cell_angle_alpha 94.266584
_cell_angle_beta 126.343392
_cell_angle_gamma 51.098734
_cell_volume 726.216559
_symmetry_space_group_name_H-M "P -1"
_symmetry_group_IT_number 2
_symmetry_cell_setting 'triclinic'
loop_
_space_group_symop_operation_xyz
x,y,z
-x,-y,-z
loop_
_atom_site_type_symbol
_atom_site_label
_atom_site_fract_x
_atom_site_fract_y
_atom_site_fract_z
Si Si1 0.896675 0.313044 0.394009
Si Si2 0.689871 0.487783 0.920671
Si Si3 0.572385 0.998287 0.406205
Si Si4 0.886495 0.514616 0.241520
Si Si5 0.911603 0.179439 0.871551
Si Si6 0.244016 0.681468 0.430860
Si Si7 0.361564 0.330357 0.298104
Si Si8 0.565298 0.156363 0.813746
O O1 0.612057 0.410560 0.222264
O O2 0.971600 0.393396 0.373242
O O3 0.882185 0.325472 0.524006
O O4 0.118025 0.122476 0.457437
O O5 0.857319 0.306565 0.941691
O O6 0.718977 0.573764 0.849069
O O7 0.766824 0.494673 0.081229
O O8 0.521596 0.914163 0.298294
O O9 0.500000 0.000000 0.500000
O O10 0.407906 0.177885 0.300855
O O11 0.662041 0.693991 0.201243
O O12 0.139196 0.454078 0.297137
O O13 0.917624 0.222798 0.750035
O O14 0.667856 0.206174 0.779520
O O15 0.176241 0.994930 0.007479
O O16 0.500000 0.500000 0.500000
O O17 0.364240 0.740993 0.541409
#
# Coordination Sequence:
#
# PCOD9058371 Si02
#       8
#     2   2   2   2   2   2   2   2
#     4  11  25  41  74 100 135 186 233 279 343 417
#     4  11  24  45  71 100 138 184 227 281 351 411
#     4  12  26  46  67 104 143 177 227 292 341 406
#     4  12  24  44  70 105 137 181 235 286 338 419
#     4  11  23  45  70 101 141 182 226 286 347 409
#     4  11  22  45  71 102 138 181 228 283 339 411
#     4  11  25  44  71 100 141 186 223 284 356 401
#     4  11  27  41  71 105 134 183 234 286 345 402
#
# _framework density 22.031995999999999
#
# number of rings (size 3 to 8) (size 9 to 14) (size 15 to 20)
#    0.000    0.750    5.000    2.250    1.750    5.500 
#    0.000    1.875    0.000    0.000    0.000    0.000 
#    0.000    0.000    0.000    0.000    0.000    0.000 
#
# Total GULP energy -89547.054343 kJ/mol
# GULP energy per Si atom -5596.690896 kJ/mol
# Density = 2.198185 g / cm^3
# Si number density = 22.031996 Si / 1000 Ang^3
#
#
#
# Elastic Constant Matrix: (Units=GPa)
#
#
# Indices 1 2 3 4 5 6 
#
# 1 112.6678 39.3288 28.2635 -7.1149 -30.1973 -13.2280
# 2 39.3288 133.8086 20.5429 -4.8283 -9.8550 -1.8010
# 3 28.2635 20.5429 51.5473 1.8904 -9.5529 -6.2661
# 4 -7.1149 -4.8283 1.8904 43.7278 -2.3343 5.0731
# 5 -30.1973 -9.8550 -9.5529 -2.3343 40.6174 -0.3297
# 6 -13.2280 -1.8010 -6.2661 5.0731 -0.3297 42.0284
#
#
#
# Elastic Compliance Matrix: (Units=1/GPa)
#
#
# Indices 1 2 3 4 5 6 
#
# 1 0.013798 -0.002583 -0.004598 0.002235 0.008706 0.003345
# 2 -0.002583 0.008558 -0.002185 0.000702 -0.000324 -0.000859
# 3 -0.004598 -0.002185 0.023411 -0.002182 0.001450 0.002224
# 4 0.002235 0.000702 -0.002182 0.023831 0.002669 -0.002447
# 5 0.008706 -0.000324 0.001450 0.002669 0.031531 0.002868
# 6 0.003345 -0.000859 0.002224 -0.002447 0.002868 0.025459
#
#
# Mechanical properties :
#
#
# Convention : Reuss Voigt Hill
#
# Bulk Modulus (GPa) = 36.98866 52.69934 44.84400
# Shear Modulus (GPa) = 32.39821 39.26729 35.83275
#
# Velocity S-wave (km/s) = 3.83888 4.22629 4.03724
# Velocity P-wave (km/s) = 6.03940 6.91280 6.49081
#
# Compressibility (1/GPa) = 0.02703531
#
# Stress axis : x y z
#
# Youngs Moduli (GPa) = 72.47527 116.85363 42.71572
#
# Poissons Ratio (x) = 0.30179 0.19641
# Poissons Ratio (y) = 0.18718 0.09332
# Poissons Ratio (z) = 0.33325 0.25528
#
# Static dielectric constant tensor:
#      x y z
#    x 1.873220 -0.075250 -0.061620 
#    y -0.075250 2.051670 0.279960 
#    z -0.061620 0.279960 2.081370 
# 
# From -- ./inp_files/392624.got.cif
#   From: 2010.05.17/outbox.cif.g08.bks.cpg/sg2_197_cif.got.tgz:392624.got - 2010.06.03 11:33:40.
