data_PCOD9058014
_publ_section_title
;
Structure prediction by ZEFSAII (Michael W. Deem and Ramdas Pophale) SiO2 
 PCOD9058014
Probable space group: P -1
;
_chemical_formula_sum "Si O2"
_cell_formula_units_Z 14
_cell_length_a 21.388887
_cell_length_b 5.974065
_cell_length_c 9.549370
_cell_angle_alpha 119.928613
_cell_angle_beta 145.435207
_cell_angle_gamma 50.293839
_cell_volume 531.551190
_symmetry_space_group_name_H-M "P -1"
_symmetry_group_IT_number 2
_symmetry_cell_setting 'triclinic'
loop_
_space_group_symop_operation_xyz
x,y,z
-x,-y,-z
loop_
_atom_site_type_symbol
_atom_site_label
_atom_site_fract_x
_atom_site_fract_y
_atom_site_fract_z
Si Si1 0.217513 0.009368 0.121848
Si Si2 0.935860 0.909413 0.727138
Si Si3 0.073448 0.634086 0.360764
Si Si4 0.559036 0.202815 0.719705
Si Si5 0.142255 0.558067 0.777073
Si Si6 0.369577 0.975993 0.917450
Si Si7 0.412147 0.843334 0.647269
O O1 0.299975 0.958748 0.121935
O O2 0.301792 0.052258 0.407622
O O3 0.216617 0.701006 0.041400
O O4 0.073535 0.232783 0.906963
O O5 0.885222 0.711237 0.655992
O O6 0.024897 0.667263 0.699793
O O7 0.877877 0.204695 0.612917
O O8 0.000000 0.000000 0.000000
O O9 0.101775 0.703004 0.592748
O O10 0.468961 0.517787 0.594255
O O11 0.500000 0.000000 0.500000
O O12 0.570669 0.252808 0.920731
O O13 0.239550 0.228359 0.815330
O O14 0.360227 0.861916 0.713220
O O15 0.469333 0.097455 0.118490
#
# Coordination Sequence:
#
# PCOD9058014 Si02
#       7
#     2   2   2   2   2   2   2
#     4  11  22  44  69 100 139 182 236 291 359 432
#     4  11  24  45  73 103 144 187 243 299 358 432
#     4  11  26  47  73 107 144 195 238 298 365 439
#     4  12  22  40  71 103 136 184 237 294 357 428
#     4  11  24  46  72 101 143 191 235 297 365 433
#     4  11  24  43  67  97 138 182 231 293 351 426
#     4  11  24  43  64 100 137 180 236 291 352 418
#
# _framework density 26.338007000000001
#
# number of rings (size 3 to 8) (size 9 to 14) (size 15 to 20)
#    0.000    0.857    2.857    5.143    0.000    5.714 
#    0.000    0.000    0.000    0.000    0.000    0.000 
#    0.000    0.000    0.000    0.000    0.000    0.000 
#
# Total GULP energy -78156.621612 kJ/mol
# GULP energy per Si atom -5582.615829 kJ/mol
# Density = 2.627806 g / cm^3
# Si number density = 26.338007 Si / 1000 Ang^3
#
#
#
# Elastic Constant Matrix: (Units=GPa)
#
#
# Indices 1 2 3 4 5 6 
#
# 1 144.2630 47.1291 32.6001 -19.6740 -24.0525 -2.2851
# 2 47.1291 112.2886 32.2429 -12.5341 2.3744 3.5317
# 3 32.6001 32.2429 110.6152 -21.2670 -14.2988 -13.3838
# 4 -19.6740 -12.5341 -21.2670 42.9196 -1.7160 1.3092
# 5 -24.0525 2.3744 -14.2988 -1.7160 58.2937 2.5289
# 6 -2.2851 3.5317 -13.3838 1.3092 2.5289 36.9823
#
#
#
# Elastic Compliance Matrix: (Units=1/GPa)
#
#
# Indices 1 2 3 4 5 6 
#
# 1 0.009276 -0.003473 -0.000584 0.003095 0.003903 0.000317
# 2 -0.003473 0.011320 -0.002800 0.000293 -0.002479 -0.002150
# 3 -0.000584 -0.002800 0.011794 0.004741 0.002726 0.004145
# 4 0.003095 0.000293 0.004741 0.027260 0.003200 0.000695
# 5 0.003903 -0.002479 0.002726 0.003200 0.019628 0.000009
# 6 0.000317 -0.002150 0.004145 0.000695 0.000009 0.028740
#
#
# Mechanical properties :
#
#
# Convention : Reuss Voigt Hill
#
# Bulk Modulus (GPa) = 53.54268 65.67901 59.61084
# Shear Modulus (GPa) = 39.07556 44.65212 41.86384
#
# Velocity S-wave (km/s) = 3.85596 4.12193 3.99116
# Velocity P-wave (km/s) = 6.34017 6.90252 6.62731
#
# Compressibility (1/GPa) = 0.01867669
#
# Stress axis : x y z
#
# Youngs Moduli (GPa) = 107.80485 88.33900 84.78781
#
# Poissons Ratio (x) = 0.30678 0.04948
# Poissons Ratio (y) = 0.37438 0.23744
# Poissons Ratio (z) = 0.06291 0.24739
#
# Static dielectric constant tensor:
#      x y z
#    x 2.089570 0.020470 0.087410 
#    y 0.020470 2.037680 0.062710 
#    z 0.087410 0.062710 2.109200 
# 
# From -- ./inp_files/139625.got.cif
#   From: 2010.05.17/outbox.cif.g08.bks.cpg/sg2_70_cif.got.tgz:139625.got - 2010.06.03 11:33:40.
