data_PCOD9058336
_publ_section_title
;
Structure prediction by ZEFSAII (Michael W. Deem and Ramdas Pophale) SiO2 
 PCOD9058336
Probable space group: P -1
;
_chemical_formula_sum "Si O2"
_cell_formula_units_Z 16
_cell_length_a 9.268022
_cell_length_b 19.196366
_cell_length_c 14.557250
_cell_angle_alpha 139.177552
_cell_angle_beta 140.489344
_cell_angle_gamma 29.569345
_cell_volume 782.240990
_symmetry_space_group_name_H-M "P -1"
_symmetry_group_IT_number 2
_symmetry_cell_setting 'triclinic'
loop_
_space_group_symop_operation_xyz
x,y,z
-x,-y,-z
loop_
_atom_site_type_symbol
_atom_site_label
_atom_site_fract_x
_atom_site_fract_y
_atom_site_fract_z
Si Si1 0.065317 0.856928 0.412449
Si Si2 0.153038 0.397810 0.705163
Si Si3 0.328436 0.134021 0.616631
Si Si4 0.723884 0.552379 0.982890
Si Si5 0.762836 0.313721 0.839950
Si Si6 0.786793 0.846905 0.933911
Si Si7 0.773011 0.627507 0.595169
Si Si8 0.812278 0.123547 0.955382
O O1 0.005132 0.818375 0.248154
O O2 0.426093 0.724109 0.483292
O O3 0.868730 0.868163 0.408479
O O4 0.000000 0.000000 0.500000
O O5 0.141991 0.276766 0.602784
O O6 0.473626 0.332395 0.746459
O O7 0.871687 0.529889 0.636760
O O8 0.177532 0.441127 0.860875
O O9 0.586093 0.119098 0.783033
O O10 0.500000 0.000000 0.500000
O O11 0.652655 0.452047 0.866618
O O12 0.418295 0.710957 0.955245
O O13 0.000000 0.500000 0.000000
O O14 0.962807 0.276526 0.990980
O O15 0.762006 0.755773 0.756886
O O16 0.951110 0.891707 0.008723
O O17 0.500000 0.000000 0.000000
O O18 0.000000 0.500000 0.500000
O O19 0.000000 0.000000 0.000000
#
# Coordination Sequence:
#
# PCOD9058336 Si02
#       8
#     2   2   2   2   2   2   2   2
#     4  12  28  46  73 106 149 199 242 299 380 453
#     4  11  22  45  70 101 141 190 242 302 366 435
#     4  11  26  48  70 101 149 197 241 300 380 443
#     4  11  23  42  70 102 142 186 242 301 367 429
#     4  12  21  45  74  99 144 192 245 299 366 439
#     4  12  27  45  78 110 147 196 252 308 366 445
#     4  12  27  46  77 115 148 191 252 309 372 444
#     4  11  27  45  69 107 143 185 245 306 367 432
#
# _framework density 20.454055
#
# number of rings (size 3 to 8) (size 9 to 14) (size 15 to 20)
#    0.000    0.500    5.000    4.125    7.000    0.500 
#    0.000    0.000    0.000    0.000    0.000    0.000 
#    0.000    0.000    0.000    0.000    0.000    0.000 
#
# Total GULP energy -89257.138380 kJ/mol
# GULP energy per Si atom -5578.571149 kJ/mol
# Density = 2.040750 g / cm^3
# Si number density = 20.454055 Si / 1000 Ang^3
#
#
#
# Elastic Constant Matrix: (Units=GPa)
#
#
# Indices 1 2 3 4 5 6 
#
# 1 197.1820 74.8655 39.4914 16.7706 13.5382 -6.0422
# 2 74.8655 129.2405 30.8026 9.3974 7.9112 21.7649
# 3 39.4914 30.8026 85.3771 15.6087 -0.2811 2.6200
# 4 16.7706 9.3974 15.6087 41.3653 4.0641 -0.4329
# 5 13.5382 7.9112 -0.2811 4.0641 31.3463 4.1974
# 6 -6.0422 21.7649 2.6200 -0.4329 4.1974 46.3292
#
#
#
# Elastic Compliance Matrix: (Units=1/GPa)
#
#
# Indices 1 2 3 4 5 6 
#
# 1 0.007371 -0.004150 -0.001821 -0.001085 -0.002443 0.003225
# 2 -0.004150 0.011661 -0.002069 -0.000212 -0.000355 -0.005872
# 3 -0.001821 -0.002069 0.014106 -0.004317 0.002033 -0.000288
# 4 -0.001085 -0.000212 -0.004317 0.026600 -0.003063 0.000728
# 5 -0.002443 -0.000355 0.002033 -0.003063 0.033913 -0.003368
# 6 0.003225 -0.005872 -0.000288 0.000728 -0.003368 0.025092
#
#
# Mechanical properties :
#
#
# Convention : Reuss Voigt Hill
#
# Bulk Modulus (GPa) = 58.62725 78.01317 68.32021
# Shear Modulus (GPa) = 35.58439 41.58416 38.58428
#
# Velocity S-wave (km/s) = 4.17552 4.51383 4.34797
# Velocity P-wave (km/s) = 7.20915 8.08639 7.66034
#
# Compressibility (1/GPa) = 0.01705692
#
# Stress axis : x y z
#
# Youngs Moduli (GPa) = 135.67054 85.75505 70.88992
#
# Poissons Ratio (x) = 0.35593 0.12907
# Poissons Ratio (y) = 0.56310 0.14671
# Poissons Ratio (z) = 0.24702 0.17747
#
# Static dielectric constant tensor:
#      x y z
#    x 1.723400 -0.040080 -0.003520 
#    y -0.040080 1.756240 0.027220 
#    z -0.003520 0.027220 1.757450 
# 
# From -- ./inp_files/274774.got.cif
#   From: 2010.05.17/outbox.cif.g08.bks.cpg/sg2_138_cif.got.tgz:274774.got - 2010.06.03 11:33:40.
