data_PCOD9058934
_publ_section_title
;
Structure prediction by ZEFSAII (Michael W. Deem and Ramdas Pophale) SiO2 
 PCOD9058934
Probable space group: P -1
;
_chemical_formula_sum "Si O2"
_cell_formula_units_Z 12
_cell_length_a 10.718431
_cell_length_b 25.356071
_cell_length_c 24.935562
_cell_angle_alpha 168.792186
_cell_angle_beta 156.579055
_cell_angle_gamma 25.304280
_cell_volume 522.890184
_symmetry_space_group_name_H-M "P -1"
_symmetry_group_IT_number 2
_symmetry_cell_setting 'triclinic'
loop_
_space_group_symop_operation_xyz
x,y,z
-x,-y,-z
loop_
_atom_site_type_symbol
_atom_site_label
_atom_site_fract_x
_atom_site_fract_y
_atom_site_fract_z
Si Si1 0.497932 0.400796 0.218732
Si Si2 0.266343 0.695126 0.570701
Si Si3 0.265026 0.701915 0.077182
Si Si4 0.126406 0.412528 0.549423
Si Si5 0.813401 0.091458 0.353623
Si Si6 0.825621 0.082306 0.851660
O O1 0.649601 0.489947 0.312207
O O2 0.215659 0.616999 0.339068
O O3 0.785311 0.385293 0.359913
O O4 0.352647 0.110259 0.873593
O O5 0.500000 0.500000 0.500000
O O6 0.390841 0.849922 0.722516
O O7 0.007549 0.494973 0.245986
O O8 0.115183 0.923008 0.777273
O O9 0.500000 0.500000 0.000000
O O10 0.384193 0.833324 0.199498
O O11 0.120171 0.937510 0.294767
O O12 0.261423 0.137619 0.357338
O O13 0.108181 0.644496 0.818648
#
# Coordination Sequence:
#
# PCOD9058934 Si02
#       6
#     2   2   2   2   2   2
#     4  11  23  39  63  97 136 174 217 269 329 391
#     4  11  24  40  66 103 132 169 211 281 336 394
#     4  11  26  44  67  98 132 179 221 269 330 394
#     4  11  23  39  63  97 136 174 217 269 329 391
#     4  11  23  40  64  93 133 170 215 270 327 389
#     4  11  23  40  64  93 133 170 215 270 327 389
#
# _framework density 22.949369000000001
#
# number of rings (size 3 to 8) (size 9 to 14) (size 15 to 20)
#    0.000    1.000    3.333    3.000    4.667    6.667 
#    0.000    2.500    0.000    6.000    0.000    0.000 
#    0.000    0.000    0.000    0.000    0.000    0.000 
#
# Total GULP energy -67093.629239 kJ/mol
# GULP energy per Si atom -5591.135770 kJ/mol
# Density = 2.289713 g / cm^3
# Si number density = 22.949369 Si / 1000 Ang^3
#
#
#
# Elastic Constant Matrix: (Units=GPa)
#
#
# Indices 1 2 3 4 5 6 
#
# 1 101.4805 31.6206 8.5445 11.0166 17.1814 23.1277
# 2 31.6206 147.3086 26.6382 28.0120 -0.1274 31.1481
# 3 8.5445 26.6382 93.0367 20.6203 4.7504 17.5179
# 4 11.0166 28.0120 20.6203 37.9090 8.9699 4.9853
# 5 17.1814 -0.1274 4.7504 8.9699 49.9174 17.5268
# 6 23.1277 31.1481 17.5179 4.9853 17.5268 35.6072
#
#
#
# Elastic Compliance Matrix: (Units=1/GPa)
#
#
# Indices 1 2 3 4 5 6 
#
# 1 0.012026 -0.001050 0.000895 -0.001988 -0.001684 -0.006225
# 2 -0.001050 0.010587 0.000441 -0.007664 0.005362 -0.010363
# 3 0.000895 0.000441 0.013550 -0.007520 0.002497 -0.007810
# 4 -0.001988 -0.007664 -0.007520 0.037444 -0.009205 0.010984
# 5 -0.001684 0.005362 0.002497 -0.009205 0.028150 -0.017393
# 6 -0.006225 -0.010363 -0.007810 0.010984 -0.017393 0.052058
#
#
# Mechanical properties :
#
#
# Convention : Reuss Voigt Hill
#
# Bulk Modulus (GPa) = 27.22213 52.82580 40.02396
# Shear Modulus (GPa) = 30.21379 43.02157 36.61768
#
# Velocity S-wave (km/s) = 3.63235 4.33440 3.99881
# Velocity P-wave (km/s) = 5.42951 6.93669 6.22886
#
# Compressibility (1/GPa) = 0.03673482
#
# Stress axis : x y z
#
# Youngs Moduli (GPa) = 83.15494 94.45231 73.80265
#
# Poissons Ratio (x) = 0.09920 -0.06606
# Poissons Ratio (y) = 0.08733 -0.03256
# Poissons Ratio (z) = -0.07444 -0.04167
#
# Static dielectric constant tensor:
#      x y z
#    x 1.898450 -0.010340 0.052460 
#    y -0.010340 1.889770 -0.031820 
#    z 0.052460 -0.031820 1.881180 
# 
# From -- ./inp_files/618831.got.cif
#   From: 2010.05.17/outbox.cif.g08.bks.cpg/sg2_310_cif.got.tgz:618831.got - 2010.06.03 11:33:40.
