data_PCOD9058268
_publ_section_title
;
Structure prediction by ZEFSAII (Michael W. Deem and Ramdas Pophale) SiO2 
 PCOD9058268
Probable space group: P -1
;
_chemical_formula_sum "Si O2"
_cell_formula_units_Z 16
_cell_length_a 16.161374
_cell_length_b 11.828185
_cell_length_c 5.316784
_cell_angle_alpha 109.070562
_cell_angle_beta 120.645593
_cell_angle_gamma 74.421034
_cell_volume 819.886409
_symmetry_space_group_name_H-M "P -1"
_symmetry_group_IT_number 2
_symmetry_cell_setting 'triclinic'
loop_
_space_group_symop_operation_xyz
x,y,z
-x,-y,-z
loop_
_atom_site_type_symbol
_atom_site_label
_atom_site_fract_x
_atom_site_fract_y
_atom_site_fract_z
Si Si1 0.405584 0.360996 0.337344
Si Si2 0.216001 0.781624 0.221154
Si Si3 0.883165 0.296163 0.495302
Si Si4 0.737564 0.742907 0.230666
Si Si5 0.746257 0.518533 0.429372
Si Si6 0.607736 0.393091 0.808837
Si Si7 0.831886 0.945361 0.756610
Si Si8 0.906658 0.838500 0.301880
O O1 0.312622 0.403169 0.393976
O O2 0.504848 0.342987 0.635221
O O3 0.413768 0.474489 0.250847
O O4 0.370988 0.253847 0.041636
O O5 0.168229 0.770920 0.411365
O O6 0.319291 0.698615 0.308488
O O7 0.219624 0.920567 0.262456
O O8 0.152435 0.732906 0.861882
O O9 0.845786 0.436937 0.589146
O O10 0.996328 0.251171 0.651004
O O11 0.762028 0.611854 0.300371
O O12 0.756208 0.847638 0.531028
O O13 0.815624 0.764935 0.154638
O O14 0.671280 0.422854 0.168208
O O15 0.906921 0.913456 0.617542
O O16 0.883917 0.923390 0.087963
#
# Coordination Sequence:
#
# PCOD9058268 Si02
#       8
#     2   2   2   2   2   2   2   2
#     4  10  17  37  60  83 120 149 192 236 296 351
#     4  11  22  40  59  90 121 148 191 251 287 343
#     4  11  23  37  62  90 118 148 197 243 299 334
#     4   9  22  37  57  84 116 163 194 234 282 348
#     4  10  19  36  59  86 123 149 187 248 291 347
#     4   9  20  33  59  92 112 150 188 241 301 345
#     4  10  22  40  60  80 123 157 198 233 287 338
#     4  10  22  40  58  89 112 161 200 231 288 346
#
# _framework density 19.514897999999999
#
# number of rings (size 3 to 8) (size 9 to 14) (size 15 to 20)
#    0.750    1.250    1.250    2.625    0.000    3.500 
#    0.000    1.875    0.000    1.500    0.000    0.000 
#    0.000    0.000    0.000    0.000    0.000    0.000 
#
# Total GULP energy -89106.665117 kJ/mol
# GULP energy per Si atom -5569.166570 kJ/mol
# Density = 1.947048 g / cm^3
# Si number density = 19.514898 Si / 1000 Ang^3
#
#
#
# Elastic Constant Matrix: (Units=GPa)
#
#
# Indices 1 2 3 4 5 6 
#
# 1 -201.0627 -31.0993 -7.1179 99.4436 26.1696 -5.4132
# 2 -31.0993 -6.1396 -4.1639 11.7145 8.9107 26.6381
# 3 -7.1179 -4.1639 28.9989 -2.2178 -11.4003 7.9411
# 4 99.4436 11.7145 -2.2178 -23.6283 -6.6820 -3.3055
# 5 26.1696 8.9107 -11.4003 -6.6820 21.3462 -2.1876
# 6 -5.4132 26.6381 7.9411 -3.3055 -2.1876 12.2661
#
#
#
# Elastic Compliance Matrix: (Units=1/GPa)
#
#
# Indices 1 2 3 4 5 6 
#
# 1 0.004430 0.003372 0.004366 0.019859 0.001445 -0.002585
# 2 0.003372 -0.011970 -0.010047 0.004163 0.000406 0.035181
# 3 0.004366 -0.010047 0.043116 0.002804 0.022813 0.000657
# 4 0.019859 0.004163 0.002804 0.044670 -0.009762 0.008204
# 5 0.001445 0.000406 0.022813 -0.009762 0.053198 -0.008156
# 6 -0.002585 0.035181 0.000657 0.008204 -0.008156 0.004314
#
#
# Mechanical properties :
#
#
# Convention : Reuss Voigt Hill
#
# Bulk Modulus (GPa) = 32.30148 -29.21839 1.54154
# Shear Modulus (GPa) = 32.74483 -7.05801 12.84341
#
# Velocity S-wave (km/s) = 4.10071 -1.90383 2.56819
# Velocity P-wave (km/s) = 6.24574 4.45395 3.09610
#
# Compressibility (1/GPa) = 0.03095834
#
# Stress axis : x y z
#
# Youngs Moduli (GPa) = 225.74261 -83.54556 23.19313
#
# Poissons Ratio (x) = 0.28171 -0.10126
# Poissons Ratio (y) = -0.76118 0.23302
# Poissons Ratio (z) = -0.98563 -0.83939
#
# Static dielectric constant tensor:
#      x y z
#    x 1.693750 0.004330 -0.016470 
#    y 0.004330 1.669280 0.015230 
#    z -0.016470 0.015230 1.754670 
# 
# From -- ./inp_files/92366.got.cif
#   From: 2010.05.17/outbox.cif.g08.bks.cpg/sg2_47_cif.got.tgz:92366.got - 2010.06.03 11:33:40.
