data_PCOD9058871
_publ_section_title
;
Structure prediction by ZEFSAII (Michael W. Deem and Ramdas Pophale) SiO2 
 PCOD9058871
Probable space group: P -1
;
_chemical_formula_sum "Si O2"
_cell_formula_units_Z 14
_cell_length_a 16.626559
_cell_length_b 22.434056
_cell_length_c 5.364061
_cell_angle_alpha 102.382469
_cell_angle_beta 71.690206
_cell_angle_gamma 159.502622
_cell_volume 645.677108
_symmetry_space_group_name_H-M "P -1"
_symmetry_group_IT_number 2
_symmetry_cell_setting 'triclinic'
loop_
_space_group_symop_operation_xyz
x,y,z
-x,-y,-z
loop_
_atom_site_type_symbol
_atom_site_label
_atom_site_fract_x
_atom_site_fract_y
_atom_site_fract_z
Si Si1 0.374942 0.246104 0.278414
Si Si2 0.295292 0.064794 0.902103
Si Si3 0.072499 0.381763 0.020095
Si Si4 0.761070 0.158478 0.621563
Si Si5 0.500260 0.100836 0.027070
Si Si6 0.814969 0.405714 0.776021
Si Si7 0.937371 0.010099 0.264154
O O1 0.168088 0.157913 0.354595
O O2 0.304146 0.133564 0.115004
O O3 0.644790 0.448248 0.121441
O O4 0.323657 0.189367 0.557648
O O5 0.571502 0.249165 0.704135
O O6 0.285727 0.997004 0.015599
O O7 0.099971 0.948457 0.778235
O O8 0.097479 0.471419 0.097728
O O9 0.916442 0.258760 0.308036
O O10 0.935593 0.275426 0.800305
O O11 0.579442 0.980251 0.704353
O O12 0.599813 0.111526 0.770557
O O13 0.719322 0.297096 0.990422
O O14 0.000000 0.500000 0.500000
O O15 0.000000 0.000000 0.000000
#
# Coordination Sequence:
#
# PCOD9058871 Si02
#       7
#     2   2   2   2   2   2   2
#     4   9  19  32  55  93 109 152 190 258 295 355
#     4   8  17  34  53  83 114 153 190 245 285 352
#     4  11  23  38  63  85 123 152 206 247 300 337
#     4  11  24  42  56  88 124 171 194 241 291 363
#     4   9  21  39  58  84 124 162 205 231 297 354
#     4   9  17  37  56  91 114 154 199 251 286 342
#     4   9  17  32  56  84 120 141 192 248 311 348
#
# _framework density 21.682663000000002
#
# number of rings (size 3 to 8) (size 9 to 14) (size 15 to 20)
#    0.857    1.714    1.429    0.000    6.000    2.857 
#    7.714    0.000    0.000    1.714    0.000    0.000 
#    0.000    0.000    0.000    0.000    0.000    0.000 
#
# Total GULP energy -77936.657827 kJ/mol
# GULP energy per Si atom -5566.904130 kJ/mol
# Density = 2.163331 g / cm^3
# Si number density = 21.682663 Si / 1000 Ang^3
#
#
#
# Elastic Constant Matrix: (Units=GPa)
#
#
# Indices 1 2 3 4 5 6 
#
# 1 134.0065 24.7265 38.0558 -17.3443 14.3426 18.7230
# 2 24.7265 63.4013 42.1812 -14.9477 11.3109 -3.0366
# 3 38.0558 42.1812 133.2556 -34.5131 15.1150 2.4843
# 4 -17.3443 -14.9477 -34.5131 32.8124 -1.0408 2.8983
# 5 14.3426 11.3109 15.1150 -1.0408 32.7173 -9.2461
# 6 18.7230 -3.0366 2.4843 2.8983 -9.2461 34.8332
#
#
#
# Elastic Compliance Matrix: (Units=1/GPa)
#
#
# Indices 1 2 3 4 5 6 
#
# 1 0.010163 -0.002047 -0.000283 0.004626 -0.005586 -0.007489
# 2 -0.002047 0.021359 -0.005033 0.003055 -0.003457 0.002149
# 3 -0.000283 -0.005033 0.012590 0.010947 -0.004536 -0.003299
# 4 0.004626 0.003055 0.010947 0.046357 -0.009303 -0.009328
# 5 -0.005586 -0.003457 -0.004536 -0.009303 0.040089 0.014440
# 6 -0.007489 0.002149 -0.003299 -0.009328 0.014440 0.037765
#
#
# Mechanical properties :
#
#
# Convention : Reuss Voigt Hill
#
# Bulk Modulus (GPa) = 34.02978 60.06561 47.04769
# Shear Modulus (GPa) = 25.92738 35.11925 30.52332
#
# Velocity S-wave (km/s) = 3.46174 4.02891 3.75604
# Velocity P-wave (km/s) = 5.63087 7.02887 6.36835
#
# Compressibility (1/GPa) = 0.02938603
#
# Stress axis : x y z
#
# Youngs Moduli (GPa) = 98.39256 46.81783 79.42821
#
# Poissons Ratio (x) = 0.09582 0.02249
# Poissons Ratio (y) = 0.20138 0.39980
# Poissons Ratio (z) = 0.02786 0.23566
#
# Static dielectric constant tensor:
#      x y z
#    x 1.850990 0.049710 0.046470 
#    y 0.049710 1.889770 0.045830 
#    z 0.046470 0.045830 1.858390 
# 
# From -- ./inp_files/112881.got.cif
#   From: 2010.05.17/outbox.cif.g08.bks.cpg/sg2_57_cif.got.tgz:112881.got - 2010.06.03 11:33:40.
