data_PCOD9058473
_publ_section_title
;
Structure prediction by ZEFSAII (Michael W. Deem and Ramdas Pophale) SiO2 
 PCOD9058473
Probable space group: P -1
;
_chemical_formula_sum "Si O2"
_cell_formula_units_Z 16
_cell_length_a 8.834328
_cell_length_b 12.182639
_cell_length_c 18.244799
_cell_angle_alpha 39.850894
_cell_angle_beta 36.444197
_cell_angle_gamma 35.797764
_cell_volume 643.669588
_symmetry_space_group_name_H-M "P -1"
_symmetry_group_IT_number 2
_symmetry_cell_setting 'triclinic'
loop_
_space_group_symop_operation_xyz
x,y,z
-x,-y,-z
loop_
_atom_site_type_symbol
_atom_site_label
_atom_site_fract_x
_atom_site_fract_y
_atom_site_fract_z
Si Si1 0.778060 0.299665 0.678845
Si Si2 0.902906 0.908248 0.018947
Si Si3 0.572986 0.148333 0.706689
Si Si4 0.552538 0.333967 0.467372
Si Si5 0.118576 0.321248 0.195227
Si Si6 0.513343 0.649941 0.837376
Si Si7 0.451061 0.340373 0.926862
Si Si8 0.557375 0.973855 0.405772
O O1 0.750629 0.160017 0.700670
O O2 0.737805 0.484558 0.550585
O O3 0.509798 0.378641 0.801277
O O4 0.088368 0.175246 0.664101
O O5 0.752184 0.792729 0.170152
O O6 0.170816 0.774229 0.930631
O O7 0.652981 0.101934 0.975611
O O8 0.000000 0.000000 0.000000
O O9 0.554301 0.288366 0.575703
O O10 0.712632 0.920127 0.744645
O O11 0.603213 0.133027 0.512702
O O12 0.806534 0.380406 0.321962
O O13 0.299344 0.387199 0.143260
O O14 0.159080 0.380342 0.066122
O O15 0.573779 0.459518 0.865245
O O16 0.555453 0.809750 0.693662
O O17 0.500000 0.000000 0.500000
#
# Coordination Sequence:
#
# PCOD9058473 Si02
#       8
#     2   2   2   2   2   2   2   2
#     4  12  28  48  71 113 148 198 247 312 370 440
#     4  11  22  45  75 111 146 194 249 306 370 438
#     4  11  25  46  74 103 154 195 248 305 368 444
#     4  12  26  48  71 109 151 195 250 302 368 454
#     4  11  25  45  77 111 146 194 250 306 368 448
#     4  12  24  47  79 108 150 197 249 311 365 451
#     4  11  26  46  74 113 149 193 250 302 376 437
#     4  12  26  49  75 106 151 198 245 309 381 438
#
# _framework density 24.857475000000001
#
# number of rings (size 3 to 8) (size 9 to 14) (size 15 to 20)
#    0.000    0.500    5.000    3.000    3.500    2.500 
#    2.250    0.000    0.000    0.000    0.000    0.000 
#    0.000    0.000    0.000    0.000    0.000    0.000 
#
# Total GULP energy -89610.554664 kJ/mol
# GULP energy per Si atom -5600.659666 kJ/mol
# Density = 2.480090 g / cm^3
# Si number density = 24.857475 Si / 1000 Ang^3
#
#
#
# Elastic Constant Matrix: (Units=GPa)
#
#
# Indices 1 2 3 4 5 6 
#
# 1 61.5885 15.0477 42.1139 6.0375 10.4155 19.8016
# 2 15.0477 87.9126 25.3839 -10.0314 -3.8026 17.7819
# 3 42.1139 25.3839 131.4643 -6.7118 9.7565 13.8540
# 4 6.0375 -10.0314 -6.7118 47.7962 -1.5193 -1.9675
# 5 10.4155 -3.8026 9.7565 -1.5193 47.5523 0.4268
# 6 19.8016 17.7819 13.8540 -1.9675 0.4268 33.3808
#
#
#
# Elastic Compliance Matrix: (Units=1/GPa)
#
#
# Indices 1 2 3 4 5 6 
#
# 1 0.026510 -0.000748 -0.006940 -0.005146 -0.004493 -0.012693
# 2 -0.000748 0.013571 -0.001757 0.002507 0.001743 -0.005931
# 3 -0.006940 -0.001757 0.010220 0.001960 -0.000663 0.000935
# 4 -0.005146 0.002507 0.001960 0.022516 0.001625 0.002209
# 5 -0.004493 0.001743 -0.000663 0.001625 0.022325 0.001822
# 6 -0.012693 -0.005931 0.000935 0.002209 0.001822 0.040365
#
#
# Mechanical properties :
#
#
# Convention : Reuss Voigt Hill
#
# Bulk Modulus (GPa) = 31.83511 49.56179 40.69845
# Shear Modulus (GPa) = 30.32743 38.97386 34.65064
#
# Velocity S-wave (km/s) = 3.49671 3.96396 3.73764
# Velocity P-wave (km/s) = 5.39792 6.39783 5.91903
#
# Compressibility (1/GPa) = 0.03141186
#
# Stress axis : x y z
#
# Youngs Moduli (GPa) = 37.72157 73.68389 97.85022
#
# Poissons Ratio (x) = 0.05511 0.67904
# Poissons Ratio (y) = 0.02821 0.17194
# Poissons Ratio (z) = 0.26177 0.12947
#
# Static dielectric constant tensor:
#      x y z
#    x 1.981650 -0.079630 0.005610 
#    y -0.079630 2.023690 0.021540 
#    z 0.005610 0.021540 1.978580 
# 
# From -- ./inp_files/559630.got.cif
#   From: 2010.05.17/outbox.cif.g08.bks.cpg/sg2_280_cif.got.tgz:559630.got - 2010.06.03 11:33:40.
