data_PCOD9058954
_publ_section_title
;
Structure prediction by ZEFSAII (Michael W. Deem and Ramdas Pophale) SiO2 
 PCOD9058954
Probable space group: P -1
;
_chemical_formula_sum "Si O2"
_cell_formula_units_Z 16
_cell_length_a 17.016411
_cell_length_b 11.080439
_cell_length_c 9.530149
_cell_angle_alpha 41.028414
_cell_angle_beta 54.463823
_cell_angle_gamma 34.955428
_cell_volume 672.516742
_symmetry_space_group_name_H-M "P -1"
_symmetry_group_IT_number 2
_symmetry_cell_setting 'triclinic'
loop_
_space_group_symop_operation_xyz
x,y,z
-x,-y,-z
loop_
_atom_site_type_symbol
_atom_site_label
_atom_site_fract_x
_atom_site_fract_y
_atom_site_fract_z
Si Si1 0.056266 0.033070 0.122954
Si Si2 0.946015 0.372538 0.212935
Si Si3 0.352989 0.705207 0.404998
Si Si4 0.860521 0.772773 0.349874
Si Si5 0.590734 0.089849 0.222032
Si Si6 0.869772 0.994791 0.401157
Si Si7 0.628478 0.900156 0.049403
Si Si8 0.353497 0.555955 0.235097
O O1 0.023292 0.133747 0.230266
O O2 0.194483 0.729906 0.220999
O O3 0.084554 0.173598 0.879902
O O4 0.927284 0.085215 0.171506
O O5 0.005136 0.252785 0.413306
O O6 0.779237 0.595328 0.171087
O O7 0.000000 0.500000 0.000000
O O8 0.500000 0.500000 0.500000
O O9 0.361336 0.564062 0.386169
O O10 0.242714 0.795212 0.554252
O O11 0.328243 0.952014 0.174169
O O12 0.804995 0.949957 0.391938
O O13 0.000000 0.500000 0.500000
O O14 0.733065 0.832412 0.370350
O O15 0.461198 0.276291 0.295619
O O16 0.618760 0.269830 0.998142
O O17 0.569754 0.009657 0.170869
O O18 0.500000 0.000000 0.000000
#
# Coordination Sequence:
#
# PCOD9058954 Si02
#       8
#     2   2   2   2   2   2   2   2
#     4  11  24  41  66 100 136 180 234 292 338 410
#     4  12  22  45  71  96 141 185 230 286 352 415
#     4  11  23  39  65  99 134 181 233 281 349 416
#     4  11  23  42  67 102 139 183 232 279 359 426
#     4   9  19  41  67  93 134 181 219 285 350 410
#     4  12  24  41  69 102 136 184 238 291 344 415
#     4  11  25  43  68 104 136 179 236 291 347 415
#     4   9  18  39  64  92 131 175 229 276 344 404
#
# _framework density 23.791228
#
# number of rings (size 3 to 8) (size 9 to 14) (size 15 to 20)
#    0.000    1.250    2.500    4.500    1.750    1.000 
#    2.250    0.000    0.000    3.000    0.000    0.000 
#    0.000    0.000    0.000    0.000    0.000    0.000 
#
# Total GULP energy -89442.547315 kJ/mol
# GULP energy per Si atom -5590.159207 kJ/mol
# Density = 2.373708 g / cm^3
# Si number density = 23.791228 Si / 1000 Ang^3
#
#
#
# Elastic Constant Matrix: (Units=GPa)
#
#
# Indices 1 2 3 4 5 6 
#
# 1 109.4527 57.0339 22.3963 7.4760 23.8875 -5.9392
# 2 57.0339 190.6230 35.7840 20.3124 16.1532 -15.6965
# 3 22.3963 35.7840 54.8088 16.8317 8.8480 -9.0233
# 4 7.4760 20.3124 16.8317 33.6574 0.0655 6.1617
# 5 23.8875 16.1532 8.8480 0.0655 41.9736 1.9946
# 6 -5.9392 -15.6965 -9.0233 6.1617 1.9946 38.8601
#
#
#
# Elastic Compliance Matrix: (Units=1/GPa)
#
#
# Indices 1 2 3 4 5 6 
#
# 1 0.012243 -0.002731 -0.002236 -0.000040 -0.005471 0.000536
# 2 -0.002731 0.007045 -0.001977 -0.003114 -0.000854 0.002507
# 3 -0.002236 -0.001977 0.026128 -0.012675 -0.003794 0.007131
# 4 -0.000040 -0.003114 -0.012675 0.039899 0.004342 -0.010756
# 5 -0.005471 -0.000854 -0.003794 0.004342 0.028259 -0.004201
# 6 0.000536 0.002507 0.007131 -0.010756 -0.004201 0.030405
#
#
# Mechanical properties :
#
#
# Convention : Reuss Voigt Hill
#
# Bulk Modulus (GPa) = 31.71703 65.03476 48.37590
# Shear Modulus (GPa) = 29.69551 38.87623 34.28587
#
# Velocity S-wave (km/s) = 3.53678 4.04673 3.80032
# Velocity P-wave (km/s) = 5.48076 7.01639 6.29557
#
# Compressibility (1/GPa) = 0.03152880
#
# Stress axis : x y z
#
# Youngs Moduli (GPa) = 81.68033 141.94867 38.27257
#
# Poissons Ratio (x) = 0.38771 0.08557
# Poissons Ratio (y) = 0.22310 0.07565
# Poissons Ratio (z) = 0.18261 0.28057
#
# Static dielectric constant tensor:
#      x y z
#    x 1.964820 0.080720 -0.075630 
#    y 0.080720 1.964580 -0.068180 
#    z -0.075630 -0.068180 1.962230 
# 
# From -- ./inp_files/298844.got.cif
#   From: 2010.05.17/outbox.cif.g08.bks.cpg/sg2_150_cif.got.tgz:298844.got - 2010.06.03 11:33:40.
