data_PCOD9058927
_publ_section_title
;
Structure prediction by ZEFSAII (Michael W. Deem and Ramdas Pophale) SiO2 
 PCOD9058927
Probable space group: P -1
;
_chemical_formula_sum "Si O2"
_cell_formula_units_Z 12
_cell_length_a 9.427318
_cell_length_b 12.098923
_cell_length_c 15.033756
_cell_angle_alpha 28.983060
_cell_angle_beta 133.712515
_cell_angle_gamma 144.537040
_cell_volume 480.656277
_symmetry_space_group_name_H-M "P -1"
_symmetry_group_IT_number 2
_symmetry_cell_setting 'triclinic'
loop_
_space_group_symop_operation_xyz
x,y,z
-x,-y,-z
loop_
_atom_site_type_symbol
_atom_site_label
_atom_site_fract_x
_atom_site_fract_y
_atom_site_fract_z
Si Si1 0.091289 0.855765 0.077026
Si Si2 0.340465 0.763684 0.000983
Si Si3 0.898797 0.563236 0.494854
Si Si4 0.685511 0.441193 0.047670
Si Si5 0.390413 0.120206 0.307452
Si Si6 0.477614 0.360623 0.683704
O O1 0.105188 0.624544 0.297518
O O2 0.897116 0.674725 0.041558
O O3 0.368171 0.081912 0.003320
O O4 0.000000 0.000000 0.000000
O O5 0.219182 0.616941 0.957772
O O6 0.329705 0.023655 0.835720
O O7 0.300609 0.580227 0.200592
O O8 0.652273 0.527401 0.397194
O O9 0.000000 0.500000 0.500000
O O10 0.104142 0.898372 0.360114
O O11 0.493694 0.163795 0.220609
O O12 0.547070 0.574242 0.861561
O O13 0.500000 0.000000 0.500000
O O14 0.500000 0.500000 0.500000
#
# Coordination Sequence:
#
# PCOD9058927 Si02
#       6
#     2   2   2   2   2   2
#     4  12  23  44  71 107 147 184 232 296 355 414
#     4  11  25  46  73  96 143 191 231 295 358 421
#     4  12  24  42  73 102 137 185 238 290 350 426
#     4  11  24  43  68 105 143 184 236 288 359 421
#     4  11  23  39  63 103 142 173 229 292 343 414
#     4  11  25  47  71 102 140 186 240 292 357 423
#
# _framework density 24.965866999999999
#
# number of rings (size 3 to 8) (size 9 to 14) (size 15 to 20)
#    0.000    0.667    3.333    6.000    2.333    0.000 
#    0.000    8.333    0.000    0.000    0.000    0.000 
#    0.000    0.000    0.000    0.000    0.000    0.000 
#
# Total GULP energy -67087.691877 kJ/mol
# GULP energy per Si atom -5590.640990 kJ/mol
# Density = 2.490904 g / cm^3
# Si number density = 24.965867 Si / 1000 Ang^3
#
#
#
# Elastic Constant Matrix: (Units=GPa)
#
#
# Indices 1 2 3 4 5 6 
#
# 1 113.7474 7.8834 38.8530 9.9230 20.4535 -24.9650
# 2 7.8834 93.6149 25.2227 10.9656 7.1544 -25.9613
# 3 38.8530 25.2227 234.4028 36.7772 -0.0734 -14.0007
# 4 9.9230 10.9656 36.7772 30.3417 1.0520 -5.8701
# 5 20.4535 7.1544 -0.0734 1.0520 50.2360 -0.7398
# 6 -24.9650 -25.9613 -14.0007 -5.8701 -0.7398 45.7385
#
#
#
# Elastic Compliance Matrix: (Units=1/GPa)
#
#
# Indices 1 2 3 4 5 6 
#
# 1 0.011634 0.001790 -0.001549 -0.001115 -0.004872 0.006670
# 2 0.001790 0.013487 -0.000829 -0.002826 -0.002474 0.007976
# 3 -0.001549 -0.000829 0.005532 -0.006002 0.000877 -0.000379
# 4 -0.001115 -0.002826 -0.006002 0.041876 -0.000010 0.001324
# 5 -0.004872 -0.002474 0.000877 -0.000010 0.022193 -0.003438
# 6 0.006670 0.007976 -0.000379 0.001324 -0.003438 0.030030
#
#
# Mechanical properties :
#
#
# Convention : Reuss Voigt Hill
#
# Bulk Modulus (GPa) = 33.92553 65.07593 49.50073
# Shear Modulus (GPa) = 36.83208 49.91698 43.37453
#
# Velocity S-wave (km/s) = 3.84513 4.47633 4.17268
# Velocity P-wave (km/s) = 5.77335 7.26906 6.56395
#
# Compressibility (1/GPa) = 0.02947632
#
# Stress axis : x y z
#
# Youngs Moduli (GPa) = 85.95641 74.14759 180.78219
#
# Poissons Ratio (x) = -0.13275 0.28008
# Poissons Ratio (y) = -0.15390 0.14986
# Poissons Ratio (z) = 0.13317 0.06147
#
# Static dielectric constant tensor:
#      x y z
#    x 2.112540 -0.008470 -0.069720 
#    y -0.008470 1.923450 0.081780 
#    z -0.069720 0.081780 1.970030 
# 
# From -- ./inp_files/499819.got.cif
#   From: 2010.05.17/outbox.cif.g08.bks.cpg/sg2_250_cif.got.tgz:499819.got - 2010.06.03 11:33:40.
