data_PCOD9058601
_publ_section_title
;
Structure prediction by ZEFSAII (Michael W. Deem and Ramdas Pophale) SiO2 
 PCOD9058601
Probable space group: P -1
;
_chemical_formula_sum "Si O2"
_cell_formula_units_Z 14
_cell_length_a 9.613367
_cell_length_b 11.049364
_cell_length_c 11.440854
_cell_angle_alpha 130.970500
_cell_angle_beta 121.367680
_cell_angle_gamma 39.594654
_cell_volume 584.528358
_symmetry_space_group_name_H-M "P -1"
_symmetry_group_IT_number 2
_symmetry_cell_setting 'triclinic'
loop_
_space_group_symop_operation_xyz
x,y,z
-x,-y,-z
loop_
_atom_site_type_symbol
_atom_site_label
_atom_site_fract_x
_atom_site_fract_y
_atom_site_fract_z
Si Si1 0.066450 0.403472 0.838893
Si Si2 0.394622 0.559870 0.865068
Si Si3 0.348597 0.804640 0.791862
Si Si4 0.571178 0.122905 0.557285
Si Si5 0.519746 0.924753 0.756920
Si Si6 0.950870 0.807017 0.928199
Si Si7 0.947000 0.179450 0.501716
O O1 0.929956 0.353021 0.680498
O O2 0.056391 0.571018 0.866360
O O3 0.306372 0.172712 0.807180
O O4 0.000000 0.500000 0.000000
O O5 0.464374 0.640178 0.846433
O O6 0.459876 0.342570 0.711787
O O7 0.136797 0.759352 0.898413
O O8 0.500000 0.500000 0.000000
O O9 0.494930 0.840122 0.811636
O O10 0.255355 0.738533 0.615532
O O11 0.137304 0.035982 0.899751
O O12 0.491108 0.184590 0.427366
O O13 0.500000 0.000000 0.500000
O O14 0.833926 0.952508 0.564124
O O15 0.730013 0.898408 0.825613
O O16 0.000000 0.000000 0.500000
#
# Coordination Sequence:
#
# PCOD9058601 Si02
#       7
#     2   2   2   2   2   2   2
#     4  11  23  44  77 107 151 197 242 303 380 450
#     4  12  30  49  74 110 149 207 251 313 388 440
#     4  12  26  48  74 110 153 193 254 319 369 449
#     4  11  26  48  75 103 156 194 251 303 377 461
#     4  11  26  48  75 116 146 199 254 312 372 455
#     4  12  27  47  76 107 151 200 253 307 376 455
#     4  11  22  46  73 112 149 190 248 310 378 438
#
# _framework density 23.950932999999999
#
# number of rings (size 3 to 8) (size 9 to 14) (size 15 to 20)
#    0.000    0.571    4.286    3.429    8.000    2.286 
#    0.000    0.000    0.000    0.000    0.000    0.000 
#    0.000    0.000    0.000    0.000    0.000    0.000 
#
# Total GULP energy -78459.160588 kJ/mol
# GULP energy per Si atom -5604.225756 kJ/mol
# Density = 2.389642 g / cm^3
# Si number density = 23.950933 Si / 1000 Ang^3
#
#
#
# Elastic Constant Matrix: (Units=GPa)
#
#
# Indices 1 2 3 4 5 6 
#
# 1 75.4316 12.5475 21.6430 3.4664 -1.6989 8.6908
# 2 12.5475 88.3141 51.3237 6.5882 1.7903 11.2633
# 3 21.6430 51.3237 179.3673 11.3361 -6.7842 -6.4458
# 4 3.4664 6.5882 11.3361 52.9609 -3.5747 3.1716
# 5 -1.6989 1.7903 -6.7842 -3.5747 29.4535 -0.8771
# 6 8.6908 11.2633 -6.4458 3.1716 -0.8771 58.5437
#
#
#
# Elastic Compliance Matrix: (Units=1/GPa)
#
#
# Indices 1 2 3 4 5 6 
#
# 1 0.014091 -0.000854 -0.001493 -0.000345 0.000417 -0.002067
# 2 -0.000854 0.014344 -0.004139 -0.000797 -0.002063 -0.003076
# 3 -0.001493 -0.004139 0.007131 -0.000908 0.001754 0.001879
# 4 -0.000345 -0.000797 -0.000908 0.019398 0.002147 -0.000914
# 5 0.000417 -0.002063 0.001754 0.002147 0.034794 0.000933
# 6 -0.002067 -0.003076 0.001879 -0.000914 0.000933 0.018250
#
#
# Mechanical properties :
#
#
# Convention : Reuss Voigt Hill
#
# Bulk Modulus (GPa) = 44.25985 57.12683 50.69334
# Shear Modulus (GPa) = 38.90754 45.36488 42.13621
#
# Velocity S-wave (km/s) = 4.03484 4.35682 4.19892
# Velocity P-wave (km/s) = 6.34241 7.01517 6.68725
#
# Compressibility (1/GPa) = 0.02259384
#
# Stress axis : x y z
#
# Youngs Moduli (GPa) = 70.96875 69.71646 140.23401
#
# Poissons Ratio (x) = 0.05951 0.20932
# Poissons Ratio (y) = 0.06058 0.58050
# Poissons Ratio (z) = 0.10593 0.28859
#
# Static dielectric constant tensor:
#      x y z
#    x 1.957390 -0.024840 0.008600 
#    y -0.024840 1.923810 -0.012360 
#    z 0.008600 -0.012360 1.947940 
# 
# From -- ./inp_files/393161.got.cif
#   From: 2010.05.17/outbox.cif.g08.bks.cpg/sg2_197_cif.got.tgz:393161.got - 2010.06.03 11:33:40.
