data_PCOD9058378
_publ_section_title
;
Structure prediction by ZEFSAII (Michael W. Deem and Ramdas Pophale) SiO2 
 PCOD9058378
Probable space group: P -1
;
_chemical_formula_sum "Si O2"
_cell_formula_units_Z 16
_cell_length_a 9.333435
_cell_length_b 7.704804
_cell_length_c 14.519678
_cell_angle_alpha 134.431795
_cell_angle_beta 117.527208
_cell_angle_gamma 76.625124
_cell_volume 654.147478
_symmetry_space_group_name_H-M "P -1"
_symmetry_group_IT_number 2
_symmetry_cell_setting 'triclinic'
loop_
_space_group_symop_operation_xyz
x,y,z
-x,-y,-z
loop_
_atom_site_type_symbol
_atom_site_label
_atom_site_fract_x
_atom_site_fract_y
_atom_site_fract_z
Si Si1 0.417349 0.370543 0.582579
Si Si2 0.263943 0.545555 0.179890
Si Si3 0.977725 0.531594 0.223722
Si Si4 0.857272 0.142118 0.901247
Si Si5 0.645410 0.722143 0.146347
Si Si6 0.808962 0.971107 0.107422
Si Si7 0.521846 0.855499 0.675344
Si Si8 0.894676 0.517948 0.384417
O O1 0.557748 0.364037 0.696712
O O2 0.437407 0.633370 0.631469
O O3 0.449095 0.201516 0.443570
O O4 0.244374 0.326679 0.566559
O O5 0.209405 0.645636 0.102077
O O6 0.131551 0.626512 0.241280
O O7 0.252342 0.248895 0.063252
O O8 0.809133 0.639242 0.202793
O O9 0.019153 0.586665 0.362692
O O10 0.927583 0.259648 0.062121
O O11 0.996966 0.043945 0.845965
O O12 0.704984 0.937887 0.797439
O O13 0.707148 0.865883 0.126195
O O14 0.575291 0.917420 0.261094
O O15 0.500000 0.500000 0.000000
O O16 0.800298 0.260308 0.218025
O O17 0.000000 0.500000 0.500000
#
# Coordination Sequence:
#
# PCOD9058378 Si02
#       8
#     2   2   2   2   2   2   2   2
#     4  11  28  46  67 101 144 190 230 284 350 416
#     4  11  24  43  72 106 143 175 233 287 352 413
#     4  11  25  43  73 102 136 181 226 289 351 407
#     4  11  22  45  71 105 140 178 231 291 346 413
#     4  12  22  44  74 107 138 179 235 289 346 410
#     4  11  23  43  71 100 144 178 228 295 340 410
#     4  11  25  45  71  96 147 185 236 283 349 407
#     4  12  29  48  68 100 143 185 240 285 344 419
#
# _framework density 24.459316000000001
#
# number of rings (size 3 to 8) (size 9 to 14) (size 15 to 20)
#    0.000    0.750    5.000    1.500   10.500    2.000 
#    2.250    1.250    0.000    0.000    0.000    0.000 
#    0.000    0.000    0.000    0.000    0.000    0.000 
#
# Total GULP energy -89429.702847 kJ/mol
# GULP energy per Si atom -5589.356428 kJ/mol
# Density = 2.440365 g / cm^3
# Si number density = 24.459316 Si / 1000 Ang^3
#
#
#
# Elastic Constant Matrix: (Units=GPa)
#
#
# Indices 1 2 3 4 5 6 
#
# 1 131.9664 17.8003 41.2149 -7.9156 -37.7287 -7.9836
# 2 17.8003 54.7660 34.8594 -8.6632 -18.2591 1.2011
# 3 41.2149 34.8594 77.3209 -12.0966 -38.6779 -11.5116
# 4 -7.9156 -8.6632 -12.0966 45.9334 -2.3165 -6.3070
# 5 -37.7287 -18.2591 -38.6779 -2.3165 47.2228 -5.4658
# 6 -7.9836 1.2011 -11.5116 -6.3070 -5.4658 37.4028
#
#
#
# Elastic Compliance Matrix: (Units=1/GPa)
#
#
# Indices 1 2 3 4 5 6 
#
# 1 0.010587 -0.000025 -0.000126 0.002787 0.008945 0.003999
# 2 -0.000025 0.026450 -0.012958 0.000862 -0.000923 -0.004832
# 3 -0.000126 -0.012958 0.037283 0.011218 0.028042 0.017853
# 4 0.002787 0.000862 0.011218 0.027569 0.014346 0.010765
# 5 0.008945 -0.000923 0.028042 0.014346 0.054055 0.020888
# 6 0.003999 -0.004832 0.017853 0.010765 0.020888 0.038107
#
#
# Mechanical properties :
#
#
# Convention : Reuss Voigt Hill
#
# Bulk Modulus (GPa) = 20.78938 50.20028 35.49483
# Shear Modulus (GPa) = 21.15924 37.45704 29.30814
#
# Velocity S-wave (km/s) = 2.94441 3.91756 3.46532
# Velocity P-wave (km/s) = 4.48079 6.40559 5.52761
#
# Compressibility (1/GPa) = 0.04810149
#
# Stress axis : x y z
#
# Youngs Moduli (GPa) = 94.45690 37.80721 26.82211
#
# Poissons Ratio (x) = 0.00096 0.00338
# Poissons Ratio (y) = 0.00241 0.34755
# Poissons Ratio (z) = 0.01189 0.48989
#
# Static dielectric constant tensor:
#      x y z
#    x 1.940060 0.026830 0.016110 
#    y 0.026830 2.034370 0.026880 
#    z 0.016110 0.026880 1.968030 
# 
# From -- ./inp_files/283514.got.cif
#   From: 2010.05.17/outbox.cif.g08.bks.cpg/sg2_142_cif.got.tgz:283514.got - 2010.06.03 11:33:40.
