data_PCOD9058719
_publ_section_title
;
Structure prediction by ZEFSAII (Michael W. Deem and Ramdas Pophale) SiO2 
 PCOD9058719
Probable space group: P -1
;
_chemical_formula_sum "Si O2"
_cell_formula_units_Z 14
_cell_length_a 7.225408
_cell_length_b 9.463098
_cell_length_c 13.823188
_cell_angle_alpha 43.617502
_cell_angle_beta 99.486837
_cell_angle_gamma 77.127508
_cell_volume 555.890405
_symmetry_space_group_name_H-M "P -1"
_symmetry_group_IT_number 2
_symmetry_cell_setting 'triclinic'
loop_
_space_group_symop_operation_xyz
x,y,z
-x,-y,-z
loop_
_atom_site_type_symbol
_atom_site_label
_atom_site_fract_x
_atom_site_fract_y
_atom_site_fract_z
Si Si1 0.378131 0.082742 0.550545
Si Si2 0.654621 0.230507 0.613241
Si Si3 0.365831 0.482885 0.692574
Si Si4 0.905040 0.180767 0.106126
Si Si5 0.280173 0.096116 0.870993
Si Si6 0.153527 0.596607 0.203103
Si Si7 0.159180 0.792404 0.691829
O O1 0.516374 0.112671 0.630425
O O2 0.192399 0.350920 0.374510
O O3 0.500000 0.000000 0.500000
O O4 0.325624 0.885732 0.676673
O O5 0.500000 0.500000 0.500000
O O6 0.741234 0.275721 0.497322
O O7 0.859266 0.048977 0.780827
O O8 0.288886 0.317867 0.715778
O O9 0.623978 0.395080 0.760576
O O10 0.273573 0.551617 0.758779
O O11 0.908023 0.238418 0.190979
O O12 0.739778 0.085558 0.111773
O O13 0.866090 0.380600 0.925906
O O14 0.068127 0.200431 0.869535
O O15 0.500000 0.000000 0.000000
O O16 0.000000 0.000000 0.500000
#
# Coordination Sequence:
#
# PCOD9058719 Si02
#       7
#     2   2   2   2   2   2   2
#     4  11  22  47  73  99 144 197 233 296 370 426
#     4  11  25  42  71 104 144 185 249 296 362 432
#     4  11  24  49  72 102 153 189 234 311 361 427
#     4  12  26  45  76 108 145 193 245 301 363 439
#     4  12  27  46  76 107 148 192 239 306 375 426
#     4  11  25  47  73 107 148 186 245 300 366 428
#     4  12  24  47  72 106 150 191 248 298 361 436
#
# _framework density 25.184820999999999
#
# number of rings (size 3 to 8) (size 9 to 14) (size 15 to 20)
#    0.000    0.571    5.714    3.000    4.000    1.143 
#    0.000    5.000    0.000    0.000    0.000    0.000 
#    0.000    0.000    0.000    0.000    0.000    0.000 
#
# Total GULP energy -78232.610095 kJ/mol
# GULP energy per Si atom -5588.043578 kJ/mol
# Density = 2.512750 g / cm^3
# Si number density = 25.184821 Si / 1000 Ang^3
#
#
#
# Elastic Constant Matrix: (Units=GPa)
#
#
# Indices 1 2 3 4 5 6 
#
# 1 68.1106 21.8018 14.0470 -0.6356 6.7778 9.9637
# 2 21.8018 106.5694 -1.5673 13.8981 8.7776 -5.4142
# 3 14.0470 -1.5673 78.5225 22.6167 16.5805 -2.2632
# 4 -0.6356 13.8981 22.6167 32.3723 -1.6261 -8.3899
# 5 6.7778 8.7776 16.5805 -1.6261 43.4265 0.5281
# 6 9.9637 -5.4142 -2.2632 -8.3899 0.5281 52.2903
#
#
#
# Elastic Compliance Matrix: (Units=1/GPa)
#
#
# Indices 1 2 3 4 5 6 
#
# 1 0.017591 -0.004466 -0.004731 0.004732 0.000180 -0.003262
# 2 -0.004466 0.011729 0.004083 -0.007891 -0.003540 0.001012
# 3 -0.004731 0.004083 0.020163 -0.016447 -0.008397 -0.000357
# 4 0.004732 -0.007891 -0.016447 0.047634 0.008857 0.005123
# 5 0.000180 -0.003540 -0.008397 0.008857 0.027248 0.000382
# 6 -0.003262 0.001012 -0.000357 0.005123 0.000382 0.020653
#
#
# Mechanical properties :
#
#
# Convention : Reuss Voigt Hill
#
# Bulk Modulus (GPa) = 25.47470 35.75172 30.61321
# Shear Modulus (GPa) = 29.70347 40.21254 34.95800
#
# Velocity S-wave (km/s) = 3.43799 4.00020 3.72971
# Velocity P-wave (km/s) = 5.08889 5.96339 5.54341
#
# Compressibility (1/GPa) = 0.03925464
#
# Stress axis : x y z
#
# Youngs Moduli (GPa) = 56.84883 85.25629 49.59632
#
# Poissons Ratio (x) = 0.38074 0.23463
# Poissons Ratio (y) = 0.25388 -0.20248
# Poissons Ratio (z) = 0.26894 -0.34807
#
# Static dielectric constant tensor:
#      x y z
#    x 2.094200 -0.007060 -0.026910 
#    y -0.007060 2.097770 -0.029470 
#    z -0.026910 -0.029470 2.126880 
# 
# From -- ./inp_files/494422.got.cif
#   From: 2010.05.17/outbox.cif.g08.bks.cpg/sg2_248_cif.got.tgz:494422.got - 2010.06.03 11:33:40.
