data_PCOD9058809
_publ_section_title
;
Structure prediction by ZEFSAII (Michael W. Deem and Ramdas Pophale) SiO2 
 PCOD9058809
Probable space group: P -1
;
_chemical_formula_sum "Si O2"
_cell_formula_units_Z 16
_cell_length_a 9.208416
_cell_length_b 19.680909
_cell_length_c 17.437432
_cell_angle_alpha 158.329843
_cell_angle_beta 144.440970
_cell_angle_gamma 32.070606
_cell_volume 614.125344
_symmetry_space_group_name_H-M "P -1"
_symmetry_group_IT_number 2
_symmetry_cell_setting 'triclinic'
loop_
_space_group_symop_operation_xyz
x,y,z
-x,-y,-z
loop_
_atom_site_type_symbol
_atom_site_label
_atom_site_fract_x
_atom_site_fract_y
_atom_site_fract_z
Si Si1 0.071773 0.406264 0.660880
Si Si2 0.602910 0.174853 0.729771
Si Si3 0.639757 0.922061 0.863002
Si Si4 0.938190 0.767985 0.091459
Si Si5 0.348428 0.742983 0.668824
Si Si6 0.794843 0.352362 0.753532
Si Si7 0.598399 0.789779 0.159097
Si Si8 0.290523 0.231769 0.418253
O O1 0.383176 0.341748 0.754815
O O2 0.088237 0.391251 0.560209
O O3 0.945528 0.253567 0.475223
O O4 0.914448 0.612009 0.856129
O O5 0.552349 0.249105 0.872868
O O6 0.897427 0.129531 0.776558
O O7 0.500000 0.000000 0.500000
O O8 0.529529 0.796981 0.741100
O O9 0.835536 0.787533 0.738288
O O10 0.367814 0.070352 0.854779
O O11 0.716953 0.079757 0.109429
O O12 0.103135 0.678139 0.145808
O O13 0.500000 0.500000 0.500000
O O14 0.553404 0.281336 0.567319
O O15 0.090068 0.231515 0.711208
O O16 0.668647 0.590740 0.928133
O O17 0.407805 0.014114 0.283830
#
# Coordination Sequence:
#
# PCOD9058809 Si02
#       8
#     2   2   2   2   2   2   2   2
#     4  12  24  41  70  98 138 178 221 280 327 392
#     4  12  22  35  61 102 137 177 217 263 328 399
#     4  11  27  46  74  97 128 177 227 283 330 399
#     4  12  22  42  67 100 141 177 221 268 330 411
#     4  11  26  52  74  96 122 176 238 279 337 397
#     4  11  23  38  60  97 146 180 216 260 326 405
#     4  11  23  36  58  96 144 183 216 258 324 403
#     4  12  25  41  63 104 137 173 217 279 335 388
#
# _framework density 26.053314
#
# number of rings (size 3 to 8) (size 9 to 14) (size 15 to 20)
#    0.000    0.500    6.250    2.250    3.500    1.500 
#    0.000    0.625    0.000    0.000    0.000    0.000 
#    0.000    0.000    0.000    0.000    0.000    0.000 
#
# Total GULP energy -89523.001573 kJ/mol
# GULP energy per Si atom -5595.187598 kJ/mol
# Density = 2.599402 g / cm^3
# Si number density = 26.053314 Si / 1000 Ang^3
#
#
#
# Elastic Constant Matrix: (Units=GPa)
#
#
# Indices 1 2 3 4 5 6 
#
# 1 104.7508 -2.9041 49.1796 -2.9326 -17.8062 9.8901
# 2 -2.9041 47.1442 18.5154 4.3779 5.0085 2.7498
# 3 49.1796 18.5154 171.0494 -1.9179 1.3480 14.5097
# 4 -2.9326 4.3779 -1.9179 22.5797 1.7755 2.8507
# 5 -17.8062 5.0085 1.3480 1.7755 55.5275 -0.0449
# 6 9.8901 2.7498 14.5097 2.8507 -0.0449 27.1266
#
#
#
# Elastic Compliance Matrix: (Units=1/GPa)
#
#
# Indices 1 2 3 4 5 6 
#
# 1 0.012166 0.001782 -0.003467 0.001003 0.003790 -0.002861
# 2 0.001782 0.023077 -0.002967 -0.004272 -0.001302 -0.000955
# 3 -0.003467 -0.002967 0.007399 0.001155 -0.001063 -0.002516
# 4 0.001003 -0.004272 0.001155 0.046088 -0.000799 -0.005395
# 5 0.003790 -0.001302 -0.001063 -0.000799 0.019393 -0.000565
# 6 -0.002861 -0.000955 -0.002516 -0.005395 -0.000565 0.039916
#
#
# Mechanical properties :
#
#
# Convention : Reuss Voigt Hill
#
# Bulk Modulus (GPa) = 29.99510 50.28068 40.13789
# Shear Modulus (GPa) = 29.68138 38.25699 33.96919
#
# Velocity S-wave (km/s) = 3.37895 3.83614 3.61478
# Velocity P-wave (km/s) = 5.17310 6.24198 5.73251
#
# Compressibility (1/GPa) = 0.03333878
#
# Stress axis : x y z
#
# Youngs Moduli (GPa) = 82.19630 43.33257 135.15476
#
# Poissons Ratio (x) = -0.07722 0.46855
# Poissons Ratio (y) = -0.14647 0.40100
# Poissons Ratio (z) = 0.28495 0.12857
#
# Static dielectric constant tensor:
#      x y z
#    x 2.085600 -0.005380 -0.075400 
#    y -0.005380 2.198780 0.011150 
#    z -0.075400 0.011150 2.069230 
# 
# From -- ./inp_files/562990.got.cif
#   From: 2010.05.17/outbox.cif.g08.bks.cpg/sg2_282_cif.got.tgz:562990.got - 2010.06.03 11:33:40.
