data_PCOD9058274
_publ_section_title
;
Structure prediction by ZEFSAII (Michael W. Deem and Ramdas Pophale) SiO2 
 PCOD9058274
Probable space group: P -1
;
_chemical_formula_sum "Si O2"
_cell_formula_units_Z 16
_cell_length_a 7.740713
_cell_length_b 12.960979
_cell_length_c 13.944004
_cell_angle_alpha 138.391504
_cell_angle_beta 94.181469
_cell_angle_gamma 55.894238
_cell_volume 597.406624
_symmetry_space_group_name_H-M "P -1"
_symmetry_group_IT_number 2
_symmetry_cell_setting 'triclinic'
loop_
_space_group_symop_operation_xyz
x,y,z
-x,-y,-z
loop_
_atom_site_type_symbol
_atom_site_label
_atom_site_fract_x
_atom_site_fract_y
_atom_site_fract_z
Si Si1 0.519568 0.576525 0.693137
Si Si2 0.418787 0.286546 0.841639
Si Si3 0.328148 0.863472 0.062169
Si Si4 0.893521 0.543967 0.314608
Si Si5 0.711693 0.985857 0.367534
Si Si6 0.130890 0.600954 0.597699
Si Si7 0.013914 0.164950 0.537437
Si Si8 0.989665 0.223036 0.950943
O O1 0.273037 0.638886 0.694438
O O2 0.668219 0.543199 0.583576
O O3 0.729185 0.326002 0.588649
O O4 0.424775 0.777804 0.898743
O O5 0.432235 0.303007 0.967432
O O6 0.313690 0.184857 0.745766
O O7 0.231159 0.538846 0.958533
O O8 0.726972 0.085133 0.678540
O O9 0.139779 0.844044 0.060924
O O10 0.153499 0.134853 0.261760
O O11 0.916211 0.503851 0.401693
O O12 0.968842 0.662634 0.365656
O O13 0.044792 0.306710 0.096514
O O14 0.573731 0.753996 0.428504
O O15 0.935902 0.888456 0.384386
O O16 0.772807 0.976406 0.252266
#
# Coordination Sequence:
#
# PCOD9058274 Si02
#       8
#     2   2   2   2   2   2   2   2
#     4  11  25  43  71  89 132 179 219 268 325 376
#     4  11  22  45  66 101 135 170 212 273 327 391
#     4  12  26  44  67  99 134 172 220 271 320 391
#     4  11  24  43  69  97 132 171 221 267 324 390
#     4  11  24  42  71  97 136 170 212 270 333 388
#     4  11  26  48  65  91 136 176 223 271 317 382
#     4  11  22  46  70  97 132 173 214 273 330 387
#     4  12  24  40  69 101 132 173 214 266 332 388
#
# _framework density 26.782426999999998
#
# number of rings (size 3 to 8) (size 9 to 14) (size 15 to 20)
#    0.000    0.750    5.000    2.625    5.250    0.500 
#    0.000    2.500    0.000    0.000    0.000    0.000 
#    0.000    0.000    0.000    0.000    0.000    0.000 
#
# Total GULP energy -89867.719623 kJ/mol
# GULP energy per Si atom -5616.732476 kJ/mol
# Density = 2.672147 g / cm^3
# Si number density = 26.782427 Si / 1000 Ang^3
#
#
#
# Elastic Constant Matrix: (Units=GPa)
#
#
# Indices 1 2 3 4 5 6 
#
# 1 73.6848 1.1450 17.0217 -1.5650 5.2667 1.9567
# 2 1.1450 104.6063 10.1734 -13.4046 -7.9062 18.6757
# 3 17.0217 10.1734 117.4147 -37.5014 -5.5178 13.5508
# 4 -1.5650 -13.4046 -37.5014 53.4721 -0.4306 -7.4473
# 5 5.2667 -7.9062 -5.5178 -0.4306 32.1660 0.0081
# 6 1.9567 18.6757 13.5508 -7.4473 0.0081 33.3026
#
#
#
# Elastic Compliance Matrix: (Units=1/GPa)
#
#
# Indices 1 2 3 4 5 6 
#
# 1 0.014374 -0.000333 -0.002704 -0.001570 -0.002920 0.000092
# 2 -0.000333 0.011092 0.000694 0.002455 0.002934 -0.005935
# 3 -0.002704 0.000694 0.011919 0.008018 0.002766 -0.003288
# 4 -0.001570 0.002455 0.008018 0.025062 0.002571 0.001057
# 5 -0.002920 0.002934 0.002766 0.002571 0.032798 -0.002032
# 6 0.000092 -0.005935 -0.003288 0.001057 -0.002032 0.034925
#
#
# Mechanical properties :
#
#
# Convention : Reuss Voigt Hill
#
# Bulk Modulus (GPa) = 30.58199 39.15399 34.86799
# Shear Modulus (GPa) = 34.30404 41.61250 37.95827
#
# Velocity S-wave (km/s) = 3.58277 3.94601 3.76877
# Velocity P-wave (km/s) = 5.34401 5.95082 5.65556
#
# Compressibility (1/GPa) = 0.03269898
#
# Stress axis : x y z
#
# Youngs Moduli (GPa) = 69.56936 90.15798 83.89819
#
# Poissons Ratio (x) = 0.02999 0.22689
# Poissons Ratio (y) = 0.02314 -0.05822
# Poissons Ratio (z) = 0.18814 -0.06257
#
# Static dielectric constant tensor:
#      x y z
#    x 2.101990 -0.032100 0.026470 
#    y -0.032100 2.083810 -0.035090 
#    z 0.026470 -0.035090 2.039460 
# 
# From -- ./inp_files/505596.got.cif
#   From: 2010.05.17/outbox.cif.g08.bks.cpg/sg2_253_cif.got.tgz:505596.got - 2010.06.03 11:33:40.
