data_PCOD9058447
_publ_section_title
;
Structure prediction by ZEFSAII (Michael W. Deem and Ramdas Pophale) SiO2 
 PCOD9058447
Probable space group: P -1
;
_chemical_formula_sum "Si O2"
_cell_formula_units_Z 14
_cell_length_a 9.860879
_cell_length_b 9.371587
_cell_length_c 11.510687
_cell_angle_alpha 53.837568
_cell_angle_beta 119.710969
_cell_angle_gamma 132.543220
_cell_volume 624.325863
_symmetry_space_group_name_H-M "P -1"
_symmetry_group_IT_number 2
_symmetry_cell_setting 'triclinic'
loop_
_space_group_symop_operation_xyz
x,y,z
-x,-y,-z
loop_
_atom_site_type_symbol
_atom_site_label
_atom_site_fract_x
_atom_site_fract_y
_atom_site_fract_z
Si Si1 0.216107 0.711652 0.697038
Si Si2 0.398450 0.766655 0.517221
Si Si3 0.167902 0.028047 0.633122
Si Si4 0.383796 0.544525 0.018019
Si Si5 0.499287 0.431379 0.696242
Si Si6 0.025255 0.720942 0.943634
Si Si7 0.205375 0.647269 0.252281
O O1 0.252764 0.647495 0.618858
O O2 0.260934 0.943953 0.625966
O O3 0.999267 0.552034 0.709868
O O4 0.334613 0.688482 0.857294
O O5 0.506112 0.647592 0.604112
O O6 0.300875 0.757034 0.360424
O O7 0.500000 0.000000 0.500000
O O8 0.095955 0.880624 0.789192
O O9 0.316120 0.262477 0.628329
O O10 0.000000 0.000000 0.500000
O O11 0.502157 0.640753 0.138289
O O12 0.178990 0.344208 0.066767
O O13 0.500000 0.500000 0.000000
O O14 0.672295 0.434241 0.712129
O O15 0.000000 0.500000 0.000000
O O16 0.171326 0.786460 0.080168
#
# Coordination Sequence:
#
# PCOD9058447 Si02
#       7
#     2   2   2   2   2   2   2
#     4  11  23  46  71 104 149 191 229 307 359 417
#     4  12  27  44  67 103 146 196 239 300 362 421
#     4  12  26  46  76 111 146 185 246 297 356 430
#     4  11  22  45  74 101 147 184 243 296 354 426
#     4  12  25  43  74 103 141 189 246 294 358 425
#     4  11  22  46  76 102 142 194 234 298 356 423
#     4  11  23  45  74 103 141 188 249 285 358 434
#
# _framework density 22.424188000000001
#
# number of rings (size 3 to 8) (size 9 to 14) (size 15 to 20)
#    0.000    0.571    5.714    2.571    0.000    6.857 
#    0.000    0.714    0.000    0.000    0.000    0.000 
#    0.000    0.000    0.000    0.000    0.000    0.000 
#
# Total GULP energy -78312.185143 kJ/mol
# GULP energy per Si atom -5593.727510 kJ/mol
# Density = 2.237315 g / cm^3
# Si number density = 22.424188 Si / 1000 Ang^3
#
#
#
# Elastic Constant Matrix: (Units=GPa)
#
#
# Indices 1 2 3 4 5 6 
#
# 1 154.4446 53.2435 59.1502 5.5433 -1.6205 -8.6858
# 2 53.2435 101.5781 59.6076 15.0561 18.5204 -14.5561
# 3 59.1502 59.6076 179.4575 36.1639 4.1883 -8.6461
# 4 5.5433 15.0561 36.1639 49.1789 -0.9129 -7.4073
# 5 -1.6205 18.5204 4.1883 -0.9129 41.9131 5.5528
# 6 -8.6858 -14.5561 -8.6461 -7.4073 5.5528 30.4983
#
#
#
# Elastic Compliance Matrix: (Units=1/GPa)
#
#
# Indices 1 2 3 4 5 6 
#
# 1 0.008556 -0.004082 -0.001863 0.001690 0.002365 -0.000060
# 2 -0.004082 0.016654 -0.003412 -0.001226 -0.008130 0.007001
# 3 -0.001863 -0.003412 0.008252 -0.004974 0.000655 -0.001147
# 4 0.001690 -0.001226 -0.004974 0.024848 0.001072 0.004326
# 5 0.002365 -0.008130 0.000655 0.001072 0.028555 -0.007960
# 6 -0.000060 0.007001 -0.001147 0.004326 -0.007960 0.038288
#
#
# Mechanical properties :
#
#
# Convention : Reuss Voigt Hill
#
# Bulk Modulus (GPa) = 67.80886 86.60919 77.20903
# Shear Modulus (GPa) = 33.60601 41.88332 37.74467
#
# Velocity S-wave (km/s) = 3.87544 4.32646 4.10715
# Velocity P-wave (km/s) = 7.09438 7.97902 7.54966
#
# Compressibility (1/GPa) = 0.01474733
#
# Stress axis : x y z
#
# Youngs Moduli (GPa) = 116.87178 60.04606 121.18959
#
# Poissons Ratio (x) = 0.24511 0.22578
# Poissons Ratio (y) = 0.47708 0.41351
# Poissons Ratio (z) = 0.21774 0.20488
#
# Static dielectric constant tensor:
#      x y z
#    x 1.877620 0.054980 -0.014780 
#    y 0.054980 1.861400 -0.005560 
#    z -0.014780 -0.005560 1.900380 
# 
# From -- ./inp_files/381503.got.cif
#   From: 2010.05.17/outbox.cif.g08.bks.cpg/sg2_191_cif.got.tgz:381503.got - 2010.06.03 11:33:40.
