data_PCOD9058104
_publ_section_title
;
Structure prediction by ZEFSAII (Michael W. Deem and Ramdas Pophale) SiO2 
 PCOD9058104
Probable space group: P -1
;
_chemical_formula_sum "Si O2"
_cell_formula_units_Z 16
_cell_length_a 6.703878
_cell_length_b 15.438938
_cell_length_c 18.573124
_cell_angle_alpha 21.836607
_cell_angle_beta 80.079097
_cell_angle_gamma 80.076652
_cell_volume 703.936695
_symmetry_space_group_name_H-M "P -1"
_symmetry_group_IT_number 2
_symmetry_cell_setting 'triclinic'
loop_
_space_group_symop_operation_xyz
x,y,z
-x,-y,-z
loop_
_atom_site_type_symbol
_atom_site_label
_atom_site_fract_x
_atom_site_fract_y
_atom_site_fract_z
Si Si1 0.095366 0.532964 0.681727
Si Si2 0.886457 0.975124 0.638196
Si Si3 0.727726 0.081078 0.416201
Si Si4 0.511149 0.791288 0.102120
Si Si5 0.594569 0.581866 0.007593
Si Si6 0.994179 0.788274 0.342126
Si Si7 0.746430 0.246534 0.993144
Si Si8 0.687086 0.439110 0.584973
O O1 0.176161 0.763849 0.536493
O O2 0.266344 0.326927 0.829864
O O3 0.045889 0.628289 0.531225
O O4 0.895054 0.441271 0.803450
O O5 0.827538 0.945617 0.581491
O O6 0.132359 0.961649 0.630343
O O7 0.758062 0.783757 0.834223
O O8 0.710100 0.359772 0.207408
O O9 0.500000 0.000000 0.500000
O O10 0.382975 0.598281 0.300980
O O11 0.394198 0.840004 0.997376
O O12 0.500000 0.000000 0.000000
O O13 0.500000 0.500000 0.000000
O O14 0.406792 0.662579 0.006553
O O15 0.832863 0.653800 0.408625
O O16 0.194185 0.785224 0.282971
O O17 0.894537 0.037262 0.173781
O O18 0.500000 0.500000 0.500000
#
# Coordination Sequence:
#
# PCOD9058104 Si02
#       8
#     2   2   2   2   2   2   2   2
#     4  12  27  47  72 110 151 195 248 312 378 448
#     4  11  27  44  77 106 143 196 248 305 380 446
#     4  11  23  48  74 105 145 188 247 309 371 444
#     4  12  26  46  76 106 153 198 249 307 378 444
#     4  12  27  48  76 107 149 197 250 311 377 443
#     4  11  26  43  74 104 144 194 245 304 373 447
#     4  12  29  47  71 111 154 191 257 312 374 447
#     4  11  22  44  71 103 142 190 246 299 369 442
#
# _framework density 22.729316000000001
#
# number of rings (size 3 to 8) (size 9 to 14) (size 15 to 20)
#    0.000    0.500    3.750    3.375    7.000    5.000 
#    0.000    0.000    0.000    0.000    0.000    0.000 
#    0.000    0.000    0.000    0.000    0.000    0.000 
#
# Total GULP energy -89436.377565 kJ/mol
# GULP energy per Si atom -5589.773598 kJ/mol
# Density = 2.267758 g / cm^3
# Si number density = 22.729316 Si / 1000 Ang^3
#
#
#
# Elastic Constant Matrix: (Units=GPa)
#
#
# Indices 1 2 3 4 5 6 
#
# 1 88.7177 36.3244 31.4426 11.8464 -9.6213 -21.7365
# 2 36.3244 117.6070 33.7872 4.1296 -12.4273 -35.5916
# 3 31.4426 33.7872 119.7230 -5.2659 -11.9654 -25.4034
# 4 11.8464 4.1296 -5.2659 38.0444 -3.4974 -0.1327
# 5 -9.6213 -12.4273 -11.9654 -3.4974 38.7287 -1.0114
# 6 -21.7365 -35.5916 -25.4034 -0.1327 -1.0114 46.0415
#
#
#
# Elastic Compliance Matrix: (Units=1/GPa)
#
#
# Indices 1 2 3 4 5 6 
#
# 1 0.014854 -0.002361 -0.002423 -0.004518 0.001877 0.003879
# 2 -0.002361 0.012237 -0.000837 -0.000382 0.003255 0.007953
# 3 -0.002423 -0.000837 0.010467 0.002556 0.002700 0.004051
# 4 -0.004518 -0.000382 0.002556 0.028275 0.002075 -0.000891
# 5 0.001877 0.003255 0.002700 0.002075 0.028497 0.005524
# 6 0.003879 0.007953 0.004051 -0.000891 0.005524 0.032053
#
#
# Mechanical properties :
#
#
# Convention : Reuss Voigt Hill
#
# Bulk Modulus (GPa) = 37.99956 58.79511 48.39733
# Shear Modulus (GPa) = 34.15360 39.52918 36.84139
#
# Velocity S-wave (km/s) = 3.88057 4.17481 4.03038
# Velocity P-wave (km/s) = 6.06903 7.01159 6.55727
#
# Compressibility (1/GPa) = 0.02631609
#
# Stress axis : x y z
#
# Youngs Moduli (GPa) = 67.32001 81.72009 95.53836
#
# Poissons Ratio (x) = 0.19293 0.23148
# Poissons Ratio (y) = 0.15894 0.08000
# Poissons Ratio (z) = 0.16311 0.06843
#
# Static dielectric constant tensor:
#      x y z
#    x 1.928210 0.002620 -0.008830 
#    y 0.002620 1.908470 0.002380 
#    z -0.008830 0.002380 1.834610 
# 
# From -- ./inp_files/584018.got.cif
#   From: 2010.05.17/outbox.cif.g08.bks.cpg/sg2_293_cif.got.tgz:584018.got - 2010.06.03 11:33:40.
