data_PCOD9058370
_publ_section_title
;
Structure prediction by ZEFSAII (Michael W. Deem and Ramdas Pophale) SiO2 
 PCOD9058370
Probable space group: P -1
;
_chemical_formula_sum "Si O2"
_cell_formula_units_Z 16
_cell_length_a 14.170576
_cell_length_b 5.571349
_cell_length_c 19.736785
_cell_angle_alpha 89.008987
_cell_angle_beta 151.629441
_cell_angle_gamma 80.946680
_cell_volume 689.740660
_symmetry_space_group_name_H-M "P -1"
_symmetry_group_IT_number 2
_symmetry_cell_setting 'triclinic'
loop_
_space_group_symop_operation_xyz
x,y,z
-x,-y,-z
loop_
_atom_site_type_symbol
_atom_site_label
_atom_site_fract_x
_atom_site_fract_y
_atom_site_fract_z
Si Si1 0.051887 0.963806 0.889360
Si Si2 0.149319 0.416046 0.028920
Si Si3 0.422595 0.925369 0.627441
Si Si4 0.999838 0.873348 0.428578
Si Si5 0.797419 0.346324 0.135232
Si Si6 0.346404 0.738018 0.443875
Si Si7 0.172481 0.443477 0.440927
Si Si8 0.558002 0.165064 0.092650
O O1 0.190180 0.876389 0.908226
O O2 0.809524 0.062628 0.708055
O O3 0.111761 0.690173 0.967258
O O4 0.087232 0.200455 0.948809
O O5 0.391316 0.263533 0.208148
O O6 0.000000 0.500000 0.000000
O O7 0.191086 0.936473 0.509523
O O8 0.463153 0.842805 0.574471
O O9 0.392558 0.225236 0.604105
O O10 0.062645 0.584609 0.439565
O O11 0.000000 0.000000 0.500000
O O12 0.744352 0.978255 0.255726
O O13 0.687225 0.318209 0.135125
O O14 0.027037 0.330257 0.304967
O O15 0.653533 0.622584 0.012350
O O16 0.500000 0.500000 0.500000
O O17 0.206286 0.635969 0.406468
O O18 0.500000 0.000000 0.000000
#
# Coordination Sequence:
#
# PCOD9058370 Si02
#       8
#     2   2   2   2   2   2   2   2
#     4  12  27  48  77 110 144 192 256 299 368 452
#     4  12  30  50  74 108 157 196 241 308 378 446
#     4  11  26  46  71 102 148 197 236 307 378 434
#     4  11  25  42  66 100 141 193 244 294 367 449
#     4  11  23  42  69 105 134 188 241 310 361 426
#     4  11  25  44  78 108 140 189 250 311 369 444
#     4  11  22  45  71 101 151 183 247 313 368 434
#     4  11  23  40  69  97 145 182 238 305 368 422
#
# _framework density 23.197126000000001
#
# number of rings (size 3 to 8) (size 9 to 14) (size 15 to 20)
#    0.000    0.750    3.750    2.625    8.750    1.000 
#    0.000    0.000    0.000    0.000    0.000    0.000 
#    0.000    0.000    0.000    0.000    0.000    0.000 
#
# Total GULP energy -89171.051227 kJ/mol
# GULP energy per Si atom -5573.190702 kJ/mol
# Density = 2.314433 g / cm^3
# Si number density = 23.197126 Si / 1000 Ang^3
#
#
#
# Elastic Constant Matrix: (Units=GPa)
#
#
# Indices 1 2 3 4 5 6 
#
# 1 66.5792 36.4935 19.8519 0.2344 -5.1180 -24.2428
# 2 36.4935 155.5124 67.9601 -4.0969 -23.5421 -37.6443
# 3 19.8519 67.9601 146.6954 -17.1973 -20.5400 -15.2713
# 4 0.2344 -4.0969 -17.1973 51.8176 -3.3467 -6.7158
# 5 -5.1180 -23.5421 -20.5400 -3.3467 18.0923 5.5371
# 6 -24.2428 -37.6443 -15.2713 -6.7158 5.5371 59.2120
#
#
#
# Elastic Compliance Matrix: (Units=1/GPa)
#
#
# Indices 1 2 3 4 5 6 
#
# 1 0.018840 -0.002822 -0.000753 0.000135 -0.000957 0.005830
# 2 -0.002822 0.010696 -0.002765 0.001061 0.008884 0.004221
# 3 -0.000753 -0.002765 0.009724 0.003533 0.007849 0.000108
# 4 0.000135 0.001061 0.003533 0.021524 0.008403 0.003297
# 5 -0.000957 0.008884 0.007849 0.008403 0.076702 0.001061
# 6 0.005830 0.004221 0.000108 0.003297 0.001061 0.022261
#
#
# Mechanical properties :
#
#
# Convention : Reuss Voigt Hill
#
# Bulk Modulus (GPa) = 37.62438 68.59978 53.11208
# Shear Modulus (GPa) = 27.58032 42.12314 34.85173
#
# Velocity S-wave (km/s) = 3.45186 4.26593 3.88031
# Velocity P-wave (km/s) = 5.66937 7.34173 6.55907
#
# Compressibility (1/GPa) = 0.02657851
#
# Stress axis : x y z
#
# Youngs Moduli (GPa) = 53.07887 93.49600 102.83446
#
# Poissons Ratio (x) = 0.26384 0.07748
# Poissons Ratio (y) = 0.14978 0.28437
# Poissons Ratio (z) = 0.03999 0.25855
#
# Static dielectric constant tensor:
#      x y z
#    x 2.042690 -0.146240 0.342170 
#    y -0.146240 2.359080 -0.660180 
#    z 0.342170 -0.660180 2.972860 
# 
# From -- ./inp_files/571734.got.cif
#   From: 2010.05.17/outbox.cif.g08.bks.cpg/sg2_286_cif.got.tgz:571734.got - 2010.06.03 11:33:40.
