data_PCOD9058458
_publ_section_title
;
Structure prediction by ZEFSAII (Michael W. Deem and Ramdas Pophale) SiO2 
 PCOD9058458
Probable space group: P -1
;
_chemical_formula_sum "Si O2"
_cell_formula_units_Z 16
_cell_length_a 16.151499
_cell_length_b 11.661745
_cell_length_c 8.362890
_cell_angle_alpha 104.422292
_cell_angle_beta 142.206432
_cell_angle_gamma 60.939025
_cell_volume 816.631779
_symmetry_space_group_name_H-M "P -1"
_symmetry_group_IT_number 2
_symmetry_cell_setting 'triclinic'
loop_
_space_group_symop_operation_xyz
x,y,z
-x,-y,-z
loop_
_atom_site_type_symbol
_atom_site_label
_atom_site_fract_x
_atom_site_fract_y
_atom_site_fract_z
Si Si1 0.310559 0.552776 0.923791
Si Si2 0.734886 0.695373 0.178698
Si Si3 0.670968 0.343288 0.343600
Si Si4 0.207802 0.750890 0.141977
Si Si5 0.848683 0.848142 0.618570
Si Si6 0.363010 0.089792 0.126876
Si Si7 0.689013 0.029306 0.712545
Si Si8 0.604227 0.109401 0.148301
O O1 0.239835 0.454313 0.825274
O O2 0.258680 0.615204 0.686561
O O3 0.496215 0.462085 0.153446
O O4 0.278184 0.648506 0.062429
O O5 0.823132 0.730779 0.461690
O O6 0.755015 0.763195 0.072037
O O7 0.549784 0.793657 0.954975
O O8 0.745094 0.306002 0.623050
O O9 0.660410 0.213515 0.214850
O O10 0.256041 0.866452 0.224885
O O11 0.024641 0.812007 0.872497
O O12 0.776095 0.891720 0.696715
O O13 0.744452 0.986577 0.410010
O O14 0.503434 0.096810 0.431309
O O15 0.278464 0.025234 0.077891
O O16 0.443625 0.971081 0.077023
#
# Coordination Sequence:
#
# PCOD9058458 Si02
#       8
#     2   2   2   2   2   2   2   2
#     4  10  23  42  63  87 114 161 212 239 287 348
#     4  10  19  40  61  82 117 160 202 248 279 348
#     4  10  21  40  65  88 115 158 202 253 289 345
#     4  12  24  40  60  90 131 154 188 248 305 364
#     4  11  21  38  61  85 125 157 185 243 313 355
#     4  10  19  33  61  90 115 149 203 248 291 344
#     4  11  20  35  57  93 119 151 192 248 303 350
#     4  10  17  37  61  86 117 154 202 242 299 345
#
# _framework density 19.592673999999999
#
# number of rings (size 3 to 8) (size 9 to 14) (size 15 to 20)
#    0.000    1.500    3.750    3.000    0.000    0.500 
#    6.750    3.750    0.000    0.000    0.000    0.000 
#    0.000    0.000    0.000    0.000    0.000    0.000 
#
# Total GULP energy -89078.977459 kJ/mol
# GULP energy per Si atom -5567.436091 kJ/mol
# Density = 1.954808 g / cm^3
# Si number density = 19.592674 Si / 1000 Ang^3
#
#
#
# Elastic Constant Matrix: (Units=GPa)
#
#
# Indices 1 2 3 4 5 6 
#
# 1 73.8564 36.3359 33.1520 -0.5093 -26.3242 19.5721
# 2 36.3359 73.9444 35.7717 24.1069 -12.9915 18.0839
# 3 33.1520 35.7717 80.7850 6.1632 0.6143 11.0545
# 4 -0.5093 24.1069 6.1632 21.4635 -2.5119 -0.8134
# 5 -26.3242 -12.9915 0.6143 -2.5119 23.3012 -8.6827
# 6 19.5721 18.0839 11.0545 -0.8134 -8.6827 19.4046
#
#
#
# Elastic Compliance Matrix: (Units=1/GPa)
#
#
# Indices 1 2 3 4 5 6 
#
# 1 0.042670 -0.016524 -0.012606 0.028116 0.042210 -0.000392
# 2 -0.016524 0.049245 -0.006286 -0.056170 -0.009042 -0.032046
# 3 -0.012606 -0.006286 0.020869 -0.001553 -0.019199 -0.001972
# 4 0.028116 -0.056170 -0.001553 0.115785 0.028857 0.042639
# 5 0.042210 -0.009042 -0.019199 0.028857 0.097184 0.021484
# 6 -0.000392 -0.032046 -0.001972 0.042639 0.021484 0.094319
#
#
# Mechanical properties :
#
#
# Convention : Reuss Voigt Hill
#
# Bulk Modulus (GPa) = 23.83607 48.78943 36.31275
# Shear Modulus (GPa) = 9.90320 21.05562 15.47941
#
# Velocity S-wave (km/s) = 2.25067 3.28177 2.81385
# Velocity P-wave (km/s) = 4.35273 6.27024 5.39732
#
# Compressibility (1/GPa) = 0.04195323
#
# Stress axis : x y z
#
# Youngs Moduli (GPa) = 23.43549 20.30664 47.91701
#
# Poissons Ratio (x) = 0.33554 0.60406
# Poissons Ratio (y) = 0.38724 0.30119
# Poissons Ratio (z) = 0.29544 0.12764
#
# Static dielectric constant tensor:
#      x y z
#    x 1.791060 0.024740 -0.070160 
#    y 0.024740 1.689690 0.002310 
#    z -0.070160 0.002310 1.723980 
# 
# From -- ./inp_files/279638.got.cif
#   From: 2010.05.17/outbox.cif.g08.bks.cpg/sg2_140_cif.got.tgz:279638.got - 2010.06.03 11:33:40.
