data_PCOD9058205
_publ_section_title
;
Structure prediction by ZEFSAII (Michael W. Deem and Ramdas Pophale) SiO2 
 PCOD9058205
Probable space group: P -1
;
_chemical_formula_sum "Si O2"
_cell_formula_units_Z 12
_cell_length_a 15.518827
_cell_length_b 15.399853
_cell_length_c 8.933464
_cell_angle_alpha 30.171029
_cell_angle_beta 139.306176
_cell_angle_gamma 152.717214
_cell_volume 491.370646
_symmetry_space_group_name_H-M "P -1"
_symmetry_group_IT_number 2
_symmetry_cell_setting 'triclinic'
loop_
_space_group_symop_operation_xyz
x,y,z
-x,-y,-z
loop_
_atom_site_type_symbol
_atom_site_label
_atom_site_fract_x
_atom_site_fract_y
_atom_site_fract_z
Si Si1 0.157290 0.958786 0.809123
Si Si2 0.517976 0.653060 0.564665
Si Si3 0.025007 0.817739 0.319088
Si Si4 0.856944 0.693451 0.586548
Si Si5 0.444451 0.200870 0.266997
Si Si6 0.798606 0.350878 0.529015
O O1 0.951102 0.722301 0.822854
O O2 0.289993 0.160325 0.554270
O O3 0.138593 0.093085 0.706379
O O4 0.249442 0.869808 0.119746
O O5 0.349960 0.547264 0.386098
O O6 0.537139 0.776703 0.560120
O O7 0.472517 0.417680 0.912847
O O8 0.995914 0.755799 0.548091
O O9 0.856919 0.566504 0.388943
O O10 0.228104 0.948601 0.333043
O O11 0.000000 0.000000 0.000000
O O12 0.613407 0.243901 0.361652
O O13 0.000000 0.500000 0.500000
#
# Coordination Sequence:
#
# PCOD9058205 Si02
#       6
#     2   2   2   2   2   2
#     4  11  27  43  69 105 140 179 232 288 340 404
#     4  11  22  44  74 101 133 183 234 280 337 413
#     4  12  22  46  75  98 136 188 230 277 346 414
#     4  11  23  44  73  99 135 189 228 278 341 411
#     4  11  24  42  74 104 133 181 237 280 336 418
#     4  12  29  47  68 102 143 180 231 294 348 401
#
# _framework density 24.421482999999998
#
# number of rings (size 3 to 8) (size 9 to 14) (size 15 to 20)
#    0.000    0.667    5.000    2.500    4.667    3.333 
#    0.000    0.000    0.000    0.000    0.000    0.000 
#    0.000    0.000    0.000    0.000    0.000    0.000 
#
# Total GULP energy -67107.264089 kJ/mol
# GULP energy per Si atom -5592.272007 kJ/mol
# Density = 2.436590 g / cm^3
# Si number density = 24.421483 Si / 1000 Ang^3
#
#
#
# Elastic Constant Matrix: (Units=GPa)
#
#
# Indices 1 2 3 4 5 6 
#
# 1 88.3612 26.3176 -4.0417 -6.3875 -8.0748 27.3709
# 2 26.3176 137.3597 -3.3721 10.5703 -5.7576 22.5754
# 3 -4.0417 -3.3721 22.7115 -2.9499 3.4746 13.1604
# 4 -6.3875 10.5703 -2.9499 33.6362 5.2208 6.6704
# 5 -8.0748 -5.7576 3.4746 5.2208 26.3066 6.4597
# 6 27.3709 22.5754 13.1604 6.6704 6.4597 48.7955
#
#
#
# Elastic Compliance Matrix: (Units=1/GPa)
#
#
# Indices 1 2 3 4 5 6 
#
# 1 0.017431 -0.001039 0.010953 0.006453 0.005810 -0.013902
# 2 -0.001039 0.008511 0.002797 -0.002212 0.002634 -0.004156
# 3 0.010953 0.002797 0.063089 0.011950 -0.000336 -0.026042
# 4 0.006453 -0.002212 0.011950 0.035411 -0.004643 -0.010045
# 5 0.005810 0.002634 -0.000336 -0.004643 0.043680 -0.009535
# 6 -0.013902 -0.004156 -0.026042 -0.010045 -0.009535 0.039874
#
#
# Mechanical properties :
#
#
# Convention : Reuss Voigt Hill
#
# Bulk Modulus (GPa) = 8.73727 31.80447 20.27087
# Shear Modulus (GPa) = 22.65251 37.04958 29.85104
#
# Velocity S-wave (km/s) = 3.04890 3.89921 3.49997
# Velocity P-wave (km/s) = 3.99748 5.77262 4.96503
#
# Compressibility (1/GPa) = 0.11445223
#
# Stress axis : x y z
#
# Youngs Moduli (GPa) = 57.36785 117.48857 15.85072
#
# Poissons Ratio (x) = 0.12208 -0.17361
# Poissons Ratio (y) = 0.05961 -0.04433
# Poissons Ratio (z) = -0.62834 -0.32857
#
# Static dielectric constant tensor:
#      x y z
#    x 1.989360 -0.027800 0.003320 
#    y -0.027800 1.923280 0.012860 
#    z 0.003320 0.012860 1.917670 
# 
# From -- ./inp_files/178131.got.cif
#   From: 2010.05.17/outbox.cif.g08.bks.cpg/sg2_90_cif.got.tgz:178131.got - 2010.06.03 11:33:40.
