data_PCOD9058041
_publ_section_title
;
Structure prediction by ZEFSAII (Michael W. Deem and Ramdas Pophale) SiO2 
 PCOD9058041
Probable space group: P -1
;
_chemical_formula_sum "Si O2"
_cell_formula_units_Z 12
_cell_length_a 15.747128
_cell_length_b 7.276707
_cell_length_c 9.196837
_cell_angle_alpha 55.455226
_cell_angle_beta 33.075502
_cell_angle_gamma 65.594767
_cell_volume 469.198640
_symmetry_space_group_name_H-M "P -1"
_symmetry_group_IT_number 2
_symmetry_cell_setting 'triclinic'
loop_
_space_group_symop_operation_xyz
x,y,z
-x,-y,-z
loop_
_atom_site_type_symbol
_atom_site_label
_atom_site_fract_x
_atom_site_fract_y
_atom_site_fract_z
Si Si1 0.028669 0.155480 0.586365
Si Si2 0.483197 0.949083 0.218207
Si Si3 0.112635 0.330267 0.969245
Si Si4 0.672585 0.561974 0.125615
Si Si5 0.702573 0.322408 0.914119
Si Si6 0.216224 0.211397 0.563972
O O1 0.883091 0.281105 0.693717
O O2 0.012602 0.105800 0.278523
O O3 0.192712 0.268736 0.233309
O O4 0.058350 0.172708 0.710530
O O5 0.685182 0.989606 0.521900
O O6 0.528460 0.702270 0.290110
O O7 0.500000 0.000000 0.000000
O O8 0.607367 0.116666 0.058130
O O9 0.232586 0.454816 0.855695
O O10 0.196550 0.241894 0.748612
O O11 0.000000 0.500000 0.000000
O O12 0.637795 0.358812 0.152621
O O13 0.695778 0.549479 0.729614
#
# Coordination Sequence:
#
# PCOD9058041 Si02
#       6
#     2   2   2   2   2   2
#     4  11  22  44  69  96 135 177 230 282 319 399
#     4  12  24  44  71 100 137 178 229 273 334 403
#     4  12  25  42  68 104 139 175 224 283 345 389
#     4  11  24  43  71 101 132 183 226 272 338 402
#     4  11  23  44  71  99 131 176 238 274 323 405
#     4  11  25  41  70 102 138 174 225 282 336 397
#
# _framework density 25.575520000000001
#
# number of rings (size 3 to 8) (size 9 to 14) (size 15 to 20)
#    0.000    0.667    5.000    5.500    2.333    0.667 
#    0.000    0.833    0.000    0.000    0.000    0.000 
#    0.000    0.000    0.000    0.000    0.000    0.000 
#
# Total GULP energy -67353.937252 kJ/mol
# GULP energy per Si atom -5612.828104 kJ/mol
# Density = 2.551731 g / cm^3
# Si number density = 25.575520 Si / 1000 Ang^3
#
#
#
# Elastic Constant Matrix: (Units=GPa)
#
#
# Indices 1 2 3 4 5 6 
#
# 1 168.6519 58.4318 38.2257 3.5209 3.3587 19.0993
# 2 58.4318 162.1961 25.8759 9.9677 2.8561 -4.6260
# 3 38.2257 25.8759 53.7406 9.9279 1.5108 9.2162
# 4 3.5209 9.9677 9.9279 50.1387 10.4852 1.8034
# 5 3.3587 2.8561 1.5108 10.4852 38.9444 -0.1782
# 6 19.0993 -4.6260 9.2162 1.8034 -0.1782 69.5384
#
#
#
# Elastic Compliance Matrix: (Units=1/GPa)
#
#
# Indices 1 2 3 4 5 6 
#
# 1 0.007893 -0.002241 -0.004392 0.000952 -0.000610 -0.001761
# 2 -0.002241 0.007396 -0.002030 -0.000960 -0.000005 0.001401
# 3 -0.004392 -0.002030 0.023780 -0.004070 0.000692 -0.001973
# 4 0.000952 -0.000960 -0.004070 0.022102 -0.005806 -0.000374
# 5 -0.000610 -0.000005 0.000692 -0.005806 0.027268 0.000296
# 6 -0.001761 0.001401 -0.001973 -0.000374 0.000296 0.015229
#
#
# Mechanical properties :
#
#
# Convention : Reuss Voigt Hill
#
# Bulk Modulus (GPa) = 45.99085 69.96169 57.97627
# Shear Modulus (GPa) = 38.98887 49.19463 44.09175
#
# Velocity S-wave (km/s) = 3.90867 4.39054 4.15659
# Velocity P-wave (km/s) = 6.19610 7.28812 6.76419
#
# Compressibility (1/GPa) = 0.02174346
#
# Stress axis : x y z
#
# Youngs Moduli (GPa) = 126.69630 135.21694 42.05185
#
# Poissons Ratio (x) = 0.30299 0.18469
# Poissons Ratio (y) = 0.28390 0.08536
# Poissons Ratio (z) = 0.55645 0.27447
#
# Static dielectric constant tensor:
#      x y z
#    x 1.971280 0.050090 0.011000 
#    y 0.050090 2.006710 -0.051540 
#    z 0.011000 -0.051540 2.226900 
# 
# From -- ./inp_files/237023.got.cif
#   From: 2010.05.17/outbox.cif.g08.bks.cpg/sg2_119_cif.got.tgz:237023.got - 2010.06.03 11:33:40.
