data_PCOD9058672
_publ_section_title
;
Structure prediction by ZEFSAII (Michael W. Deem and Ramdas Pophale) SiO2 
 PCOD9058672
Probable space group: P -1
;
_chemical_formula_sum "Si O2"
_cell_formula_units_Z 16
_cell_length_a 16.621985
_cell_length_b 11.634257
_cell_length_c 9.084983
_cell_angle_alpha 112.310219
_cell_angle_beta 44.224890
_cell_angle_gamma 76.817747
_cell_volume 716.412126
_symmetry_space_group_name_H-M "P -1"
_symmetry_group_IT_number 2
_symmetry_cell_setting 'triclinic'
loop_
_space_group_symop_operation_xyz
x,y,z
-x,-y,-z
loop_
_atom_site_type_symbol
_atom_site_label
_atom_site_fract_x
_atom_site_fract_y
_atom_site_fract_z
Si Si1 0.999966 0.018850 0.782759
Si Si2 0.581493 0.738938 0.229669
Si Si3 0.393751 0.324744 0.177735
Si Si4 0.593499 0.304129 0.359433
Si Si5 0.065320 0.748327 0.762575
Si Si6 0.804633 0.724071 0.406487
Si Si7 0.747896 0.036842 0.753645
Si Si8 0.757776 0.812100 0.178946
O O1 0.080286 0.820349 0.633828
O O2 0.090747 0.002604 0.513178
O O3 0.784262 0.181574 0.125160
O O4 0.038691 0.082893 0.896695
O O5 0.544058 0.644554 0.320706
O O6 0.736145 0.695265 0.079043
O O7 0.391562 0.975106 0.598216
O O8 0.617038 0.690495 0.988457
O O9 0.255425 0.553452 0.491610
O O10 0.318187 0.272337 0.345237
O O11 0.593913 0.187021 0.904575
O O12 0.500000 0.500000 0.500000
O O13 0.651044 0.152369 0.089031
O O14 0.951142 0.719123 0.867684
O O15 0.717706 0.831990 0.415221
O O16 0.817130 0.838372 0.543192
O O17 0.000000 0.500000 0.000000
#
# Coordination Sequence:
#
# PCOD9058672 Si02
#       8
#     2   2   2   2   2   2   2   2
#     4  11  24  46  71  99 141 188 237 290 350 415
#     4  11  26  43  73 100 142 182 231 294 351 414
#     4  12  25  43  72 107 135 186 234 287 354 422
#     4  12  28  49  70 104 147 187 234 293 349 417
#     4  11  23  43  72 102 139 182 237 293 347 418
#     4  12  24  45  72 103 141 182 231 289 354 420
#     4  12  26  45  72 103 140 187 240 287 350 422
#     4  11  22  47  68 101 142 182 227 296 353 408
#
# _framework density 22.333514999999998
#
# number of rings (size 3 to 8) (size 9 to 14) (size 15 to 20)
#    0.000    0.500    5.000    2.250    7.000    2.000 
#    2.250    0.000    0.000    0.000    0.000    0.000 
#    0.000    0.000    0.000    0.000    0.000    0.000 
#
# Total GULP energy -89542.618440 kJ/mol
# GULP energy per Si atom -5596.413653 kJ/mol
# Density = 2.228268 g / cm^3
# Si number density = 22.333515 Si / 1000 Ang^3
#
#
#
# Elastic Constant Matrix: (Units=GPa)
#
#
# Indices 1 2 3 4 5 6 
#
# 1 113.7639 21.0508 24.7296 -10.6507 -3.4656 5.6729
# 2 21.0508 121.8309 19.3265 6.0928 -4.7147 16.6106
# 3 24.7296 19.3265 59.1607 2.3910 0.8070 19.7155
# 4 -10.6507 6.0928 2.3910 31.3966 -6.8641 0.9661
# 5 -3.4656 -4.7147 0.8070 -6.8641 30.3266 -8.2410
# 6 5.6729 16.6106 19.7155 0.9661 -8.2410 20.9009
#
#
#
# Elastic Compliance Matrix: (Units=1/GPa)
#
#
# Indices 1 2 3 4 5 6 
#
# 1 0.010727 -0.001745 -0.005935 0.005076 0.003701 0.005299
# 2 -0.001745 0.009609 0.000369 -0.002559 -0.001460 -0.007969
# 3 -0.005935 0.000369 0.030042 -0.005867 -0.011219 -0.031173
# 4 0.005076 -0.002559 -0.005867 0.036657 0.011040 0.008848
# 5 0.003701 -0.001460 -0.011219 0.011040 0.043397 0.027339
# 6 0.005299 -0.007969 -0.031173 0.008848 0.027339 0.092515
#
#
# Mechanical properties :
#
#
# Convention : Reuss Voigt Hill
#
# Bulk Modulus (GPa) = 27.96722 47.21880 37.59301
# Shear Modulus (GPa) = 20.04104 31.83475 25.93789
#
# Velocity S-wave (km/s) = 2.99883 3.77958 3.41161
# Velocity P-wave (km/s) = 4.95383 6.34314 5.69104
#
# Compressibility (1/GPa) = 0.03575615
#
# Stress axis : x y z
#
# Youngs Moduli (GPa) = 93.22318 104.06961 33.28641
#
# Poissons Ratio (x) = 0.18160 0.19757
# Poissons Ratio (y) = 0.16267 -0.01229
# Poissons Ratio (z) = 0.55331 -0.03843
#
# Static dielectric constant tensor:
#      x y z
#    x 1.824680 0.006300 0.021320 
#    y 0.006300 1.810770 0.021760 
#    z 0.021320 0.021760 1.838010 
# 
# From -- ./inp_files/307909.got.cif
#   From: 2010.05.17/outbox.cif.g08.bks.cpg/sg2_154_cif.got.tgz:307909.got - 2010.06.03 11:33:40.
