data_PCOD9058539
_publ_section_title
;
Structure prediction by ZEFSAII (Michael W. Deem and Ramdas Pophale) SiO2 
 PCOD9058539
Probable space group: P -1
;
_chemical_formula_sum "Si O2"
_cell_formula_units_Z 16
_cell_length_a 8.012842
_cell_length_b 13.193555
_cell_length_c 15.545337
_cell_angle_alpha 27.465804
_cell_angle_beta 98.413052
_cell_angle_gamma 109.258922
_cell_volume 673.925248
_symmetry_space_group_name_H-M "P -1"
_symmetry_group_IT_number 2
_symmetry_cell_setting 'triclinic'
loop_
_space_group_symop_operation_xyz
x,y,z
-x,-y,-z
loop_
_atom_site_type_symbol
_atom_site_label
_atom_site_fract_x
_atom_site_fract_y
_atom_site_fract_z
Si Si1 0.715020 0.370939 0.667893
Si Si2 0.694495 0.980544 0.539691
Si Si3 0.157422 0.778257 0.811529
Si Si4 0.039449 0.903895 0.878266
Si Si5 0.275721 0.110902 0.033875
Si Si6 0.018793 0.418777 0.310639
Si Si7 0.696031 0.709508 0.273315
Si Si8 0.351653 0.535855 0.111120
O O1 0.881907 0.498911 0.651818
O O2 0.742574 0.512430 0.473674
O O3 0.526038 0.375195 0.688302
O O4 0.682049 0.099177 0.847518
O O5 0.797013 0.081575 0.379703
O O6 0.836472 0.162293 0.483260
O O7 0.500000 0.000000 0.500000
O O8 0.658139 0.701706 0.759218
O O9 0.091568 0.915503 0.774272
O O10 0.326619 0.732793 0.899231
O O11 0.000000 0.500000 0.000000
O O12 0.224763 0.058884 0.831053
O O13 0.961736 0.623977 0.113295
O O14 0.887510 0.992343 0.830539
O O15 0.211966 0.220349 0.865301
O O16 0.455760 0.322276 0.931026
O O17 0.182159 0.440282 0.239559
#
# Coordination Sequence:
#
# PCOD9058539 Si02
#       8
#     2   2   2   2   2   2   2   2
#     4  11  24  42  71 104 136 187 239 281 352 421
#     4  12  27  49  74 107 143 180 239 300 351 417
#     4  11  25  47  74 100 141 189 236 288 358 423
#     4  11  24  43  70 101 141 186 229 290 354 412
#     4  12  24  46  67 104 146 183 234 292 347 414
#     4  11  22  46  70 103 139 187 230 289 353 419
#     4  11  24  42  70  99 142 188 232 287 348 420
#     4  11  25  43  74 101 140 191 231 287 354 419
#
# _framework density 23.741506000000001
#
# number of rings (size 3 to 8) (size 9 to 14) (size 15 to 20)
#    0.000    0.750    5.000    3.375    1.750    2.000 
#    2.250    0.000    0.000    0.000    0.000    0.000 
#    0.000    0.000    0.000    0.000    0.000    0.000 
#
# Total GULP energy -89639.107520 kJ/mol
# GULP energy per Si atom -5602.444220 kJ/mol
# Density = 2.368747 g / cm^3
# Si number density = 23.741506 Si / 1000 Ang^3
#
#
#
# Elastic Constant Matrix: (Units=GPa)
#
#
# Indices 1 2 3 4 5 6 
#
# 1 72.5778 16.6092 -3.9811 -2.2774 -8.3464 13.0693
# 2 16.6092 94.5386 14.0076 -6.0382 -19.5659 26.6221
# 3 -3.9811 14.0076 75.9470 0.7704 2.1132 8.1700
# 4 -2.2774 -6.0382 0.7704 38.8426 5.8896 -10.2786
# 5 -8.3464 -19.5659 2.1132 5.8896 24.3303 -4.8627
# 6 13.0693 26.6221 8.1700 -10.2786 -4.8627 35.8834
#
#
#
# Elastic Compliance Matrix: (Units=1/GPa)
#
#
# Indices 1 2 3 4 5 6 
#
# 1 0.015359 -0.000731 0.001405 -0.001194 0.003809 -0.005198
# 2 -0.000731 0.016134 -0.002212 -0.001912 0.011338 -0.010211
# 3 0.001405 -0.002212 0.014025 -0.000817 -0.002853 -0.002685
# 4 -0.001194 -0.001912 -0.000817 0.028938 -0.007007 0.009379
# 5 0.003809 0.011338 -0.002853 -0.007007 0.052666 -0.004019
# 6 -0.005198 -0.010211 -0.002685 0.009379 -0.004019 0.040090
#
#
# Mechanical properties :
#
#
# Convention : Reuss Voigt Hill
#
# Bulk Modulus (GPa) = 23.56077 32.92609 28.24343
# Shear Modulus (GPa) = 27.10984 34.23977 30.67480
#
# Velocity S-wave (km/s) = 3.38283 3.80174 3.59839
# Velocity P-wave (km/s) = 5.02031 5.75931 5.40246
#
# Compressibility (1/GPa) = 0.04244343
#
# Stress axis : x y z
#
# Youngs Moduli (GPa) = 65.10761 61.98230 71.30036
#
# Poissons Ratio (x) = 0.04530 -0.10019
# Poissons Ratio (y) = 0.04758 0.15769
# Poissons Ratio (z) = -0.09149 0.13708
#
# Static dielectric constant tensor:
#      x y z
#    x 1.898860 0.003580 0.016190 
#    y 0.003580 1.890540 0.010980 
#    z 0.016190 0.010980 1.941420 
# 
# From -- ./inp_files/499751.got.cif
#   From: 2010.05.17/outbox.cif.g08.bks.cpg/sg2_250_cif.got.tgz:499751.got - 2010.06.03 11:33:40.
