data_PCOD9058548
_publ_section_title
;
Structure prediction by ZEFSAII (Michael W. Deem and Ramdas Pophale) SiO2 
 PCOD9058548
Probable space group: P -1
;
_chemical_formula_sum "Si O2"
_cell_formula_units_Z 14
_cell_length_a 16.155337
_cell_length_b 18.344669
_cell_length_c 7.978111
_cell_angle_alpha 136.226405
_cell_angle_beta 137.297267
_cell_angle_gamma 22.237701
_cell_volume 598.736462
_symmetry_space_group_name_H-M "P -1"
_symmetry_group_IT_number 2
_symmetry_cell_setting 'triclinic'
loop_
_space_group_symop_operation_xyz
x,y,z
-x,-y,-z
loop_
_atom_site_type_symbol
_atom_site_label
_atom_site_fract_x
_atom_site_fract_y
_atom_site_fract_z
Si Si1 0.540579 0.219416 0.366452
Si Si2 0.865283 0.704030 0.612032
Si Si3 0.042653 0.161722 0.165932
Si Si4 0.976009 0.054722 0.361617
Si Si5 0.344348 0.578304 0.736631
Si Si6 0.457582 0.928154 0.593421
Si Si7 0.219602 0.292036 0.889344
O O1 0.809721 0.023138 0.465736
O O2 0.474486 0.388435 0.526993
O O3 0.441103 0.237867 0.417226
O O4 0.414498 0.239009 0.077243
O O5 0.983089 0.732939 0.844459
O O6 0.650211 0.852106 0.657343
O O7 0.817445 0.724793 0.379118
O O8 0.000000 0.500000 0.500000
O O9 0.876036 0.309495 0.314911
O O10 0.298686 0.985040 0.317415
O O11 0.990220 0.079870 0.908182
O O12 0.756295 0.267099 0.295757
O O13 0.000000 0.000000 0.500000
O O14 0.500000 0.500000 0.000000
O O15 0.316889 0.111356 0.807240
O O16 0.000000 0.500000 0.000000
#
# Coordination Sequence:
#
# PCOD9058548 Si02
#       7
#     2   2   2   2   2   2   2
#     4  12  25  45  74 102 147 187 239 308 373 443
#     4  11  25  43  71 107 140 188 249 301 359 443
#     4  11  22  46  70  99 143 188 243 297 359 443
#     4  12  29  45  71 109 146 192 239 310 378 426
#     4  12  24  48  74 104 141 197 255 289 362 452
#     4  11  23  45  74 101 141 195 247 299 366 442
#     4  11  24  42  68 107 144 190 240 302 375 435
#
# _framework density 23.382574000000002
#
# number of rings (size 3 to 8) (size 9 to 14) (size 15 to 20)
#    0.000    0.571    2.857    6.857    4.000    1.714 
#    0.000    0.000    0.000    0.000    0.000    0.000 
#    0.000    0.000    0.000    0.000    0.000    0.000 
#
# Total GULP energy -78061.199854 kJ/mol
# GULP energy per Si atom -5575.799990 kJ/mol
# Density = 2.332935 g / cm^3
# Si number density = 23.382574 Si / 1000 Ang^3
#
#
#
# Elastic Constant Matrix: (Units=GPa)
#
#
# Indices 1 2 3 4 5 6 
#
# 1 105.2065 31.4113 6.0713 -5.3186 4.8642 10.4649
# 2 31.4113 113.1114 35.0706 7.5959 5.5195 19.3301
# 3 6.0713 35.0706 89.5127 -2.3242 19.7131 6.1796
# 4 -5.3186 7.5959 -2.3242 36.4790 0.7834 -0.2648
# 5 4.8642 5.5195 19.7131 0.7834 36.1335 0.6390
# 6 10.4649 19.3301 6.1796 -0.2648 0.6390 42.0539
#
#
#
# Elastic Compliance Matrix: (Units=1/GPa)
#
#
# Indices 1 2 3 4 5 6 
#
# 1 0.010702 -0.003131 0.000989 0.002298 -0.001528 -0.001332
# 2 -0.003131 0.011985 -0.004554 -0.003298 0.001220 -0.004100
# 3 0.000989 -0.004554 0.014597 0.002181 -0.007445 -0.000171
# 4 0.002298 -0.003298 0.002181 0.028615 -0.001631 0.000828
# 5 -0.001528 0.001220 -0.007445 -0.001631 0.031784 0.000421
# 6 -0.001332 -0.004100 -0.000171 0.000828 0.000421 0.026019
#
#
# Mechanical properties :
#
#
# Convention : Reuss Voigt Hill
#
# Bulk Modulus (GPa) = 41.85601 50.32634 46.09118
# Shear Modulus (GPa) = 34.46877 38.61846 36.54361
#
# Velocity S-wave (km/s) = 3.84360 4.06839 3.95759
# Velocity P-wave (km/s) = 6.13490 6.60596 6.37478
#
# Compressibility (1/GPa) = 0.02389143
#
# Stress axis : x y z
#
# Youngs Moduli (GPa) = 93.43936 83.43732 68.50710
#
# Poissons Ratio (x) = 0.26123 -0.06775
# Poissons Ratio (y) = 0.29254 0.31202
# Poissons Ratio (z) = -0.09241 0.38001
#
# Static dielectric constant tensor:
#      x y z
#    x 2.423780 0.547360 0.180760 
#    y 0.547360 2.506460 0.192140 
#    z 0.180760 0.192140 2.174090 
# 
# From -- ./inp_files/272126.got.cif
#   From: 2010.05.17/outbox.cif.g08.bks.cpg/sg2_137_cif.got.tgz:272126.got - 2010.06.03 11:33:40.
