data_PCOD9058427
_publ_section_title
;
Structure prediction by ZEFSAII (Michael W. Deem and Ramdas Pophale) SiO2 
 PCOD9058427
Probable space group: P -1
;
_chemical_formula_sum "Si O2"
_cell_formula_units_Z 14
_cell_length_a 12.414662
_cell_length_b 8.498371
_cell_length_c 9.086500
_cell_angle_alpha 126.806332
_cell_angle_beta 132.058953
_cell_angle_gamma 56.952434
_cell_volume 552.915885
_symmetry_space_group_name_H-M "P -1"
_symmetry_group_IT_number 2
_symmetry_cell_setting 'triclinic'
loop_
_space_group_symop_operation_xyz
x,y,z
-x,-y,-z
loop_
_atom_site_type_symbol
_atom_site_label
_atom_site_fract_x
_atom_site_fract_y
_atom_site_fract_z
Si Si1 0.947783 0.514958 0.295443
Si Si2 0.214465 0.004768 0.890778
Si Si3 0.140563 0.093229 0.181753
Si Si4 0.365258 0.285158 0.975506
Si Si5 0.344881 0.586099 0.623292
Si Si6 0.059960 0.674743 0.239210
Si Si7 0.605093 0.843708 0.398786
O O1 0.775555 0.537259 0.110669
O O2 0.000000 0.500000 0.500000
O O3 0.060506 0.326379 0.220274
O O4 0.990549 0.696410 0.352196
O O5 0.301702 0.136574 0.942813
O O6 0.035864 0.112144 0.789952
O O7 0.260322 0.776314 0.751257
O O8 0.247936 0.014205 0.099232
O O9 0.240012 0.082188 0.411931
O O10 0.000000 0.000000 0.000000
O O11 0.428072 0.179812 0.817630
O O12 0.490959 0.372197 0.220380
O O13 0.238212 0.608667 0.392903
O O14 0.364480 0.375980 0.613703
O O15 0.000000 0.500000 0.000000
O O16 0.500000 0.000000 0.500000
#
# Coordination Sequence:
#
# PCOD9058427 Si02
#       7
#     2   2   2   2   2   2   2
#     4  11  22  45  73 103 146 190 247 296 365 436
#     4  11  26  48  73 111 151 193 247 304 372 447
#     4  12  27  44  76 107 146 193 252 305 363 444
#     4  11  26  46  76 108 151 196 245 303 374 439
#     4  12  25  46  78 107 148 198 243 303 377 437
#     4  11  22  45  73 104 146 187 240 304 360 437
#     4  12  27  49  73 109 150 193 254 309 366 440
#
# _framework density 25.320307
#
# number of rings (size 3 to 8) (size 9 to 14) (size 15 to 20)
#    0.000    0.571    4.286    2.143    6.000    1.143 
#    0.000    8.571    0.000    0.000    0.000    0.000 
#    0.000    0.000    0.000    0.000    0.000    0.000 
#
# Total GULP energy -78154.971204 kJ/mol
# GULP energy per Si atom -5582.497943 kJ/mol
# Density = 2.526268 g / cm^3
# Si number density = 25.320307 Si / 1000 Ang^3
#
#
#
# Elastic Constant Matrix: (Units=GPa)
#
#
# Indices 1 2 3 4 5 6 
#
# 1 112.8233 22.1747 53.0007 0.2020 8.9439 -2.3804
# 2 22.1747 84.8279 37.4577 8.5784 3.3057 -8.2376
# 3 53.0007 37.4577 177.3951 -18.0302 33.2928 0.5179
# 4 0.2020 8.5784 -18.0302 41.8247 -9.6691 -4.8380
# 5 8.9439 3.3057 33.2928 -9.6691 49.5965 -7.5926
# 6 -2.3804 -8.2376 0.5179 -4.8380 -7.5926 44.8396
#
#
#
# Elastic Compliance Matrix: (Units=1/GPa)
#
#
# Indices 1 2 3 4 5 6 
#
# 1 0.010525 -0.001309 -0.002979 -0.001032 0.000025 0.000246
# 2 -0.001309 0.014093 -0.003169 -0.003738 0.001052 0.002331
# 3 -0.002979 -0.003169 0.008348 0.003090 -0.004445 -0.001256
# 4 -0.001032 -0.003738 0.003090 0.027297 0.004121 0.002866
# 5 0.000025 0.001052 -0.004445 0.004121 0.024620 0.004859
# 6 0.000246 0.002331 -0.001256 0.002866 0.004859 0.023890
#
#
# Mechanical properties :
#
#
# Convention : Reuss Voigt Hill
#
# Bulk Modulus (GPa) = 55.38963 66.70137 61.04550
# Shear Modulus (GPa) = 38.54944 44.74638 41.64791
#
# Velocity S-wave (km/s) = 3.90612 4.20838 4.06007
# Velocity P-wave (km/s) = 6.50129 7.07207 6.79268
#
# Compressibility (1/GPa) = 0.01805392
#
# Stress axis : x y z
#
# Youngs Moduli (GPa) = 95.01275 70.95527 119.78608
#
# Poissons Ratio (x) = 0.09287 0.35678
# Poissons Ratio (y) = 0.12435 0.37960
# Poissons Ratio (z) = 0.28300 0.22486
#
# Static dielectric constant tensor:
#      x y z
#    x 2.014860 -0.108560 0.021030 
#    y -0.108560 1.767510 -0.116120 
#    z 0.021030 -0.116120 2.114260 
# 
# From -- ./inp_files/245693.got.cif
#   From: 2010.05.17/outbox.cif.g08.bks.cpg/sg2_123_cif.got.tgz:245693.got - 2010.06.03 11:33:40.
