data_PCOD9058705
_publ_section_title
;
Structure prediction by ZEFSAII (Michael W. Deem and Ramdas Pophale) SiO2 
 PCOD9058705
Probable space group: P -1
;
_chemical_formula_sum "Si O2"
_cell_formula_units_Z 16
_cell_length_a 21.884706
_cell_length_b 14.023068
_cell_length_c 9.111571
_cell_angle_alpha 143.626011
_cell_angle_beta 142.925209
_cell_angle_gamma 29.068681
_cell_volume 761.529261
_symmetry_space_group_name_H-M "P -1"
_symmetry_group_IT_number 2
_symmetry_cell_setting 'triclinic'
loop_
_space_group_symop_operation_xyz
x,y,z
-x,-y,-z
loop_
_atom_site_type_symbol
_atom_site_label
_atom_site_fract_x
_atom_site_fract_y
_atom_site_fract_z
Si Si1 0.127963 0.802895 0.085017
Si Si2 0.703217 0.626499 0.313658
Si Si3 0.553610 0.813311 0.981718
Si Si4 0.332893 0.489995 0.422598
Si Si5 0.784673 0.866493 0.898793
Si Si6 0.485862 0.706045 0.215055
Si Si7 0.687549 0.155409 0.336307
Si Si8 0.955511 0.205831 0.755552
O O1 0.227576 0.845946 0.375476
O O2 0.074681 0.795778 0.132750
O O3 0.202056 0.598871 0.867148
O O4 0.000000 0.000000 0.000000
O O5 0.589422 0.658426 0.231215
O O6 0.773914 0.689068 0.624357
O O7 0.622206 0.800939 0.245715
O O8 0.662330 0.607019 0.841064
O O9 0.441447 0.798675 0.790680
O O10 0.500000 0.000000 0.000000
O O11 0.450658 0.307332 0.524451
O O12 0.345458 0.664559 0.617038
O O13 0.188331 0.606456 0.357434
O O14 0.660888 0.079567 0.839252
O O15 0.763620 0.943804 0.122810
O O16 0.926834 0.788388 0.026251
O O17 0.500000 0.500000 0.000000
O O18 0.000000 0.000000 0.500000
#
# Coordination Sequence:
#
# PCOD9058705 Si02
#       8
#     2   2   2   2   2   2   2   2
#     4  11  27  46  72 102 138 186 240 292 345 425
#     4  12  27  46  68 108 148 174 236 307 347 406
#     4  12  25  44  70 103 144 182 232 294 356 412
#     4  11  23  43  72 101 135 189 233 286 344 421
#     4  12  25  43  73 102 146 187 222 300 354 410
#     4  12  24  41  74 109 137 185 241 286 351 423
#     4  11  23  46  72  99 140 184 235 283 352 414
#     4  11  22  47  71  96 139 186 238 272 352 427
#
# _framework density 21.010355000000001
#
# number of rings (size 3 to 8) (size 9 to 14) (size 15 to 20)
#    0.000    0.500    7.500    1.500    7.000    1.500 
#    2.250    1.250    0.000    0.000    0.000    0.000 
#    0.000    0.000    0.000    0.000    0.000    0.000 
#
# Total GULP energy -89367.691061 kJ/mol
# GULP energy per Si atom -5585.480691 kJ/mol
# Density = 2.096253 g / cm^3
# Si number density = 21.010355 Si / 1000 Ang^3
#
#
#
# Elastic Constant Matrix: (Units=GPa)
#
#
# Indices 1 2 3 4 5 6 
#
# 1 79.6327 35.5494 25.3333 8.1180 10.1976 -9.1593
# 2 35.5494 80.5081 36.1984 -5.8354 17.6027 -4.6266
# 3 25.3333 36.1984 121.8528 21.9407 12.3299 2.4709
# 4 8.1180 -5.8354 21.9407 31.4202 -7.2231 -6.8328
# 5 10.1976 17.6027 12.3299 -7.2231 29.4874 -14.3805
# 6 -9.1593 -4.6266 2.4709 -6.8328 -14.3805 29.5868
#
#
#
# Elastic Compliance Matrix: (Units=1/GPa)
#
#
# Indices 1 2 3 4 5 6 
#
# 1 0.016888 -0.007254 -0.000203 -0.005577 -0.001854 0.001922
# 2 -0.007254 0.019730 -0.005517 0.008694 -0.004219 0.001257
# 3 -0.000203 -0.005517 0.014381 -0.016528 -0.012579 -0.012057
# 4 -0.005577 0.008694 -0.016528 0.061157 0.034094 0.031709
# 5 -0.001854 -0.004219 -0.012579 0.034094 0.071346 0.042368
# 6 0.001922 0.001257 -0.012057 0.031709 0.042368 0.063513
#
#
# Mechanical properties :
#
#
# Convention : Reuss Voigt Hill
#
# Bulk Modulus (GPa) = 39.92029 52.90618 46.41323
# Shear Modulus (GPa) = 17.77378 30.42637 24.10007
#
# Velocity S-wave (km/s) = 2.91168 3.80960 3.39050
# Velocity P-wave (km/s) = 5.50867 6.67730 6.12094
#
# Compressibility (1/GPa) = 0.02504992
#
# Stress axis : x y z
#
# Youngs Moduli (GPa) = 59.21515 50.68481 69.53559
#
# Poissons Ratio (x) = 0.36767 0.01413
# Poissons Ratio (y) = 0.42955 0.38363
# Poissons Ratio (z) = 0.01204 0.27963
#
# Static dielectric constant tensor:
#      x y z
#    x 1.770820 0.048780 0.017810 
#    y 0.048780 1.849240 0.033420 
#    z 0.017810 0.033420 1.825180 
# 
# From -- ./inp_files/347715.got.cif
#   From: 2010.05.17/outbox.cif.g08.bks.cpg/sg2_174_cif.got.tgz:347715.got - 2010.06.03 11:33:40.
