data_PCOD9058505
_publ_section_title
;
Structure prediction by ZEFSAII (Michael W. Deem and Ramdas Pophale) SiO2 
 PCOD9058505
Probable space group: P -1
;
_chemical_formula_sum "Si O2"
_cell_formula_units_Z 16
_cell_length_a 5.381099
_cell_length_b 15.242623
_cell_length_c 18.957513
_cell_angle_alpha 150.811965
_cell_angle_beta 93.245150
_cell_angle_gamma 95.761453
_cell_volume 720.364085
_symmetry_space_group_name_H-M "P -1"
_symmetry_group_IT_number 2
_symmetry_cell_setting 'triclinic'
loop_
_space_group_symop_operation_xyz
x,y,z
-x,-y,-z
loop_
_atom_site_type_symbol
_atom_site_label
_atom_site_fract_x
_atom_site_fract_y
_atom_site_fract_z
Si Si1 0.743454 0.461521 0.016442
Si Si2 0.649280 0.858628 0.721252
Si Si3 0.227257 0.349106 0.101830
Si Si4 0.100464 0.242149 0.474749
Si Si5 0.136538 0.986201 0.920423
Si Si6 0.815306 0.574704 0.252233
Si Si7 0.231285 0.603211 0.630495
Si Si8 0.373753 0.101803 0.825494
O O1 0.612005 0.243185 0.885664
O O2 0.500000 0.500000 0.000000
O O3 0.830062 0.590890 0.178932
O O4 0.000000 0.500000 0.000000
O O5 0.691698 0.826636 0.616674
O O6 0.482207 0.676694 0.634118
O O7 0.505961 0.018093 0.832495
O O8 0.925073 0.923957 0.810121
O O9 0.504634 0.506490 0.212341
O O10 0.986482 0.429963 0.167293
O O11 0.273655 0.205388 0.059670
O O12 0.212956 0.235866 0.948248
O O13 0.096866 0.264144 0.574069
O O14 0.170534 0.451420 0.586641
O O15 0.826125 0.084566 0.341738
O O16 0.241961 0.808295 0.804911
O O17 0.000000 0.000000 0.000000
O O18 0.000000 0.500000 0.500000
#
# Coordination Sequence:
#
# PCOD9058505 Si02
#       8
#     2   2   2   2   2   2   2   2
#     4  11  25  49  80 107 137 175 228 293 364 440
#     4  12  23  41  67  92 145 191 242 284 349 404
#     4  11  22  46  64 101 139 191 236 289 341 412
#     4  12  26  43  68 101 144 192 233 293 347 421
#     4  12  25  36  60  90 135 186 255 301 334 385
#     4  11  27  44  75 106 144 179 236 290 363 418
#     4  12  23  41  58  97 137 193 247 286 343 397
#     4  11  24  44  76  99 137 184 232 284 363 427
#
# _framework density 22.210992000000001
#
# number of rings (size 3 to 8) (size 9 to 14) (size 15 to 20)
#    0.000    0.500    5.000    4.125    5.250    0.500 
#    0.000    1.250    0.000    0.000    0.000    0.000 
#    0.000    0.000    0.000    0.000    0.000    0.000 
#
# Total GULP energy -89137.838377 kJ/mol
# GULP energy per Si atom -5571.114899 kJ/mol
# Density = 2.216044 g / cm^3
# Si number density = 22.210992 Si / 1000 Ang^3
#
#
#
# Elastic Constant Matrix: (Units=GPa)
#
#
# Indices 1 2 3 4 5 6 
#
# 1 83.1247 16.6498 25.0412 -2.9871 0.4840 9.5277
# 2 16.6498 77.2781 29.5657 -9.5894 2.7199 22.4281
# 3 25.0412 29.5657 65.6912 -15.8333 -4.9957 9.6242
# 4 -2.9871 -9.5894 -15.8333 40.5762 8.7253 -4.9901
# 5 0.4840 2.7199 -4.9957 8.7253 35.5904 9.4840
# 6 9.5277 22.4281 9.6242 -4.9901 9.4840 42.2071
#
#
#
# Elastic Compliance Matrix: (Units=1/GPa)
#
#
# Indices 1 2 3 4 5 6 
#
# 1 0.013838 -0.000717 -0.005017 -0.001312 -0.000052 -0.001742
# 2 -0.000717 0.017932 -0.006512 0.000787 -0.000417 -0.007695
# 3 -0.005017 -0.006512 0.021715 0.006087 0.002155 -0.000123
# 4 -0.001312 0.000787 0.006087 0.029113 -0.007276 0.003567
# 5 -0.000052 -0.000417 0.002155 -0.007276 0.032458 -0.008411
# 6 -0.001742 -0.007695 -0.000123 0.003567 -0.008411 0.030515
#
#
# Mechanical properties :
#
#
# Convention : Reuss Voigt Hill
#
# Bulk Modulus (GPa) = 34.49151 40.95639 37.72395
# Shear Modulus (GPa) = 27.82009 33.99722 30.90865
#
# Velocity S-wave (km/s) = 3.54296 3.91659 3.73445
# Velocity P-wave (km/s) = 5.68326 6.23961 5.96792
#
# Compressibility (1/GPa) = 0.02899264
#
# Stress axis : x y z
#
# Youngs Moduli (GPa) = 72.26472 55.76668 46.05139
#
# Poissons Ratio (x) = 0.04000 0.23104
# Poissons Ratio (y) = 0.05184 0.29987
# Poissons Ratio (z) = 0.36255 0.36314
#
# Static dielectric constant tensor:
#      x y z
#    x 1.872780 0.001140 -0.024030 
#    y 0.001140 1.903840 0.014080 
#    z -0.024030 0.014080 1.875380 
# 
# From -- ./inp_files/550185.got.cif
#   From: 2010.05.17/outbox.cif.g08.bks.cpg/sg2_276_cif.got.tgz:550185.got - 2010.06.03 11:33:40.
