data_PCOD9058550
_publ_section_title
;
Structure prediction by ZEFSAII (Michael W. Deem and Ramdas Pophale) SiO2 
 PCOD9058550
Probable space group: P -1
;
_chemical_formula_sum "Si O2"
_cell_formula_units_Z 16
_cell_length_a 9.250361
_cell_length_b 14.747543
_cell_length_c 9.549528
_cell_angle_alpha 107.659432
_cell_angle_beta 70.557165
_cell_angle_gamma 139.206360
_cell_volume 799.802553
_symmetry_space_group_name_H-M "P -1"
_symmetry_group_IT_number 2
_symmetry_cell_setting 'triclinic'
loop_
_space_group_symop_operation_xyz
x,y,z
-x,-y,-z
loop_
_atom_site_type_symbol
_atom_site_label
_atom_site_fract_x
_atom_site_fract_y
_atom_site_fract_z
Si Si1 0.505929 0.521293 0.341323
Si Si2 0.962647 0.046290 0.325357
Si Si3 0.815873 0.456789 0.645815
Si Si4 0.959170 0.838865 0.355763
Si Si5 0.479060 0.183211 0.797668
Si Si6 0.698035 0.126061 0.896969
Si Si7 0.889172 0.383996 0.100660
Si Si8 0.438160 0.280762 0.136437
O O1 0.500000 0.500000 0.500000
O O2 0.315336 0.511008 0.355754
O O3 0.748654 0.677862 0.311143
O O4 0.479003 0.410667 0.213653
O O5 0.993693 0.136835 0.481819
O O6 0.196412 0.146220 0.214800
O O7 0.909218 0.922518 0.360711
O O8 0.754358 0.964929 0.251347
O O9 0.629036 0.294840 0.677322
O O10 0.000000 0.500000 0.500000
O O11 0.957243 0.542894 0.779676
O O12 0.174435 0.900477 0.232282
O O13 0.608569 0.158485 0.824444
O O14 0.444114 0.249603 0.958096
O O15 0.865234 0.265739 0.000566
O O16 0.500000 0.000000 0.000000
O O17 0.638013 0.313137 0.164719
O O18 0.000000 0.500000 0.000000
#
# Coordination Sequence:
#
# PCOD9058550 Si02
#       8
#     2   2   2   2   2   2   2   2
#     4  12  25  44  69 106 135 178 236 289 347 404
#     4  11  24  44  67  97 136 182 224 279 351 410
#     4  12  27  43  71 103 139 186 231 286 352 412
#     4  11  24  42  69  95 136 180 226 280 345 408
#     4  11  25  45  68 102 137 184 228 287 345 416
#     4  11  25  44  70 101 137 180 231 283 349 408
#     4  11  22  46  71 100 141 186 225 288 352 408
#     4  11  23  42  73  97 140 174 228 286 351 405
#
# _framework density 20.004937000000002
#
# number of rings (size 3 to 8) (size 9 to 14) (size 15 to 20)
#    0.000    0.750    5.000    3.375    1.750    4.000 
#    0.000    0.000    0.000    0.000    0.000    0.000 
#    0.000    0.000    0.000    0.000    0.000    0.000 
#
# Total GULP energy -89456.382521 kJ/mol
# GULP energy per Si atom -5591.023908 kJ/mol
# Density = 1.995941 g / cm^3
# Si number density = 20.004937 Si / 1000 Ang^3
#
#
#
# Elastic Constant Matrix: (Units=GPa)
#
#
# Indices 1 2 3 4 5 6 
#
# 1 81.7183 1.7674 31.7397 6.9137 11.5087 18.1358
# 2 1.7674 88.3368 15.8570 -0.4055 10.4932 20.2546
# 3 31.7397 15.8570 83.2178 -1.9477 3.7238 17.3161
# 4 6.9137 -0.4055 -1.9477 39.9421 5.0718 -0.7749
# 5 11.5087 10.4932 3.7238 5.0718 30.9655 0.1342
# 6 18.1358 20.2546 17.3161 -0.7749 0.1342 40.2735
#
#
#
# Elastic Compliance Matrix: (Units=1/GPa)
#
#
# Indices 1 2 3 4 5 6 
#
# 1 0.016830 0.002893 -0.005346 -0.002494 -0.006155 -0.006763
# 2 0.002893 0.013990 -0.001962 0.000107 -0.005565 -0.007474
# 3 -0.005346 -0.001962 0.015074 0.001504 0.000606 -0.003060
# 4 -0.002494 0.000107 0.001504 0.026012 -0.003555 0.000935
# 5 -0.006155 -0.005565 0.000606 -0.003555 0.036954 0.005118
# 6 -0.006763 -0.007474 -0.003060 0.000935 0.005118 0.032951
#
#
# Mechanical properties :
#
#
# Convention : Reuss Voigt Hill
#
# Bulk Modulus (GPa) = 26.98065 39.11120 33.04592
# Shear Modulus (GPa) = 30.67546 35.83014 33.25280
#
# Velocity S-wave (km/s) = 3.92011 4.23669 4.08147
# Velocity P-wave (km/s) = 5.83146 6.59742 6.22623
#
# Compressibility (1/GPa) = 0.03706360
#
# Stress axis : x y z
#
# Youngs Moduli (GPa) = 59.41913 71.47941 66.33748
#
# Poissons Ratio (x) = -0.20680 0.35464
# Poissons Ratio (y) = -0.17191 0.13018
# Poissons Ratio (z) = 0.31765 0.14027
#
# Static dielectric constant tensor:
#      x y z
#    x 1.681910 0.000020 0.004360 
#    y 0.000020 1.708840 0.007580 
#    z 0.004360 0.007580 1.711800 
# 
# From -- ./inp_files/208224.got.cif
#   From: 2010.05.17/outbox.cif.g08.bks.cpg/sg2_105_cif.got.tgz:208224.got - 2010.06.03 11:33:40.
