data_PCOD9058222
_publ_section_title
;
Structure prediction by ZEFSAII (Michael W. Deem and Ramdas Pophale) SiO2 
 PCOD9058222
Probable space group: P -1
;
_chemical_formula_sum "Si O2"
_cell_formula_units_Z 16
_cell_length_a 10.470838
_cell_length_b 10.786620
_cell_length_c 10.388074
_cell_angle_alpha 64.058171
_cell_angle_beta 141.125065
_cell_angle_gamma 117.242806
_cell_volume 647.745751
_symmetry_space_group_name_H-M "P -1"
_symmetry_group_IT_number 2
_symmetry_cell_setting 'triclinic'
loop_
_space_group_symop_operation_xyz
x,y,z
-x,-y,-z
loop_
_atom_site_type_symbol
_atom_site_label
_atom_site_fract_x
_atom_site_fract_y
_atom_site_fract_z
Si Si1 0.810151 0.784434 0.728656
Si Si2 0.847707 0.074314 0.258935
Si Si3 0.120630 0.196471 0.715454
Si Si4 0.918851 0.327964 0.855093
Si Si5 0.543780 0.276608 0.002536
Si Si6 0.032556 0.566123 0.635640
Si Si7 0.750886 0.060581 0.672381
Si Si8 0.472526 0.641785 0.340917
O O1 0.612884 0.757589 0.492719
O O2 0.002962 0.819182 0.766059
O O3 0.819617 0.912609 0.777028
O O4 0.853700 0.662414 0.910809
O O5 0.773961 0.935303 0.177853
O O6 0.665600 0.143896 0.142095
O O7 0.000000 0.000000 0.500000
O O8 0.329489 0.277357 0.914253
O O9 0.060309 0.292821 0.510411
O O10 0.899431 0.145486 0.636232
O O11 0.819188 0.172977 0.788616
O O12 0.765957 0.353735 0.833587
O O13 0.918566 0.447935 0.696154
O O14 0.486852 0.323922 0.792645
O O15 0.728843 0.389588 0.158787
O O16 0.000000 0.500000 0.500000
O O17 0.500000 0.000000 0.500000
O O18 0.500000 0.500000 0.500000
#
# Coordination Sequence:
#
# PCOD9058222 Si02
#       8
#     2   2   2   2   2   2   2   2
#     4  11  25  45  73 109 152 196 257 314 379 451
#     4  11  22  44  74 108 152 195 248 314 382 451
#     4  11  25  48  75 112 148 200 253 313 381 454
#     4  12  25  48  75 111 153 203 254 315 382 460
#     4  12  26  47  77 112 154 200 256 316 389 455
#     4  12  27  50  73 109 155 204 256 315 382 463
#     4  11  24  51  76 106 151 200 255 317 379 452
#     4  12  26  44  75 111 153 202 253 314 381 456
#
# _framework density 24.701049000000001
#
# number of rings (size 3 to 8) (size 9 to 14) (size 15 to 20)
#    0.000    0.500    5.000    3.000    1.750    1.500 
#    9.000    0.000    0.000    0.000    0.000    0.000 
#    0.000    0.000    0.000    0.000    0.000    0.000 
#
# Total GULP energy -89146.898600 kJ/mol
# GULP energy per Si atom -5571.681162 kJ/mol
# Density = 2.464483 g / cm^3
# Si number density = 24.701049 Si / 1000 Ang^3
#
#
#
# Elastic Constant Matrix: (Units=GPa)
#
#
# Indices 1 2 3 4 5 6 
#
# 1 80.3883 22.6106 53.7252 -11.2295 17.3992 14.8658
# 2 22.6106 92.5762 44.8573 -5.3595 3.1384 -0.5893
# 3 53.7252 44.8573 135.4435 -6.6031 26.1894 17.2568
# 4 -11.2295 -5.3595 -6.6031 36.7368 12.0568 -3.7402
# 5 17.3992 3.1384 26.1894 12.0568 31.0739 12.3585
# 6 14.8658 -0.5893 17.2568 -3.7402 12.3585 28.6063
#
#
#
# Elastic Compliance Matrix: (Units=1/GPa)
#
#
# Indices 1 2 3 4 5 6 
#
# 1 0.019504 -0.001726 -0.004830 0.007359 -0.008485 -0.002629
# 2 -0.001726 0.013380 -0.004538 0.000202 0.002168 0.003000
# 3 -0.004830 -0.004538 0.012645 0.002586 -0.007920 -0.001452
# 4 0.007359 0.000202 0.002586 0.039667 -0.026122 0.011092
# 5 -0.008485 0.002168 -0.007920 -0.026122 0.061835 -0.020898
# 6 -0.002629 0.003000 -0.001452 0.011092 -0.020898 0.047740
#
#
# Mechanical properties :
#
#
# Convention : Reuss Voigt Hill
#
# Bulk Modulus (GPa) = 42.84677 61.19935 52.02306
# Shear Modulus (GPa) = 22.24798 31.76439 27.00619
#
# Velocity S-wave (km/s) = 3.00441 3.58991 3.31013
# Velocity P-wave (km/s) = 5.42393 6.48175 5.97629
#
# Compressibility (1/GPa) = 0.02333898
#
# Stress axis : x y z
#
# Youngs Moduli (GPa) = 51.27130 74.73989 79.08542
#
# Poissons Ratio (x) = 0.12901 0.38202
# Poissons Ratio (y) = 0.08850 0.35890
# Poissons Ratio (z) = 0.24766 0.33918
#
# Static dielectric constant tensor:
#      x y z
#    x 2.057520 -0.089950 -0.029680 
#    y -0.089950 2.240740 0.091590 
#    z -0.029680 0.091590 2.083650 
# 
# From -- ./inp_files/427929.got.cif
#   From: 2010.05.17/outbox.cif.g08.bks.cpg/sg2_214_cif.got.tgz:427929.got - 2010.06.03 11:33:40.
