data_PCOD9058595
_publ_section_title
;
Structure prediction by ZEFSAII (Michael W. Deem and Ramdas Pophale) SiO2 
 PCOD9058595
Probable space group: P -1
;
_chemical_formula_sum "Si O2"
_cell_formula_units_Z 14
_cell_length_a 8.076355
_cell_length_b 9.432436
_cell_length_c 14.139435
_cell_angle_alpha 128.829821
_cell_angle_beta 49.015239
_cell_angle_gamma 100.570054
_cell_volume 583.973350
_symmetry_space_group_name_H-M "P -1"
_symmetry_group_IT_number 2
_symmetry_cell_setting 'triclinic'
loop_
_space_group_symop_operation_xyz
x,y,z
-x,-y,-z
loop_
_atom_site_type_symbol
_atom_site_label
_atom_site_fract_x
_atom_site_fract_y
_atom_site_fract_z
Si Si1 0.149990 0.567493 0.216219
Si Si2 0.182698 0.162791 0.953376
Si Si3 0.210371 0.877162 0.189319
Si Si4 0.750658 0.492331 0.624179
Si Si5 0.296789 0.852470 0.938454
Si Si6 0.311130 0.082160 0.406451
Si Si7 0.697815 0.091499 0.477948
O O1 0.197660 0.370639 0.056189
O O2 0.259426 0.692736 0.162614
O O3 0.245506 0.515299 0.265458
O O4 0.865915 0.706911 0.397908
O O5 0.925995 0.207967 0.024286
O O6 0.402170 0.002002 0.745227
O O7 0.214256 0.056793 0.999086
O O8 0.226058 0.048624 0.321051
O O9 0.342300 0.865291 0.037624
O O10 0.941096 0.936969 0.281569
O O11 0.538685 0.683026 0.741911
O O12 0.686842 0.304065 0.539809
O O13 0.000000 0.500000 0.500000
O O14 0.266907 0.927922 0.429860
O O15 0.500000 0.000000 0.500000
#
# Coordination Sequence:
#
# PCOD9058595 Si02
#       7
#     2   2   2   2   2   2   2
#     4  11  24  44  75 106 144 193 251 300 371 440
#     4  11  27  48  69 105 150 194 244 314 367 443
#     4  11  23  45  74 104 144 194 245 308 362 447
#     4  12  26  46  75 110 146 197 247 301 372 451
#     4  11  28  47  68 106 150 191 249 306 380 432
#     4  11  22  46  73 105 146 189 245 306 360 445
#     4  11  24  43  73 112 149 188 246 308 369 433
#
# _framework density 23.973699
#
# number of rings (size 3 to 8) (size 9 to 14) (size 15 to 20)
#    0.000    0.857    2.857    3.429    8.000    2.857 
#    0.000    2.143    0.000    0.000    0.000    0.000 
#    0.000    0.000    0.000    0.000    0.000    0.000 
#
# Total GULP energy -78187.096590 kJ/mol
# GULP energy per Si atom -5584.792614 kJ/mol
# Density = 2.391913 g / cm^3
# Si number density = 23.973699 Si / 1000 Ang^3
#
#
#
# Elastic Constant Matrix: (Units=GPa)
#
#
# Indices 1 2 3 4 5 6 
#
# 1 101.2526 31.0600 42.7212 0.5297 -19.2758 3.3565
# 2 31.0600 114.9687 32.8277 4.6683 15.3996 4.6588
# 3 42.7212 32.8277 105.8480 5.5259 -23.6531 1.0520
# 4 0.5297 4.6683 5.5259 35.6670 -6.2311 -0.4494
# 5 -19.2758 15.3996 -23.6531 -6.2311 46.0550 -10.8032
# 6 3.3565 4.6588 1.0520 -0.4494 -10.8032 34.7837
#
#
#
# Elastic Compliance Matrix: (Units=1/GPa)
#
#
# Indices 1 2 3 4 5 6 
#
# 1 0.013319 -0.003589 -0.003097 0.001756 0.005673 0.001074
# 2 -0.003589 0.012370 -0.004252 -0.002551 -0.009116 -0.004046
# 3 -0.003097 -0.004252 0.013747 -0.000120 0.007847 0.002888
# 4 0.001756 -0.002551 -0.000120 0.029458 0.006086 0.002446
# 5 0.005673 -0.009116 0.007847 0.006086 0.034633 0.011271
# 6 0.001074 -0.004046 0.002888 0.002446 0.011271 0.032632
#
#
# Mechanical properties :
#
#
# Convention : Reuss Voigt Hill
#
# Bulk Modulus (GPa) = 56.94405 59.47635 58.21020
# Shear Modulus (GPa) = 30.50836 37.66515 34.08676
#
# Velocity S-wave (km/s) = 3.57119 3.96801 3.77482
# Velocity P-wave (km/s) = 6.38818 6.77173 6.58275
#
# Compressibility (1/GPa) = 0.01756110
#
# Stress axis : x y z
#
# Youngs Moduli (GPa) = 75.07913 80.83942 72.74117
#
# Poissons Ratio (x) = 0.29011 0.22531
# Poissons Ratio (y) = 0.26944 0.30928
# Poissons Ratio (z) = 0.23255 0.34371
#
# Static dielectric constant tensor:
#      x y z
#    x 1.999380 -0.004340 -0.023400 
#    y -0.004340 1.915180 -0.027250 
#    z -0.023400 -0.027250 2.016640 
# 
# From -- ./inp_files/495555.got.cif
#   From: 2010.05.17/outbox.cif.g08.bks.cpg/sg2_248_cif.got.tgz:495555.got - 2010.06.03 11:33:40.
