data_PCOD9058766
_publ_section_title
;
Structure prediction by ZEFSAII (Michael W. Deem and Ramdas Pophale) SiO2 
 PCOD9058766
Probable space group: P -1
;
_chemical_formula_sum "Si O2"
_cell_formula_units_Z 14
_cell_length_a 15.325102
_cell_length_b 8.378081
_cell_length_c 5.723093
_cell_angle_alpha 114.675809
_cell_angle_beta 107.064636
_cell_angle_gamma 59.034892
_cell_volume 569.629586
_symmetry_space_group_name_H-M "P -1"
_symmetry_group_IT_number 2
_symmetry_cell_setting 'triclinic'
loop_
_space_group_symop_operation_xyz
x,y,z
-x,-y,-z
loop_
_atom_site_type_symbol
_atom_site_label
_atom_site_fract_x
_atom_site_fract_y
_atom_site_fract_z
Si Si1 0.242006 0.555463 0.165416
Si Si2 0.037118 0.606119 0.900690
Si Si3 0.148101 0.221256 0.447087
Si Si4 0.423084 0.410914 0.933160
Si Si5 0.510409 0.797272 0.631991
Si Si6 0.681747 0.879107 0.837547
Si Si7 0.711458 0.134202 0.379620
O O1 0.303901 0.551366 0.977012
O O2 0.270946 0.326277 0.103920
O O3 0.279157 0.666842 0.452162
O O4 0.120303 0.665459 0.107266
O O5 0.099710 0.433294 0.659313
O O6 0.936980 0.769507 0.797473
O O7 0.000000 0.500000 0.000000
O O8 0.252119 0.187284 0.381749
O O9 0.185763 0.040762 0.542954
O O10 0.455351 0.321916 0.169044
O O11 0.500000 0.500000 0.000000
O O12 0.435180 0.301768 0.628967
O O13 0.560195 0.948476 0.783104
O O14 0.390921 0.852301 0.560771
O O15 0.699264 0.053998 0.070309
#
# Coordination Sequence:
#
# PCOD9058766 Si02
#       7
#     2   2   2   2   2   2   2
#     4  11  24  46  76 102 149 195 242 303 378 428
#     4  11  22  48  76 101 136 194 240 312 374 444
#     4  11  24  45  75 101 143 184 252 306 372 442
#     4  11  23  45  70 112 152 197 249 299 364 452
#     4  11  26  43  73 105 157 201 245 303 370 437
#     4  11  25  47  70 103 150 192 247 298 367 446
#     4  12  26  45  67 114 142 191 247 307 363 450
#
# _framework density 24.577376999999998
#
# number of rings (size 3 to 8) (size 9 to 14) (size 15 to 20)
#    0.000    0.857    4.286    1.714    6.000    1.143 
#    2.571    2.857    0.000    0.000    0.000    0.000 
#    0.000    0.000    0.000    0.000    0.000    0.000 
#
# Total GULP energy -78183.067983 kJ/mol
# GULP energy per Si atom -5584.504856 kJ/mol
# Density = 2.452144 g / cm^3
# Si number density = 24.577377 Si / 1000 Ang^3
#
#
#
# Elastic Constant Matrix: (Units=GPa)
#
#
# Indices 1 2 3 4 5 6 
#
# 1 138.3987 17.9164 47.8919 -6.4685 13.6799 -4.0261
# 2 17.9164 68.9879 35.4120 -12.6073 14.2651 -4.1686
# 3 47.8919 35.4120 117.5578 4.5991 7.1856 10.7209
# 4 -6.4685 -12.6073 4.5991 42.1044 -4.5053 8.9683
# 5 13.6799 14.2651 7.1856 -4.5053 53.9642 -7.1055
# 6 -4.0261 -4.1686 10.7209 8.9683 -7.1055 26.6940
#
#
#
# Elastic Compliance Matrix: (Units=1/GPa)
#
#
# Indices 1 2 3 4 5 6 
#
# 1 0.008767 0.000341 -0.003830 0.001266 -0.001419 0.002111
# 2 0.000341 0.019573 -0.006290 0.005622 -0.003586 0.002791
# 3 -0.003830 -0.006290 0.012589 -0.002627 -0.000017 -0.005738
# 4 0.001266 0.005622 -0.002627 0.027420 -0.000105 -0.007116
# 5 -0.001419 -0.003586 -0.000017 -0.000105 0.020453 0.004712
# 6 0.002111 0.002791 -0.005738 -0.007116 0.004712 0.044166
#
#
# Mechanical properties :
#
#
# Convention : Reuss Voigt Hill
#
# Bulk Modulus (GPa) = 46.79141 58.59832 52.69486
# Shear Modulus (GPa) = 31.31874 39.46746 35.39310
#
# Velocity S-wave (km/s) = 3.57359 4.01165 3.79894
# Velocity P-wave (km/s) = 6.00892 6.73438 6.38197
#
# Compressibility (1/GPa) = 0.02137144
#
# Stress axis : x y z
#
# Youngs Moduli (GPa) = 114.05798 51.09045 79.43650
#
# Poissons Ratio (x) = -0.01744 0.30423
# Poissons Ratio (y) = -0.03893 0.49968
# Poissons Ratio (z) = 0.43683 0.32138
#
# Static dielectric constant tensor:
#      x y z
#    x 1.940560 -0.039050 0.053490 
#    y -0.039050 2.040170 -0.027190 
#    z 0.053490 -0.027190 2.084240 
# 
# From -- ./inp_files/91038.got.cif
#   From: 2010.05.17/outbox.cif.g08.bks.cpg/sg2_46_cif.got.tgz:91038.got - 2010.06.03 11:33:40.
