data_PCOD9058040
_publ_section_title
;
Structure prediction by ZEFSAII (Michael W. Deem and Ramdas Pophale) SiO2 
 PCOD9058040
Probable space group: P -1
;
_chemical_formula_sum "Si O2"
_cell_formula_units_Z 15
_cell_length_a 7.596531
_cell_length_b 14.430235
_cell_length_c 9.008781
_cell_angle_alpha 50.924008
_cell_angle_beta 51.238712
_cell_angle_gamma 48.286431
_cell_volume 534.661751
_symmetry_space_group_name_H-M "P -1"
_symmetry_group_IT_number 2
_symmetry_cell_setting 'triclinic'
loop_
_space_group_symop_operation_xyz
x,y,z
-x,-y,-z
loop_
_atom_site_type_symbol
_atom_site_label
_atom_site_fract_x
_atom_site_fract_y
_atom_site_fract_z
Si Si1 0.857505 0.789156 0.099432
Si Si2 0.042514 0.129730 0.356441
Si Si3 0.003705 0.537050 0.133552
Si Si4 0.658801 0.299402 0.870863
Si Si5 0.391453 0.949363 0.865880
Si Si6 0.656884 0.700294 0.667859
Si Si7 0.500000 0.000000 0.500000
Si Si8 0.617482 0.404478 0.288352
O O1 0.802256 0.669458 0.186162
O O2 0.069079 0.732332 0.173693
O O3 0.653810 0.930521 0.124987
O O4 0.938917 0.835523 0.858712
O O5 0.321682 0.093789 0.315127
O O6 0.827738 0.269732 0.391184
O O7 0.000000 0.000000 0.500000
O O8 0.481731 0.553704 0.277190
O O9 0.062952 0.406954 0.327949
O O10 0.239481 0.573176 0.955833
O O11 0.582366 0.638408 0.630601
O O12 0.649509 0.171813 0.925189
O O13 0.494383 0.303833 0.099870
O O14 0.258217 0.989446 0.736811
O O15 0.582333 0.851767 0.527569
O O16 0.000000 0.500000 0.000000
#
# Coordination Sequence:
#
# PCOD9058040 Si02
#       8
#     2   2   2   2   2   2   1   2
#     4  11  22  42  64  99 132 169 215 276 329 378
#     4  11  24  40  63  92 133 174 214 265 332 390
#     4  10  20  33  62  93 125 163 220 264 315 386
#     4  10  19  37  64  95 123 166 218 273 319 383
#     4  11  25  40  64  99 131 170 220 273 325 393
#     4  10  17  37  58  89 124 163 216 264 313 388
#     4  10  24  36  64  88 126 166 220 256 324 386
#     4  10  19  35  62  88 124 165 220 266 318 381
#
# _framework density 28.055122000000001
#
# number of rings (size 3 to 8) (size 9 to 14) (size 15 to 20)
#    0.000    1.600    4.000    2.400   13.067    0.000 
#    0.000    0.667    0.000    0.800    0.000    0.000 
#    0.000    0.000    0.000    0.000    0.000    0.000 
#
# Total GULP energy -83587.577099 kJ/mol
# GULP energy per Si atom -5572.505140 kJ/mol
# Density = 2.799127 g / cm^3
# Si number density = 28.055122 Si / 1000 Ang^3
#
#
#
# Elastic Constant Matrix: (Units=GPa)
#
#
# Indices 1 2 3 4 5 6 
#
# 1 126.9482 75.9984 33.0332 -30.9900 -5.4930 1.1739
# 2 75.9984 221.4761 68.8224 -71.1689 -0.5208 19.9085
# 3 33.0332 68.8224 97.5032 -45.1580 16.3354 6.7510
# 4 -30.9900 -71.1689 -45.1580 68.8002 3.8380 -6.1403
# 5 -5.4930 -0.5208 16.3354 3.8380 28.2712 -16.1295
# 6 1.1739 19.9085 6.7510 -6.1403 -16.1295 45.4071
#
#
#
# Elastic Compliance Matrix: (Units=1/GPa)
#
#
# Indices 1 2 3 4 5 6 
#
# 1 0.010625 -0.003212 -0.002611 -0.000250 0.005514 0.003447
# 2 -0.003212 0.008279 -0.001254 0.006130 -0.002538 -0.003433
# 3 -0.002611 -0.001254 0.021112 0.011749 -0.018632 -0.007551
# 4 -0.000250 0.006130 0.011749 0.028757 -0.013716 -0.005411
# 5 0.005514 -0.002538 -0.018632 -0.013716 0.062834 0.024205
# 6 0.003447 -0.003433 -0.007551 -0.005411 0.024205 0.032428
#
#
# Mechanical properties :
#
#
# Convention : Reuss Voigt Hill
#
# Bulk Modulus (GPa) = 38.66597 89.07063 63.86830
# Shear Modulus (GPa) = 26.76515 46.36726 36.56620
#
# Velocity S-wave (km/s) = 3.09207 4.06978 3.61414
# Velocity P-wave (km/s) = 5.15363 7.34176 6.34277
#
# Compressibility (1/GPa) = 0.02586253
#
# Stress axis : x y z
#
# Youngs Moduli (GPa) = 94.11699 120.78284 47.36682
#
# Poissons Ratio (x) = 0.38794 0.12368
# Poissons Ratio (y) = 0.30229 0.05939
# Poissons Ratio (z) = 0.24574 0.15145
#
# Static dielectric constant tensor:
#      x y z
#    x 3.312890 -0.195170 0.669360 
#    y -0.195170 2.379030 -0.041920 
#    z 0.669360 -0.041920 2.754420 
# 
# From -- ./inp_files/398352.got.cif
#   From: 2010.05.17/outbox.cif.g08.bks.cpg/sg2_200_cif.got.tgz:398352.got - 2010.06.03 11:33:40.
