data_PCOD9058872
_publ_section_title
;
Structure prediction by ZEFSAII (Michael W. Deem and Ramdas Pophale) SiO2 
 PCOD9058872
Probable space group: P -1
;
_chemical_formula_sum "Si O2"
_cell_formula_units_Z 16
_cell_length_a 6.146073
_cell_length_b 22.466604
_cell_length_c 9.482263
_cell_angle_alpha 39.641748
_cell_angle_beta 68.559864
_cell_angle_gamma 59.355495
_cell_volume 717.804398
_symmetry_space_group_name_H-M "P -1"
_symmetry_group_IT_number 2
_symmetry_cell_setting 'triclinic'
loop_
_space_group_symop_operation_xyz
x,y,z
-x,-y,-z
loop_
_atom_site_type_symbol
_atom_site_label
_atom_site_fract_x
_atom_site_fract_y
_atom_site_fract_z
Si Si1 0.940443 0.188812 0.307792
Si Si2 0.071479 0.382395 0.864647
Si Si3 0.429988 0.751738 0.945417
Si Si4 0.736193 0.607138 0.518408
Si Si5 0.379780 0.101045 0.190809
Si Si6 0.233756 0.778982 0.392295
Si Si7 0.984538 0.757617 0.219547
Si Si8 0.690013 0.027173 0.012654
O O1 0.704651 0.190651 0.267862
O O2 0.890340 0.201650 0.460729
O O3 0.186297 0.094294 0.367580
O O4 0.972707 0.291908 0.062362
O O5 0.195465 0.386752 0.674444
O O6 0.856096 0.490575 0.745601
O O7 0.315157 0.342496 0.980912
O O8 0.493814 0.828946 0.891718
O O9 0.249938 0.714753 0.150773
O O10 0.442660 0.667123 0.516134
O O11 0.886728 0.670112 0.436720
O O12 0.187853 0.161393 0.000383
O O13 0.591793 0.012545 0.217579
O O14 0.383576 0.852962 0.211578
O O15 0.028404 0.804452 0.269575
O O16 0.500000 0.000000 0.000000
O O17 0.000000 0.000000 0.000000
#
# Coordination Sequence:
#
# PCOD9058872 Si02
#       8
#     2   2   2   2   2   2   2   2
#     4  10  23  39  65  87 139 171 210 262 332 399
#     4  10  20  37  54  99 120 173 223 266 315 377
#     4  10  17  37  63  86 122 172 216 260 315 395
#     4  11  21  34  64  87 131 163 230 269 309 388
#     4  10  20  42  64  94 122 171 213 258 332 390
#     4  12  24  42  62  99 123 173 211 271 346 384
#     4  11  17  36  65  86 122 169 220 268 307 392
#     4  12  26  45  76 103 130 164 226 285 327 405
#
# _framework density 22.290196999999999
#
# number of rings (size 3 to 8) (size 9 to 14) (size 15 to 20)
#    0.000    1.250    7.500    0.750    1.750    4.000 
#    0.000    2.500    0.000    0.000    0.000    0.000 
#    0.000    0.000    0.000    0.000    0.000    0.000 
#
# Total GULP energy -89134.665494 kJ/mol
# GULP energy per Si atom -5570.916593 kJ/mol
# Density = 2.223946 g / cm^3
# Si number density = 22.290197 Si / 1000 Ang^3
#
#
#
# Elastic Constant Matrix: (Units=GPa)
#
#
# Indices 1 2 3 4 5 6 
#
# 1 123.2904 46.9982 29.6603 15.0062 18.8551 2.8622
# 2 46.9982 105.3750 29.4856 28.2932 18.4344 -8.6687
# 3 29.6603 29.4856 46.9947 29.1734 21.7649 10.5746
# 4 15.0062 28.2932 29.1734 36.1101 7.6011 1.7026
# 5 18.8551 18.4344 21.7649 7.6011 13.0947 0.4646
# 6 2.8622 -8.6687 10.5746 1.7026 0.4646 39.2650
#
#
#
# Elastic Compliance Matrix: (Units=1/GPa)
#
#
# Indices 1 2 3 4 5 6 
#
# 1 0.010515 -0.005906 -0.024905 0.014759 0.025870 0.003691
# 2 -0.005906 0.001639 -0.125143 0.063804 0.176109 0.029645
# 3 -0.024905 -0.125143 -1.107639 0.640429 1.673327 0.224919
# 4 0.014759 0.063804 0.640429 -0.333890 -0.976992 -0.133427
# 5 0.025870 0.176109 1.673327 -0.976992 -2.410791 -0.342764
# 6 0.003691 0.029645 0.224919 -0.133427 -0.342764 -0.018989
#
#
# Mechanical properties :
#
#
# Convention : Reuss Voigt Hill
#
# Bulk Modulus (GPa) = -0.71053 54.21648 26.75297
# Shear Modulus (GPa) = -1.24490 28.99503 13.87507
#
# Velocity S-wave (km/s) = -0.74814 3.61057 2.49765
# Velocity P-wave (km/s) = 1.03235 6.46200 4.51064
#
# Compressibility (1/GPa) = -1.40739232
#
# Stress axis : x y z
#
# Youngs Moduli (GPa) = 95.09948 609.95980 -0.90282
#
# Poissons Ratio (x) = 3.60242 -0.02248
# Poissons Ratio (y) = 0.56166 -0.11298
# Poissons Ratio (z) = 2.36845 76.33208
#
# Static dielectric constant tensor:
#      x y z
#    x 1.913240 -0.060780 0.017870 
#    y -0.060780 1.921690 0.000800 
#    z 0.017870 0.000800 1.845350 
# 
# From -- ./inp_files/141119.got.cif
#   From: 2010.05.17/outbox.cif.g08.bks.cpg/sg2_71_cif.got.tgz:141119.got - 2010.06.03 11:33:40.
