data_PCOD9058702
_publ_section_title
;
Structure prediction by ZEFSAII (Michael W. Deem and Ramdas Pophale) SiO2 
 PCOD9058702
Probable space group: P -1
;
_chemical_formula_sum "Si O2"
_cell_formula_units_Z 16
_cell_length_a 9.497078
_cell_length_b 16.869091
_cell_length_c 28.767348
_cell_angle_alpha 17.334937
_cell_angle_beta 33.827653
_cell_angle_gamma 43.601399
_cell_volume 695.536270
_symmetry_space_group_name_H-M "P -1"
_symmetry_group_IT_number 2
_symmetry_cell_setting 'triclinic'
loop_
_space_group_symop_operation_xyz
x,y,z
-x,-y,-z
loop_
_atom_site_type_symbol
_atom_site_label
_atom_site_fract_x
_atom_site_fract_y
_atom_site_fract_z
Si Si1 0.826440 0.839468 0.412643
Si Si2 0.935494 0.020982 0.176980
Si Si3 0.776327 0.639243 0.773570
Si Si4 0.227021 0.746909 0.193661
Si Si5 0.329802 0.901573 0.397369
Si Si6 0.222351 0.648299 0.720260
Si Si7 0.941367 0.289416 0.845077
Si Si8 0.842887 0.809720 0.796846
O O1 0.815555 0.552925 0.601949
O O2 0.520711 0.825342 0.515965
O O3 0.894908 0.868180 0.323596
O O4 0.070628 0.106836 0.221038
O O5 0.656445 0.060512 0.222277
O O6 0.976601 0.824518 0.235931
O O7 0.187307 0.341286 0.924199
O O8 0.790617 0.441412 0.835783
O O9 0.988318 0.585401 0.780401
O O10 0.806148 0.970852 0.596451
O O11 0.447049 0.469711 0.971230
O O12 0.211837 0.744804 0.143352
O O13 0.500000 0.000000 0.000000
O O14 0.245006 0.558022 0.614532
O O15 0.214182 0.956739 0.349436
O O16 0.116671 0.800425 0.703721
O O17 0.000000 0.000000 0.000000
#
# Coordination Sequence:
#
# PCOD9058702 Si02
#       8
#     2   2   2   2   2   2   2   2
#     4  12  27  45  71 107 147 200 244 301 376 446
#     4  12  25  45  76 102 143 199 249 298 372 442
#     4  11  23  46  80 110 149 191 251 306 380 441
#     4  12  28  49  67  98 154 198 239 308 373 437
#     4  11  23  48  75 107 146 195 245 315 372 437
#     4  11  22  47  71 108 152 186 240 311 366 439
#     4  12  28  45  76 112 142 195 256 308 365 446
#     4  11  23  45  73 108 145 192 242 313 373 438
#
# _framework density 23.003834000000001
#
# number of rings (size 3 to 8) (size 9 to 14) (size 15 to 20)
#    0.000    0.500    5.000    3.375    3.500    3.000 
#    2.250    0.000    0.000    0.000    0.000    0.000 
#    0.000    0.000    0.000    0.000    0.000    0.000 
#
# Total GULP energy -89216.546479 kJ/mol
# GULP energy per Si atom -5576.034155 kJ/mol
# Density = 2.295148 g / cm^3
# Si number density = 23.003834 Si / 1000 Ang^3
#
#
#
# Elastic Constant Matrix: (Units=GPa)
#
#
# Indices 1 2 3 4 5 6 
#
# 1 122.6267 39.4146 -22.4165 -50.7063 -5.1563 28.3953
# 2 39.4146 127.8909 35.7269 -6.3736 -1.4649 4.8773
# 3 -22.4165 35.7269 232.5737 49.9183 13.0512 -22.3588
# 4 -50.7063 -6.3736 49.9183 63.4519 -3.1333 -15.9925
# 5 -5.1563 -1.4649 13.0512 -3.1333 34.4645 -6.6232
# 6 28.3953 4.8773 -22.3588 -15.9925 -6.6232 41.4111
#
#
#
# Elastic Compliance Matrix: (Units=1/GPa)
#
#
# Indices 1 2 3 4 5 6 
#
# 1 0.015256 -0.003571 -0.001121 0.011357 0.002460 -0.005866
# 2 -0.003571 0.009356 -0.001674 -0.000486 0.000518 0.000338
# 3 -0.001121 -0.001674 0.005924 -0.005443 -0.002662 0.001636
# 4 0.011357 -0.000486 -0.005443 0.029904 0.006838 0.001973
# 5 0.002460 0.000518 -0.002662 0.006838 0.031911 0.004559
# 6 -0.005866 0.000338 0.001636 0.001973 0.004559 0.030505
#
#
# Mechanical properties :
#
#
# Convention : Reuss Voigt Hill
#
# Bulk Modulus (GPa) = 56.16282 65.39347 60.77815
# Shear Modulus (GPa) = 35.33050 56.55659 45.94355
#
# Velocity S-wave (km/s) = 3.92325 4.96378 4.47387
# Velocity P-wave (km/s) = 6.70746 7.83205 7.29147
#
# Compressibility (1/GPa) = 0.01780537
#
# Stress axis : x y z
#
# Youngs Moduli (GPa) = 65.54968 106.88408 168.81186
#
# Poissons Ratio (x) = 0.38164 0.18919
# Poissons Ratio (y) = 0.23405 0.28252
# Poissons Ratio (z) = 0.07346 0.17888
#
# Static dielectric constant tensor:
#      x y z
#    x 1.811360 0.007880 0.032470 
#    y 0.007880 1.939600 0.013700 
#    z 0.032470 0.013700 1.994250 
# 
# From -- ./inp_files/617284.got.cif
#   From: 2010.05.17/outbox.cif.g08.bks.cpg/sg2_309_cif.got.tgz:617284.got - 2010.06.03 11:33:40.
