data_PCOD9058894
_publ_section_title
;
Structure prediction by ZEFSAII (Michael W. Deem and Ramdas Pophale) SiO2 
 PCOD9058894
Probable space group: P -1
;
_chemical_formula_sum "Si O2"
_cell_formula_units_Z 14
_cell_length_a 15.867896
_cell_length_b 23.388749
_cell_length_c 7.294172
_cell_angle_alpha 127.451621
_cell_angle_beta 135.088239
_cell_angle_gamma 17.632192
_cell_volume 549.931279
_symmetry_space_group_name_H-M "P -1"
_symmetry_group_IT_number 2
_symmetry_cell_setting 'triclinic'
loop_
_space_group_symop_operation_xyz
x,y,z
-x,-y,-z
loop_
_atom_site_type_symbol
_atom_site_label
_atom_site_fract_x
_atom_site_fract_y
_atom_site_fract_z
Si Si1 0.026333 0.919897 0.179742
Si Si2 0.168307 0.504992 0.789810
Si Si3 0.871159 0.863178 0.310442
Si Si4 0.562976 0.672300 0.758056
Si Si5 0.606736 0.920987 0.712348
Si Si6 0.519747 0.212104 0.492802
Si Si7 0.637075 0.369209 0.109836
O O1 0.310722 0.752843 0.448681
O O2 0.150818 0.923342 0.279590
O O3 0.046425 0.845323 0.921318
O O4 0.683127 0.129165 0.151004
O O5 0.320043 0.347496 0.628455
O O6 0.389807 0.443113 0.916177
O O7 0.800273 0.737070 0.638201
O O8 0.214031 0.478547 0.027991
O O9 0.698922 0.909399 0.288301
O O10 0.648388 0.060562 0.355885
O O11 0.852009 0.838850 0.033359
O O12 0.228311 0.676179 0.580925
O O13 0.702293 0.629834 0.706472
O O14 0.500000 0.000000 0.500000
O O15 0.500000 0.500000 0.000000
#
# Coordination Sequence:
#
# PCOD9058894 Si02
#       7
#     2   2   2   2   2   2   2
#     4   8  18  36  59  95 142 154 193 268 330 372
#     4  11  23  41  69  96 132 163 210 269 330 371
#     4  11  25  45  69  91 128 180 214 257 331 381
#     4   9  18  35  62  93 130 165 195 260 323 380
#     4  11  28  49  62  88 135 179 218 263 315 386
#     4   9  20  38  65  97 124 161 213 266 311 385
#     4  11  23  38  66 102 131 162 216 269 314 390
#
# _framework density 25.457726000000001
#
# number of rings (size 3 to 8) (size 9 to 14) (size 15 to 20)
#    0.857    1.143    0.000    2.571    2.000    9.143 
#    0.000    1.429    0.000    0.000    0.000    0.000 
#    0.000    0.000    0.000    0.000    0.000    0.000 
#
# Total GULP energy -78290.382364 kJ/mol
# GULP energy per Si atom -5592.170169 kJ/mol
# Density = 2.539978 g / cm^3
# Si number density = 25.457726 Si / 1000 Ang^3
#
#
#
# Elastic Constant Matrix: (Units=GPa)
#
#
# Indices 1 2 3 4 5 6 
#
# 1 80.5078 17.6945 46.6802 -0.7603 -26.4669 16.9289
# 2 17.6945 80.1490 49.5299 14.9533 -7.7658 13.8069
# 3 46.6802 49.5299 127.2272 9.7714 -43.2550 18.1977
# 4 -0.7603 14.9533 9.7714 39.0217 5.4557 -7.5523
# 5 -26.4669 -7.7658 -43.2550 5.4557 45.7043 -6.5063
# 6 16.9289 13.8069 18.1977 -7.5523 -6.5063 42.0861
#
#
#
# Elastic Compliance Matrix: (Units=1/GPa)
#
#
# Indices 1 2 3 4 5 6 
#
# 1 0.017507 -0.000192 -0.003585 -0.000425 0.006114 -0.004560
# 2 -0.000192 0.018517 -0.007433 -0.005534 -0.003964 -0.004389
# 3 -0.003585 -0.007433 0.017068 -0.003725 0.012951 -0.002166
# 4 -0.000425 -0.005534 -0.003725 0.031255 -0.007293 0.008078
# 5 0.006114 -0.003964 0.012951 -0.007293 0.037552 -0.002262
# 6 -0.004560 -0.004389 -0.002166 0.008078 -0.002262 0.029071
#
#
# Mechanical properties :
#
#
# Convention : Reuss Voigt Hill
#
# Bulk Modulus (GPa) = 32.60410 57.29923 44.95167
# Shear Modulus (GPa) = 27.23093 36.96104 32.09599
#
# Velocity S-wave (km/s) = 3.27410 3.81446 3.55456
# Velocity P-wave (km/s) = 5.20845 6.47739 5.87727
#
# Compressibility (1/GPa) = 0.03067099
#
# Stress axis : x y z
#
# Youngs Moduli (GPa) = 57.12041 54.00406 58.58957
#
# Poissons Ratio (x) = 0.01039 0.21004
# Poissons Ratio (y) = 0.01099 0.43550
# Poissons Ratio (z) = 0.20477 0.40142
#
# Static dielectric constant tensor:
#      x y z
#    x 2.101600 0.006230 0.042840 
#    y 0.006230 1.949640 -0.003800 
#    z 0.042840 -0.003800 2.100790 
# 
# From -- ./inp_files/338319.got.cif
#   From: 2010.05.17/outbox.cif.g08.bks.cpg/sg2_170_cif.got.tgz:338319.got - 2010.06.03 11:33:40.
