data_PCOD9058270
_publ_section_title
;
Structure prediction by ZEFSAII (Michael W. Deem and Ramdas Pophale) SiO2 
 PCOD9058270
Probable space group: P -1
;
_chemical_formula_sum "Si O2"
_cell_formula_units_Z 14
_cell_length_a 13.077591
_cell_length_b 15.560755
_cell_length_c 9.518131
_cell_angle_alpha 127.956562
_cell_angle_beta 134.106319
_cell_angle_gamma 28.411184
_cell_volume 661.712831
_symmetry_space_group_name_H-M "P -1"
_symmetry_group_IT_number 2
_symmetry_cell_setting 'triclinic'
loop_
_space_group_symop_operation_xyz
x,y,z
-x,-y,-z
loop_
_atom_site_type_symbol
_atom_site_label
_atom_site_fract_x
_atom_site_fract_y
_atom_site_fract_z
Si Si1 0.804368 0.936442 0.868040
Si Si2 0.314935 0.620685 0.066015
Si Si3 0.835430 0.085203 0.290981
Si Si4 0.121975 0.306606 0.929438
Si Si5 0.486848 0.970083 0.736054
Si Si6 0.788722 0.062771 0.688809
Si Si7 0.379477 0.477702 0.277783
O O1 0.600998 0.972343 0.723597
O O2 0.778741 0.038241 0.819416
O O3 0.062807 0.730800 0.882797
O O4 0.827204 0.979069 0.086537
O O5 0.290607 0.763218 0.228674
O O6 0.384150 0.506928 0.149653
O O7 0.500000 0.500000 0.000000
O O8 0.565112 0.266805 0.260764
O O9 0.000000 0.000000 0.500000
O O10 0.953464 0.095578 0.299409
O O11 0.889731 0.373329 0.786326
O O12 0.285762 0.165647 0.816442
O O13 0.297779 0.188147 0.110966
O O14 0.000000 0.500000 0.000000
O O15 0.371554 0.928426 0.532193
O O16 0.500000 0.500000 0.500000
#
# Coordination Sequence:
#
# PCOD9058270 Si02
#       7
#     2   2   2   2   2   2   2
#     4  11  22  45  65  93 134 180 223 273 342 401
#     4  11  23  41  65  97 133 171 223 281 330 395
#     4  11  24  40  71  98 128 176 229 281 340 398
#     4  11  26  43  69 100 140 178 223 286 340 400
#     4  11  25  45  68  98 142 178 227 277 341 410
#     4  11  24  42  69  97 133 185 219 272 347 405
#     4  12  23  40  65 100 130 166 226 281 331 396
#
# _framework density 21.157214
#
# number of rings (size 3 to 8) (size 9 to 14) (size 15 to 20)
#    0.000    0.857    1.429    7.286    8.000    0.000 
#    0.000    0.714    0.000    0.000    0.000    0.000 
#    0.000    0.000    0.000    0.000    0.000    0.000 
#
# Total GULP energy -78191.461464 kJ/mol
# GULP energy per Si atom -5585.104390 kJ/mol
# Density = 2.110906 g / cm^3
# Si number density = 21.157214 Si / 1000 Ang^3
#
#
#
# Elastic Constant Matrix: (Units=GPa)
#
#
# Indices 1 2 3 4 5 6 
#
# 1 101.6242 28.9748 31.5683 -11.1603 13.3089 -24.4481
# 2 28.9748 116.6717 29.8188 -13.4326 3.0529 -26.1754
# 3 31.5683 29.8188 92.3166 -10.3962 16.0107 -9.5074
# 4 -11.1603 -13.4326 -10.3962 29.7523 -0.8774 2.6475
# 5 13.3089 3.0529 16.0107 -0.8774 38.5066 -8.9671
# 6 -24.4481 -26.1754 -9.5074 2.6475 -8.9671 42.2135
#
#
#
# Elastic Compliance Matrix: (Units=1/GPa)
#
#
# Indices 1 2 3 4 5 6 
#
# 1 0.012915 -0.000781 -0.002936 0.002900 -0.001770 0.005776
# 2 -0.000781 0.011141 -0.002678 0.003320 0.001988 0.006067
# 3 -0.002936 -0.002678 0.013648 0.002448 -0.004728 -0.001445
# 4 0.002900 0.003320 0.002448 0.036866 -0.001034 0.001758
# 5 -0.001770 0.001988 -0.004728 -0.001034 0.029648 0.005506
# 6 0.005776 0.006067 -0.001445 0.001758 0.005506 0.031530
#
#
# Mechanical properties :
#
#
# Convention : Reuss Voigt Hill
#
# Bulk Modulus (GPa) = 40.13644 54.59292 47.36468
# Shear Modulus (GPa) = 31.87941 36.77785 34.32863
#
# Velocity S-wave (km/s) = 3.88595 4.17383 4.03246
# Velocity P-wave (km/s) = 6.25666 7.00623 6.64203
#
# Compressibility (1/GPa) = 0.02491502
#
# Stress axis : x y z
#
# Youngs Moduli (GPa) = 77.43164 89.76143 73.27091
#
# Poissons Ratio (x) = 0.07010 0.21509
# Poissons Ratio (y) = 0.06047 0.19619
# Poissons Ratio (z) = 0.22731 0.24035
#
# Static dielectric constant tensor:
#      x y z
#    x 1.490240 -0.580910 0.225090 
#    y -0.580910 0.699890 0.449510 
#    z 0.225090 0.449510 1.605560 
# 
# From -- ./inp_files/188501.got.cif
#   From: 2010.05.17/outbox.cif.g08.bks.cpg/sg2_95_cif.got.tgz:188501.got - 2010.06.03 11:33:40.
