data_PCOD9058596
_publ_section_title
;
Structure prediction by ZEFSAII (Michael W. Deem and Ramdas Pophale) SiO2 
 PCOD9058596
Probable space group: P -1
;
_chemical_formula_sum "Si O2"
_cell_formula_units_Z 12
_cell_length_a 8.821876
_cell_length_b 7.405117
_cell_length_c 11.213662
_cell_angle_alpha 102.577233
_cell_angle_beta 127.071157
_cell_angle_gamma 105.627110
_cell_volume 489.182889
_symmetry_space_group_name_H-M "P -1"
_symmetry_group_IT_number 2
_symmetry_cell_setting 'triclinic'
loop_
_space_group_symop_operation_xyz
x,y,z
-x,-y,-z
loop_
_atom_site_type_symbol
_atom_site_label
_atom_site_fract_x
_atom_site_fract_y
_atom_site_fract_z
Si Si1 0.683127 0.363309 0.838249
Si Si2 0.188662 0.955753 0.546822
Si Si3 0.247609 0.368620 0.322262
Si Si4 0.590494 0.174608 0.176382
Si Si5 0.090585 0.476909 0.776404
Si Si6 0.803627 0.011044 0.846215
O O1 0.739690 0.546285 0.795162
O O2 0.424399 0.178170 0.676305
O O3 0.805052 0.227603 0.850331
O O4 0.772168 0.460836 0.025673
O O5 0.232247 0.846157 0.664891
O O6 0.086019 0.771638 0.369934
O O7 0.000000 0.000000 0.500000
O O8 0.500000 0.500000 0.500000
O O9 0.210029 0.131882 0.292655
O O10 0.054935 0.405630 0.285246
O O11 0.714638 0.412481 0.214015
O O12 0.397564 0.112994 0.172183
O O13 0.500000 0.000000 0.000000
O O14 0.000000 0.000000 0.000000
#
# Coordination Sequence:
#
# PCOD9058596 Si02
#       6
#     2   2   2   2   2   2
#     4  11  26  51  69 110 150 185 254 298 358 450
#     4  11  27  44  71 108 143 190 241 305 363 427
#     4  12  27  46  76 108 144 197 242 304 372 430
#     4  11  22  46  73 105 147 187 244 297 360 440
#     4  12  25  48  73 102 149 193 242 305 360 436
#     4  11  23  45  76 106 143 194 240 296 365 427
#
# _framework density 24.530704
#
# number of rings (size 3 to 8) (size 9 to 14) (size 15 to 20)
#    0.000    0.667    5.000    3.000    4.667    4.667 
#    0.000    0.000    0.000    0.000    0.000    0.000 
#    0.000    0.000    0.000    0.000    0.000    0.000 
#
# Total GULP energy -67012.515889 kJ/mol
# GULP energy per Si atom -5584.376324 kJ/mol
# Density = 2.447487 g / cm^3
# Si number density = 24.530704 Si / 1000 Ang^3
#
#
#
# Elastic Constant Matrix: (Units=GPa)
#
#
# Indices 1 2 3 4 5 6 
#
# 1 102.6736 48.7559 35.6096 -12.7465 14.8181 -4.2211
# 2 48.7559 141.3374 53.7680 -2.4231 -5.1711 2.0090
# 3 35.6096 53.7680 164.1974 5.6534 16.1568 -14.4594
# 4 -12.7465 -2.4231 5.6534 46.3169 -8.7487 5.2944
# 5 14.8181 -5.1711 16.1568 -8.7487 38.8803 4.3035
# 6 -4.2211 2.0090 -14.4594 5.2944 4.3035 51.2931
#
#
#
# Elastic Compliance Matrix: (Units=1/GPa)
#
#
# Indices 1 2 3 4 5 6 
#
# 1 0.013168 -0.004326 -0.000957 0.002486 -0.004761 0.001126
# 2 -0.004326 0.009907 -0.002967 0.000794 0.004605 -0.002049
# 3 -0.000957 -0.002967 0.008033 -0.002538 -0.004263 0.002922
# 4 0.002486 0.000794 -0.002538 0.024173 0.006044 -0.003544
# 5 -0.004761 0.004605 -0.004263 0.006044 0.031840 -0.005069
# 6 0.001126 -0.002049 0.002922 -0.003544 -0.005069 0.021283
#
#
# Mechanical properties :
#
#
# Convention : Reuss Voigt Hill
#
# Bulk Modulus (GPa) = 68.45144 76.05283 72.25213
# Shear Modulus (GPa) = 38.52844 45.30305 41.91574
#
# Velocity S-wave (km/s) = 3.96741 4.30209 4.13813
# Velocity P-wave (km/s) = 6.99657 7.46644 7.23532
#
# Compressibility (1/GPa) = 0.01460890
#
# Stress axis : x y z
#
# Youngs Moduli (GPa) = 75.94239 100.93427 124.47877
#
# Poissons Ratio (x) = 0.43663 0.11914
# Poissons Ratio (y) = 0.32852 0.36933
# Poissons Ratio (z) = 0.07268 0.29947
#
# Static dielectric constant tensor:
#      x y z
#    x 1.906270 0.020930 -0.087970 
#    y 0.020930 1.908740 0.071600 
#    z -0.087970 0.071600 2.056930 
# 
# From -- ./inp_files/160209.got.cif
#   From: 2010.05.17/outbox.cif.g08.bks.cpg/sg2_81_cif.got.tgz:160209.got - 2010.06.03 11:33:40.
