data_PCOD9058043
_publ_section_title
;
Structure prediction by ZEFSAII (Michael W. Deem and Ramdas Pophale) SiO2 
 PCOD9058043
Probable space group: P -1
;
_chemical_formula_sum "Si O2"
_cell_formula_units_Z 14
_cell_length_a 15.841303
_cell_length_b 10.783690
_cell_length_c 11.854111
_cell_angle_alpha 39.437549
_cell_angle_beta 28.070363
_cell_angle_gamma 34.110155
_cell_volume 527.631242
_symmetry_space_group_name_H-M "P -1"
_symmetry_group_IT_number 2
_symmetry_cell_setting 'triclinic'
loop_
_space_group_symop_operation_xyz
x,y,z
-x,-y,-z
loop_
_atom_site_type_symbol
_atom_site_label
_atom_site_fract_x
_atom_site_fract_y
_atom_site_fract_z
Si Si1 0.843497 0.254146 0.467268
Si Si2 0.396470 0.060287 0.203822
Si Si3 0.195851 0.849047 0.948966
Si Si4 0.472718 0.305765 0.517249
Si Si5 0.370201 0.398653 0.160957
Si Si6 0.036600 0.527160 0.634800
Si Si7 0.094394 0.224121 0.972230
O O1 0.606461 0.427332 0.585277
O O2 0.849721 0.377791 0.486084
O O3 0.000000 0.000000 0.500000
O O4 0.957962 0.264667 0.212656
O O5 0.485381 0.184130 0.094454
O O6 0.159741 0.252610 0.335183
O O7 0.415759 0.844763 0.398830
O O8 0.500000 0.000000 0.000000
O O9 0.389007 0.804550 0.677335
O O10 0.181754 0.979624 0.988066
O O11 0.215630 0.610943 0.118793
O O12 0.000000 0.000000 0.000000
O O13 0.274921 0.272585 0.761579
O O14 0.216765 0.368099 0.448449
O O15 0.500000 0.500000 0.000000
O O16 0.974901 0.392318 0.891329
#
# Coordination Sequence:
#
# PCOD9058043 Si02
#       7
#     2   2   2   2   2   2   2
#     4  11  24  44  70 103 137 179 233 294 348 407
#     4  12  25  44  69 102 137 178 228 285 343 412
#     4  12  25  42  65 101 141 180 227 288 344 403
#     4  11  24  43  69  98 133 185 233 278 345 421
#     4  12  25  44  69 100 137 183 231 283 340 405
#     4  11  23  43  69  98 136 183 229 278 341 413
#     4  11  22  44  69  96 135 184 233 282 339 417
#
# _framework density 26.533683
#
# number of rings (size 3 to 8) (size 9 to 14) (size 15 to 20)
#    0.000    0.571    0.000   10.286    0.000    3.429 
#    0.000    2.143    0.000    0.000    0.000    0.000 
#    0.000    0.000    0.000    0.000    0.000    0.000 
#
# Total GULP energy -78333.613092 kJ/mol
# GULP energy per Si atom -5595.258078 kJ/mol
# Density = 2.647329 g / cm^3
# Si number density = 26.533683 Si / 1000 Ang^3
#
#
#
# Elastic Constant Matrix: (Units=GPa)
#
#
# Indices 1 2 3 4 5 6 
#
# 1 114.1195 46.7162 26.0689 5.1817 16.5478 6.2463
# 2 46.7162 185.3994 30.4297 -6.3226 17.9259 -14.2887
# 3 26.0689 30.4297 107.3774 26.3535 35.1829 1.2061
# 4 5.1817 -6.3226 26.3535 51.1293 0.7712 19.7877
# 5 16.5478 17.9259 35.1829 0.7712 32.5355 5.0481
# 6 6.2463 -14.2887 1.2061 19.7877 5.0481 68.2288
#
#
#
# Elastic Compliance Matrix: (Units=1/GPa)
#
#
# Indices 1 2 3 4 5 6 
#
# 1 0.010396 -0.002302 -0.000737 -0.000507 -0.003048 -0.001048
# 2 -0.002302 0.006432 -0.001061 0.001065 -0.001464 0.001376
# 3 -0.000737 -0.001061 0.019073 -0.011229 -0.020059 0.004249
# 4 -0.000507 0.001065 -0.011229 0.028744 0.012497 -0.008793
# 5 -0.003048 -0.001464 -0.020059 0.012497 0.055638 -0.007414
# 6 -0.001048 0.001376 0.004249 -0.008793 -0.007414 0.018064
#
#
# Mechanical properties :
#
#
# Convention : Reuss Voigt Hill
#
# Bulk Modulus (GPa) = 36.09904 68.14731 52.12318
# Shear Modulus (GPa) = 32.09672 50.62418 41.36045
#
# Velocity S-wave (km/s) = 3.48179 4.37271 3.95244
# Velocity P-wave (km/s) = 5.45878 7.15774 6.36520
#
# Compressibility (1/GPa) = 0.02770156
#
# Stress axis : x y z
#
# Youngs Moduli (GPa) = 96.19371 155.47558 52.42980
#
# Poissons Ratio (x) = 0.35790 0.03863
# Poissons Ratio (y) = 0.22143 0.05562
# Poissons Ratio (z) = 0.07087 0.16494
#
# Static dielectric constant tensor:
#      x y z
#    x 2.210160 -0.042030 -0.052070 
#    y -0.042030 2.160790 -0.066520 
#    z -0.052070 -0.066520 2.083380 
# 
# From -- ./inp_files/463441.got.cif
#   From: 2010.05.17/outbox.cif.g08.bks.cpg/sg2_232_cif.got.tgz:463441.got - 2010.06.03 11:33:40.
