data_PCOD9058535
_publ_section_title
;
Structure prediction by ZEFSAII (Michael W. Deem and Ramdas Pophale) SiO2 
 PCOD9058535
Probable space group: P -1
;
_chemical_formula_sum "Si O2"
_cell_formula_units_Z 16
_cell_length_a 11.175283
_cell_length_b 8.416460
_cell_length_c 12.071737
_cell_angle_alpha 51.554012
_cell_angle_beta 65.777826
_cell_angle_gamma 46.458700
_cell_volume 644.277155
_symmetry_space_group_name_H-M "P -1"
_symmetry_group_IT_number 2
_symmetry_cell_setting 'triclinic'
loop_
_space_group_symop_operation_xyz
x,y,z
-x,-y,-z
loop_
_atom_site_type_symbol
_atom_site_label
_atom_site_fract_x
_atom_site_fract_y
_atom_site_fract_z
Si Si1 0.783198 0.963221 0.394640
Si Si2 0.038089 0.760011 0.022201
Si Si3 0.610754 0.407892 0.108274
Si Si4 0.086514 0.554282 0.727966
Si Si5 0.546484 0.774526 0.159288
Si Si6 0.425814 0.790603 0.426335
Si Si7 0.252528 0.438027 0.482791
Si Si8 0.910245 0.031084 0.739682
O O1 0.799780 0.706207 0.505290
O O2 0.945622 0.936296 0.315944
O O3 0.666366 0.141694 0.257973
O O4 0.723362 0.089517 0.483880
O O5 0.997084 0.588319 0.171433
O O6 0.226949 0.611877 0.976772
O O7 0.000000 0.000000 0.000000
O O8 0.919019 0.880931 0.908118
O O9 0.533735 0.594227 0.161801
O O10 0.500000 0.500000 0.000000
O O11 0.263357 0.392747 0.796175
O O12 0.136616 0.554269 0.584189
O O13 0.964717 0.836708 0.702766
O O14 0.425288 0.888972 0.262385
O O15 0.500000 0.000000 0.000000
O O16 0.500000 0.500000 0.500000
O O17 0.563007 0.776523 0.452827
O O18 0.242507 0.673640 0.336764
#
# Coordination Sequence:
#
# PCOD9058535 Si02
#       8
#     2   2   2   2   2   2   2   2
#     4  11  22  46  70 100 144 181 233 291 350 413
#     4  11  25  44  69 102 142 182 229 289 348 413
#     4  11  25  45  71 101 142 185 232 287 352 416
#     4  11  22  46  71 100 143 181 233 291 347 412
#     4  11  25  44  71 103 136 185 234 290 351 410
#     4  11  23  46  68  98 138 181 234 288 343 416
#     4  11  25  41  70 102 137 184 225 289 350 414
#     4  11  23  45  68  99 137 180 232 287 345 416
#
# _framework density 24.834032000000001
#
# number of rings (size 3 to 8) (size 9 to 14) (size 15 to 20)
#    0.000    1.000    3.750    3.750    5.250    2.000 
#    4.500    0.000    0.000    0.000    0.000    0.000 
#    0.000    0.000    0.000    0.000    0.000    0.000 
#
# Total GULP energy -89582.006549 kJ/mol
# GULP energy per Si atom -5598.875409 kJ/mol
# Density = 2.477751 g / cm^3
# Si number density = 24.834032 Si / 1000 Ang^3
#
#
#
# Elastic Constant Matrix: (Units=GPa)
#
#
# Indices 1 2 3 4 5 6 
#
# 1 93.7441 26.4685 35.3554 -4.0210 -2.2454 5.2570
# 2 26.4685 79.7715 9.0417 1.2627 -0.4190 10.2334
# 3 35.3554 9.0417 111.5509 -3.6918 10.7041 -20.9431
# 4 -4.0210 1.2627 -3.6918 41.7837 5.6734 -9.2104
# 5 -2.2454 -0.4190 10.7041 5.6734 49.7113 -0.2082
# 6 5.2570 10.2334 -20.9431 -9.2104 -0.2082 29.5819
#
#
#
# Elastic Compliance Matrix: (Units=1/GPa)
#
#
# Indices 1 2 3 4 5 6 
#
# 1 0.013924 -0.003338 -0.005300 -0.000411 0.001767 -0.005187
# 2 -0.003338 0.014638 -0.001418 -0.002325 0.000517 -0.006195
# 3 -0.005300 -0.001418 0.013518 0.003897 -0.003556 0.012191
# 4 -0.000411 -0.002325 0.003897 0.027532 -0.003968 0.012181
# 5 0.001767 0.000517 -0.003556 -0.003968 0.021402 -0.004095
# 6 -0.005187 -0.006195 0.012191 0.012181 -0.004095 0.049264
#
#
# Mechanical properties :
#
#
# Convention : Reuss Voigt Hill
#
# Bulk Modulus (GPa) = 45.51887 47.42194 46.47040
# Shear Modulus (GPa) = 29.81284 38.49543 34.15414
#
# Velocity S-wave (km/s) = 3.46856 3.94141 3.71252
# Velocity P-wave (km/s) = 5.86602 6.31268 6.09345
#
# Compressibility (1/GPa) = 0.02196891
#
# Stress axis : x y z
#
# Youngs Moduli (GPa) = 71.81740 68.31356 73.97443
#
# Poissons Ratio (x) = 0.22805 0.39204
# Poissons Ratio (y) = 0.23974 0.10490
# Poissons Ratio (z) = 0.38060 0.09688
#
# Static dielectric constant tensor:
#      x y z
#    x 2.061540 -0.061650 0.043220 
#    y -0.061650 2.052900 -0.088350 
#    z 0.043220 -0.088350 2.000650 
# 
# From -- ./inp_files/418885.got.cif
#   From: 2010.05.17/outbox.cif.g08.bks.cpg/sg2_210_cif.got.tgz:418885.got - 2010.06.03 11:33:40.
