data_PCOD9058149
_publ_section_title
;
Structure prediction by ZEFSAII (Michael W. Deem and Ramdas Pophale) SiO2 
 PCOD9058149
Probable space group: P -1
;
_chemical_formula_sum "Si O2"
_cell_formula_units_Z 16
_cell_length_a 8.862938
_cell_length_b 8.695545
_cell_length_c 12.134738
_cell_angle_alpha 119.578300
_cell_angle_beta 118.859593
_cell_angle_gamma 73.985620
_cell_volume 711.446462
_symmetry_space_group_name_H-M "P -1"
_symmetry_group_IT_number 2
_symmetry_cell_setting 'triclinic'
loop_
_space_group_symop_operation_xyz
x,y,z
-x,-y,-z
loop_
_atom_site_type_symbol
_atom_site_label
_atom_site_fract_x
_atom_site_fract_y
_atom_site_fract_z
Si Si1 0.131087 0.417164 0.925882
Si Si2 0.644175 0.255430 0.855254
Si Si3 0.526000 0.223975 0.318225
Si Si4 0.147926 0.091330 0.154612
Si Si5 0.255383 0.497132 0.587939
Si Si6 0.395475 0.095545 0.894911
Si Si7 0.513304 0.792948 0.447576
Si Si8 0.010174 0.529012 0.697507
O O1 0.237719 0.231892 0.921681
O O2 0.029059 0.414574 0.773703
O O3 0.264965 0.571245 0.013621
O O4 0.000000 0.500000 0.000000
O O5 0.516478 0.199995 0.888990
O O6 0.561612 0.289118 0.718556
O O7 0.773506 0.083592 0.817407
O O8 0.330218 0.169935 0.205163
O O9 0.571862 0.406618 0.344922
O O10 0.552151 0.239680 0.463786
O O11 0.652628 0.072044 0.255818
O O12 0.053244 0.269784 0.229213
O O13 0.000000 0.000000 0.000000
O O14 0.291853 0.288445 0.512227
O O15 0.116536 0.552867 0.465660
O O16 0.190078 0.536928 0.700093
O O17 0.500000 0.000000 0.000000
O O18 0.500000 0.000000 0.500000
#
# Coordination Sequence:
#
# PCOD9058149 Si02
#       8
#     2   2   2   2   2   2   2   2
#     4  12  29  45  71 106 146 190 242 306 365 429
#     4  11  25  44  74 101 141 194 237 305 352 437
#     4  11  26  44  76 104 139 192 244 298 348 446
#     4  11  22  44  72 104 144 189 237 296 370 421
#     4  11  26  44  75 104 140 194 237 299 359 440
#     4  11  27  46  71 105 143 189 248 294 365 434
#     4  12  22  44  73 103 139 178 248 287 360 428
#     4  11  25  46  71 102 151 184 241 296 378 420
#
# _framework density 22.489394999999998
#
# number of rings (size 3 to 8) (size 9 to 14) (size 15 to 20)
#    0.000    0.750    5.000    1.500    8.750    1.000 
#    0.000    0.625    0.000    0.000    0.000    0.000 
#    0.000    0.000    0.000    0.000    0.000    0.000 
#
# Total GULP energy -89248.119520 kJ/mol
# GULP energy per Si atom -5578.007470 kJ/mol
# Density = 2.243821 g / cm^3
# Si number density = 22.489395 Si / 1000 Ang^3
#
#
#
# Elastic Constant Matrix: (Units=GPa)
#
#
# Indices 1 2 3 4 5 6 
#
# 1 86.2852 59.9410 41.4016 -8.4022 -28.1234 -6.7235
# 2 59.9410 144.8382 32.9952 -10.3120 -22.2026 -29.5049
# 3 41.4016 32.9952 88.0272 -22.1832 -12.4567 0.9325
# 4 -8.4022 -10.3120 -22.1832 48.1960 1.9746 -5.6797
# 5 -28.1234 -22.2026 -12.4567 1.9746 41.9959 12.4209
# 6 -6.7235 -29.5049 0.9325 -5.6797 12.4209 36.6117
#
#
#
# Elastic Compliance Matrix: (Units=1/GPa)
#
#
# Indices 1 2 3 4 5 6 
#
# 1 0.023249 -0.007647 -0.006887 -0.001905 0.011303 -0.005848
# 2 -0.007647 0.011977 -0.000731 0.002052 -0.001824 0.009204
# 3 -0.006887 -0.000731 0.016406 0.006039 -0.000024 -0.001327
# 4 -0.001905 0.002052 0.006039 0.024305 -0.001109 0.005297
# 5 0.011303 -0.001824 -0.000024 -0.001109 0.033716 -0.011005
# 6 -0.005848 0.009204 -0.001327 0.005297 -0.011005 0.038246
#
#
# Mechanical properties :
#
#
# Convention : Reuss Voigt Hill
#
# Bulk Modulus (GPa) = 47.39063 65.31404 56.35233
# Shear Modulus (GPa) = 26.95967 37.68159 32.32063
#
# Velocity S-wave (km/s) = 3.46609 4.09776 3.79509
# Velocity P-wave (km/s) = 6.09397 7.17594 6.65697
#
# Compressibility (1/GPa) = 0.02110122
#
# Stress axis : x y z
#
# Youngs Moduli (GPa) = 43.01265 83.49495 60.95395
#
# Poissons Ratio (x) = 0.63847 0.41980
# Poissons Ratio (y) = 0.32891 0.04457
# Poissons Ratio (z) = 0.29623 0.06105
#
# Static dielectric constant tensor:
#      x y z
#    x 1.906540 -0.053250 0.001440 
#    y -0.053250 1.943990 -0.037190 
#    z 0.001440 -0.037190 1.946930 
# 
# From -- ./inp_files/383358.got.cif
#   From: 2010.05.17/outbox.cif.g08.bks.cpg/sg2_192_cif.got.tgz:383358.got - 2010.06.03 11:33:40.
