data_PCOD9058175
_publ_section_title
;
Structure prediction by ZEFSAII (Michael W. Deem and Ramdas Pophale) SiO2 
 PCOD9058175
Probable space group: P -1
;
_chemical_formula_sum "Si O2"
_cell_formula_units_Z 16
_cell_length_a 9.240113
_cell_length_b 8.923745
_cell_length_c 11.419154
_cell_angle_alpha 78.793732
_cell_angle_beta 64.290373
_cell_angle_gamma 115.017371
_cell_volume 681.523100
_symmetry_space_group_name_H-M "P -1"
_symmetry_group_IT_number 2
_symmetry_cell_setting 'triclinic'
loop_
_space_group_symop_operation_xyz
x,y,z
-x,-y,-z
loop_
_atom_site_type_symbol
_atom_site_label
_atom_site_fract_x
_atom_site_fract_y
_atom_site_fract_z
Si Si1 0.552464 0.637426 0.854304
Si Si2 0.199099 0.701721 0.408520
Si Si3 0.243418 0.591576 0.797632
Si Si4 0.075551 0.994318 0.783720
Si Si5 0.270751 0.967665 0.138687
Si Si6 0.483598 0.673456 0.469184
Si Si7 0.848614 0.199141 0.025990
Si Si8 0.034357 0.177942 0.392522
O O1 0.364934 0.552822 0.850594
O O2 0.731062 0.669965 0.706792
O O3 0.615671 0.834193 0.862968
O O4 0.500000 0.500000 0.000000
O O5 0.251946 0.813327 0.252862
O O6 0.365002 0.681007 0.401748
O O7 0.000000 0.500000 0.500000
O O8 0.129924 0.799359 0.504377
O O9 0.366002 0.667110 0.624896
O O10 0.234332 0.746618 0.845475
O O11 0.027810 0.401379 0.883617
O O12 0.296199 0.149060 0.646479
O O13 0.943954 0.073550 0.804849
O O14 0.070577 0.907211 0.922216
O O15 0.992124 0.841630 0.734381
O O16 0.310360 0.929120 0.998643
O O17 0.500000 0.500000 0.500000
O O18 0.000000 0.000000 0.500000
#
# Coordination Sequence:
#
# PCOD9058175 Si02
#       8
#     2   2   2   2   2   2   2   2
#     4  11  25  43  74 107 148 190 246 301 370 438
#     4  12  26  45  73 108 147 192 238 308 370 431
#     4  11  25  46  71 103 146 192 245 296 367 437
#     4  11  23  43  75 100 139 189 240 291 363 424
#     4  11  25  47  72 107 149 197 242 300 371 438
#     4  12  28  45  74 110 143 182 249 309 362 434
#     4  11  25  46  71 102 150 196 241 296 360 448
#     4  11  22  44  73 102 146 190 241 299 367 436
#
# _framework density 23.476825999999999
#
# number of rings (size 3 to 8) (size 9 to 14) (size 15 to 20)
#    0.000    0.750    2.500    5.625    3.500    5.500 
#    0.000    0.000    0.000    0.000    0.000    0.000 
#    0.000    0.000    0.000    0.000    0.000    0.000 
#
# Total GULP energy -89521.467907 kJ/mol
# GULP energy per Si atom -5595.091744 kJ/mol
# Density = 2.342339 g / cm^3
# Si number density = 23.476826 Si / 1000 Ang^3
#
#
#
# Elastic Constant Matrix: (Units=GPa)
#
#
# Indices 1 2 3 4 5 6 
#
# 1 95.7305 11.0407 21.9219 -3.7392 16.3223 -23.5102
# 2 11.0407 73.8387 26.2640 8.4219 5.7527 -2.8032
# 3 21.9219 26.2640 97.5960 -5.6224 12.9098 -11.3137
# 4 -3.7392 8.4219 -5.6224 39.4122 -0.9599 -0.8391
# 5 16.3223 5.7527 12.9098 -0.9599 57.5838 -0.0785
# 6 -23.5102 -2.8032 -11.3137 -0.8391 -0.0785 33.8808
#
#
#
# Elastic Compliance Matrix: (Units=1/GPa)
#
#
# Indices 1 2 3 4 5 6 
#
# 1 0.013728 -0.001194 -0.001165 0.001500 -0.003473 0.009067
# 2 -0.001194 0.015695 -0.004269 -0.004107 -0.000342 -0.001058
# 3 -0.001165 -0.004269 0.012421 0.002590 -0.001981 0.003046
# 4 0.001500 -0.004107 0.002590 0.026806 -0.000146 0.002230
# 5 -0.003473 -0.000342 -0.001981 -0.000146 0.018822 -0.003060
# 6 0.009067 -0.001058 0.003046 0.002230 -0.003060 0.036785
#
#
# Mechanical properties :
#
#
# Convention : Reuss Voigt Hill
#
# Bulk Modulus (GPa) = 34.98175 42.84651 38.91413
# Shear Modulus (GPa) = 34.00323 40.03793 37.02058
#
# Velocity S-wave (km/s) = 3.80988 4.13416 3.97533
# Velocity P-wave (km/s) = 5.85547 6.40925 6.13861
#
# Compressibility (1/GPa) = 0.02858633
#
# Stress axis : x y z
#
# Youngs Moduli (GPa) = 72.84275 63.71380 80.50705
#
# Poissons Ratio (x) = 0.07611 0.09381
# Poissons Ratio (y) = 0.08701 0.34372
# Poissons Ratio (z) = 0.08488 0.27202
#
# Static dielectric constant tensor:
#      x y z
#    x 1.832320 0.006450 -0.005180 
#    y 0.006450 1.970660 0.059960 
#    z -0.005180 0.059960 1.837970 
# 
# From -- ./inp_files/381663.got.cif
#   From: 2010.05.17/outbox.cif.g08.bks.cpg/sg2_191_cif.got.tgz:381663.got - 2010.06.03 11:33:40.
