data_PCOD9058901
_publ_section_title
;
Structure prediction by ZEFSAII (Michael W. Deem and Ramdas Pophale) SiO2 
 PCOD9058901
Probable space group: P -1
;
_chemical_formula_sum "Si O2"
_cell_formula_units_Z 16
_cell_length_a 11.324618
_cell_length_b 12.446969
_cell_length_c 11.374765
_cell_angle_alpha 77.916979
_cell_angle_beta 135.008378
_cell_angle_gamma 68.124320
_cell_volume 729.291658
_symmetry_space_group_name_H-M "P -1"
_symmetry_group_IT_number 2
_symmetry_cell_setting 'triclinic'
loop_
_space_group_symop_operation_xyz
x,y,z
-x,-y,-z
loop_
_atom_site_type_symbol
_atom_site_label
_atom_site_fract_x
_atom_site_fract_y
_atom_site_fract_z
Si Si1 0.197729 0.137322 0.274166
Si Si2 0.090570 0.939562 0.896106
Si Si3 0.464460 0.022480 0.108988
Si Si4 0.743136 0.089588 0.240421
Si Si5 0.160977 0.312876 0.423909
Si Si6 0.346273 0.475321 0.841085
Si Si7 0.962150 0.235314 0.832785
Si Si8 0.619791 0.566205 0.404546
O O1 0.119813 0.268144 0.284039
O O2 0.114108 0.055559 0.273087
O O3 0.500000 0.000000 0.500000
O O4 0.055050 0.222237 0.030352
O O5 0.185909 0.949721 0.839457
O O6 0.332533 0.754701 0.163196
O O7 0.981828 0.094034 0.860525
O O8 0.648076 0.033123 0.260465
O O9 0.581628 0.862493 0.297332
O O10 0.177304 0.178873 0.909956
O O11 0.500000 0.000000 0.000000
O O12 0.510617 0.288500 0.034713
O O13 0.000000 0.000000 0.500000
O O14 0.204023 0.421695 0.426626
O O15 0.931779 0.396194 0.329929
O O16 0.333899 0.482818 0.689497
O O17 0.500000 0.500000 0.000000
O O18 0.699267 0.418874 0.565386
#
# Coordination Sequence:
#
# PCOD9058901 Si02
#       8
#     2   2   2   2   2   2   2   2
#     4  12  26  48  72 100 140 193 242 290 351 414
#     4  11  24  48  69 102 144 180 237 298 350 420
#     4  12  20  39  67 101 134 177 229 276 353 413
#     4  11  23  38  67 104 138 181 225 285 356 422
#     4  12  23  44  67  99 150 184 229 297 344 419
#     4  11  23  40  63 103 145 181 228 294 354 416
#     4  12  25  44  75 102 139 194 234 289 350 425
#     4  11  24  45  70 106 140 184 235 287 364 417
#
# _framework density 21.939095999999999
#
# number of rings (size 3 to 8) (size 9 to 14) (size 15 to 20)
#    0.000    0.500    3.750    6.000    1.750    1.000 
#    0.000    0.000    0.000    0.000    0.000    0.000 
#    0.000    0.000    0.000    0.000    0.000    0.000 
#
# Total GULP energy -89474.139678 kJ/mol
# GULP energy per Si atom -5592.133730 kJ/mol
# Density = 2.188916 g / cm^3
# Si number density = 21.939096 Si / 1000 Ang^3
#
#
#
# Elastic Constant Matrix: (Units=GPa)
#
#
# Indices 1 2 3 4 5 6 
#
# 1 88.6801 49.3100 24.6978 -0.2185 17.1574 -6.5908
# 2 49.3100 150.5656 57.2267 15.4934 -8.3178 -12.4599
# 3 24.6978 57.2267 113.3387 -6.1074 -9.8612 -4.0993
# 4 -0.2185 15.4934 -6.1074 43.6831 6.7506 -0.9291
# 5 17.1574 -8.3178 -9.8612 6.7506 47.8129 11.3054
# 6 -6.5908 -12.4599 -4.0993 -0.9291 11.3054 38.0908
#
#
#
# Elastic Compliance Matrix: (Units=1/GPa)
#
#
# Indices 1 2 3 4 5 6 
#
# 1 0.016566 -0.005436 -0.001299 0.003210 -0.008447 0.003534
# 2 -0.005436 0.010801 -0.004202 -0.004953 0.003425 0.001003
# 3 -0.001299 -0.004202 0.011513 0.002778 0.001922 -0.000863
# 4 0.003210 -0.004953 0.002778 0.025928 -0.005452 0.001485
# 5 -0.008447 0.003425 0.001922 -0.005452 0.027716 -0.008493
# 6 0.003534 0.001003 -0.000863 0.001485 -0.008493 0.029657
#
#
# Mechanical properties :
#
#
# Convention : Reuss Voigt Hill
#
# Bulk Modulus (GPa) = 58.80192 68.33926 63.57059
# Shear Modulus (GPa) = 33.39505 40.67403 37.03454
#
# Velocity S-wave (km/s) = 3.90573 4.31043 4.11306
# Velocity P-wave (km/s) = 6.87024 7.48266 7.18298
#
# Compressibility (1/GPa) = 0.01700625
#
# Stress axis : x y z
#
# Youngs Moduli (GPa) = 60.36559 92.58667 86.85535
#
# Poissons Ratio (x) = 0.50329 0.11286
# Poissons Ratio (y) = 0.32814 0.36493
# Poissons Ratio (z) = 0.07844 0.38901
#
# Static dielectric constant tensor:
#      x y z
#    x 1.810970 0.022790 0.004650 
#    y 0.022790 1.880190 0.021840 
#    z 0.004650 0.021840 1.783770 
# 
# From -- ./inp_files/285873.got.cif
#   From: 2010.05.17/outbox.cif.g08.bks.cpg/sg2_143_cif.got.tgz:285873.got - 2010.06.03 11:33:40.
