data_PCOD9058976
_publ_section_title
;
Structure prediction by ZEFSAII (Michael W. Deem and Ramdas Pophale) SiO2 
 PCOD9058976
Probable space group: P -1
;
_chemical_formula_sum "Si O2"
_cell_formula_units_Z 15
_cell_length_a 17.258773
_cell_length_b 19.823561
_cell_length_c 8.087490
_cell_angle_alpha 44.723026
_cell_angle_beta 124.913703
_cell_angle_gamma 158.900266
_cell_volume 654.631872
_symmetry_space_group_name_H-M "P -1"
_symmetry_group_IT_number 2
_symmetry_cell_setting 'triclinic'
loop_
_space_group_symop_operation_xyz
x,y,z
-x,-y,-z
loop_
_atom_site_type_symbol
_atom_site_label
_atom_site_fract_x
_atom_site_fract_y
_atom_site_fract_z
Si Si1 0.847198 0.170334 0.060555
Si Si2 0.736325 0.910682 0.119717
Si Si3 0.510093 0.363271 0.187970
Si Si4 0.278524 0.267203 0.373699
Si Si5 0.974806 0.090163 0.786303
Si Si6 0.666077 0.317402 0.623796
Si Si7 0.761833 0.503126 0.763520
Si Si8 0.000000 0.500000 0.500000
O O1 0.051166 0.355841 0.120363
O O2 0.811895 0.035938 0.158900
O O3 0.599270 0.961136 0.201433
O O4 0.906723 0.304710 0.765011
O O5 0.672222 0.741868 0.379829
O O6 0.499449 0.739099 0.067700
O O7 0.940722 0.101116 0.907695
O O8 0.427392 0.346111 0.279950
O O9 0.266030 0.112734 0.244320
O O10 0.645197 0.394013 0.353071
O O11 0.647845 0.557466 0.888577
O O12 0.000000 0.000000 0.500000
O O13 0.166070 0.324056 0.512050
O O14 0.000000 0.000000 0.000000
O O15 0.755263 0.431794 0.714862
O O16 0.820514 0.378641 0.628417
#
# Coordination Sequence:
#
# PCOD9058976 Si02
#       8
#     2   2   2   2   2   2   2   1
#     4  11  25  50  74 103 137 183 233 299 356 420
#     4  11  25  44  67 104 144 183 243 282 343 424
#     4  11  24  42  67 101 148 187 234 290 338 420
#     4  11  23  39  68 102 141 195 232 282 344 410
#     4  12  25  40  66 107 144 193 238 279 341 421
#     4  11  25  50  71 107 144 180 240 294 354 425
#     4  11  24  46  75  98 141 190 227 290 356 411
#     4  12  28  46  82 104 138 182 232 304 372 414
#
# _framework density 22.913643
#
# number of rings (size 3 to 8) (size 9 to 14) (size 15 to 20)
#    0.000    0.800    4.000    2.800    7.467    3.733 
#    0.000    3.333    0.000    0.000    0.000    0.000 
#    0.000    0.000    0.000    0.000    0.000    0.000 
#
# Total GULP energy -83682.114263 kJ/mol
# GULP energy per Si atom -5578.807618 kJ/mol
# Density = 2.286149 g / cm^3
# Si number density = 22.913643 Si / 1000 Ang^3
#
#
#
# Elastic Constant Matrix: (Units=GPa)
#
#
# Indices 1 2 3 4 5 6 
#
# 1 93.6673 14.7937 -16.1107 -1.6529 2.5581 15.7188
# 2 14.7937 109.4190 -10.1730 -17.3474 -1.6246 -8.7255
# 3 -16.1107 -10.1730 95.8884 -28.8925 1.1564 2.3363
# 4 -1.6529 -17.3474 -28.8925 19.3926 -1.9794 -15.5213
# 5 2.5581 -1.6246 1.1564 -1.9794 21.3556 -6.7149
# 6 15.7188 -8.7255 2.3363 -15.5213 -6.7149 14.1647
#
#
#
# Elastic Compliance Matrix: (Units=1/GPa)
#
#
# Indices 1 2 3 4 5 6 
#
# 1 0.011231 0.001494 0.006142 0.013859 0.000643 0.002935
# 2 0.001494 0.004863 -0.003140 -0.014614 -0.006399 -0.017190
# 3 0.006142 -0.003140 0.009512 -0.007614 -0.009476 -0.023155
# 4 0.013859 -0.014614 -0.007614 -0.035138 -0.029373 -0.075553
# 5 0.000643 -0.006399 -0.009476 -0.029373 0.038734 -0.016916
# 6 0.002935 -0.017190 -0.023155 -0.075553 -0.016916 -0.030237
#
#
# Mechanical properties :
#
#
# Convention : Reuss Voigt Hill
#
# Bulk Modulus (GPa) = 28.90509 30.66610 29.78560
# Shear Modulus (GPa) = 3320.77997 31.68023 1676.23010
#
# Velocity S-wave (km/s) = 38.11043 3.72236 27.07638
# Velocity P-wave (km/s) = 44.14954 5.64686 31.47276
#
# Compressibility (1/GPa) = 0.03459598
#
# Stress axis : x y z
#
# Youngs Moduli (GPa) = 89.03884 205.65114 105.13278
#
# Poissons Ratio (x) = -0.30714 -0.64575
# Poissons Ratio (y) = -0.13298 0.33016
# Poissons Ratio (z) = -0.54689 0.64584
#
# Static dielectric constant tensor:
#      x y z
#    x 1.860850 -0.023080 -0.007780 
#    y -0.023080 1.876800 0.004910 
#    z -0.007780 0.004910 1.880190 
# 
# From -- ./inp_files/337521.got.cif
#   From: 2010.05.17/outbox.cif.g08.bks.cpg/sg2_169_cif.got.tgz:337521.got - 2010.06.03 11:33:40.
