data_PCOD9058071
_publ_section_title
;
Structure prediction by ZEFSAII (Michael W. Deem and Ramdas Pophale) SiO2 
 PCOD9058071
Probable space group: P -1
;
_chemical_formula_sum "Si O2"
_cell_formula_units_Z 16
_cell_length_a 11.999503
_cell_length_b 11.203904
_cell_length_c 14.593711
_cell_angle_alpha 120.318715
_cell_angle_beta 148.309443
_cell_angle_gamma 82.683456
_cell_volume 663.396253
_symmetry_space_group_name_H-M "P -1"
_symmetry_group_IT_number 2
_symmetry_cell_setting 'triclinic'
loop_
_space_group_symop_operation_xyz
x,y,z
-x,-y,-z
loop_
_atom_site_type_symbol
_atom_site_label
_atom_site_fract_x
_atom_site_fract_y
_atom_site_fract_z
Si Si1 0.189036 0.361154 0.837206
Si Si2 0.456124 0.581050 0.717216
Si Si3 0.590022 0.150343 0.433958
Si Si4 0.127937 0.685152 0.719111
Si Si5 0.682450 0.919197 0.501255
Si Si6 0.392768 0.237061 0.806036
Si Si7 0.326477 0.595670 0.270475
Si Si8 0.750551 0.973908 0.027233
O O1 0.157985 0.226440 0.688639
O O2 0.897903 0.277971 0.649338
O O3 0.405209 0.398482 0.080118
O O4 0.357119 0.554624 0.977662
O O5 0.611850 0.540287 0.743519
O O6 0.121275 0.406584 0.415099
O O7 0.505683 0.764581 0.808762
O O8 0.547705 0.279042 0.502256
O O9 0.594949 0.040098 0.476594
O O10 0.354213 0.017885 0.141390
O O11 0.000000 0.500000 0.500000
O O12 0.166295 0.862231 0.785048
O O13 0.436185 0.779212 0.007992
O O14 0.714405 0.891099 0.406045
O O15 0.467685 0.727527 0.330684
O O16 0.984125 0.014164 0.792703
O O17 0.000000 0.500000 0.000000
#
# Coordination Sequence:
#
# PCOD9058071 Si02
#       8
#     2   2   2   2   2   2   2   2
#     4  11  22  44  70 107 142 190 243 299 368 441
#     4  12  24  46  71 107 151 187 247 304 368 436
#     4  12  26  47  73 110 147 196 253 297 372 435
#     4  12  25  46  70 107 147 193 243 301 367 440
#     4  12  24  48  72 106 151 190 245 307 363 436
#     4  11  23  43  76 100 147 196 238 302 376 433
#     4  12  24  46  79 106 145 199 244 307 369 432
#     4  12  27  48  71 108 150 191 246 308 360 445
#
# _framework density 24.118314999999999
#
# number of rings (size 3 to 8) (size 9 to 14) (size 15 to 20)
#    0.000    0.250    7.500    1.125    1.750    2.000 
#    2.250    0.000    0.000    0.000    0.000    0.000 
#    0.000    0.000    0.000    0.000    0.000    0.000 
#
# Total GULP energy -89499.876930 kJ/mol
# GULP energy per Si atom -5593.742308 kJ/mol
# Density = 2.406342 g / cm^3
# Si number density = 24.118315 Si / 1000 Ang^3
#
#
#
# Elastic Constant Matrix: (Units=GPa)
#
#
# Indices 1 2 3 4 5 6 
#
# 1 97.3193 16.7155 10.7772 10.9824 -8.7096 -23.6610
# 2 16.7155 121.0649 14.0767 13.0564 -4.3464 -18.6252
# 3 10.7772 14.0767 69.0384 -7.3746 -1.1269 -3.3556
# 4 10.9824 13.0564 -7.3746 43.2103 -0.7133 -7.2012
# 5 -8.7096 -4.3464 -1.1269 -0.7133 28.9925 12.5418
# 6 -23.6610 -18.6252 -3.3556 -7.2012 12.5418 40.4735
#
#
#
# Elastic Compliance Matrix: (Units=1/GPa)
#
#
# Indices 1 2 3 4 5 6 
#
# 1 0.012388 -0.000250 -0.001810 -0.002317 0.000828 0.006308
# 2 -0.000250 0.009341 -0.001960 -0.002488 -0.000400 0.003671
# 3 -0.001810 -0.001960 0.015563 0.003712 -0.000159 0.000040
# 4 -0.002317 -0.002488 0.003712 0.025563 -0.001519 0.002827
# 5 0.000828 -0.000400 -0.000159 -0.001519 0.039990 -0.012376
# 6 0.006308 0.003671 0.000040 0.002827 -0.012376 0.034426
#
#
# Mechanical properties :
#
#
# Convention : Reuss Voigt Hill
#
# Bulk Modulus (GPa) = 34.18479 41.17348 37.67914
# Shear Modulus (GPa) = 32.24521 38.92548 35.58534
#
# Velocity S-wave (km/s) = 3.66041 4.02174 3.84532
# Velocity P-wave (km/s) = 5.66298 6.21888 5.94743
#
# Compressibility (1/GPa) = 0.02925277
#
# Stress axis : x y z
#
# Youngs Moduli (GPa) = 80.72236 107.05293 64.25616
#
# Poissons Ratio (x) = 0.02675 0.11632
# Poissons Ratio (y) = 0.02017 0.12591
# Poissons Ratio (z) = 0.14613 0.20977
#
# Static dielectric constant tensor:
#      x y z
#    x 1.956980 -0.018590 -0.027340 
#    y -0.018590 1.998030 0.032960 
#    z -0.027340 0.032960 1.979660 
# 
# From -- ./inp_files/519888.got.cif
#   From: 2010.05.17/outbox.cif.g08.bks.cpg/sg2_260_cif.got.tgz:519888.got - 2010.06.03 11:33:40.
