data_PCOD9058868
_publ_section_title
;
Structure prediction by ZEFSAII (Michael W. Deem and Ramdas Pophale) SiO2 
 PCOD9058868
Probable space group: P -1
;
_chemical_formula_sum "Si O2"
_cell_formula_units_Z 16
_cell_length_a 9.402297
_cell_length_b 9.055342
_cell_length_c 12.246351
_cell_angle_alpha 114.049829
_cell_angle_beta 106.435295
_cell_angle_gamma 60.975109
_cell_volume 827.819091
_symmetry_space_group_name_H-M "P -1"
_symmetry_group_IT_number 2
_symmetry_cell_setting 'triclinic'
loop_
_space_group_symop_operation_xyz
x,y,z
-x,-y,-z
loop_
_atom_site_type_symbol
_atom_site_label
_atom_site_fract_x
_atom_site_fract_y
_atom_site_fract_z
Si Si1 0.631005 0.080805 0.574012
Si Si2 0.032093 0.815133 0.890046
Si Si3 0.416198 0.616906 0.176698
Si Si4 0.169240 0.500382 0.998085
Si Si5 0.462327 0.701827 0.586161
Si Si6 0.496472 0.827049 0.074081
Si Si7 0.707458 0.857185 0.721482
Si Si8 0.665238 0.231817 0.177835
O O1 0.573437 0.256569 0.688428
O O2 0.653624 0.152988 0.483278
O O3 0.500000 0.000000 0.500000
O O4 0.748365 0.936335 0.642412
O O5 0.125749 0.641265 0.932281
O O6 0.146202 0.818131 0.816040
O O7 0.865399 0.806411 0.814655
O O8 0.000000 0.000000 0.000000
O O9 0.427572 0.705108 0.091329
O O10 0.565951 0.430232 0.170469
O O11 0.255667 0.578000 0.129418
O O12 0.311582 0.303245 0.940697
O O13 0.000000 0.500000 0.000000
O O14 0.500000 0.500000 0.500000
O O15 0.636626 0.715719 0.632746
O O16 0.382792 0.757059 0.704073
O O17 0.440817 0.994002 0.194553
O O18 0.402365 0.876555 0.952025
#
# Coordination Sequence:
#
# PCOD9058868 Si02
#       8
#     2   2   2   2   2   2   2   2
#     4   9  19  39  63  85 113 162 217 244 289 356
#     4  12  22  40  59  97 131 154 198 255 323 363
#     4  10  17  37  63  86 122 160 201 239 300 373
#     4  11  23  34  59  95 130 157 191 249 313 376
#     4  11  23  39  63  91 119 165 216 249 293 363
#     4  10  19  40  61  91 122 165 203 236 318 378
#     4  10  23  39  66  91 122 161 204 260 302 365
#     4  11  20  35  62  90 124 160 196 253 303 367
#
# _framework density 19.327894000000001
#
# number of rings (size 3 to 8) (size 9 to 14) (size 15 to 20)
#    0.000    1.500    5.000    1.500    3.500    1.500 
#    0.000    1.250    0.000    3.000    0.000    0.000 
#    0.000    0.000    0.000    0.000    0.000    0.000 
#
# Total GULP energy -89116.671342 kJ/mol
# GULP energy per Si atom -5569.791959 kJ/mol
# Density = 1.928390 g / cm^3
# Si number density = 19.327894 Si / 1000 Ang^3
#
#
#
# Elastic Constant Matrix: (Units=GPa)
#
#
# Indices 1 2 3 4 5 6 
#
# 1 117.4595 30.6431 39.8806 8.6258 3.1739 0.6247
# 2 30.6431 65.6621 43.0664 3.9452 4.2580 8.1351
# 3 39.8806 43.0664 120.2554 -6.3037 -3.9458 9.3028
# 4 8.6258 3.9452 -6.3037 26.9642 19.0039 6.0131
# 5 3.1739 4.2580 -3.9458 19.0039 36.5353 -11.3172
# 6 0.6247 8.1351 9.3028 6.0131 -11.3172 23.9163
#
#
#
# Elastic Compliance Matrix: (Units=1/GPa)
#
#
# Indices 1 2 3 4 5 6 
#
# 1 0.011240 -0.003985 -0.003309 -0.011101 0.007613 0.008743
# 2 -0.003985 0.022617 -0.005935 0.005561 -0.009247 -0.011055
# 3 -0.003309 -0.005935 0.012556 0.010853 -0.005877 -0.008288
# 4 -0.011101 0.005561 0.010853 0.116878 -0.082272 -0.074140
# 5 0.007613 -0.009247 -0.005877 -0.082272 0.091367 0.069153
# 6 0.008743 -0.011055 -0.008288 -0.074140 0.069153 0.099932
#
#
# Mechanical properties :
#
#
# Convention : Reuss Voigt Hill
#
# Bulk Modulus (GPa) = 50.11310 58.95082 54.53196
# Shear Modulus (GPa) = 12.89665 30.13563 21.51614
#
# Velocity S-wave (km/s) = 2.58593 3.95293 3.34011
# Velocity P-wave (km/s) = 5.90764 7.16943 6.56890
#
# Compressibility (1/GPa) = 0.01995486
#
# Stress axis : x y z
#
# Youngs Moduli (GPa) = 88.97098 44.21471 79.64609
#
# Poissons Ratio (x) = 0.17620 0.26353
# Poissons Ratio (y) = 0.35455 0.47269
# Poissons Ratio (z) = 0.29438 0.26241
#
# Static dielectric constant tensor:
#      x y z
#    x 1.635800 0.093950 0.038780 
#    y 0.093950 1.640740 -0.056800 
#    z 0.038780 -0.056800 1.700300 
# 
# From -- ./inp_files/380068.got.cif
#   From: 2010.05.17/outbox.cif.g08.bks.cpg/sg2_191_cif.got.tgz:380068.got - 2010.06.03 11:33:40.
