data_PCOD9058845
_publ_section_title
;
Structure prediction by ZEFSAII (Michael W. Deem and Ramdas Pophale) SiO2 
 PCOD9058845
Probable space group: P -1
;
_chemical_formula_sum "Si O2"
_cell_formula_units_Z 14
_cell_length_a 10.071913
_cell_length_b 22.194696
_cell_length_c 7.797113
_cell_angle_alpha 49.472593
_cell_angle_beta 100.542859
_cell_angle_gamma 141.022021
_cell_volume 615.727901
_symmetry_space_group_name_H-M "P -1"
_symmetry_group_IT_number 2
_symmetry_cell_setting 'triclinic'
loop_
_space_group_symop_operation_xyz
x,y,z
-x,-y,-z
loop_
_atom_site_type_symbol
_atom_site_label
_atom_site_fract_x
_atom_site_fract_y
_atom_site_fract_z
Si Si1 0.716175 0.095956 0.213997
Si Si2 0.630952 0.539939 0.633687
Si Si3 0.826431 0.596239 0.032660
Si Si4 0.906323 0.020297 0.812837
Si Si5 0.486125 0.670136 0.789234
Si Si6 0.806746 0.137515 0.685919
Si Si7 0.733999 0.922162 0.598281
O O1 0.808528 0.051616 0.333866
O O2 0.508996 0.995379 0.186294
O O3 0.500000 0.000000 0.500000
O O4 0.968591 0.287935 0.967557
O O5 0.500000 0.500000 0.500000
O O6 0.464961 0.510046 0.786388
O O7 0.971186 0.726509 0.364327
O O8 0.570703 0.419696 0.902099
O O9 0.736313 0.466581 0.162319
O O10 0.000214 0.731322 0.673754
O O11 0.203610 0.191867 0.468477
O O12 0.797387 0.038305 0.858695
O O13 0.676344 0.886326 0.854960
O O14 0.000000 0.000000 0.000000
O O15 0.505785 0.767713 0.696361
O O16 0.000000 0.000000 0.500000
#
# Coordination Sequence:
#
# PCOD9058845 Si02
#       7
#     2   2   2   2   2   2   2
#     4  10  19  37  66  88 122 166 206 249 313 371
#     4  11  21  35  63  91 123 161 212 255 299 368
#     4  10  17  37  63  85 119 162 202 252 305 363
#     4  11  20  34  61  89 124 158 206 252 304 364
#     4  10  20  36  57  89 121 155 203 257 298 353
#     4  10  19  38  61  91 119 164 207 252 306 369
#     4  10  20  35  58  92 123 159 206 250 302 364
#
# _framework density 22.737316
#
# number of rings (size 3 to 8) (size 9 to 14) (size 15 to 20)
#    0.000    1.714    5.714    1.714    2.000    0.000 
#    0.000    7.143    0.000    0.857    0.000    0.000 
#    0.000    0.000    0.000    0.000    0.000    0.000 
#
# Total GULP energy -78042.916131 kJ/mol
# GULP energy per Si atom -5574.494009 kJ/mol
# Density = 2.268557 g / cm^3
# Si number density = 22.737316 Si / 1000 Ang^3
#
#
#
# Elastic Constant Matrix: (Units=GPa)
#
#
# Indices 1 2 3 4 5 6 
#
# 1 48.0818 27.4482 26.2880 -13.2625 16.9314 8.5552
# 2 27.4482 214.4383 44.3926 -13.2442 12.1665 -5.2188
# 3 26.2880 44.3926 47.4282 -15.7790 1.5750 4.1201
# 4 -13.2625 -13.2442 -15.7790 38.2034 6.2242 3.2339
# 5 16.9314 12.1665 1.5750 6.2242 35.9413 -13.7815
# 6 8.5552 -5.2188 4.1201 3.2339 -13.7815 43.9588
#
#
#
# Elastic Compliance Matrix: (Units=1/GPa)
#
#
# Indices 1 2 3 4 5 6 
#
# 1 0.052620 0.000057 -0.020574 0.017179 -0.034725 -0.020456
# 2 0.000057 0.005915 -0.005608 -0.000068 -0.001481 0.000757
# 3 -0.020574 -0.005608 0.038916 0.005166 0.009918 0.002420
# 4 0.017179 -0.000068 0.005166 0.038591 -0.019935 -0.012924
# 5 -0.034725 -0.001481 0.009918 -0.019935 0.057321 0.025090
# 6 -0.020456 0.000757 0.002420 -0.012924 0.025090 0.035409
#
#
# Mechanical properties :
#
#
# Convention : Reuss Voigt Hill
#
# Bulk Modulus (GPa) = 22.12275 56.24510 39.18392
# Shear Modulus (GPa) = 16.88685 37.74199 27.31442
#
# Velocity S-wave (km/s) = 2.72820 4.07862 3.46974
# Velocity P-wave (km/s) = 4.43564 6.85353 5.77260
#
# Compressibility (1/GPa) = 0.04520234
#
# Stress axis : x y z
#
# Youngs Moduli (GPa) = 19.00425 169.05735 25.69663
#
# Poissons Ratio (x) = -0.00965 0.52867
# Poissons Ratio (y) = -0.00108 0.14410
# Poissons Ratio (z) = 0.39099 0.94800
#
# Static dielectric constant tensor:
#      x y z
#    x 1.880840 -0.133010 -0.070250 
#    y -0.133010 2.154610 0.020020 
#    z -0.070250 0.020020 1.904880 
# 
# From -- ./inp_files/185235.got.cif
#   From: 2010.05.17/outbox.cif.g08.bks.cpg/sg2_93_cif.got.tgz:185235.got - 2010.06.03 11:33:40.
