data_PCOD9058480
_publ_section_title
;
Structure prediction by ZEFSAII (Michael W. Deem and Ramdas Pophale) SiO2 
 PCOD9058480
Probable space group: P -1
;
_chemical_formula_sum "Si O2"
_cell_formula_units_Z 16
_cell_length_a 14.543059
_cell_length_b 5.641521
_cell_length_c 8.548156
_cell_angle_alpha 102.023613
_cell_angle_beta 86.768065
_cell_angle_gamma 108.872070
_cell_volume 649.027023
_symmetry_space_group_name_H-M "P -1"
_symmetry_group_IT_number 2
_symmetry_cell_setting 'triclinic'
loop_
_space_group_symop_operation_xyz
x,y,z
-x,-y,-z
loop_
_atom_site_type_symbol
_atom_site_label
_atom_site_fract_x
_atom_site_fract_y
_atom_site_fract_z
Si Si1 0.103770 0.835322 0.318410
Si Si2 0.670877 0.660040 0.029785
Si Si3 0.252174 0.575589 0.283686
Si Si4 0.896764 0.643653 0.191427
Si Si5 0.143103 0.944425 0.969302
Si Si6 0.249934 0.267553 0.553945
Si Si7 0.416417 0.079497 0.433679
Si Si8 0.504222 0.256963 0.130445
O O1 0.145597 0.600456 0.299324
O O2 0.988650 0.747541 0.311997
O O3 0.160185 0.020284 0.475505
O O4 0.138836 0.961866 0.161199
O O5 0.611213 0.455135 0.130766
O O6 0.745217 0.942439 0.089549
O O7 0.735027 0.540610 0.898769
O O8 0.582056 0.668498 0.931769
O O9 0.270075 0.436160 0.418042
O O10 0.336158 0.848098 0.321212
O O11 0.896432 0.361566 0.099221
O O12 0.796593 0.614230 0.287795
O O13 0.906370 0.869237 0.092214
O O14 0.346754 0.189563 0.560267
O O15 0.475551 0.249678 0.312225
O O16 0.500000 0.000000 0.500000
O O17 0.500000 0.000000 0.000000
#
# Coordination Sequence:
#
# PCOD9058480 Si02
#       8
#     2   2   2   2   2   2   2   2
#     4  11  25  48  80 106 148 203 254 303 369 461
#     4  11  23  44  71 105 140 197 254 305 364 449
#     4  11  22  45  76 103 146 202 252 303 371 451
#     4  12  30  47  75 120 154 195 252 315 381 441
#     4  12  27  48  76 112 158 194 245 321 382 428
#     4  11  26  49  75 104 152 206 248 305 379 456
#     4  11  25  45  69 108 151 193 242 312 385 441
#     4  11  23  41  72 102 138 189 261 302 362 446
#
# _framework density 24.652284999999999
#
# number of rings (size 3 to 8) (size 9 to 14) (size 15 to 20)
#    0.000    0.750    3.750    2.625    7.000    3.000 
#    0.000    0.000    0.000    0.000    0.000    0.000 
#    0.000    0.000    0.000    0.000    0.000    0.000 
#
# Total GULP energy -89454.102378 kJ/mol
# GULP energy per Si atom -5590.881399 kJ/mol
# Density = 2.459618 g / cm^3
# Si number density = 24.652285 Si / 1000 Ang^3
#
#
#
# Elastic Constant Matrix: (Units=GPa)
#
#
# Indices 1 2 3 4 5 6 
#
# 1 173.7149 33.7416 19.5145 -3.7128 12.0734 -0.2233
# 2 33.7416 92.0888 18.5267 9.2181 -6.2095 4.2010
# 3 19.5145 18.5267 45.1603 19.3998 -6.5343 -0.4815
# 4 -3.7128 9.2181 19.3998 27.8674 0.4608 -6.2129
# 5 12.0734 -6.2095 -6.5343 0.4608 39.6458 -5.6731
# 6 -0.2233 4.2010 -0.4815 -6.2129 -5.6731 43.9566
#
#
#
# Elastic Compliance Matrix: (Units=1/GPa)
#
#
# Indices 1 2 3 4 5 6 
#
# 1 0.007112 -0.002411 -0.004827 0.005279 -0.003324 0.000531
# 2 -0.002411 0.012781 -0.002568 -0.003114 0.002145 -0.001425
# 3 -0.004827 -0.002568 0.037789 -0.026711 0.007292 -0.002199
# 4 0.005279 -0.003114 -0.026711 0.057972 -0.006107 0.007438
# 5 -0.003324 0.002145 0.007292 -0.006107 0.028222 0.002637
# 6 0.000531 -0.001425 -0.002199 0.007438 0.002637 0.024256
#
#
# Mechanical properties :
#
#
# Convention : Reuss Voigt Hill
#
# Bulk Modulus (GPa) = 26.26848 50.50327 38.38588
# Shear Modulus (GPa) = 24.94604 38.23937 31.59271
#
# Velocity S-wave (km/s) = 3.18451 3.94274 3.58373
# Velocity P-wave (km/s) = 4.91937 6.42321 5.72092
#
# Compressibility (1/GPa) = 0.03806844
#
# Stress axis : x y z
#
# Youngs Moduli (GPa) = 140.61302 78.24286 26.46304
#
# Poissons Ratio (x) = 0.18868 0.12773
# Poissons Ratio (y) = 0.33908 0.06796
# Poissons Ratio (z) = 0.67870 0.20094
#
# Static dielectric constant tensor:
#      x y z
#    x 1.849140 -0.053340 0.068490 
#    y -0.053340 2.033330 0.014330 
#    z 0.068490 0.014330 1.948910 
# 
# From -- ./inp_files/289039.got.cif
#   From: 2010.05.17/outbox.cif.g08.bks.cpg/sg2_145_cif.got.tgz:289039.got - 2010.06.03 11:33:40.
