data_PCOD9058704
_publ_section_title
;
Structure prediction by ZEFSAII (Michael W. Deem and Ramdas Pophale) SiO2 
 PCOD9058704
Probable space group: P -1
;
_chemical_formula_sum "Si O2"
_cell_formula_units_Z 14
_cell_length_a 21.716463
_cell_length_b 9.131559
_cell_length_c 10.030765
_cell_angle_alpha 84.479309
_cell_angle_beta 39.943325
_cell_angle_gamma 52.890183
_cell_volume 711.453592
_symmetry_space_group_name_H-M "P -1"
_symmetry_group_IT_number 2
_symmetry_cell_setting 'triclinic'
loop_
_space_group_symop_operation_xyz
x,y,z
-x,-y,-z
loop_
_atom_site_type_symbol
_atom_site_label
_atom_site_fract_x
_atom_site_fract_y
_atom_site_fract_z
Si Si1 0.249354 0.546128 0.402054
Si Si2 0.583242 0.554660 0.361418
Si Si3 0.972290 0.095554 0.687182
Si Si4 0.867916 0.624757 0.322631
Si Si5 0.084956 0.280948 0.482290
Si Si6 0.529812 0.174542 0.192202
Si Si7 0.490276 0.147330 0.793420
O O1 0.143579 0.536019 0.622379
O O2 0.389497 0.400644 0.295641
O O3 0.352154 0.370891 0.113190
O O4 0.121724 0.839437 0.553644
O O5 0.500000 0.500000 0.500000
O O6 0.530976 0.697933 0.573439
O O7 0.520953 0.733724 0.325693
O O8 0.787620 0.282837 0.030807
O O9 0.984723 0.255419 0.650675
O O10 0.000000 0.000000 0.500000
O O11 0.916241 0.642419 0.378008
O O12 0.677145 0.915313 0.570504
O O13 0.000000 0.500000 0.000000
O O14 0.000000 0.500000 0.500000
O O15 0.282435 0.002667 0.137696
O O16 0.541826 0.981826 0.180295
#
# Coordination Sequence:
#
# PCOD9058704 Si02
#       7
#     2   2   2   2   2   2   2
#     4  11  23  47  70  96 141 176 220 276 336 405
#     4  12  28  44  67  98 137 178 224 280 337 393
#     4  12  26  44  68  99 135 178 224 276 336 396
#     4  11  25  42  70 103 131 177 227 277 331 394
#     4  12  25  43  71 100 136 176 226 273 333 404
#     4  11  24  45  68 101 134 177 224 274 336 395
#     4  11  22  47  71  95 137 180 221 272 334 404
#
# _framework density 19.678023
#
# number of rings (size 3 to 8) (size 9 to 14) (size 15 to 20)
#    0.000    0.571    4.286    3.857    8.000    2.286 
#    0.000    0.000    0.000    0.000    0.000    0.000 
#    0.000    0.000    0.000    0.000    0.000    0.000 
#
# Total GULP energy -78388.079345 kJ/mol
# GULP energy per Si atom -5599.148525 kJ/mol
# Density = 1.963324 g / cm^3
# Si number density = 19.678023 Si / 1000 Ang^3
#
#
#
# Elastic Constant Matrix: (Units=GPa)
#
#
# Indices 1 2 3 4 5 6 
#
# 1 103.8806 34.5473 48.9590 -11.3085 5.4759 -10.7236
# 2 34.5473 131.2309 33.3899 -0.8956 -8.3526 -15.3842
# 3 48.9590 33.3899 138.4799 -18.9045 -0.8290 4.0754
# 4 -11.3085 -0.8956 -18.9045 24.6315 -3.8166 3.6146
# 5 5.4759 -8.3526 -0.8290 -3.8166 40.8071 -12.0308
# 6 -10.7236 -15.3842 4.0754 3.6146 -12.0308 22.9562
#
#
#
# Elastic Compliance Matrix: (Units=1/GPa)
#
#
# Indices 1 2 3 4 5 6 
#
# 1 0.012859 -0.001819 -0.003986 0.001975 -0.000551 0.004896
# 2 -0.001819 0.010088 -0.002440 -0.002973 0.004719 0.009286
# 3 -0.003986 -0.002440 0.010358 0.006881 -0.001187 -0.007041
# 4 0.001975 -0.002973 0.006881 0.048208 0.001019 -0.009347
# 5 -0.000551 0.004719 -0.001187 0.001019 0.031328 0.019374
# 6 0.004896 0.009286 -0.007041 -0.009347 0.019374 0.064946
#
#
# Mechanical properties :
#
#
# Convention : Reuss Voigt Hill
#
# Bulk Modulus (GPa) = 59.46522 67.48711 63.47617
# Shear Modulus (GPa) = 25.01466 34.79198 29.90332
#
# Velocity S-wave (km/s) = 3.56925 4.20940 3.90247
# Velocity P-wave (km/s) = 6.87538 7.61548 7.25487
#
# Compressibility (1/GPa) = 0.01681655
#
# Stress axis : x y z
#
# Youngs Moduli (GPa) = 77.76584 99.12291 96.54228
#
# Poissons Ratio (x) = 0.18028 0.38477
# Poissons Ratio (y) = 0.14144 0.23559
# Poissons Ratio (z) = 0.30994 0.24189
#
# Static dielectric constant tensor:
#      x y z
#    x 1.668370 -0.003530 -0.019360 
#    y -0.003530 1.673340 0.004380 
#    z -0.019360 0.004380 1.667140 
# 
# From -- ./inp_files/154500.got.cif
#   From: 2010.05.17/outbox.cif.g08.bks.cpg/sg2_78_cif.got.tgz:154500.got - 2010.06.03 11:33:40.
