data_PCOD9058243
_publ_section_title
;
Structure prediction by ZEFSAII (Michael W. Deem and Ramdas Pophale) SiO2 
 PCOD9058243
Probable space group: P -1
;
_chemical_formula_sum "Si O2"
_cell_formula_units_Z 16
_cell_length_a 9.046391
_cell_length_b 11.574325
_cell_length_c 10.804208
_cell_angle_alpha 52.135901
_cell_angle_beta 56.278639
_cell_angle_gamma 44.265519
_cell_volume 609.493928
_symmetry_space_group_name_H-M "P -1"
_symmetry_group_IT_number 2
_symmetry_cell_setting 'triclinic'
loop_
_space_group_symop_operation_xyz
x,y,z
-x,-y,-z
loop_
_atom_site_type_symbol
_atom_site_label
_atom_site_fract_x
_atom_site_fract_y
_atom_site_fract_z
Si Si1 0.191456 0.854412 0.913967
Si Si2 0.327662 0.957617 0.181911
Si Si3 0.912740 0.180916 0.489791
Si Si4 0.516877 0.451568 0.378839
Si Si5 0.754785 0.905409 0.424384
Si Si6 0.013335 0.649618 0.024882
Si Si7 0.703597 0.736856 0.332284
Si Si8 0.560099 0.692687 0.032038
O O1 0.196491 0.949041 0.725974
O O2 0.422127 0.779654 0.916816
O O3 0.156389 0.702514 0.998152
O O4 0.000000 0.000000 0.000000
O O5 0.228571 0.841156 0.327919
O O6 0.481188 0.906405 0.264327
O O7 0.480413 0.854111 0.059823
O O8 0.146096 0.164358 0.100753
O O9 0.775700 0.316390 0.354212
O O10 0.088577 0.198389 0.464210
O O11 0.000000 0.000000 0.500000
O O12 0.500000 0.500000 0.500000
O O13 0.374808 0.373026 0.490577
O O14 0.472725 0.582826 0.204531
O O15 0.809354 0.789699 0.351272
O O16 0.500000 0.000000 0.500000
O O17 0.860686 0.643046 0.203293
O O18 0.813852 0.544351 0.988014
#
# Coordination Sequence:
#
# PCOD9058243 Si02
#       8
#     2   2   2   2   2   2   2   2
#     4  12  24  49  74 105 151 201 239 310 390 441
#     4  11  22  46  74 104 149 195 249 302 369 447
#     4  11  22  44  76 103 140 197 241 292 379 453
#     4  11  24  47  73 102 147 198 246 302 374 443
#     4  12  25  45  77 111 147 189 251 318 373 442
#     4  12  25  44  76 109 149 197 254 304 381 444
#     4  11  25  44  72 114 145 193 254 315 372 438
#     4  12  25  46  77 104 148 204 252 299 372 459
#
# _framework density 26.251287000000001
#
# number of rings (size 3 to 8) (size 9 to 14) (size 15 to 20)
#    0.000    0.500    6.250    3.000    1.750    0.500 
#    2.250    1.250    0.000    0.000    0.000    0.000 
#    0.000    0.000    0.000    0.000    0.000    0.000 
#
# Total GULP energy -89465.847963 kJ/mol
# GULP energy per Si atom -5591.615498 kJ/mol
# Density = 2.619154 g / cm^3
# Si number density = 26.251287 Si / 1000 Ang^3
#
#
#
# Elastic Constant Matrix: (Units=GPa)
#
#
# Indices 1 2 3 4 5 6 
#
# 1 118.3361 13.2331 -3.0709 -4.7249 -5.2519 -3.9411
# 2 13.2331 149.7566 18.6612 17.5027 8.4899 -5.6266
# 3 -3.0709 18.6612 87.4055 1.7158 -18.7361 -6.9405
# 4 -4.7249 17.5027 1.7158 42.0567 -6.4813 -3.8524
# 5 -5.2519 8.4899 -18.7361 -6.4813 33.2177 11.0340
# 6 -3.9411 -5.6266 -6.9405 -3.8524 11.0340 25.4947
#
#
#
# Elastic Compliance Matrix: (Units=1/GPa)
#
#
# Indices 1 2 3 4 5 6 
#
# 1 0.008831 -0.001268 0.001134 0.001918 0.002540 0.000585
# 2 -0.001268 0.007974 -0.002609 -0.003941 -0.005331 0.002565
# 3 0.001134 -0.002609 0.013948 0.002037 0.009203 -0.000279
# 4 0.001918 -0.003941 0.002037 0.026767 0.007410 0.000819
# 5 0.002540 -0.005331 0.009203 0.007410 0.043868 -0.016145
# 6 0.000585 0.002565 -0.000279 0.000819 -0.016145 0.046915
#
#
# Mechanical properties :
#
#
# Convention : Reuss Voigt Hill
#
# Bulk Modulus (GPa) = 39.57550 45.90500 42.74025
# Shear Modulus (GPa) = 30.82408 41.93215 36.37812
#
# Velocity S-wave (km/s) = 3.43037 4.00101 3.72663
# Velocity P-wave (km/s) = 5.54962 6.23448 5.90199
#
# Compressibility (1/GPa) = 0.02526816
#
# Stress axis : x y z
#
# Youngs Moduli (GPa) = 113.24358 125.41078 71.69254
#
# Poissons Ratio (x) = 0.15901 -0.08131
# Poissons Ratio (y) = 0.14358 0.18702
# Poissons Ratio (z) = -0.12844 0.32715
#
# Static dielectric constant tensor:
#      x y z
#    x 1.978310 -0.066610 -0.052240 
#    y -0.066610 3.430430 1.049330 
#    z -0.052240 1.049330 2.977290 
# 
# From -- ./inp_files/396998.got.cif
#   From: 2010.05.17/outbox.cif.g08.bks.cpg/sg2_199_cif.got.tgz:396998.got - 2010.06.03 11:33:40.
