data_PCOD9058393
_publ_section_title
;
Structure prediction by ZEFSAII (Michael W. Deem and Ramdas Pophale) SiO2 
 PCOD9058393
Probable space group: P -1
;
_chemical_formula_sum "Si O2"
_cell_formula_units_Z 16
_cell_length_a 11.194382
_cell_length_b 19.041719
_cell_length_c 8.271461
_cell_angle_alpha 79.696978
_cell_angle_beta 128.330941
_cell_angle_gamma 140.191946
_cell_volume 713.287047
_symmetry_space_group_name_H-M "P -1"
_symmetry_group_IT_number 2
_symmetry_cell_setting 'triclinic'
loop_
_space_group_symop_operation_xyz
x,y,z
-x,-y,-z
loop_
_atom_site_type_symbol
_atom_site_label
_atom_site_fract_x
_atom_site_fract_y
_atom_site_fract_z
Si Si1 0.399689 0.382212 0.517224
Si Si2 0.711251 0.632077 0.231268
Si Si3 0.843984 0.134222 0.972283
Si Si4 0.666983 0.168886 0.265439
Si Si5 0.383637 0.819760 0.408923
Si Si6 0.325081 0.646539 0.258742
Si Si7 0.702125 0.864189 0.208039
Si Si8 0.028536 0.126896 0.825104
O O1 0.500000 0.500000 0.500000
O O2 0.466397 0.406807 0.752658
O O3 0.555014 0.379370 0.556755
O O4 0.060383 0.233512 0.259500
O O5 0.986885 0.700969 0.513165
O O6 0.856617 0.754006 0.203727
O O7 0.500000 0.500000 0.000000
O O8 0.818209 0.197897 0.825212
O O9 0.984907 0.128994 0.977021
O O10 0.526752 0.980499 0.822396
O O11 0.638271 0.189733 0.412881
O O12 0.501762 0.150037 0.001268
O O13 0.333806 0.721251 0.341282
O O14 0.705147 0.974316 0.567653
O O15 0.520989 0.742619 0.227438
O O16 0.000000 0.500000 0.000000
O O17 0.776151 0.855976 0.101743
O O18 0.000000 0.000000 0.500000
#
# Coordination Sequence:
#
# PCOD9058393 Si02
#       8
#     2   2   2   2   2   2   2   2
#     4  12  28  46  72 102 139 191 239 291 367 431
#     4  12  26  47  72 103 145 188 243 296 353 435
#     4  11  23  44  74 107 140 183 243 297 354 425
#     4  11  26  43  75 109 137 192 240 290 365 424
#     4  11  23  45  72 104 148 181 236 299 361 422
#     4  12  28  46  68 103 149 189 231 302 365 423
#     4  12  26  47  71 108 146 187 243 301 357 428
#     4  11  22  45  72 101 144 187 235 299 354 424
#
# _framework density 22.431363999999999
#
# number of rings (size 3 to 8) (size 9 to 14) (size 15 to 20)
#    0.000    0.500    5.000    3.000    7.000    1.500 
#    0.000    1.250    0.000    0.000    0.000    0.000 
#    0.000    0.000    0.000    0.000    0.000    0.000 
#
# Total GULP energy -89411.270239 kJ/mol
# GULP energy per Si atom -5588.204390 kJ/mol
# Density = 2.238031 g / cm^3
# Si number density = 22.431364 Si / 1000 Ang^3
#
#
#
# Elastic Constant Matrix: (Units=GPa)
#
#
# Indices 1 2 3 4 5 6 
#
# 1 91.8441 24.3622 33.2067 17.7220 -13.8438 -22.9147
# 2 24.3622 90.6553 33.0099 24.8757 -4.7573 -28.3410
# 3 33.2067 33.0099 133.3136 28.0809 -3.7345 -29.5259
# 4 17.7220 24.8757 28.0809 43.2757 -6.2238 0.7929
# 5 -13.8438 -4.7573 -3.7345 -6.2238 39.8243 3.1777
# 6 -22.9147 -28.3410 -29.5259 0.7929 3.1777 40.7300
#
#
#
# Elastic Compliance Matrix: (Units=1/GPa)
#
#
# Indices 1 2 3 4 5 6 
#
# 1 0.014560 0.000452 -0.000799 -0.005330 0.003589 0.007751
# 2 0.000452 0.017954 0.000838 -0.011368 -0.000482 0.013614
# 3 -0.000799 0.000838 0.010869 -0.007500 -0.000988 0.008236
# 4 -0.005330 -0.011368 -0.007500 0.037488 0.003328 -0.017335
# 5 0.003589 -0.000482 -0.000988 0.003328 0.026823 -0.001190
# 6 0.007751 0.013614 0.008236 -0.017335 -0.001190 0.044786
#
#
# Mechanical properties :
#
#
# Convention : Reuss Voigt Hill
#
# Bulk Modulus (GPa) = 22.54020 55.21894 38.87957
# Shear Modulus (GPa) = 30.06876 39.78161 34.92519
#
# Velocity S-wave (km/s) = 3.66523 4.21584 3.95014
# Velocity P-wave (km/s) = 5.28982 6.95471 6.17860
#
# Compressibility (1/GPa) = 0.04436518
#
# Stress axis : x y z
#
# Youngs Moduli (GPa) = 68.68066 55.69714 92.00711
#
# Poissons Ratio (x) = -0.02517 0.07350
# Poissons Ratio (y) = -0.03104 -0.07709
# Poissons Ratio (z) = 0.05486 -0.04667
#
# Static dielectric constant tensor:
#      x y z
#    x 1.903860 -0.000710 0.041200 
#    y -0.000710 1.807360 -0.037450 
#    z 0.041200 -0.037450 1.838900 
# 
# From -- ./inp_files/190164.got.cif
#   From: 2010.05.17/outbox.cif.g08.bks.cpg/sg2_96_cif.got.tgz:190164.got - 2010.06.03 11:33:40.
