data_PCOD9058602
_publ_section_title
;
Structure prediction by ZEFSAII (Michael W. Deem and Ramdas Pophale) SiO2 
 PCOD9058602
Probable space group: P -1
;
_chemical_formula_sum "Si O2"
_cell_formula_units_Z 16
_cell_length_a 9.462207
_cell_length_b 12.597694
_cell_length_c 15.715216
_cell_angle_alpha 68.253655
_cell_angle_beta 50.426836
_cell_angle_gamma 110.432247
_cell_volume 772.863271
_symmetry_space_group_name_H-M "P -1"
_symmetry_group_IT_number 2
_symmetry_cell_setting 'triclinic'
loop_
_space_group_symop_operation_xyz
x,y,z
-x,-y,-z
loop_
_atom_site_type_symbol
_atom_site_label
_atom_site_fract_x
_atom_site_fract_y
_atom_site_fract_z
Si Si1 0.157268 0.117989 0.815861
Si Si2 0.222528 0.494816 0.210854
Si Si3 0.869944 0.096911 0.406691
Si Si4 0.240529 0.727366 0.850673
Si Si5 0.174251 0.891759 0.186999
Si Si6 0.077220 0.213872 0.097968
Si Si7 0.382491 0.174301 0.168826
Si Si8 0.899644 0.513526 0.448520
O O1 0.526570 0.320048 0.632299
O O2 0.003034 0.146611 0.816379
O O3 0.096687 0.983204 0.815398
O O4 0.000000 0.000000 0.000000
O O5 0.975673 0.265186 0.365973
O O6 0.077489 0.530907 0.302155
O O7 0.544491 0.614976 0.097444
O O8 0.355849 0.605332 0.035880
O O9 0.951700 0.163082 0.257350
O O10 0.104454 0.110673 0.333646
O O11 0.508603 0.878609 0.629678
O O12 0.446992 0.816031 0.830035
O O13 0.024444 0.728999 0.933431
O O14 0.000000 0.500000 0.000000
O O15 0.992081 0.693571 0.358948
O O16 0.246102 0.028659 0.186861
O O17 0.500000 0.000000 0.000000
O O18 0.000000 0.500000 0.500000
#
# Coordination Sequence:
#
# PCOD9058602 Si02
#       8
#     2   2   2   2   2   2   2   2
#     4  12  26  47  72 104 138 186 240 290 353 417
#     4  11  22  46  73  97 136 185 227 283 354 420
#     4  11  23  45  70  96 139 185 227 279 354 416
#     4  12  26  42  65 106 140 179 233 284 342 420
#     4  12  24  49  72 103 144 180 236 293 356 414
#     4  11  23  44  69 101 138 176 231 290 347 417
#     4  11  24  45  70 101 139 180 226 291 353 412
#     4  12  27  45  72 106 139 188 236 286 353 422
#
# _framework density 20.702241000000001
#
# number of rings (size 3 to 8) (size 9 to 14) (size 15 to 20)
#    0.000    0.500    3.750    6.375    5.250    1.000 
#    2.250    0.000    0.000    0.000    0.000    0.000 
#    0.000    0.000    0.000    0.000    0.000    0.000 
#
# Total GULP energy -89491.728392 kJ/mol
# GULP energy per Si atom -5593.233024 kJ/mol
# Density = 2.065512 g / cm^3
# Si number density = 20.702241 Si / 1000 Ang^3
#
#
#
# Elastic Constant Matrix: (Units=GPa)
#
#
# Indices 1 2 3 4 5 6 
#
# 1 179.6913 20.8428 25.2698 -9.8283 -10.0315 -7.9241
# 2 20.8428 79.1872 26.5916 -26.7312 5.3977 -8.2865
# 3 25.2698 26.5916 103.4525 -25.6532 -12.9902 -9.2313
# 4 -9.8283 -26.7312 -25.6532 33.3714 -2.9531 2.0367
# 5 -10.0315 5.3977 -12.9902 -2.9531 26.7314 -2.0597
# 6 -7.9241 -8.2865 -9.2313 2.0367 -2.0597 36.8633
#
#
#
# Elastic Compliance Matrix: (Units=1/GPa)
#
#
# Indices 1 2 3 4 5 6 
#
# 1 0.005999 -0.001289 -0.000671 0.000364 0.002298 0.000940
# 2 -0.001289 0.018211 -0.001395 0.012692 -0.003238 0.002585
# 3 -0.000671 -0.001395 0.013935 0.009937 0.008126 0.002937
# 4 0.000364 0.012692 0.009937 0.048391 0.007995 0.003193
# 5 0.002298 -0.003238 0.008126 0.007995 0.044052 0.003821
# 6 0.000940 0.002585 0.002937 0.003193 0.003821 0.028683
#
#
# Mechanical properties :
#
#
# Convention : Reuss Voigt Hill
#
# Bulk Modulus (GPa) = 31.81131 56.41551 44.11341
# Shear Modulus (GPa) = 28.33516 38.70167 33.51841
#
# Velocity S-wave (km/s) = 3.70361 4.32840 4.02813
# Velocity P-wave (km/s) = 5.80417 7.23119 6.55662
#
# Compressibility (1/GPa) = 0.03143536
#
# Stress axis : x y z
#
# Youngs Moduli (GPa) = 166.70446 54.91037 71.76030
#
# Poissons Ratio (x) = 0.07077 0.04817
# Poissons Ratio (y) = 0.21484 0.10011
# Poissons Ratio (z) = 0.11190 0.07660
#
# Static dielectric constant tensor:
#      x y z
#    x 1.785080 -0.084310 0.112220 
#    y -0.084310 2.059800 -0.289310 
#    z 0.112220 -0.289310 2.045660 
# 
# From -- ./inp_files/307657.got.cif
#   From: 2010.05.17/outbox.cif.g08.bks.cpg/sg2_154_cif.got.tgz:307657.got - 2010.06.03 11:33:40.
