data_PCOD9058359
_publ_section_title
;
Structure prediction by ZEFSAII (Michael W. Deem and Ramdas Pophale) SiO2 
 PCOD9058359
Probable space group: P -1
;
_chemical_formula_sum "Si O2"
_cell_formula_units_Z 14
_cell_length_a 14.784788
_cell_length_b 6.754331
_cell_length_c 11.199025
_cell_angle_alpha 108.238605
_cell_angle_beta 53.036667
_cell_angle_gamma 135.241431
_cell_volume 616.139616
_symmetry_space_group_name_H-M "P -1"
_symmetry_group_IT_number 2
_symmetry_cell_setting 'triclinic'
loop_
_space_group_symop_operation_xyz
x,y,z
-x,-y,-z
loop_
_atom_site_type_symbol
_atom_site_label
_atom_site_fract_x
_atom_site_fract_y
_atom_site_fract_z
Si Si1 0.621338 0.613825 0.029871
Si Si2 0.050443 0.459172 0.077041
Si Si3 0.634178 0.383865 0.197432
Si Si4 0.734526 0.927841 0.347647
Si Si5 0.782799 0.787404 0.522910
Si Si6 0.097712 0.946919 0.260878
Si Si7 0.534027 0.867171 0.315200
O O1 0.569510 0.371630 0.117949
O O2 0.628453 0.830760 0.144863
O O3 0.500000 0.500000 0.000000
O O4 0.787633 0.786403 0.870011
O O5 0.095675 0.705604 0.175656
O O6 0.194608 0.492148 0.940806
O O7 0.904463 0.158689 0.196515
O O8 0.000000 0.500000 0.000000
O O9 0.652747 0.611794 0.307190
O O10 0.536911 0.087398 0.286545
O O11 0.748638 0.921178 0.476892
O O12 0.633328 0.986097 0.381009
O O13 0.632083 0.451159 0.595272
O O14 0.926191 0.828118 0.370439
O O15 0.834816 0.942678 0.638674
#
# Coordination Sequence:
#
# PCOD9058359 Si02
#       7
#     2   2   2   2   2   2   2
#     4  11  22  45  71 100 136 174 233 291 333 402
#     4  12  21  43  73 104 137 176 236 287 337 407
#     4  11  23  41  73 103 133 177 229 293 344 385
#     4  11  24  42  69 102 139 182 229 284 341 409
#     4  11  25  45  66 100 148 185 221 281 346 417
#     4  11  24  45  70  99 143 181 228 282 344 413
#     4  11  23  45  70 104 133 181 236 282 342 407
#
# _framework density 22.722124000000001
#
# number of rings (size 3 to 8) (size 9 to 14) (size 15 to 20)
#    0.000    0.857    4.286    3.429    0.000    1.714 
#    5.143    0.000    0.000    0.000    0.000    0.000 
#    0.000    0.000    0.000    0.000    0.000    0.000 
#
# Total GULP energy -78444.499021 kJ/mol
# GULP energy per Si atom -5603.178501 kJ/mol
# Density = 2.267041 g / cm^3
# Si number density = 22.722124 Si / 1000 Ang^3
#
#
#
# Elastic Constant Matrix: (Units=GPa)
#
#
# Indices 1 2 3 4 5 6 
#
# 1 149.0612 37.0396 45.2409 -19.0983 25.1504 -13.8551
# 2 37.0396 74.8837 30.3745 -25.6626 14.8001 -10.9917
# 3 45.2409 30.3745 125.2109 -24.3010 9.9452 0.3126
# 4 -19.0983 -25.6626 -24.3010 45.8973 -0.8558 0.4547
# 5 25.1504 14.8001 9.9452 -0.8558 43.8545 -12.2230
# 6 -13.8551 -10.9917 0.3126 0.4547 -12.2230 36.4791
#
#
#
# Elastic Compliance Matrix: (Units=1/GPa)
#
#
# Indices 1 2 3 4 5 6 
#
# 1 0.008762 -0.002151 -0.002143 0.001231 -0.003355 0.001559
# 2 -0.002151 0.019536 -0.001952 0.008888 -0.003702 0.003735
# 3 -0.002143 -0.001952 0.009940 0.003282 -0.000803 -0.001797
# 4 0.001231 0.008888 0.003282 0.028928 -0.003438 0.001605
# 5 -0.003355 -0.003702 -0.000803 -0.003438 0.028059 0.007062
# 6 0.001559 0.003735 -0.001797 0.001605 0.007062 0.031492
#
#
# Mechanical properties :
#
#
# Convention : Reuss Voigt Hill
#
# Bulk Modulus (GPa) = 38.84160 63.82952 51.33556
# Shear Modulus (GPa) = 33.83175 41.01290 37.42233
#
# Velocity S-wave (km/s) = 3.86286 4.25311 4.06267
# Velocity P-wave (km/s) = 6.08497 7.22986 6.68198
#
# Compressibility (1/GPa) = 0.02574559
#
# Stress axis : x y z
#
# Youngs Moduli (GPa) = 114.12786 51.18793 100.60775
#
# Poissons Ratio (x) = 0.11012 0.21556
# Poissons Ratio (y) = 0.24553 0.19639
# Poissons Ratio (z) = 0.24453 0.09992
#
# Static dielectric constant tensor:
#      x y z
#    x 1.850340 -0.003860 -0.011670 
#    y -0.003860 1.817010 0.002830 
#    z -0.011670 0.002830 1.865860 
# 
# From -- ./inp_files/411214.got.cif
#   From: 2010.05.17/outbox.cif.g08.bks.cpg/sg2_206_cif.got.tgz:411214.got - 2010.06.03 11:33:40.
