data_PCOD9058472
_publ_section_title
;
Structure prediction by ZEFSAII (Michael W. Deem and Ramdas Pophale) SiO2 
 PCOD9058472
Probable space group: P -1
;
_chemical_formula_sum "Si O2"
_cell_formula_units_Z 14
_cell_length_a 9.137816
_cell_length_b 13.030008
_cell_length_c 10.725832
_cell_angle_alpha 33.996682
_cell_angle_beta 122.169978
_cell_angle_gamma 125.754652
_cell_volume 576.238389
_symmetry_space_group_name_H-M "P -1"
_symmetry_group_IT_number 2
_symmetry_cell_setting 'triclinic'
loop_
_space_group_symop_operation_xyz
x,y,z
-x,-y,-z
loop_
_atom_site_type_symbol
_atom_site_label
_atom_site_fract_x
_atom_site_fract_y
_atom_site_fract_z
Si Si1 0.921448 0.453742 0.186663
Si Si2 0.824419 0.364967 0.488078
Si Si3 0.636372 0.051604 0.394942
Si Si4 0.496357 0.105464 0.757857
Si Si5 0.021344 0.080006 0.793739
Si Si6 0.300355 0.369546 0.504598
Si Si7 0.082037 0.144262 0.279154
O O1 0.130321 0.445571 0.311185
O O2 0.067295 0.355417 0.077659
O O3 0.816905 0.483075 0.239414
O O4 0.791729 0.256006 0.270340
O O5 0.676099 0.269289 0.622218
O O6 0.000000 0.500000 0.500000
O O7 0.869737 0.188625 0.615324
O O8 0.500000 0.000000 0.500000
O O9 0.550385 0.044491 0.225862
O O10 0.717983 0.872884 0.619611
O O11 0.345328 0.217007 0.585808
O O12 0.500000 0.000000 0.000000
O O13 0.214169 0.241399 0.713332
O O14 0.004723 0.941692 0.807694
O O15 0.000000 0.000000 0.000000
O O16 0.500000 0.500000 0.500000
O O17 0.000000 0.000000 0.500000
#
# Coordination Sequence:
#
# PCOD9058472 Si02
#       7
#     2   2   2   2   2   2   2
#     4  11  26  52  80 113 164 221 262 333 407 488
#     4  11  22  45  75 112 156 206 265 323 400 480
#     4  12  26  54  81 117 162 208 277 329 405 496
#     4  12  26  48  79 122 161 203 270 347 400 474
#     4  11  22  45  75 107 156 210 260 322 392 478
#     4  11  25  46  75 122 160 203 273 333 399 473
#     4  12  27  50  78 118 161 209 271 334 411 474
#
# _framework density 24.295501000000002
#
# number of rings (size 3 to 8) (size 9 to 14) (size 15 to 20)
#    0.000    0.571    4.286    4.286    0.000    4.571 
#    7.714    0.000    0.000    0.000    0.000    0.000 
#    0.000    0.000    0.000    0.000    0.000    0.000 
#
# Total GULP energy -78105.284398 kJ/mol
# GULP energy per Si atom -5578.948886 kJ/mol
# Density = 2.424020 g / cm^3
# Si number density = 24.295501 Si / 1000 Ang^3
#
#
#
# Elastic Constant Matrix: (Units=GPa)
#
#
# Indices 1 2 3 4 5 6 
#
# 1 173.7062 47.5131 76.9138 -14.1362 -24.9148 6.8837
# 2 47.5131 150.2026 87.9870 8.8040 -10.4964 11.1522
# 3 76.9138 87.9870 182.7062 -2.0989 -32.4653 10.0652
# 4 -14.1362 8.8040 -2.0989 42.1575 -9.6758 -3.5967
# 5 -24.9148 -10.4964 -32.4653 -9.6758 49.4787 -6.8326
# 6 6.8837 11.1522 10.0652 -3.5967 -6.8326 42.3003
#
#
#
# Elastic Compliance Matrix: (Units=1/GPa)
#
#
# Indices 1 2 3 4 5 6 
#
# 1 0.007719 -0.001225 -0.002113 0.003448 0.002962 0.000341
# 2 -0.001225 0.009946 -0.004650 -0.003469 -0.002515 -0.002018
# 3 -0.002113 -0.004650 0.009411 0.001782 0.004502 0.000209
# 4 0.003448 -0.003469 0.001782 0.027861 0.008117 0.003609
# 5 0.002962 -0.002515 0.004502 0.008117 0.026269 0.004043
# 6 0.000341 -0.002018 0.000209 0.003609 0.004043 0.025027
#
#
# Mechanical properties :
#
#
# Convention : Reuss Voigt Hill
#
# Bulk Modulus (GPa) = 90.07320 103.49367 96.78344
# Shear Modulus (GPa) = 39.71169 46.40070 43.05620
#
# Velocity S-wave (km/s) = 4.04732 4.37492 4.21430
# Velocity P-wave (km/s) = 7.68086 8.25895 7.97514
#
# Compressibility (1/GPa) = 0.01110208
#
# Stress axis : x y z
#
# Youngs Moduli (GPa) = 129.54696 100.53987 106.26090
#
# Poissons Ratio (x) = 0.12313 0.22448
# Poissons Ratio (y) = 0.15865 0.49410
# Poissons Ratio (z) = 0.27368 0.46750
#
# Static dielectric constant tensor:
#      x y z
#    x 1.966680 -0.007060 -0.896230 
#    y -0.007060 2.027040 0.302740 
#    z -0.896230 0.302740 -8.169600 
# 
# From -- ./inp_files/175387.got.cif
#   From: 2010.05.17/outbox.cif.g08.bks.cpg/sg2_88_cif.got.tgz:175387.got - 2010.06.03 11:33:40.
