data_PCOD9058616
_publ_section_title
;
Structure prediction by ZEFSAII (Michael W. Deem and Ramdas Pophale) SiO2 
 PCOD9058616
Probable space group: P -1
;
_chemical_formula_sum "Si O2"
_cell_formula_units_Z 16
_cell_length_a 11.048456
_cell_length_b 11.313890
_cell_length_c 6.464631
_cell_angle_alpha 75.871448
_cell_angle_beta 114.536178
_cell_angle_gamma 110.629788
_cell_volume 683.423350
_symmetry_space_group_name_H-M "P -1"
_symmetry_group_IT_number 2
_symmetry_cell_setting 'triclinic'
loop_
_space_group_symop_operation_xyz
x,y,z
-x,-y,-z
loop_
_atom_site_type_symbol
_atom_site_label
_atom_site_fract_x
_atom_site_fract_y
_atom_site_fract_z
Si Si1 0.613981 0.603318 0.166240
Si Si2 0.473723 0.192371 0.229624
Si Si3 0.930579 0.222480 0.682016
Si Si4 0.680604 0.703812 0.580360
Si Si5 0.242991 0.720490 0.821533
Si Si6 0.875107 0.908114 0.326216
Si Si7 0.841653 0.571347 0.071022
Si Si8 0.704575 0.068836 0.898622
O O1 0.594251 0.604047 0.394799
O O2 0.759602 0.580545 0.221817
O O3 0.500000 0.500000 0.000000
O O4 0.603995 0.738494 0.017552
O O5 0.416687 0.229392 0.389274
O O6 0.634082 0.259119 0.269134
O O7 0.430248 0.041325 0.223786
O O8 0.881918 0.250414 0.407629
O O9 0.053044 0.156150 0.770500
O O10 0.999953 0.349589 0.809209
O O11 0.800786 0.131627 0.748221
O O12 0.787320 0.807645 0.471114
O O13 0.766850 0.638246 0.821512
O O14 0.189577 0.577522 0.927876
O O15 0.308604 0.818569 0.009262
O O16 0.788429 0.992607 0.125575
O O17 0.000000 0.000000 0.500000
#
# Coordination Sequence:
#
# PCOD9058616 Si02
#       8
#     2   2   2   2   2   2   2   2
#     4  11  22  46  74 107 138 184 237 303 350 413
#     4  11  25  46  72 110 141 184 254 285 362 433
#     4  12  26  46  72 105 143 193 241 299 361 423
#     4  11  24  44  82 104 137 188 230 322 349 405
#     4  12  28  48  68 102 158 196 230 300 350 444
#     4  12  21  44  74 101 139 179 246 300 357 417
#     4  11  25  46  72 110 141 184 254 285 362 433
#     4  12  26  46  72 105 143 193 241 299 361 423
#
# _framework density 23.411549000000001
#
# number of rings (size 3 to 8) (size 9 to 14) (size 15 to 20)
#    0.000    0.500    5.000    3.375    0.000    5.000 
#    0.000    0.000    0.000    0.000    0.000    0.000 
#    0.000    0.000    0.000    0.000    0.000    0.000 
#
# Total GULP energy -89565.955572 kJ/mol
# GULP energy per Si atom -5597.872223 kJ/mol
# Density = 2.335826 g / cm^3
# Si number density = 23.411549 Si / 1000 Ang^3
#
#
#
# Elastic Constant Matrix: (Units=GPa)
#
#
# Indices 1 2 3 4 5 6 
#
# 1 35.6632 2.2742 -4.7313 -9.1912 -14.8967 2.8413
# 2 2.2742 147.1574 33.8635 6.6451 -7.9396 10.9234
# 3 -4.7313 33.8635 84.3845 12.2157 -14.3727 -6.1113
# 4 -9.1912 6.6451 12.2157 41.3005 3.4103 0.9525
# 5 -14.8967 -7.9396 -14.3727 3.4103 34.0162 0.7638
# 6 2.8413 10.9234 -6.1113 0.9525 0.7638 35.4308
#
#
#
# Elastic Compliance Matrix: (Units=1/GPa)
#
#
# Indices 1 2 3 4 5 6 
#
# 1 0.037768 -0.000708 0.004387 0.005820 0.017703 -0.002592
# 2 -0.000708 0.007809 -0.003289 -0.000393 0.000228 -0.002912
# 3 0.004387 -0.003289 0.015581 -0.003843 0.008049 0.003279
# 4 0.005820 -0.000393 -0.003843 0.026898 -0.001826 -0.001692
# 5 0.017703 0.000228 0.008049 -0.001826 0.040808 -0.000932
# 6 -0.002592 -0.002912 0.003279 -0.001692 -0.000932 0.029961
#
#
# Mechanical properties :
#
#
# Convention : Reuss Voigt Hill
#
# Bulk Modulus (GPa) = 16.14523 36.66865 26.40694
# Shear Modulus (GPa) = 27.98107 37.86943 32.92525
#
# Velocity S-wave (km/s) = 3.46089 4.02625 3.75423
# Velocity P-wave (km/s) = 4.78347 6.10826 5.48600
#
# Compressibility (1/GPa) = 0.06193780
#
# Stress axis : x y z
#
# Youngs Moduli (GPa) = 26.47732 128.04993 64.18052
#
# Poissons Ratio (x) = 0.09072 -0.28156
# Poissons Ratio (y) = 0.01876 0.21108
# Poissons Ratio (z) = -0.11615 0.42114
#
# Static dielectric constant tensor:
#      x y z
#    x 1.885610 0.007020 0.019320 
#    y 0.007020 1.949120 0.064250 
#    z 0.019320 0.064250 1.891230 
# 
# From -- ./inp_files/70061.got.cif
#   From: 2010.05.17/outbox.cif.g08.bks.cpg/sg2_36_cif.got.tgz:70061.got - 2010.06.03 11:33:40.
