data_PCOD9058648
_publ_section_title
;
Structure prediction by ZEFSAII (Michael W. Deem and Ramdas Pophale) SiO2 
 PCOD9058648
Probable space group: P -1
;
_chemical_formula_sum "Si O2"
_cell_formula_units_Z 14
_cell_length_a 9.363175
_cell_length_b 5.679869
_cell_length_c 17.790692
_cell_angle_alpha 126.578443
_cell_angle_beta 133.233583
_cell_angle_gamma 69.957999
_cell_volume 550.078584
_symmetry_space_group_name_H-M "P -1"
_symmetry_group_IT_number 2
_symmetry_cell_setting 'triclinic'
loop_
_space_group_symop_operation_xyz
x,y,z
-x,-y,-z
loop_
_atom_site_type_symbol
_atom_site_label
_atom_site_fract_x
_atom_site_fract_y
_atom_site_fract_z
Si Si1 0.778733 0.755089 0.190191
Si Si2 0.725700 0.895856 0.783456
Si Si3 0.593726 0.899369 0.893073
Si Si4 0.075329 0.284004 0.921746
Si Si5 0.361883 0.277713 0.701904
Si Si6 0.892524 0.771014 0.534874
Si Si7 0.499790 0.653009 0.448937
O O1 0.570490 0.876241 0.115774
O O2 0.958174 0.003059 0.322749
O O3 0.863453 0.600659 0.118072
O O4 0.725399 0.634874 0.232238
O O5 0.747456 0.970810 0.893654
O O6 0.679101 0.544459 0.693190
O O7 0.529647 0.057507 0.727305
O O8 0.896158 0.021993 0.812348
O O9 0.466499 0.587758 0.768102
O O10 0.727432 0.841595 0.000858
O O11 0.000000 0.500000 0.000000
O O12 0.203662 0.124653 0.557107
O O13 0.713033 0.620695 0.489170
O O14 0.000000 0.500000 0.500000
O O15 0.500000 0.500000 0.500000
O O16 0.500000 0.000000 0.500000
#
# Coordination Sequence:
#
# PCOD9058648 Si02
#       7
#     2   2   2   2   2   2   2
#     4  11  26  44  72 111 147 199 259 319 395 465
#     4  11  24  48  74 107 151 202 259 322 397 465
#     4  11  23  48  72 103 148 200 254 320 386 463
#     4  12  26  49  76 107 150 205 266 323 389 459
#     4  11  22  46  77 106 155 201 255 323 399 471
#     4  12  23  47  76 114 151 198 255 318 399 472
#     4  12  27  46  75 113 159 205 255 323 399 480
#
# _framework density 25.45091
#
# number of rings (size 3 to 8) (size 9 to 14) (size 15 to 20)
#    0.000    0.571    4.286    3.857    0.000    2.857 
#    7.714    0.000    0.000    0.000    0.000    0.000 
#    0.000    0.000    0.000    0.000    0.000    0.000 
#
# Total GULP energy -78259.273385 kJ/mol
# GULP energy per Si atom -5589.948099 kJ/mol
# Density = 2.539298 g / cm^3
# Si number density = 25.450910 Si / 1000 Ang^3
#
#
#
# Elastic Constant Matrix: (Units=GPa)
#
#
# Indices 1 2 3 4 5 6 
#
# 1 188.2770 35.6176 56.1138 -4.3981 -13.4084 19.4399
# 2 35.6176 77.9140 25.1605 9.9739 -6.8334 1.9063
# 3 56.1138 25.1605 86.1516 -2.1710 -5.5515 -3.6751
# 4 -4.3981 9.9739 -2.1710 50.8270 6.8627 -0.0064
# 5 -13.4084 -6.8334 -5.5515 6.8627 49.2725 -5.5896
# 6 19.4399 1.9063 -3.6751 -0.0064 -5.5896 29.6438
#
#
#
# Elastic Compliance Matrix: (Units=1/GPa)
#
#
# Indices 1 2 3 4 5 6 
#
# 1 0.007660 -0.001933 -0.004596 0.000766 0.000584 -0.005358
# 2 -0.001933 0.015353 -0.003192 -0.003554 0.001763 0.000216
# 3 -0.004596 -0.003192 0.015817 0.000827 0.000573 0.005288
# 4 0.000766 -0.003554 0.000827 0.020904 -0.003190 -0.000768
# 5 0.000584 0.001763 0.000573 -0.003190 0.021622 0.003651
# 6 -0.005358 0.000216 0.005288 -0.000768 0.003651 0.038578
#
#
# Mechanical properties :
#
#
# Convention : Reuss Voigt Hill
#
# Bulk Modulus (GPa) = 51.57818 65.12516 58.35167
# Shear Modulus (GPa) = 34.28476 41.64535 37.96506
#
# Velocity S-wave (km/s) = 3.67426 4.04951 3.86644
# Velocity P-wave (km/s) = 6.18951 6.89266 6.55053
#
# Compressibility (1/GPa) = 0.01938804
#
# Stress axis : x y z
#
# Youngs Moduli (GPa) = 130.55612 65.13227 63.22505
#
# Poissons Ratio (x) = 0.12591 0.29058
# Poissons Ratio (y) = 0.25238 0.20179
# Poissons Ratio (z) = 0.60004 0.20787
#
# Static dielectric constant tensor:
#      x y z
#    x 1.990590 0.011280 -0.077790 
#    y 0.011280 1.445100 0.390760 
#    z -0.077790 0.390760 1.826780 
# 
# From -- ./inp_files/553897.got.cif
#   From: 2010.05.17/outbox.cif.g08.bks.cpg/sg2_277_cif.got.tgz:553897.got - 2010.06.03 11:33:40.
