data_PCOD9058508
_publ_section_title
;
Structure prediction by ZEFSAII (Michael W. Deem and Ramdas Pophale) SiO2 
 PCOD9058508
Probable space group: P -1
;
_chemical_formula_sum "Si O2"
_cell_formula_units_Z 14
_cell_length_a 11.421787
_cell_length_b 8.631801
_cell_length_c 9.816589
_cell_angle_alpha 134.369618
_cell_angle_beta 110.446954
_cell_angle_gamma 60.643455
_cell_volume 602.966949
_symmetry_space_group_name_H-M "P -1"
_symmetry_group_IT_number 2
_symmetry_cell_setting 'triclinic'
loop_
_space_group_symop_operation_xyz
x,y,z
-x,-y,-z
loop_
_atom_site_type_symbol
_atom_site_label
_atom_site_fract_x
_atom_site_fract_y
_atom_site_fract_z
Si Si1 0.650568 0.080989 0.966191
Si Si2 0.651347 0.937680 0.567497
Si Si3 0.217104 0.979301 0.566756
Si Si4 0.958118 0.169466 0.423750
Si Si5 0.337835 0.247546 0.986857
Si Si6 0.080433 0.640597 0.043227
Si Si7 0.169289 0.598765 0.746412
O O1 0.492087 0.222432 0.019377
O O2 0.665501 0.992233 0.763109
O O3 0.741405 0.236631 0.119381
O O4 0.687363 0.861556 0.948620
O O5 0.705545 0.090850 0.585225
O O6 0.734008 0.668692 0.398220
O O7 0.500000 0.000000 0.500000
O O8 0.302008 0.087585 0.760795
O O9 0.072966 0.167419 0.574270
O O10 0.176430 0.796653 0.525166
O O11 0.927353 0.330819 0.380289
O O12 0.012609 0.906380 0.225922
O O13 0.231841 0.501584 0.069815
O O14 0.090227 0.639401 0.882188
O O15 0.000000 0.500000 0.000000
#
# Coordination Sequence:
#
# PCOD9058508 Si02
#       7
#     2   2   2   2   2   2   2
#     4  11  25  46  73 101 139 178 229 288 335 406
#     4  12  25  45  71 101 139 179 223 285 348 399
#     4  11  22  46  65  97 141 175 229 278 338 406
#     4  11  25  41  70  97 138 181 227 287 331 407
#     4  11  23  47  69  98 141 181 224 281 345 404
#     4  12  22  42  68  97 140 183 220 279 347 402
#     4  12  25  45  70 107 135 176 239 278 335 415
#
# _framework density 23.218520999999999
#
# number of rings (size 3 to 8) (size 9 to 14) (size 15 to 20)
#    0.000    0.571    5.714    1.286    0.000    7.429 
#    2.571    3.571    0.000    0.000    0.000    0.000 
#    0.000    0.000    0.000    0.000    0.000    0.000 
#
# Total GULP energy -78378.717848 kJ/mol
# GULP energy per Si atom -5598.479846 kJ/mol
# Density = 2.316567 g / cm^3
# Si number density = 23.218521 Si / 1000 Ang^3
#
#
#
# Elastic Constant Matrix: (Units=GPa)
#
#
# Indices 1 2 3 4 5 6 
#
# 1 112.7516 21.8792 22.0146 -20.0598 -6.7936 40.6067
# 2 21.8792 98.7392 28.6032 -39.2526 -20.3125 16.8199
# 3 22.0146 28.6032 91.9357 -31.0433 -17.3606 31.9017
# 4 -20.0598 -39.2526 -31.0433 43.2637 7.1211 -5.2264
# 5 -6.7936 -20.3125 -17.3606 7.1211 47.1153 -8.4120
# 6 40.6067 16.8199 31.9017 -5.2264 -8.4120 35.4540
#
#
#
# Elastic Compliance Matrix: (Units=1/GPa)
#
#
# Indices 1 2 3 4 5 6 
#
# 1 0.021511 0.005502 0.011849 0.019132 0.000714 -0.034920
# 2 0.005502 0.020093 0.007447 0.023061 0.005532 -0.017823
# 3 0.011849 0.007447 0.029287 0.027877 0.004670 -0.038240
# 4 0.019132 0.023061 0.027877 0.066481 0.004522 -0.047064
# 5 0.000714 0.005532 0.004670 0.004522 0.024544 -0.001154
# 6 -0.034920 -0.017823 -0.038240 -0.047064 -0.001154 0.103852
#
#
# Mechanical properties :
#
#
# Convention : Reuss Voigt Hill
#
# Bulk Modulus (GPa) = 8.29958 49.82450 29.06204
# Shear Modulus (GPa) = 19.50585 40.56191 30.03388
#
# Velocity S-wave (km/s) = 2.90159 4.18420 3.60047
# Velocity P-wave (km/s) = 3.84811 6.69694 5.46154
#
# Compressibility (1/GPa) = 0.12048798
#
# Stress axis : x y z
#
# Youngs Moduli (GPa) = 46.48848 49.76825 34.14506
#
# Poissons Ratio (x) = -0.27382 -0.40460
# Poissons Ratio (y) = -0.25577 -0.25429
# Poissons Ratio (z) = -0.55086 -0.37064
#
# Static dielectric constant tensor:
#      x y z
#    x 1.937140 0.014070 0.016460 
#    y 0.014070 1.852500 -0.000190 
#    z 0.016460 -0.000190 1.873030 
# 
# From -- ./inp_files/246112.got.cif
#   From: 2010.05.17/outbox.cif.g08.bks.cpg/sg2_124_cif.got.tgz:246112.got - 2010.06.03 11:33:40.
