data_PCOD9058811
_publ_section_title
;
Structure prediction by ZEFSAII (Michael W. Deem and Ramdas Pophale) SiO2 
 PCOD9058811
Probable space group: P -1
;
_chemical_formula_sum "Si O2"
_cell_formula_units_Z 14
_cell_length_a 13.785381
_cell_length_b 10.898104
_cell_length_c 10.980908
_cell_angle_alpha 26.068002
_cell_angle_beta 81.437796
_cell_angle_gamma 67.117525
_cell_volume 580.329609
_symmetry_space_group_name_H-M "P -1"
_symmetry_group_IT_number 2
_symmetry_cell_setting 'triclinic'
loop_
_space_group_symop_operation_xyz
x,y,z
-x,-y,-z
loop_
_atom_site_type_symbol
_atom_site_label
_atom_site_fract_x
_atom_site_fract_y
_atom_site_fract_z
Si Si1 0.063446 0.191559 0.447389
Si Si2 0.663820 0.908845 0.353296
Si Si3 0.216426 0.388666 0.151122
Si Si4 0.791363 0.597632 0.124924
Si Si5 0.677978 0.330847 0.542226
Si Si6 0.064484 0.603748 0.305572
Si Si7 0.440835 0.464602 0.353871
O O1 0.130190 0.257313 0.271089
O O2 0.049545 0.464693 0.304711
O O3 0.931938 0.284985 0.363855
O O4 0.145960 0.796073 0.831260
O O5 0.694540 0.843682 0.548831
O O6 0.789491 0.611615 0.526404
O O7 0.560348 0.858103 0.389570
O O8 0.624313 0.266365 0.984182
O O9 0.268216 0.354135 0.038279
O O10 0.722161 0.549179 0.286667
O O11 0.784555 0.932796 0.859803
O O12 0.566995 0.398996 0.421350
O O13 0.634831 0.394103 0.632332
O O14 0.000000 0.500000 0.500000
O O15 0.000000 0.000000 0.000000
#
# Coordination Sequence:
#
# PCOD9058811 Si02
#       7
#     2   2   2   2   2   2   2
#     4  11  23  40  64  95 138 177 208 258 330 378
#     4  11  23  41  67  88 130 178 203 262 345 373
#     4  11  23  44  64 100 133 174 218 258 316 407
#     4  12  24  42  70  96 131 172 225 267 316 375
#     4  11  26  43  66  98 123 167 230 277 315 386
#     4  11  23  36  58  97 132 159 214 256 304 402
#     4  11  24  46  66  90 131 170 216 272 340 379
#
# _framework density 24.124222
#
# number of rings (size 3 to 8) (size 9 to 14) (size 15 to 20)
#    0.000    0.857    0.000    8.571    6.000    2.286 
#    0.000    4.286    0.000    0.000    0.000    0.000 
#    0.000    0.000    0.000    0.000    0.000    0.000 
#
# Total GULP energy -78308.236778 kJ/mol
# GULP energy per Si atom -5593.445484 kJ/mol
# Density = 2.406931 g / cm^3
# Si number density = 24.124222 Si / 1000 Ang^3
#
#
#
# Elastic Constant Matrix: (Units=GPa)
#
#
# Indices 1 2 3 4 5 6 
#
# 1 91.0438 6.4022 23.2060 5.2040 -1.1187 7.3294
# 2 6.4022 50.3775 35.3507 12.5784 -0.8721 5.1580
# 3 23.2060 35.3507 117.0275 22.1987 -20.9983 -6.3010
# 4 5.2040 12.5784 22.1987 27.8226 2.4327 1.6053
# 5 -1.1187 -0.8721 -20.9983 2.4327 38.8938 -0.1718
# 6 7.3294 5.1580 -6.3010 1.6053 -0.1718 18.9292
#
#
#
# Elastic Compliance Matrix: (Units=1/GPa)
#
#
# Indices 1 2 3 4 5 6 
#
# 1 0.012267 0.001487 -0.003592 0.000409 -0.001607 -0.006400
# 2 0.001487 0.028443 -0.009330 -0.004694 -0.004112 -0.011071
# 3 -0.003592 -0.009330 0.015971 -0.009217 0.008931 0.010112
# 4 0.000409 -0.004694 -0.009217 0.046385 -0.007997 -0.005954
# 5 -0.001607 -0.004112 0.008931 -0.007997 0.030920 0.005674
# 6 -0.006400 -0.011071 0.010112 -0.005954 0.005674 0.062246
#
#
# Mechanical properties :
#
#
# Convention : Reuss Voigt Hill
#
# Bulk Modulus (GPa) = 29.57684 43.15186 36.36435
# Shear Modulus (GPa) = 21.70411 30.02844 25.86627
#
# Velocity S-wave (km/s) = 3.00272 3.53192 3.27802
# Velocity P-wave (km/s) = 4.93038 5.87867 5.42528
#
# Compressibility (1/GPa) = 0.03381024
#
# Stress axis : x y z
#
# Youngs Moduli (GPa) = 81.52057 35.15847 62.61338
#
# Poissons Ratio (x) = -0.05228 0.22492
# Poissons Ratio (y) = -0.12123 0.58418
# Poissons Ratio (z) = 0.29284 0.32803
#
# Static dielectric constant tensor:
#      x y z
#    x 1.998060 -0.087000 -0.011920 
#    y -0.087000 2.086060 0.128730 
#    z -0.011920 0.128730 1.978870 
# 
# From -- ./inp_files/434114.got.cif
#   From: 2010.05.17/outbox.cif.g08.bks.cpg/sg2_218_cif.got.tgz:434114.got - 2010.06.03 11:33:40.
