data_PCOD9058816
_publ_section_title
;
Structure prediction by ZEFSAII (Michael W. Deem and Ramdas Pophale) SiO2 
 PCOD9058816
Probable space group: P -1
;
_chemical_formula_sum "Si O2"
_cell_formula_units_Z 16
_cell_length_a 15.982446
_cell_length_b 25.898209
_cell_length_c 9.595783
_cell_angle_alpha 43.487923
_cell_angle_beta 44.123431
_cell_angle_gamma 17.157683
_cell_volume 800.424129
_symmetry_space_group_name_H-M "P -1"
_symmetry_group_IT_number 2
_symmetry_cell_setting 'triclinic'
loop_
_space_group_symop_operation_xyz
x,y,z
-x,-y,-z
loop_
_atom_site_type_symbol
_atom_site_label
_atom_site_fract_x
_atom_site_fract_y
_atom_site_fract_z
Si Si1 0.792611 0.854204 0.853203
Si Si2 0.813531 0.407776 0.872509
Si Si3 0.735669 0.516748 0.473355
Si Si4 0.711175 0.839682 0.671059
Si Si5 0.104361 0.835051 0.570172
Si Si6 0.330416 0.305925 0.951850
Si Si7 0.135938 0.782607 0.935850
Si Si8 0.870471 0.051201 0.909908
O O1 0.757032 0.857127 0.726896
O O2 0.917650 0.867942 0.690270
O O3 0.028162 0.672551 0.013619
O O4 0.500000 0.000000 0.000000
O O5 0.849846 0.447150 0.630069
O O6 0.473755 0.593481 0.932652
O O7 0.926216 0.267139 0.939438
O O8 0.452551 0.626496 0.568242
O O9 0.632758 0.660392 0.289765
O O10 0.988369 0.346891 0.401816
O O11 0.500000 0.000000 0.500000
O O12 0.597205 0.822229 0.889109
O O13 0.050444 0.879380 0.711713
O O14 0.055140 0.928163 0.335169
O O15 0.529933 0.233577 0.967757
O O16 0.000000 0.500000 0.000000
O O17 0.984983 0.906501 0.002773
O O18 0.000000 0.000000 0.000000
#
# Coordination Sequence:
#
# PCOD9058816 Si02
#       8
#     2   2   2   2   2   2   2   2
#     4  11  24  39  58  91 129 160 214 260 307 377
#     4   9  19  38  61  90 118 160 204 261 310 374
#     4   9  19  41  65  87 121 164 208 255 322 375
#     4  11  24  38  64  89 122 173 208 256 318 376
#     4   9  21  40  60  88 126 164 202 259 315 373
#     4   9  22  42  58  87 129 165 203 253 324 380
#     4   9  19  36  62  89 123 155 203 254 320 372
#     4  11  23  36  65  94 124 164 215 268 308 378
#
# _framework density 19.989401999999998
#
# number of rings (size 3 to 8) (size 9 to 14) (size 15 to 20)
#    0.000    2.250    0.000    1.875    7.000    3.500 
#    0.000    0.625    0.000    0.000    0.000    0.000 
#    0.000    0.000    0.000    0.000    0.000    0.000 
#
# Total GULP energy -89130.285853 kJ/mol
# GULP energy per Si atom -5570.642866 kJ/mol
# Density = 1.994391 g / cm^3
# Si number density = 19.989402 Si / 1000 Ang^3
#
#
#
# Elastic Constant Matrix: (Units=GPa)
#
#
# Indices 1 2 3 4 5 6 
#
# 1 125.8560 47.4295 54.2481 -9.0249 17.5809 -19.5707
# 2 47.4295 73.4702 35.1516 -6.4810 1.5249 -6.4565
# 3 54.2481 35.1516 90.0425 -20.9468 6.8723 -11.1479
# 4 -9.0249 -6.4810 -20.9468 31.0128 -11.2400 3.4922
# 5 17.5809 1.5249 6.8723 -11.2400 41.3070 0.4968
# 6 -19.5707 -6.4565 -11.1479 3.4922 0.4968 25.0053
#
#
#
# Elastic Compliance Matrix: (Units=1/GPa)
#
#
# Indices 1 2 3 4 5 6 
#
# 1 0.014620 -0.006147 -0.005925 -0.004187 -0.006244 0.007923
# 2 -0.006147 0.019409 -0.004152 0.000679 0.002797 -0.001801
# 3 -0.005925 -0.004152 0.018769 0.010867 0.002496 0.001091
# 4 -0.004187 0.000679 0.010867 0.043290 0.011783 -0.004537
# 5 -0.006244 0.002797 0.002496 0.011783 0.029618 -0.005286
# 6 0.007923 -0.001801 0.001091 -0.004537 -0.005286 0.046952
#
#
# Mechanical properties :
#
#
# Convention : Reuss Voigt Hill
#
# Bulk Modulus (GPa) = 49.14000 62.55857 55.84929
# Shear Modulus (GPa) = 23.59713 29.63432 26.61573
#
# Velocity S-wave (km/s) = 3.43954 3.85450 3.65292
# Velocity P-wave (km/s) = 6.35691 7.15356 6.76697
#
# Compressibility (1/GPa) = 0.02035002
#
# Stress axis : x y z
#
# Youngs Moduli (GPa) = 68.39971 51.52151 53.27880
#
# Poissons Ratio (x) = 0.31669 0.31568
# Poissons Ratio (y) = 0.42044 0.22123
# Poissons Ratio (z) = 0.40528 0.21394
#
# Static dielectric constant tensor:
#      x y z
#    x 1.677690 -0.021010 -0.035100 
#    y -0.021010 1.777860 0.052070 
#    z -0.035100 0.052070 1.901610 
# 
# From -- ./inp_files/320263.got.cif
#   From: 2010.05.17/outbox.cif.g08.bks.cpg/sg2_161_cif.got.tgz:320263.got - 2010.06.03 11:33:40.
