data_PCOD9058767
_publ_section_title
;
Structure prediction by ZEFSAII (Michael W. Deem and Ramdas Pophale) SiO2 
 PCOD9058767
Probable space group: P -1
;
_chemical_formula_sum "Si O2"
_cell_formula_units_Z 12
_cell_length_a 13.604603
_cell_length_b 12.453019
_cell_length_c 8.910712
_cell_angle_alpha 52.524357
_cell_angle_beta 76.990268
_cell_angle_gamma 32.957994
_cell_volume 489.070112
_symmetry_space_group_name_H-M "P -1"
_symmetry_group_IT_number 2
_symmetry_cell_setting 'triclinic'
loop_
_space_group_symop_operation_xyz
x,y,z
-x,-y,-z
loop_
_atom_site_type_symbol
_atom_site_label
_atom_site_fract_x
_atom_site_fract_y
_atom_site_fract_z
Si Si1 0.410670 0.746382 0.900647
Si Si2 0.990771 0.452888 0.373622
Si Si3 0.027846 0.118329 0.942815
Si Si4 0.161102 0.669624 0.711634
Si Si5 0.363514 0.329819 0.623479
Si Si6 0.103247 0.203419 0.116377
O O1 0.209958 0.079344 0.602848
O O2 0.267895 0.876584 0.986128
O O3 0.500000 0.500000 0.000000
O O4 0.628967 0.570038 0.033944
O O5 0.017249 0.535104 0.168619
O O6 0.000000 0.500000 0.500000
O O7 0.723867 0.710356 0.250079
O O8 0.792460 0.469329 0.646658
O O9 0.076462 0.101121 0.110071
O O10 0.000000 0.000000 0.000000
O O11 0.260523 0.545334 0.613395
O O12 0.027830 0.691050 0.780187
O O13 0.000000 0.000000 0.500000
O O14 0.629811 0.061031 0.728942
#
# Coordination Sequence:
#
# PCOD9058767 Si02
#       6
#     2   2   2   2   2   2
#     4  11  23  44  69 104 150 188 239 311 359 429
#     4  11  22  48  76 105 145 198 246 302 371 442
#     4  11  23  43  72 103 143 197 243 293 372 433
#     4  12  26  44  69 109 153 189 246 308 365 438
#     4  11  24  46  70 107 148 187 246 312 357 439
#     4  12  25  46  75 107 142 201 246 297 377 439
#
# _framework density 24.536358
#
# number of rings (size 3 to 8) (size 9 to 14) (size 15 to 20)
#    0.000    0.667    5.000    4.500    2.333    2.667 
#    6.000    0.000    0.000    0.000    0.000    0.000 
#    0.000    0.000    0.000    0.000    0.000    0.000 
#
# Total GULP energy -67062.029216 kJ/mol
# GULP energy per Si atom -5588.502435 kJ/mol
# Density = 2.448051 g / cm^3
# Si number density = 24.536358 Si / 1000 Ang^3
#
#
#
# Elastic Constant Matrix: (Units=GPa)
#
#
# Indices 1 2 3 4 5 6 
#
# 1 159.0306 26.5972 56.0688 -11.0022 18.4369 -24.4485
# 2 26.5972 72.7928 43.3341 -5.6078 21.1441 -17.8659
# 3 56.0688 43.3341 106.2279 -7.4651 18.8290 -10.6041
# 4 -11.0022 -5.6078 -7.4651 25.8398 -1.0105 4.3643
# 5 18.4369 21.1441 18.8290 -1.0105 57.9139 4.5302
# 6 -24.4485 -17.8659 -10.6041 4.3643 4.5302 57.2209
#
#
#
# Elastic Compliance Matrix: (Units=1/GPa)
#
#
# Indices 1 2 3 4 5 6 
#
# 1 0.008383 0.000736 -0.003948 0.001997 -0.001860 0.003075
# 2 0.000736 0.021092 -0.007224 0.001569 -0.006022 0.005918
# 3 -0.003948 -0.007224 0.014522 0.001135 -0.000707 -0.001282
# 4 0.001997 0.001569 0.001135 0.040437 -0.000757 -0.001471
# 5 -0.001860 -0.006022 -0.000707 -0.000757 0.020617 -0.004380
# 6 0.003075 0.005918 -0.001282 -0.001471 -0.004380 0.020859
#
#
# Mechanical properties :
#
#
# Convention : Reuss Voigt Hill
#
# Bulk Modulus (GPa) = 43.24506 65.56128 54.40317
# Shear Modulus (GPa) = 32.36426 42.33167 37.34796
#
# Velocity S-wave (km/s) = 3.63579 4.15813 3.90570
# Velocity P-wave (km/s) = 5.94041 7.05914 6.52380
#
# Compressibility (1/GPa) = 0.02312403
#
# Stress axis : x y z
#
# Youngs Moduli (GPa) = 119.28198 47.41177 68.86208
#
# Poissons Ratio (x) = -0.03489 0.27189
# Poissons Ratio (y) = -0.08778 0.49747
# Poissons Ratio (z) = 0.47096 0.34251
#
# Static dielectric constant tensor:
#      x y z
#    x 1.843380 -0.060960 -0.094940 
#    y -0.060960 1.927480 -0.044390 
#    z -0.094940 -0.044390 1.941280 
# 
# From -- ./inp_files/304978.got.cif
#   From: 2010.05.17/outbox.cif.g08.bks.cpg/sg2_153_cif.got.tgz:304978.got - 2010.06.03 11:33:40.
