data_PCOD9058470
_publ_section_title
;
Structure prediction by ZEFSAII (Michael W. Deem and Ramdas Pophale) SiO2 
 PCOD9058470
Probable space group: P -1
;
_chemical_formula_sum "Si O2"
_cell_formula_units_Z 15
_cell_length_a 11.698244
_cell_length_b 7.415350
_cell_length_c 11.897159
_cell_angle_alpha 109.391570
_cell_angle_beta 143.379666
_cell_angle_gamma 71.881993
_cell_volume 578.879116
_symmetry_space_group_name_H-M "P -1"
_symmetry_group_IT_number 2
_symmetry_cell_setting 'triclinic'
loop_
_space_group_symop_operation_xyz
x,y,z
-x,-y,-z
loop_
_atom_site_type_symbol
_atom_site_label
_atom_site_fract_x
_atom_site_fract_y
_atom_site_fract_z
Si Si1 0.093629 0.071909 0.353292
Si Si2 0.500000 0.000000 0.000000
Si Si3 0.368166 0.247867 0.157338
Si Si4 0.719221 0.267673 0.183698
Si Si5 0.614507 0.706270 0.242356
Si Si6 0.258347 0.667691 0.395384
Si Si7 0.708812 0.325287 0.833100
Si Si8 0.143590 0.233591 0.195745
O O1 0.224749 0.159073 0.569417
O O2 0.192860 0.117002 0.322732
O O3 0.894512 0.205570 0.229317
O O4 0.096853 0.843705 0.318759
O O5 0.379675 0.110330 0.033476
O O6 0.703257 0.102533 0.225715
O O7 0.573908 0.304941 0.378088
O O8 0.261988 0.450075 0.079970
O O9 0.261976 0.168858 0.165298
O O10 0.703824 0.487306 0.253326
O O11 0.501193 0.238141 0.953499
O O12 0.451741 0.719231 0.212796
O O13 0.347220 0.690172 0.344957
O O14 0.184516 0.456297 0.296364
O O15 0.918520 0.220675 0.991786
#
# Coordination Sequence:
#
# PCOD9058470 Si02
#       8
#     2   1   2   2   2   2   2   2
#     4  12  26  46  75 112 141 188 246 300 360 434
#     4  12  26  42  74 100 138 196 232 294 352 430
#     4  11  23  45  69 106 145 189 242 294 362 431
#     4  11  26  45  71 103 148 192 240 295 356 436
#     4  11  23  48  69 102 147 194 237 293 366 423
#     4  11  25  43  73 108 141 190 238 301 361 428
#     4  11  22  45  75 103 146 192 236 302 369 424
#     4  11  25  45  76 107 145 188 238 305 366 426
#
# _framework density 25.912146
#
# number of rings (size 3 to 8) (size 9 to 14) (size 15 to 20)
#    0.000    0.800    2.667    6.000    3.733    3.733 
#    0.000    1.333    0.000    0.000    0.000    0.000 
#    0.000    0.000    0.000    0.000    0.000    0.000 
#
# Total GULP energy -83887.426679 kJ/mol
# GULP energy per Si atom -5592.495112 kJ/mol
# Density = 2.585317 g / cm^3
# Si number density = 25.912146 Si / 1000 Ang^3
#
#
#
# Elastic Constant Matrix: (Units=GPa)
#
#
# Indices 1 2 3 4 5 6 
#
# 1 113.7195 43.8836 34.2125 11.2353 -4.5659 -13.3116
# 2 43.8836 176.2515 36.7624 31.9324 -8.8495 -18.3284
# 3 34.2125 36.7624 110.0627 13.8666 -15.4368 -3.1764
# 4 11.2353 31.9324 13.8666 35.3006 -3.6293 -5.0371
# 5 -4.5659 -8.8495 -15.4368 -3.6293 31.4943 0.9103
# 6 -13.3116 -18.3284 -3.1764 -5.0371 0.9103 44.5496
#
#
#
# Elastic Compliance Matrix: (Units=1/GPa)
#
#
# Indices 1 2 3 4 5 6 
#
# 1 0.010558 -0.001795 -0.002616 -0.000434 -0.000369 0.002188
# 2 -0.001795 0.007582 -0.001139 -0.005509 0.000623 0.001866
# 3 -0.002616 -0.001139 0.011168 -0.002169 0.004547 -0.000792
# 4 -0.000434 -0.005509 -0.002169 0.034624 0.001277 0.001338
# 5 -0.000369 0.000623 0.004547 0.001277 0.034252 -0.000085
# 6 0.002188 0.001866 -0.000792 0.001338 -0.000085 0.023965
#
#
# Mechanical properties :
#
#
# Convention : Reuss Voigt Hill
#
# Bulk Modulus (GPa) = 54.92652 69.97229 62.44940
# Shear Modulus (GPa) = 35.88929 41.28058 38.58493
#
# Velocity S-wave (km/s) = 3.72565 3.99569 3.86303
# Velocity P-wave (km/s) = 6.30480 6.95339 6.63702
#
# Compressibility (1/GPa) = 0.01820614
#
# Stress axis : x y z
#
# Youngs Moduli (GPa) = 94.71843 131.89583 89.54476
#
# Poissons Ratio (x) = 0.23680 0.23425
# Poissons Ratio (y) = 0.17005 0.10199
# Poissons Ratio (z) = 0.24779 0.15023
#
# Static dielectric constant tensor:
#      x y z
#    x 2.520010 0.496670 -0.141420 
#    y 0.496670 2.623900 -0.191980 
#    z -0.141420 -0.191980 2.093440 
# 
# From -- ./inp_files/337863.got.cif
#   From: 2010.05.17/outbox.cif.g08.bks.cpg/sg2_169_cif.got.tgz:337863.got - 2010.06.03 11:33:40.
