data_PCOD9058305
_publ_section_title
;
Structure prediction by ZEFSAII (Michael W. Deem and Ramdas Pophale) SiO2 
 PCOD9058305
Probable space group: P -1
;
_chemical_formula_sum "Si O2"
_cell_formula_units_Z 16
_cell_length_a 9.251563
_cell_length_b 9.380164
_cell_length_c 12.353292
_cell_angle_alpha 102.452138
_cell_angle_beta 92.246951
_cell_angle_gamma 131.885947
_cell_volume 754.184455
_symmetry_space_group_name_H-M "P -1"
_symmetry_group_IT_number 2
_symmetry_cell_setting 'triclinic'
loop_
_space_group_symop_operation_xyz
x,y,z
-x,-y,-z
loop_
_atom_site_type_symbol
_atom_site_label
_atom_site_fract_x
_atom_site_fract_y
_atom_site_fract_z
Si Si1 0.515648 0.072099 0.892849
Si Si2 0.154748 0.474863 0.983428
Si Si3 0.429266 0.194745 0.236618
Si Si4 0.081626 0.758454 0.732637
Si Si5 0.098402 0.442655 0.728933
Si Si6 0.319760 0.253115 0.466731
Si Si7 0.096171 0.873148 0.519342
Si Si8 0.144704 0.204328 0.106427
O O1 0.615007 0.006521 0.820746
O O2 0.297146 0.943958 0.819391
O O3 0.634564 0.302067 0.949487
O O4 0.500000 0.000000 0.000000
O O5 0.117079 0.401381 0.846241
O O6 0.153294 0.345436 0.047825
O O7 0.000000 0.500000 0.000000
O O8 0.669872 0.384244 0.275735
O O9 0.341504 0.176826 0.346067
O O10 0.333505 0.236724 0.151829
O O11 0.019635 0.554473 0.738881
O O12 0.116750 0.782738 0.608715
O O13 0.937188 0.780594 0.781969
O O14 0.968108 0.254602 0.613042
O O15 0.500000 0.500000 0.500000
O O16 0.104173 0.178985 0.460021
O O17 0.289793 0.112501 0.540556
O O18 0.000000 0.000000 0.000000
#
# Coordination Sequence:
#
# PCOD9058305 Si02
#       8
#     2   2   2   2   2   2   2   2
#     4  11  22  45  68  96 138 182 224 280 349 410
#     4  12  24  43  71 101 138 185 229 281 356 416
#     4  11  23  43  68  98 140 182 227 293 347 408
#     4  11  23  46  68 100 137 177 232 290 344 418
#     4  11  24  44  71  98 139 186 229 288 353 418
#     4  11  24  44  68  98 141 180 231 288 349 415
#     4  11  25  44  71 101 135 190 231 286 356 413
#     4  12  26  40  67 103 138 178 235 294 340 418
#
# _framework density 21.214970000000001
#
# number of rings (size 3 to 8) (size 9 to 14) (size 15 to 20)
#    0.000    0.750    6.250    1.875    3.500    1.500 
#    0.000    2.500    0.000    0.000    0.000    0.000 
#    0.000    0.000    0.000    0.000    0.000    0.000 
#
# Total GULP energy -89267.447652 kJ/mol
# GULP energy per Si atom -5579.215478 kJ/mol
# Density = 2.116668 g / cm^3
# Si number density = 21.214970 Si / 1000 Ang^3
#
#
#
# Elastic Constant Matrix: (Units=GPa)
#
#
# Indices 1 2 3 4 5 6 
#
# 1 44.2989 3.5507 -12.1735 4.4996 -5.7943 -1.7343
# 2 3.5507 120.7064 35.0408 -6.9739 -0.9544 -7.0752
# 3 -12.1735 35.0408 108.5158 -3.4420 -12.0016 -1.9374
# 4 4.4996 -6.9739 -3.4420 31.6348 -7.6543 5.3748
# 5 -5.7943 -0.9544 -12.0016 -7.6543 36.2920 -4.1302
# 6 -1.7343 -7.0752 -1.9374 5.3748 -4.1302 23.3894
#
#
#
# Elastic Compliance Matrix: (Units=1/GPa)
#
#
# Indices 1 2 3 4 5 6 
#
# 1 0.024846 -0.001798 0.003883 -0.002842 0.004963 0.003149
# 2 -0.001798 0.009480 -0.003241 0.001514 -0.000560 0.002019
# 3 0.003883 -0.003241 0.011243 0.000914 0.004540 0.000831
# 4 -0.002842 0.001514 0.000914 0.035155 0.006552 -0.006598
# 5 0.004963 -0.000560 0.004540 0.006552 0.031747 0.004675
# 6 0.003149 0.002019 0.000831 -0.006598 0.004675 0.046009
#
#
# Mechanical properties :
#
#
# Convention : Reuss Voigt Hill
#
# Bulk Modulus (GPa) = 23.11781 36.26191 29.68986
# Shear Modulus (GPa) = 28.53693 34.73677 31.63685
#
# Velocity S-wave (km/s) = 3.67158 4.05083 3.86586
# Velocity P-wave (km/s) = 5.37537 6.24570 5.82681
#
# Compressibility (1/GPa) = 0.04325669
#
# Stress axis : x y z
#
# Youngs Moduli (GPa) = 40.24756 105.48919 88.94211
#
# Poissons Ratio (x) = 0.18972 -0.34536
# Poissons Ratio (y) = 0.07238 0.28824
# Poissons Ratio (z) = -0.15628 0.34186
#
# Static dielectric constant tensor:
#      x y z
#    x 1.777050 0.037000 0.018260 
#    y 0.037000 1.773220 -0.028890 
#    z 0.018260 -0.028890 1.643990 
# 
# From -- ./inp_files/382651.got.cif
#   From: 2010.05.17/outbox.cif.g08.bks.cpg/sg2_192_cif.got.tgz:382651.got - 2010.06.03 11:33:40.
