data_PCOD9058591
_publ_section_title
;
Structure prediction by ZEFSAII (Michael W. Deem and Ramdas Pophale) SiO2 
 PCOD9058591
Probable space group: P -1
;
_chemical_formula_sum "Si O2"
_cell_formula_units_Z 16
_cell_length_a 14.932343
_cell_length_b 10.126352
_cell_length_c 11.655007
_cell_angle_alpha 128.659792
_cell_angle_beta 143.061696
_cell_angle_gamma 37.495629
_cell_volume 644.457146
_symmetry_space_group_name_H-M "P -1"
_symmetry_group_IT_number 2
_symmetry_cell_setting 'triclinic'
loop_
_space_group_symop_operation_xyz
x,y,z
-x,-y,-z
loop_
_atom_site_type_symbol
_atom_site_label
_atom_site_fract_x
_atom_site_fract_y
_atom_site_fract_z
Si Si1 0.292687 0.230594 0.400177
Si Si2 0.913873 0.759707 0.597063
Si Si3 0.724548 0.648562 0.898261
Si Si4 0.267405 0.339604 0.813594
Si Si5 0.380595 0.726394 0.931991
Si Si6 0.349029 0.574223 0.572158
Si Si7 0.341928 0.776782 0.466883
Si Si8 0.911115 0.811347 0.035596
O O1 0.192569 0.292757 0.453899
O O2 0.289942 0.423369 0.454375
O O3 0.180116 0.190838 0.177048
O O4 0.500000 0.000000 0.500000
O O5 0.847345 0.741984 0.394325
O O6 0.132671 0.586891 0.761920
O O7 0.815750 0.007728 0.645757
O O8 0.518259 0.768714 0.691658
O O9 0.831682 0.739927 0.012842
O O10 0.710968 0.668597 0.032357
O O11 0.867227 0.395001 0.869155
O O12 0.474188 0.218577 0.904189
O O13 0.350914 0.668819 0.744777
O O14 0.500000 0.500000 0.000000
O O15 0.185453 0.939408 0.900669
O O16 0.246470 0.764192 0.476035
O O17 0.550063 0.413422 0.621341
#
# Coordination Sequence:
#
# PCOD9058591 Si02
#       8
#     2   2   2   2   2   2   2   2
#     4  12  20  42  69  96 135 185 226 278 343 409
#     4  11  24  42  72 104 133 185 235 286 342 412
#     4  11  22  46  73 104 132 184 238 287 341 417
#     4  11  24  43  72 102 138 177 239 287 337 417
#     4  12  26  46  66 105 145 184 227 288 354 413
#     4  11  24  40  69  99 140 184 227 280 350 419
#     4  11  23  44  69 101 138 185 230 282 353 413
#     4  11  25  42  72 103 135 182 234 289 342 411
#
# _framework density 24.827096000000001
#
# number of rings (size 3 to 8) (size 9 to 14) (size 15 to 20)
#    0.000    0.750    5.000    3.000    1.750    1.000 
#    4.500    1.875    0.000    0.000    0.000    0.000 
#    0.000    0.000    0.000    0.000    0.000    0.000 
#
# Total GULP energy -89509.604508 kJ/mol
# GULP energy per Si atom -5594.350282 kJ/mol
# Density = 2.477059 g / cm^3
# Si number density = 24.827096 Si / 1000 Ang^3
#
#
#
# Elastic Constant Matrix: (Units=GPa)
#
#
# Indices 1 2 3 4 5 6 
#
# 1 94.0016 18.6932 12.0631 -3.3096 -2.2190 -2.5220
# 2 18.6932 112.4004 0.0049 -11.5267 -3.4644 -7.7827
# 3 12.0631 0.0049 92.2726 1.8381 -14.2548 -17.0318
# 4 -3.3096 -11.5267 1.8381 42.6042 -11.3791 5.0373
# 5 -2.2190 -3.4644 -14.2548 -11.3791 28.8710 -6.2784
# 6 -2.5220 -7.7827 -17.0318 5.0373 -6.2784 34.0122
#
#
#
# Elastic Compliance Matrix: (Units=1/GPa)
#
#
# Indices 1 2 3 4 5 6 
#
# 1 0.011210 -0.001848 -0.001565 0.000481 -0.000042 -0.000455
# 2 -0.001848 0.009828 0.001264 0.003049 0.003502 0.002940
# 3 -0.001565 0.001264 0.014081 0.001061 0.009313 0.008786
# 4 0.000481 0.003049 0.001061 0.027467 0.011609 -0.000660
# 5 -0.000042 0.003502 0.009313 0.011609 0.046925 0.012404
# 6 -0.000455 0.002940 0.008786 -0.000660 0.012404 0.036828
#
#
# Mechanical properties :
#
#
# Convention : Reuss Voigt Hill
#
# Bulk Modulus (GPa) = 32.44502 40.02190 36.23346
# Shear Modulus (GPa) = 31.07294 38.95837 35.01566
#
# Velocity S-wave (km/s) = 3.54160 3.96559 3.75958
# Velocity P-wave (km/s) = 5.46083 6.09288 5.78549
#
# Compressibility (1/GPa) = 0.03082137
#
# Stress axis : x y z
#
# Youngs Moduli (GPa) = 89.20454 101.74831 71.01552
#
# Poissons Ratio (x) = 0.18801 0.11117
# Poissons Ratio (y) = 0.16483 -0.08976
# Poissons Ratio (z) = 0.13965 -0.12861
#
# Static dielectric constant tensor:
#      x y z
#    x 1.997120 0.050140 0.075490 
#    y 0.050140 2.018040 0.007370 
#    z 0.075490 0.007370 1.997110 
# 
# From -- ./inp_files/464834.got.cif
#   From: 2010.05.17/outbox.cif.g08.bks.cpg/sg2_233_cif.got.tgz:464834.got - 2010.06.03 11:33:40.
