data_PCOD9058075
_publ_section_title
;
Structure prediction by ZEFSAII (Michael W. Deem and Ramdas Pophale) SiO2 
 PCOD9058075
Probable space group: P -1
;
_chemical_formula_sum "Si O2"
_cell_formula_units_Z 14
_cell_length_a 19.290465
_cell_length_b 11.779031
_cell_length_c 8.592963
_cell_angle_alpha 75.998905
_cell_angle_beta 133.543086
_cell_angle_gamma 141.549347
_cell_volume 661.050192
_symmetry_space_group_name_H-M "P -1"
_symmetry_group_IT_number 2
_symmetry_cell_setting 'triclinic'
loop_
_space_group_symop_operation_xyz
x,y,z
-x,-y,-z
loop_
_atom_site_type_symbol
_atom_site_label
_atom_site_fract_x
_atom_site_fract_y
_atom_site_fract_z
Si Si1 0.371929 0.827931 0.011012
Si Si2 0.821492 0.620553 0.237153
Si Si3 0.201128 0.005161 0.925738
Si Si4 0.723177 0.300334 0.572499
Si Si5 0.880329 0.336193 0.087994
Si Si6 0.623019 0.463441 0.284298
Si Si7 0.009544 0.993525 0.834724
O O1 0.195744 0.722594 0.836144
O O2 0.530953 0.016286 0.333468
O O3 0.273893 0.597516 0.909897
O O4 0.500000 0.000000 0.000000
O O5 0.657286 0.497822 0.140930
O O6 0.895129 0.790903 0.168112
O O7 0.015585 0.806912 0.584151
O O8 0.141300 0.026245 0.965718
O O9 0.403021 0.256419 0.068807
O O10 0.219709 0.891659 0.048014
O O11 0.817062 0.371560 0.861049
O O12 0.673367 0.383545 0.443813
O O13 0.887386 0.437079 0.653914
O O14 0.788387 0.727387 0.520342
O O15 0.000000 0.000000 0.000000
#
# Coordination Sequence:
#
# PCOD9058075 Si02
#       7
#     2   2   2   2   2   2   2
#     4  12  23  41  65 100 137 166 216 266 324 392
#     4  11  25  43  66  97 136 173 211 274 320 385
#     4  11  22  44  70  94 129 177 220 263 327 386
#     4  11  23  40  65  99 129 178 213 268 326 384
#     4  11  23  39  68  97 131 174 217 265 330 382
#     4  11  22  45  69  91 133 172 223 261 325 391
#     4  11  27  45  67  96 130 170 222 275 324 378
#
# _framework density 21.178419999999999
#
# number of rings (size 3 to 8) (size 9 to 14) (size 15 to 20)
#    0.000    0.857    5.714    2.143    2.000    6.286 
#    0.000    0.000    0.000    0.000    0.000    0.000 
#    0.000    0.000    0.000    0.000    0.000    0.000 
#
# Total GULP energy -78242.260418 kJ/mol
# GULP energy per Si atom -5588.732887 kJ/mol
# Density = 2.113022 g / cm^3
# Si number density = 21.178420 Si / 1000 Ang^3
#
#
#
# Elastic Constant Matrix: (Units=GPa)
#
#
# Indices 1 2 3 4 5 6 
#
# 1 137.1526 77.9734 33.8561 20.8545 3.5651 7.2683
# 2 77.9734 148.4149 35.3369 17.4015 -4.1070 -2.0850
# 3 33.8561 35.3369 45.3533 22.5148 6.4619 2.8916
# 4 20.8545 17.4015 22.5148 50.1992 9.3550 2.0875
# 5 3.5651 -4.1070 6.4619 9.3550 27.5058 21.1328
# 6 7.2683 -2.0850 2.8916 2.0875 21.1328 41.5174
#
#
#
# Elastic Compliance Matrix: (Units=1/GPa)
#
#
# Indices 1 2 3 4 5 6 
#
# 1 0.011346 -0.004851 -0.004031 -0.001321 0.001064 -0.002424
# 2 -0.004851 0.010601 -0.005127 0.000003 0.003415 0.000000
# 3 -0.004031 -0.005127 0.035462 -0.011423 -0.005875 0.001543
# 4 -0.001321 0.000003 -0.011423 0.027276 -0.010111 0.004802
# 5 0.001064 0.003415 -0.005875 -0.010111 0.067091 -0.033247
# 6 -0.002424 0.000000 0.001543 0.004802 -0.033247 0.041085
#
#
# Mechanical properties :
#
#
# Convention : Reuss Voigt Hill
#
# Bulk Modulus (GPa) = 34.02379 69.47261 51.74820
# Shear Modulus (GPa) = 21.67539 36.09478 28.88509
#
# Velocity S-wave (km/s) = 3.20264 4.13282 3.69710
# Velocity P-wave (km/s) = 5.45674 7.45978 6.53545
#
# Compressibility (1/GPa) = 0.02939120
#
# Stress axis : x y z
#
# Youngs Moduli (GPa) = 88.13981 94.33027 28.19888
#
# Poissons Ratio (x) = 0.45755 0.11368
# Poissons Ratio (y) = 0.42753 0.14458
# Poissons Ratio (z) = 0.35532 0.48364
#
# Static dielectric constant tensor:
#      x y z
#    x 1.769030 0.008110 0.026760 
#    y 0.008110 1.780310 -0.004480 
#    z 0.026760 -0.004480 1.779030 
# 
# From -- ./inp_files/332003.got.cif
#   From: 2010.05.17/outbox.cif.g08.bks.cpg/sg2_167_cif.got.tgz:332003.got - 2010.06.03 11:33:40.
