data_PCOD9058197
_publ_section_title
;
Structure prediction by ZEFSAII (Michael W. Deem and Ramdas Pophale) SiO2 
 PCOD9058197
Probable space group: P -1
;
_chemical_formula_sum "Si O2"
_cell_formula_units_Z 10
_cell_length_a 10.505693
_cell_length_b 11.054543
_cell_length_c 9.308109
_cell_angle_alpha 93.270890
_cell_angle_beta 63.139670
_cell_angle_gamma 144.340820
_cell_volume 451.365458
_symmetry_space_group_name_H-M "P -1"
_symmetry_group_IT_number 2
_symmetry_cell_setting 'triclinic'
loop_
_space_group_symop_operation_xyz
x,y,z
-x,-y,-z
loop_
_atom_site_type_symbol
_atom_site_label
_atom_site_fract_x
_atom_site_fract_y
_atom_site_fract_z
Si Si1 0.858141 0.006224 0.661598
Si Si2 0.537844 0.418387 0.585387
Si Si3 0.461433 0.808677 0.623247
Si Si4 0.971457 0.395075 0.365628
Si Si5 0.569415 0.680440 0.050511
O O1 0.101014 0.296717 0.546311
O O2 0.540539 0.806212 0.735209
O O3 0.000000 0.000000 0.500000
O O4 0.810885 0.928272 0.842963
O O5 0.500000 0.500000 0.500000
O O6 0.457104 0.233211 0.537626
O O7 0.363927 0.296787 0.815839
O O8 0.133086 0.608021 0.723385
O O9 0.695877 0.094892 0.511628
O O10 0.000000 0.500000 0.500000
O O11 0.276987 0.549262 0.193615
O O12 0.500000 0.500000 0.000000
#
# Coordination Sequence:
#
# PCOD9058197 Si02
#       5
#     2   2   2   2   2
#     4  12  23  44  66 101 146 178 231 289 338 414
#     4  12  24  44  70 103 139 179 231 294 337 409
#     4  11  22  44  73  97 142 184 228 289 344 404
#     4  11  23  45  74 100 141 185 229 290 346 414
#     4  12  24  44  73 101 140 187 231 283 353 408
#
# _framework density 22.154995
#
# number of rings (size 3 to 8) (size 9 to 14) (size 15 to 20)
#    0.000    0.400    8.000    0.000    0.000    1.600 
#    3.600    4.000    0.000    0.000    0.000    0.000 
#    0.000    0.000    0.000    0.000    0.000    0.000 
#
# Total GULP energy -55875.985272 kJ/mol
# GULP energy per Si atom -5587.598527 kJ/mol
# Density = 2.210457 g / cm^3
# Si number density = 22.154995 Si / 1000 Ang^3
#
#
#
# Elastic Constant Matrix: (Units=GPa)
#
#
# Indices 1 2 3 4 5 6 
#
# 1 150.2779 35.1353 43.8304 19.6851 2.6198 27.3828
# 2 35.1353 150.0370 39.4311 20.0268 3.7235 -15.7901
# 3 43.8304 39.4311 127.2151 12.5180 21.7898 2.6883
# 4 19.6851 20.0268 12.5180 30.0234 2.5621 1.0549
# 5 2.6198 3.7235 21.7898 2.5621 50.1778 8.0342
# 6 27.3828 -15.7901 2.6883 1.0549 8.0342 51.5344
#
#
#
# Elastic Compliance Matrix: (Units=1/GPa)
#
#
# Indices 1 2 3 4 5 6 
#
# 1 0.009233 -0.001606 -0.002491 -0.003905 0.001794 -0.005468
# 2 -0.001606 0.008404 -0.001709 -0.003952 -0.000176 0.003626
# 3 -0.002491 -0.001709 0.010057 -0.001095 -0.004207 0.000953
# 4 -0.003905 -0.003952 -0.001095 0.039041 -0.001067 0.000288
# 5 0.001794 -0.000176 -0.004207 -0.001067 0.022412 -0.004260
# 6 -0.005468 0.003626 0.000953 0.000288 -0.004260 0.024029
#
#
# Mechanical properties :
#
#
# Convention : Reuss Voigt Hill
#
# Bulk Modulus (GPa) = 62.18260 73.81376 67.99818
# Shear Modulus (GPa) = 38.41782 46.95601 42.68691
#
# Velocity S-wave (km/s) = 4.16871 4.60872 4.39423
# Velocity P-wave (km/s) = 7.16232 7.85556 7.51693
#
# Compressibility (1/GPa) = 0.01608167
#
# Stress axis : x y z
#
# Youngs Moduli (GPa) = 108.30916 118.99331 99.43680
#
# Poissons Ratio (x) = 0.19114 0.24766
# Poissons Ratio (y) = 0.17398 0.16992
# Poissons Ratio (z) = 0.26976 0.20334
#
# Static dielectric constant tensor:
#      x y z
#    x 1.945450 0.085710 0.009290 
#    y 0.085710 1.816590 -0.016180 
#    z 0.009290 -0.016180 1.770510 
# 
# From -- ./inp_files/22230.got.cif
#   From: 2010.05.17/outbox.cif.g08.bks.cpg/sg2_12_cif.got.tgz:22230.got - 2010.06.03 11:33:40.
