data_PCOD9058168
_publ_section_title
;
Structure prediction by ZEFSAII (Michael W. Deem and Ramdas Pophale) SiO2 
 PCOD9058168
Probable space group: P -1
;
_chemical_formula_sum "Si O2"
_cell_formula_units_Z 16
_cell_length_a 9.090174
_cell_length_b 8.157449
_cell_length_c 15.629716
_cell_angle_alpha 73.186997
_cell_angle_beta 102.692504
_cell_angle_gamma 49.999320
_cell_volume 707.993797
_symmetry_space_group_name_H-M "P -1"
_symmetry_group_IT_number 2
_symmetry_cell_setting 'triclinic'
loop_
_space_group_symop_operation_xyz
x,y,z
-x,-y,-z
loop_
_atom_site_type_symbol
_atom_site_label
_atom_site_fract_x
_atom_site_fract_y
_atom_site_fract_z
Si Si1 0.726147 0.714676 0.944803
Si Si2 0.623219 0.506859 0.086108
Si Si3 0.472404 0.839731 0.726386
Si Si4 0.001895 0.110605 0.569734
Si Si5 0.145238 0.989539 0.287383
Si Si6 0.842206 0.560670 0.377159
Si Si7 0.549547 0.245284 0.803564
Si Si8 0.717899 0.785369 0.622701
O O1 0.608450 0.713584 0.851143
O O2 0.631387 0.987448 0.883193
O O3 0.658059 0.669000 0.027755
O O4 0.000000 0.500000 0.000000
O O5 0.463754 0.636084 0.130088
O O6 0.882850 0.227891 0.184542
O O7 0.500000 0.500000 0.000000
O O8 0.650796 0.694169 0.693514
O O9 0.340393 0.138211 0.665884
O O10 0.262516 0.895499 0.670656
O O11 0.922180 0.368345 0.492318
O O12 0.846112 0.163336 0.615823
O O13 0.000000 0.000000 0.500000
O O14 0.222932 0.097737 0.329604
O O15 0.300684 0.827512 0.247749
O O16 0.708864 0.554321 0.294213
O O17 0.060867 0.443353 0.371915
O O18 0.500000 0.000000 0.500000
#
# Coordination Sequence:
#
# PCOD9058168 Si02
#       8
#     2   2   2   2   2   2   2   2
#     4  11  22  44  72  98 127 180 229 284 336 402
#     4  12  25  46  72  97 138 178 224 291 350 398
#     4  11  24  43  66 101 135 170 232 278 330 406
#     4  12  23  41  68  99 141 181 219 271 344 403
#     4  12  24  45  65  99 143 176 231 280 334 409
#     4  11  23  41  69  98 133 180 222 275 335 402
#     4  11  24  45  73  99 135 183 230 280 345 408
#     4  12  21  40  71  96 134 176 221 273 334 393
#
# _framework density 22.599067000000002
#
# number of rings (size 3 to 8) (size 9 to 14) (size 15 to 20)
#    0.000    0.500    7.500    1.500    0.000    1.000 
#    0.000    3.750    0.000    0.000    0.000    0.000 
#    0.000    0.000    0.000    0.000    0.000    0.000 
#
# Total GULP energy -89539.408585 kJ/mol
# GULP energy per Si atom -5596.213037 kJ/mol
# Density = 2.254763 g / cm^3
# Si number density = 22.599067 Si / 1000 Ang^3
#
#
#
# Elastic Constant Matrix: (Units=GPa)
#
#
# Indices 1 2 3 4 5 6 
#
# 1 100.3526 49.4359 31.0884 9.6041 -4.1990 -21.1184
# 2 49.4359 100.8889 48.1196 30.6576 0.4838 -26.5591
# 3 31.0884 48.1196 124.3256 11.7256 13.7322 -10.4906
# 4 9.6041 30.6576 11.7256 44.5791 1.7184 -0.8280
# 5 -4.1990 0.4838 13.7322 1.7184 66.8249 13.8341
# 6 -21.1184 -26.5591 -10.4906 -0.8280 13.8341 38.4789
#
#
#
# Elastic Compliance Matrix: (Units=1/GPa)
#
#
# Indices 1 2 3 4 5 6 
#
# 1 0.013696 -0.005788 -0.001103 0.001360 0.000455 0.003087
# 2 -0.005788 0.021410 -0.004654 -0.012001 -0.001447 0.010595
# 3 -0.001103 -0.004654 0.010256 0.000817 -0.002114 -0.000244
# 4 0.001360 -0.012001 0.000817 0.030023 0.000662 -0.006906
# 5 0.000455 -0.001447 -0.002114 0.000662 0.016954 -0.007406
# 6 0.003087 0.010595 -0.000244 -0.006906 -0.007406 0.037443
#
#
# Mechanical properties :
#
#
# Convention : Reuss Voigt Hill
#
# Bulk Modulus (GPa) = 44.89566 64.76165 54.82865
# Shear Modulus (GPa) = 31.19215 43.10479 37.14847
#
# Velocity S-wave (km/s) = 3.71919 4.37208 4.05879
# Velocity P-wave (km/s) = 6.19293 7.36246 6.80288
#
# Compressibility (1/GPa) = 0.02227387
#
# Stress axis : x y z
#
# Youngs Moduli (GPa) = 73.01244 46.70640 97.50213
#
# Poissons Ratio (x) = 0.27034 0.10751
# Poissons Ratio (y) = 0.42260 0.45376
# Poissons Ratio (z) = 0.08051 0.21736
#
# Static dielectric constant tensor:
#      x y z
#    x 1.857630 0.043160 -0.023820 
#    y 0.043160 1.809560 -0.057600 
#    z -0.023820 -0.057600 1.698550 
# 
# From -- ./inp_files/307575.got.cif
#   From: 2010.05.17/outbox.cif.g08.bks.cpg/sg2_154_cif.got.tgz:307575.got - 2010.06.03 11:33:40.
