data_PCOD9058203
_publ_section_title
;
Structure prediction by ZEFSAII (Michael W. Deem and Ramdas Pophale) SiO2 
 PCOD9058203
Probable space group: P -1
;
_chemical_formula_sum "Si O2"
_cell_formula_units_Z 14
_cell_length_a 8.732694
_cell_length_b 8.095948
_cell_length_c 20.888578
_cell_angle_alpha 151.176905
_cell_angle_beta 119.564556
_cell_angle_gamma 69.098835
_cell_volume 609.155245
_symmetry_space_group_name_H-M "P -1"
_symmetry_group_IT_number 2
_symmetry_cell_setting 'triclinic'
loop_
_space_group_symop_operation_xyz
x,y,z
-x,-y,-z
loop_
_atom_site_type_symbol
_atom_site_label
_atom_site_fract_x
_atom_site_fract_y
_atom_site_fract_z
Si Si1 0.620819 0.770523 0.778795
Si Si2 0.310431 0.947878 0.507397
Si Si3 0.207519 0.588607 0.048696
Si Si4 0.876252 0.913504 0.609775
Si Si5 0.713580 0.935601 0.220602
Si Si6 0.666962 0.316683 0.452036
Si Si7 0.664637 0.468330 0.806072
O O1 0.613723 0.369994 0.619280
O O2 0.694288 0.795372 0.874944
O O3 0.422667 0.857861 0.773013
O O4 0.737520 0.016180 0.833296
O O5 0.222634 0.761053 0.489800
O O6 0.183999 0.086208 0.476707
O O7 0.473978 0.229866 0.665497
O O8 0.268079 0.382952 0.930094
O O9 0.310224 0.485066 0.097615
O O10 0.000000 0.500000 0.000000
O O11 0.767561 0.597853 0.519752
O O12 0.815975 0.251079 0.742398
O O13 0.080874 0.924389 0.672018
O O14 0.626824 0.958352 0.281248
O O15 0.500000 0.500000 0.500000
#
# Coordination Sequence:
#
# PCOD9058203 Si02
#       7
#     2   2   2   2   2   2   2
#     4  11  24  45  73 103 137 183 235 285 348 412
#     4  11  23  42  76 105 132 183 233 290 355 399
#     4  12  27  48  70  99 143 192 231 278 342 420
#     4  11  23  43  68 107 140 171 234 298 341 412
#     4  12  25  44  68 105 142 178 235 285 340 423
#     4  12  22  40  71  99 137 182 222 287 355 395
#     4  11  22  44  74 100 137 184 233 286 345 411
#
# _framework density 22.982645999999999
#
# number of rings (size 3 to 8) (size 9 to 14) (size 15 to 20)
#    0.000    0.571    4.286    5.143    0.000    1.714 
#    0.000    2.857    0.000    0.000    0.000    0.000 
#    0.000    0.000    0.000    0.000    0.000    0.000 
#
# Total GULP energy -78011.048468 kJ/mol
# GULP energy per Si atom -5572.217748 kJ/mol
# Density = 2.293034 g / cm^3
# Si number density = 22.982646 Si / 1000 Ang^3
#
#
#
# Elastic Constant Matrix: (Units=GPa)
#
#
# Indices 1 2 3 4 5 6 
#
# 1 94.7204 58.9537 38.4105 -8.1422 -4.4337 -2.5080
# 2 58.9537 168.0800 35.8062 -23.9554 18.0142 40.4808
# 3 38.4105 35.8062 67.7862 -19.5421 -10.6241 12.5137
# 4 -8.1422 -23.9554 -19.5421 28.5401 5.2529 -10.9739
# 5 -4.4337 18.0142 -10.6241 5.2529 44.1424 -8.8198
# 6 -2.5080 40.4808 12.5137 -10.9739 -8.8198 49.9206
#
#
#
# Elastic Compliance Matrix: (Units=1/GPa)
#
#
# Indices 1 2 3 4 5 6 
#
# 1 0.019946 -0.009021 -0.008984 -0.005127 0.006240 0.010545
# 2 -0.009021 0.013921 0.000341 0.006470 -0.009696 -0.012118
# 3 -0.008984 0.000341 0.024350 0.012526 0.002606 -0.003618
# 4 -0.005127 0.006470 0.012526 0.049076 -0.005755 0.001128
# 5 0.006240 -0.009696 0.002606 -0.005755 0.030890 0.011715
# 6 0.010545 -0.012118 -0.003618 0.001128 0.011715 0.033613
#
#
# Mechanical properties :
#
#
# Convention : Reuss Voigt Hill
#
# Bulk Modulus (GPa) = 43.68936 66.32525 55.00730
# Shear Modulus (GPa) = 23.28262 37.68169 30.48216
#
# Velocity S-wave (km/s) = 3.18630 4.05356 3.64581
# Velocity P-wave (km/s) = 5.70856 7.12951 6.45823
#
# Compressibility (1/GPa) = 0.02288887
#
# Stress axis : x y z
#
# Youngs Moduli (GPa) = 50.13616 71.83446 41.06791
#
# Poissons Ratio (x) = 0.64803 0.36894
# Poissons Ratio (y) = 0.45229 -0.01400
# Poissons Ratio (z) = 0.45040 -0.02449
#
# Static dielectric constant tensor:
#      x y z
#    x 1.923950 0.021400 0.014380 
#    y 0.021400 1.939740 -0.010000 
#    z 0.014380 -0.010000 2.041730 
# 
# From -- ./inp_files/606948.got.cif
#   From: 2010.05.17/outbox.cif.g08.bks.cpg/sg2_304_cif.got.tgz:606948.got - 2010.06.03 11:33:40.
