data_PCOD9059496
_publ_section_title
;
Structure prediction by ZEFSAII (Michael W. Deem and Ramdas Pophale) SiO2 
 PCOD9059496
Probable space group: P -1
;
_chemical_formula_sum "Si O2"
_cell_formula_units_Z 16
_cell_length_a 7.945674
_cell_length_b 16.124315
_cell_length_c 9.568860
_cell_angle_alpha 32.626884
_cell_angle_beta 77.502377
_cell_angle_gamma 81.384092
_cell_volume 644.100873
_symmetry_space_group_name_H-M "P -1"
_symmetry_group_IT_number 2
_symmetry_cell_setting 'triclinic'
loop_
_space_group_symop_operation_xyz
x,y,z
-x,-y,-z
loop_
_atom_site_type_symbol
_atom_site_label
_atom_site_fract_x
_atom_site_fract_y
_atom_site_fract_z
Si Si1 0.605141 0.979064 0.649467
Si Si2 0.411968 0.752944 0.514146
Si Si3 0.707513 0.496765 0.486691
Si Si4 0.208555 0.332076 0.496638
Si Si5 0.002222 0.929563 0.914396
Si Si6 0.666095 0.158815 0.898988
Si Si7 0.047544 0.715063 0.639274
Si Si8 0.909415 0.764421 0.898261
O O1 0.780232 0.899593 0.700604
O O2 0.500000 0.000000 0.500000
O O3 0.614931 0.140102 0.500159
O O4 0.494535 0.868025 0.932180
O O5 0.599474 0.688770 0.567873
O O6 0.400773 0.846330 0.238529
O O7 0.235297 0.646073 0.692822
O O8 0.500000 0.500000 0.500000
O O9 0.766105 0.533553 0.582741
O O10 0.753148 0.328097 0.671691
O O11 0.802365 0.623990 0.191386
O O12 0.082935 0.352386 0.359470
O O13 0.129078 0.185576 0.810674
O O14 0.031777 0.842920 0.885024
O O15 0.185615 0.951245 0.928705
O O16 0.936380 0.099291 0.661488
O O17 0.985177 0.710674 0.815808
#
# Coordination Sequence:
#
# PCOD9059496 Si02
#       8
#     2   2   2   2   2   2   2   2
#     4  12  25  41  69 106 136 172 221 279 343 410
#     4  12  25  41  71 101 140 177 218 279 344 401
#     4  11  23  48  73  91 133 183 237 274 325 399
#     4  11  24  43  68 102 132 181 228 278 328 406
#     4  11  23  41  70 100 138 176 222 280 339 403
#     4  12  24  43  73 100 127 186 231 272 336 398
#     4  12  25  43  66 105 142 170 220 282 350 399
#     4  11  24  44  66  96 141 179 217 281 335 398
#
# _framework density 24.840828999999999
#
# number of rings (size 3 to 8) (size 9 to 14) (size 15 to 20)
#    0.000    0.500    5.000    4.125    3.500    2.000 
#    0.000    2.500    0.000    0.000    0.000    0.000 
#    0.000    0.000    0.000    0.000    0.000    0.000 
#
# Total GULP energy -89690.241677 kJ/mol
# GULP energy per Si atom -5605.640105 kJ/mol
# Density = 2.478429 g / cm^3
# Si number density = 24.840829 Si / 1000 Ang^3
#
#
#
# Elastic Constant Matrix: (Units=GPa)
#
#
# Indices 1 2 3 4 5 6 
#
# 1 131.1991 50.7442 5.8772 25.5311 -6.3060 6.0797
# 2 50.7442 138.0639 29.5977 27.3383 -1.7879 32.5948
# 3 5.8772 29.5977 44.2002 16.0260 -9.2751 -3.0080
# 4 25.5311 27.3383 16.0260 51.5580 -1.6408 3.7225
# 5 -6.3060 -1.7879 -9.2751 -1.6408 30.4476 8.5486
# 6 6.0797 32.5948 -3.0080 3.7225 8.5486 53.1757
#
#
#
# Elastic Compliance Matrix: (Units=1/GPa)
#
#
# Indices 1 2 3 4 5 6 
#
# 1 0.009730 -0.003776 0.003169 -0.003825 0.002188 0.001297
# 2 -0.003776 0.012383 -0.007743 -0.001769 -0.000430 -0.007404
# 3 0.003169 -0.007743 0.032213 -0.007612 0.008077 0.005441
# 4 -0.003825 -0.001769 -0.007612 0.024561 -0.001796 -0.000340
# 5 0.002188 -0.000430 0.008077 -0.001796 0.037144 -0.005375
# 6 0.001297 -0.007404 0.005441 -0.000340 -0.005375 0.024391
#
#
# Mechanical properties :
#
#
# Convention : Reuss Voigt Hill
#
# Bulk Modulus (GPa) = 26.57697 53.98905 40.28301
# Shear Modulus (GPa) = 29.46983 42.18587 35.82785
#
# Velocity S-wave (km/s) = 3.44807 4.12545 3.80188
# Velocity P-wave (km/s) = 5.15504 6.66886 5.96020
#
# Compressibility (1/GPa) = 0.03762656
#
# Stress axis : x y z
#
# Youngs Moduli (GPa) = 102.77550 80.75310 31.04327
#
# Poissons Ratio (x) = 0.30493 -0.09838
# Poissons Ratio (y) = 0.38809 0.24037
# Poissons Ratio (z) = -0.32572 0.62528
#
# Static dielectric constant tensor:
#      x y z
#    x 2.006840 -0.011300 -0.013210 
#    y -0.011300 1.967770 -0.034410 
#    z -0.013210 -0.034410 1.985130 
# 
# From -- ./inp_files/205071.got.cif
#   From: 2010.05.17/outbox.cif.g08.bks.cpg/sg2_103_cif.got.tgz:205071.got - 2010.06.03 11:33:40.
