data_PCOD9059170
_publ_section_title
;
Structure prediction by ZEFSAII (Michael W. Deem and Ramdas Pophale) SiO2 
 PCOD9059170
Probable space group: P -1
;
_chemical_formula_sum "Si O2"
_cell_formula_units_Z 14
_cell_length_a 13.856757
_cell_length_b 13.010657
_cell_length_c 11.341051
_cell_angle_alpha 121.284603
_cell_angle_beta 19.838589
_cell_angle_gamma 119.575805
_cell_volume 592.903979
_symmetry_space_group_name_H-M "P -1"
_symmetry_group_IT_number 2
_symmetry_cell_setting 'triclinic'
loop_
_space_group_symop_operation_xyz
x,y,z
-x,-y,-z
loop_
_atom_site_type_symbol
_atom_site_label
_atom_site_fract_x
_atom_site_fract_y
_atom_site_fract_z
Si Si1 0.330181 0.393555 0.195827
Si Si2 0.114270 0.419813 0.926677
Si Si3 0.824450 0.991172 0.376710
Si Si4 0.705178 0.388399 0.980246
Si Si5 0.633336 0.851186 0.128261
Si Si6 0.526912 0.207821 0.251508
Si Si7 0.256645 0.790907 0.732400
O O1 0.991644 0.405863 0.586336
O O2 0.500000 0.500000 0.000000
O O3 0.432177 0.391931 0.213171
O O4 0.404585 0.267055 0.976650
O O5 0.307384 0.315459 0.589825
O O6 0.281488 0.504723 0.875895
O O7 0.000000 0.500000 0.000000
O O8 0.864189 0.342947 0.231970
O O9 0.588128 0.049970 0.602018
O O10 0.649914 0.916331 0.632715
O O11 0.051218 0.093635 0.212815
O O12 0.020170 0.889229 0.031433
O O13 0.713394 0.260290 0.962326
O O14 0.538347 0.816484 0.348935
O O15 0.691390 0.198622 0.181008
#
# Coordination Sequence:
#
# PCOD9059170 Si02
#       7
#     2   2   2   2   2   2   2
#     4  12  29  50  72 101 140 193 235 281 336 425
#     4  11  23  40  69 111 144 178 224 293 365 416
#     4  11  25  45  70 106 140 178 231 297 355 411
#     4  12  26  47  73 100 148 182 236 286 347 414
#     4  12  26  45  71 100 141 188 236 281 349 414
#     4  11  25  42  73 109 138 178 230 296 364 407
#     4  11  24  41  73 107 141 177 231 296 358 415
#
# _framework density 23.612594000000001
#
# number of rings (size 3 to 8) (size 9 to 14) (size 15 to 20)
#    0.000    0.571    2.857    4.286   10.000    0.000 
#    0.000    4.286    0.000    0.000    0.000    0.000 
#    0.000    0.000    0.000    0.000    0.000    0.000 
#
# Total GULP energy -78428.314365 kJ/mol
# GULP energy per Si atom -5602.022455 kJ/mol
# Density = 2.355885 g / cm^3
# Si number density = 23.612594 Si / 1000 Ang^3
#
#
#
# Elastic Constant Matrix: (Units=GPa)
#
#
# Indices 1 2 3 4 5 6 
#
# 1 82.9199 30.1126 -1.2894 -7.0784 -10.2061 6.1573
# 2 30.1126 144.6042 19.6013 -53.0451 9.6357 6.9184
# 3 -1.2894 19.6013 59.9505 -24.6464 -5.7859 -4.9289
# 4 -7.0784 -53.0451 -24.6464 51.6994 -0.4683 -3.7778
# 5 -10.2061 9.6357 -5.7859 -0.4683 33.9648 -2.9363
# 6 6.1573 6.9184 -4.9289 -3.7778 -2.9363 33.7494
#
#
#
# Elastic Compliance Matrix: (Units=1/GPa)
#
#
# Indices 1 2 3 4 5 6 
#
# 1 0.014181 -0.004022 0.001410 -0.001554 0.005513 -0.001251
# 2 -0.004022 0.012630 0.000414 0.012505 -0.004618 -0.000797
# 3 0.001410 0.000414 0.022150 0.011555 0.004636 0.004590
# 4 -0.001554 0.012505 0.011555 0.037716 -0.001222 0.003523
# 5 0.005513 -0.004618 0.004636 -0.001222 0.033475 0.003393
# 6 -0.001251 -0.000797 0.004590 0.003523 0.003393 0.031382
#
#
# Mechanical properties :
#
#
# Convention : Reuss Voigt Hill
#
# Bulk Modulus (GPa) = 22.43846 42.70263 32.57055
# Shear Modulus (GPa) = 29.27666 39.81940 34.54803
#
# Velocity S-wave (km/s) = 3.52501 4.11099 3.82922
# Velocity P-wave (km/s) = 5.10793 6.37633 5.77705
#
# Compressibility (1/GPa) = 0.04456634
#
# Stress axis : x y z
#
# Youngs Moduli (GPa) = 70.51641 79.17660 45.14575
#
# Poissons Ratio (x) = 0.31844 -0.06367
# Poissons Ratio (y) = 0.28361 -0.01869
# Poissons Ratio (z) = -0.09945 -0.03278
#
# Static dielectric constant tensor:
#      x y z
#    x 1.873950 -0.016700 0.020800 
#    y -0.016700 1.910750 -0.054880 
#    z 0.020800 -0.054880 1.939950 
# 
# From -- ./inp_files/65879.got.cif
#   From: 2010.05.17/outbox.cif.g08.bks.cpg/sg2_33_cif.got.tgz:65879.got - 2010.06.03 11:33:40.
