data_PCOD9059064
_publ_section_title
;
Structure prediction by ZEFSAII (Michael W. Deem and Ramdas Pophale) SiO2 
 PCOD9059064
Probable space group: P -1
;
_chemical_formula_sum "Si O2"
_cell_formula_units_Z 11
_cell_length_a 7.518759
_cell_length_b 11.153213
_cell_length_c 7.826769
_cell_angle_alpha 133.648400
_cell_angle_beta 56.881992
_cell_angle_gamma 120.683259
_cell_volume 388.045641
_symmetry_space_group_name_H-M "P -1"
_symmetry_group_IT_number 2
_symmetry_cell_setting 'triclinic'
loop_
_space_group_symop_operation_xyz
x,y,z
-x,-y,-z
loop_
_atom_site_type_symbol
_atom_site_label
_atom_site_fract_x
_atom_site_fract_y
_atom_site_fract_z
Si Si1 0.330511 0.289626 0.301812
Si Si2 0.556650 0.403214 0.708659
Si Si3 0.000000 0.000000 0.000000
Si Si4 0.054329 0.560977 0.252172
Si Si5 0.776886 0.246566 0.972552
Si Si6 0.709920 0.959442 0.451218
O O1 0.414937 0.467636 0.333493
O O2 0.142339 0.342628 0.563665
O O3 0.550867 0.229733 0.175199
O O4 0.209473 0.145793 0.094351
O O5 0.797125 0.372604 0.597351
O O6 0.379000 0.230897 0.624022
O O7 0.500000 0.500000 0.000000
O O8 0.098517 0.013560 0.761422
O O9 0.198848 0.621347 0.069508
O O10 0.964249 0.357431 0.102731
O O11 0.774522 0.076289 0.700846
O O12 0.500000 0.000000 0.500000
#
# Coordination Sequence:
#
# PCOD9059064 Si02
#       6
#     2   2   1   2   2   2
#     4  12  23  41  68  95 122 169 214 258 305 383
#     4  12  22  42  66  93 129 161 215 261 310 364
#     4  12  20  34  68  94 118 158 222 246 306 362
#     4  11  23  40  65  95 125 168 206 260 316 373
#     4  11  23  41  66  91 131 162 210 259 318 369
#     4  12  21  41  62  95 124 165 209 261 303 378
#
# _framework density 28.347183000000001
#
# number of rings (size 3 to 8) (size 9 to 14) (size 15 to 20)
#    0.000    0.364    9.091    1.091    0.000    0.000 
#    0.000    1.818    4.000    0.000    0.000    0.000 
#    0.000    0.000    0.000    0.000    0.000    0.000 
#
# Total GULP energy -61414.605931 kJ/mol
# GULP energy per Si atom -5583.145994 kJ/mol
# Density = 2.828266 g / cm^3
# Si number density = 28.347183 Si / 1000 Ang^3
#
#
#
# Elastic Constant Matrix: (Units=GPa)
#
#
# Indices 1 2 3 4 5 6 
#
# 1 101.4799 42.7492 31.6812 1.7209 1.1618 14.4176
# 2 42.7492 169.6192 71.3833 12.7021 10.7183 41.9725
# 3 31.6812 71.3833 159.4647 -1.4456 23.2122 39.1464
# 4 1.7209 12.7021 -1.4456 73.6576 21.0195 25.0041
# 5 1.1618 10.7183 23.2122 21.0195 44.3908 8.3663
# 6 14.4176 41.9725 39.1464 25.0041 8.3663 41.0364
#
#
#
# Elastic Compliance Matrix: (Units=1/GPa)
#
#
# Indices 1 2 3 4 5 6 
#
# 1 0.011257 -0.002201 -0.001188 0.000098 0.000968 -0.000828
# 2 -0.002201 0.008914 -0.001708 0.001047 -0.000324 -0.007287
# 3 -0.001188 -0.001708 0.010731 0.005745 -0.005935 -0.010364
# 4 0.000098 0.001047 0.005745 0.022729 -0.010577 -0.018278
# 5 0.000968 -0.000324 -0.005935 -0.010577 0.029547 0.006074
# 6 -0.000828 -0.007287 -0.010364 -0.018278 0.006074 0.051898
#
#
# Mechanical properties :
#
#
# Convention : Reuss Voigt Hill
#
# Bulk Modulus (GPa) = 48.28610 80.24345 64.26477
# Shear Modulus (GPa) = 32.85731 50.80030 41.82880
#
# Velocity S-wave (km/s) = 3.40825 4.23788 3.84551
# Velocity P-wave (km/s) = 5.70605 7.23291 6.51437
#
# Compressibility (1/GPa) = 0.02070990
#
# Stress axis : x y z
#
# Youngs Moduli (GPa) = 88.83341 112.18125 93.18367
#
# Poissons Ratio (x) = 0.24689 0.11071
# Poissons Ratio (y) = 0.19550 0.15911
# Poissons Ratio (z) = 0.10554 0.19155
#
# Static dielectric constant tensor:
#      x y z
#    x 2.355310 -0.016930 -0.037070 
#    y -0.016930 2.116430 0.051590 
#    z -0.037070 0.051590 2.233570 
# 
# From -- ./inp_files/173278.got.cif
#   From: 2010.05.17/outbox.cif.g08.bks.cpg/sg2_87_cif.got.tgz:173278.got - 2010.06.03 11:33:40.
