data_PCOD9059015
_publ_section_title
;
Structure prediction by ZEFSAII (Michael W. Deem and Ramdas Pophale) SiO2 
 PCOD9059015
Probable space group: P -1
;
_chemical_formula_sum "Si O2"
_cell_formula_units_Z 14
_cell_length_a 24.826200
_cell_length_b 12.447018
_cell_length_c 9.743579
_cell_angle_alpha 35.490732
_cell_angle_beta 50.625533
_cell_angle_gamma 26.942277
_cell_volume 742.616197
_symmetry_space_group_name_H-M "P -1"
_symmetry_group_IT_number 2
_symmetry_cell_setting 'triclinic'
loop_
_space_group_symop_operation_xyz
x,y,z
-x,-y,-z
loop_
_atom_site_type_symbol
_atom_site_label
_atom_site_fract_x
_atom_site_fract_y
_atom_site_fract_z
Si Si1 0.158053 0.643292 0.003325
Si Si2 0.042369 0.202032 0.785251
Si Si3 0.369997 0.311477 0.802063
Si Si4 0.668400 0.898769 0.476157
Si Si5 0.424097 0.945612 0.832957
Si Si6 0.293167 0.754440 0.996986
Si Si7 0.614065 0.399547 0.696371
O O1 0.238530 0.411292 0.250087
O O2 0.066900 0.671641 0.092780
O O3 0.255644 0.477552 0.899242
O O4 0.075063 0.004991 0.804019
O O5 0.000000 0.500000 0.500000
O O6 0.169287 0.937846 0.944518
O O7 0.345978 0.580012 0.525054
O O8 0.500000 0.000000 0.000000
O O9 0.388821 0.165820 0.778701
O O10 0.710945 0.017230 0.267577
O O11 0.529570 0.218378 0.435803
O O12 0.648410 0.862476 0.393580
O O13 0.574574 0.612361 0.900822
O O14 0.390227 0.813093 0.076871
O O15 0.305338 0.717768 0.179489
#
# Coordination Sequence:
#
# PCOD9059015 Si02
#       7
#     2   2   2   2   2   2   2
#     4  11  24  38  58  91 116 145 200 242 280 344
#     4  11  23  40  61  82 112 159 199 240 279 330
#     4  12  23  36  57  92 124 150 179 236 306 350
#     4   9  17  38  61  89 116 144 198 242 277 345
#     4   9  21  36  62  91 117 149 184 240 296 341
#     4   9  18  37  63  87 112 156 199 233 278 340
#     4   9  20  36  57  90 123 148 186 235 292 347
#
# _framework density 18.852269
#
# number of rings (size 3 to 8) (size 9 to 14) (size 15 to 20)
#    0.000    2.000    2.857    2.571    2.000    2.857 
#    0.000    0.714    0.000    2.571    0.000    0.000 
#    0.000    0.000    0.000    0.000    0.000    0.000 
#
# Total GULP energy -78197.908838 kJ/mol
# GULP energy per Si atom -5585.564917 kJ/mol
# Density = 1.880936 g / cm^3
# Si number density = 18.852269 Si / 1000 Ang^3
#
#
#
# Elastic Constant Matrix: (Units=GPa)
#
#
# Indices 1 2 3 4 5 6 
#
# 1 92.0039 25.4068 37.1378 8.8176 -8.5712 -28.1186
# 2 25.4068 44.8307 30.2779 15.9434 -9.4080 -16.4345
# 3 37.1378 30.2779 119.0413 12.9444 -11.2953 -12.1240
# 4 8.8176 15.9434 12.9444 29.2483 -3.7157 -8.4598
# 5 -8.5712 -9.4080 -11.2953 -3.7157 25.6920 -1.6334
# 6 -28.1186 -16.4345 -12.1240 -8.4598 -1.6334 34.6761
#
#
#
# Elastic Compliance Matrix: (Units=1/GPa)
#
#
# Indices 1 2 3 4 5 6 
#
# 1 0.016714 -0.002833 -0.003095 0.001811 0.004188 0.011767
# 2 -0.002833 0.038370 -0.005390 -0.013217 0.009538 0.011228
# 3 -0.003095 -0.005390 0.010856 -0.001172 0.001503 -0.001483
# 4 0.001811 -0.013217 -0.001172 0.043166 0.001836 0.005412
# 5 0.004188 0.009538 0.001503 0.001836 0.045440 0.011030
# 6 0.011767 0.011228 -0.001483 0.005412 0.011030 0.045023
#
#
# Mechanical properties :
#
#
# Convention : Reuss Voigt Hill
#
# Bulk Modulus (GPa) = 23.09259 49.05788 36.07524
# Shear Modulus (GPa) = 21.12925 28.79348 24.96136
#
# Velocity S-wave (km/s) = 3.35144 3.91234 3.64270
# Velocity P-wave (km/s) = 5.22035 6.81816 6.07204
#
# Compressibility (1/GPa) = 0.04330394
#
# Stress axis : x y z
#
# Youngs Moduli (GPa) = 59.83136 26.06189 92.11779
#
# Poissons Ratio (x) = 0.07385 0.28507
# Poissons Ratio (y) = 0.16953 0.49648
# Poissons Ratio (z) = 0.18516 0.14046
#
# Static dielectric constant tensor:
#      x y z
#    x 1.663250 -0.008340 -0.033350 
#    y -0.008340 1.633980 -0.004830 
#    z -0.033350 -0.004830 1.687830 
# 
# From -- ./inp_files/353325.got.cif
#   From: 2010.05.17/outbox.cif.g08.bks.cpg/sg2_177_cif.got.tgz:353325.got - 2010.06.03 11:33:40.
