data_PCOD9059899
_publ_section_title
;
Structure prediction by ZEFSAII (Michael W. Deem and Ramdas Pophale) SiO2 
 PCOD9059899
Probable space group: P -1
;
_chemical_formula_sum "Si O2"
_cell_formula_units_Z 16
_cell_length_a 8.429894
_cell_length_b 6.016136
_cell_length_c 17.766562
_cell_angle_alpha 83.812137
_cell_angle_beta 55.222663
_cell_angle_gamma 64.566975
_cell_volume 656.839604
_symmetry_space_group_name_H-M "P -1"
_symmetry_group_IT_number 2
_symmetry_cell_setting 'triclinic'
loop_
_space_group_symop_operation_xyz
x,y,z
-x,-y,-z
loop_
_atom_site_type_symbol
_atom_site_label
_atom_site_fract_x
_atom_site_fract_y
_atom_site_fract_z
Si Si1 0.823886 0.600805 0.774673
Si Si2 0.328289 0.299257 0.854030
Si Si3 0.160134 0.184791 0.619794
Si Si4 0.662857 0.068083 0.263974
Si Si5 0.219107 0.243918 0.439041
Si Si6 0.403555 0.702292 0.083751
Si Si7 0.979621 0.763302 0.867254
Si Si8 0.766979 0.071164 0.687911
O O1 0.699195 0.433262 0.827555
O O2 0.918232 0.606323 0.830101
O O3 0.721734 0.884147 0.763326
O O4 0.007552 0.474924 0.667238
O O5 0.415884 0.259094 0.917950
O O6 0.111922 0.563886 0.902949
O O7 0.293037 0.092808 0.819940
O O8 0.528381 0.303522 0.751127
O O9 0.285248 0.152362 0.509859
O O10 0.281452 0.097009 0.669039
O O11 0.982467 0.082516 0.656255
O O12 0.412441 0.260952 0.339527
O O13 0.831209 0.178857 0.217799
O O14 0.191783 0.037169 0.403325
O O15 0.000000 0.500000 0.500000
O O16 0.500000 0.500000 0.000000
O O17 0.772606 0.037422 0.914594
#
# Coordination Sequence:
#
# PCOD9059899 Si02
#       8
#     2   2   2   2   2   2   2   2
#     4  12  21  46  74  97 141 188 231 281 359 423
#     4  11  24  42  74 103 132 187 232 276 353 420
#     4  12  21  44  64  97 144 187 237 290 346 402
#     4  11  24  43  67  99 141 186 240 281 346 411
#     4  11  25  37  63 103 140 190 242 293 336 399
#     4  12  28  49  76 108 140 175 226 297 358 422
#     4  12  24  46  74 105 136 184 234 284 346 430
#     4  11  23  42  70  98 141 194 234 288 346 414
#
# _framework density 24.359067
#
# number of rings (size 3 to 8) (size 9 to 14) (size 15 to 20)
#    0.000    0.500    7.500    0.750    5.250    1.000 
#    0.000    3.750    0.000    0.000    0.000    0.000 
#    0.000    0.000    0.000    0.000    0.000    0.000 
#
# Total GULP energy -89208.987118 kJ/mol
# GULP energy per Si atom -5575.561695 kJ/mol
# Density = 2.430362 g / cm^3
# Si number density = 24.359067 Si / 1000 Ang^3
#
#
#
# Elastic Constant Matrix: (Units=GPa)
#
#
# Indices 1 2 3 4 5 6 
#
# 1 111.0118 38.2314 11.8163 21.0658 2.9786 -16.2316
# 2 38.2314 79.4363 32.4572 13.1517 -6.9303 -17.7605
# 3 11.8163 32.4572 89.0195 19.5394 18.1971 -11.1409
# 4 21.0658 13.1517 19.5394 47.1208 10.8167 -3.8572
# 5 2.9786 -6.9303 18.1971 10.8167 30.1756 5.4985
# 6 -16.2316 -17.7605 -11.1409 -3.8572 5.4985 46.4605
#
#
#
# Elastic Compliance Matrix: (Units=1/GPa)
#
#
# Indices 1 2 3 4 5 6 
#
# 1 0.011905 -0.005714 0.002256 -0.003774 -0.002960 0.002553
# 2 -0.005714 0.020421 -0.008062 -0.001980 0.010373 0.002485
# 3 0.002256 -0.008062 0.017364 -0.002944 -0.012046 0.003051
# 4 -0.003774 -0.001980 -0.002944 0.026520 -0.007877 0.000353
# 5 -0.002960 0.010373 -0.012046 -0.007877 0.047028 -0.006177
# 6 0.002553 0.002485 0.003051 0.000353 -0.006177 0.024857
#
#
# Mechanical properties :
#
#
# Convention : Reuss Voigt Hill
#
# Bulk Modulus (GPa) = 37.52327 49.38637 43.45482
# Shear Modulus (GPa) = 27.77506 37.88222 32.82864
#
# Velocity S-wave (km/s) = 3.38040 3.94783 3.67508
# Velocity P-wave (km/s) = 5.53839 6.41084 5.99052
#
# Compressibility (1/GPa) = 0.02665013
#
# Stress axis : x y z
#
# Youngs Moduli (GPa) = 84.00074 48.96880 57.59057
#
# Poissons Ratio (x) = 0.27981 -0.12994
# Poissons Ratio (y) = 0.47998 0.46430
# Poissons Ratio (z) = -0.18952 0.39479
#
# Static dielectric constant tensor:
#      x y z
#    x 2.038110 -0.090020 -0.013280 
#    y -0.090020 2.019650 0.007140 
#    z -0.013280 0.007140 1.963960 
# 
# From -- ./inp_files/553510.got.cif
#   From: 2010.05.17/outbox.cif.g08.bks.cpg/sg2_277_cif.got.tgz:553510.got - 2010.06.03 11:33:40.
