data_PCOD9059738
_publ_section_title
;
Structure prediction by ZEFSAII (Michael W. Deem and Ramdas Pophale) SiO2 
 PCOD9059738
Probable space group: P -1
;
_chemical_formula_sum "Si O2"
_cell_formula_units_Z 14
_cell_length_a 9.082236
_cell_length_b 10.761799
_cell_length_c 11.612425
_cell_angle_alpha 42.521622
_cell_angle_beta 129.277742
_cell_angle_gamma 122.079907
_cell_volume 589.285184
_symmetry_space_group_name_H-M "P -1"
_symmetry_group_IT_number 2
_symmetry_cell_setting 'triclinic'
loop_
_space_group_symop_operation_xyz
x,y,z
-x,-y,-z
loop_
_atom_site_type_symbol
_atom_site_label
_atom_site_fract_x
_atom_site_fract_y
_atom_site_fract_z
Si Si1 0.098011 0.991127 0.390924
Si Si2 0.019469 0.364250 0.206583
Si Si3 0.847866 0.239749 0.793859
Si Si4 0.249489 0.132330 0.124720
Si Si5 0.409257 0.788688 0.095190
Si Si6 0.778765 0.638440 0.473175
Si Si7 0.653553 0.253585 0.179538
O O1 0.265561 0.920367 0.599468
O O2 0.936613 0.816522 0.402454
O O3 0.004199 0.153160 0.298444
O O4 0.190352 0.080915 0.260067
O O5 0.206838 0.377715 0.369346
O O6 0.846044 0.398857 0.183860
O O7 0.000000 0.500000 0.000000
O O8 0.770910 0.234223 0.891519
O O9 0.820912 0.436601 0.590516
O O10 0.729344 0.063044 0.794449
O O11 0.069436 0.207889 0.923440
O O12 0.447315 0.266033 0.121938
O O13 0.573645 0.676201 0.302278
O O14 0.372722 0.749254 0.969589
O O15 0.500000 0.000000 0.000000
#
# Coordination Sequence:
#
# PCOD9059738 Si02
#       7
#     2   2   2   2   2   2   2
#     4  11  24  44  67  96 135 177 220 274 336 396
#     4  11  23  44  72  98 131 171 226 283 329 389
#     4  11  25  42  68 101 137 174 224 271 334 393
#     4  11  24  44  66  97 141 180 212 270 337 403
#     4  12  21  41  69  96 129 170 228 278 322 380
#     4  11  24  42  71 101 127 175 232 278 326 385
#     4  11  23  42  67  98 129 176 221 271 332 388
#
# _framework density 23.757598000000002
#
# number of rings (size 3 to 8) (size 9 to 14) (size 15 to 20)
#    0.000    0.857    1.429    7.714    2.000    0.571 
#    0.000    6.429    0.000    0.000    0.000    0.000 
#    0.000    0.000    0.000    0.000    0.000    0.000 
#
# Total GULP energy -78262.591487 kJ/mol
# GULP energy per Si atom -5590.185106 kJ/mol
# Density = 2.370352 g / cm^3
# Si number density = 23.757598 Si / 1000 Ang^3
#
#
#
# Elastic Constant Matrix: (Units=GPa)
#
#
# Indices 1 2 3 4 5 6 
#
# 1 101.6384 10.2244 23.5623 -0.0855 9.1631 23.4740
# 2 10.2244 71.5563 20.2960 -12.9123 10.7549 6.8948
# 3 23.5623 20.2960 143.8407 8.1651 26.4528 8.9483
# 4 -0.0855 -12.9123 8.1651 50.1560 -0.2768 -1.9162
# 5 9.1631 10.7549 26.4528 -0.2768 33.9747 5.9937
# 6 23.4740 6.8948 8.9483 -1.9162 5.9937 36.5115
#
#
#
# Elastic Compliance Matrix: (Units=1/GPa)
#
#
# Indices 1 2 3 4 5 6 
#
# 1 0.011905 -0.000572 -0.001271 -0.000196 -0.000786 -0.007116
# 2 -0.000572 0.015952 -0.001709 0.004310 -0.003272 -0.001462
# 3 -0.001271 -0.001709 0.008580 -0.001875 -0.005792 -0.000110
# 4 -0.000196 0.004310 -0.001875 0.021386 0.000170 0.000866
# 5 -0.000786 -0.003272 -0.005792 0.000170 0.035779 -0.003322
# 6 -0.007116 -0.001462 -0.000110 0.000866 -0.003322 0.032857
#
#
# Mechanical properties :
#
#
# Convention : Reuss Voigt Hill
#
# Bulk Modulus (GPa) = 34.09183 47.24453 40.66818
# Shear Modulus (GPa) = 34.88166 41.65861 38.27013
#
# Velocity S-wave (km/s) = 3.83591 4.19201 4.01790
# Velocity P-wave (km/s) = 5.83095 6.58482 6.21931
#
# Compressibility (1/GPa) = 0.02933254
#
# Stress axis : x y z
#
# Youngs Moduli (GPa) = 83.99711 62.68847 116.54933
#
# Poissons Ratio (x) = 0.03587 0.14813
# Poissons Ratio (y) = 0.04806 0.19920
# Poissons Ratio (z) = 0.10676 0.10714
#
# Static dielectric constant tensor:
#      x y z
#    x 1.925410 0.021700 0.012060 
#    y 0.021700 1.987750 -0.010620 
#    z 0.012060 -0.010620 1.920370 
# 
# From -- ./inp_files/306862.got.cif
#   From: 2010.05.17/outbox.cif.g08.bks.cpg/sg2_154_cif.got.tgz:306862.got - 2010.06.03 11:33:40.
