data_PCOD9059181
_publ_section_title
;
Structure prediction by ZEFSAII (Michael W. Deem and Ramdas Pophale) SiO2 
 PCOD9059181
Probable space group: P -1
;
_chemical_formula_sum "Si O2"
_cell_formula_units_Z 10
_cell_length_a 13.373997
_cell_length_b 9.194670
_cell_length_c 9.695139
_cell_angle_alpha 55.157867
_cell_angle_beta 123.554349
_cell_angle_gamma 149.062484
_cell_volume 497.455092
_symmetry_space_group_name_H-M "P -1"
_symmetry_group_IT_number 2
_symmetry_cell_setting 'triclinic'
loop_
_space_group_symop_operation_xyz
x,y,z
-x,-y,-z
loop_
_atom_site_type_symbol
_atom_site_label
_atom_site_fract_x
_atom_site_fract_y
_atom_site_fract_z
Si Si1 0.619209 0.273931 0.542680
Si Si2 0.391671 0.994974 0.808007
Si Si3 0.605711 0.653447 0.206965
Si Si4 0.967618 0.442359 0.669882
Si Si5 0.807417 0.887826 0.946803
O O1 0.519791 0.150709 0.682730
O O2 0.822934 0.327952 0.220983
O O3 0.841047 0.460807 0.614479
O O4 0.500000 0.000000 0.500000
O O5 0.614421 0.466791 0.376412
O O6 0.364964 0.159777 0.760259
O O7 0.500000 0.000000 0.000000
O O8 0.388417 0.424586 0.099864
O O9 0.761127 0.849826 0.094272
O O10 0.000000 0.500000 0.500000
O O11 0.842551 0.121744 0.782393
O O12 0.000000 0.000000 0.000000
#
# Coordination Sequence:
#
# PCOD9059181 Si02
#       5
#     2   2   2   2   2
#     4  12  24  45  72  95 138 183 227 278 339 406
#     4  12  27  44  70 105 141 171 230 290 337 395
#     4  11  25  43  66 102 137 177 226 287 335 398
#     4  12  24  43  71 100 134 185 227 272 342 410
#     4  11  23  40  69  98 139 179 227 273 345 407
#
# _framework density 20.102315999999998
#
# number of rings (size 3 to 8) (size 9 to 14) (size 15 to 20)
#    0.000    0.400    4.000    4.200    2.800    5.600 
#    0.000    0.000    0.000    0.000    0.000    0.000 
#    0.000    0.000    0.000    0.000    0.000    0.000 
#
# Total GULP energy -55983.092390 kJ/mol
# GULP energy per Si atom -5598.309239 kJ/mol
# Density = 2.005656 g / cm^3
# Si number density = 20.102316 Si / 1000 Ang^3
#
#
#
# Elastic Constant Matrix: (Units=GPa)
#
#
# Indices 1 2 3 4 5 6 
#
# 1 134.1006 38.3652 59.4560 -9.9077 -16.0701 15.8556
# 2 38.3652 85.7033 31.9686 3.9240 -13.8258 15.4135
# 3 59.4560 31.9686 140.5144 -17.4289 -15.6925 3.4791
# 4 -9.9077 3.9240 -17.4289 36.8616 7.3059 5.1696
# 5 -16.0701 -13.8258 -15.6925 7.3059 48.6566 -1.4046
# 6 15.8556 15.4135 3.4791 5.1696 -1.4046 50.8498
#
#
#
# Elastic Compliance Matrix: (Units=1/GPa)
#
#
# Indices 1 2 3 4 5 6 
#
# 1 0.010262 -0.002831 -0.003313 0.001566 0.001217 -0.002241
# 2 -0.002831 0.014976 -0.002239 -0.003589 0.003049 -0.003055
# 3 -0.003313 -0.002239 0.009549 0.003598 0.000830 0.000715
# 4 0.001566 -0.003589 0.003598 0.030843 -0.004057 -0.002894
# 5 0.001217 0.003049 0.000830 -0.004057 0.022688 -0.000321
# 6 -0.002241 -0.003055 0.000715 -0.002894 -0.000321 0.021527
#
#
# Mechanical properties :
#
#
# Convention : Reuss Voigt Hill
#
# Bulk Modulus (GPa) = 55.48298 68.87755 62.18027
# Shear Modulus (GPa) = 37.70292 42.64219 40.17255
#
# Velocity S-wave (km/s) = 4.33546 4.61071 4.47520
# Velocity P-wave (km/s) = 7.26098 7.91724 7.59620
#
# Compressibility (1/GPa) = 0.01802354
#
# Stress axis : x y z
#
# Youngs Moduli (GPa) = 97.44617 66.77387 104.72419
#
# Poissons Ratio (x) = 0.18901 0.34690
# Poissons Ratio (y) = 0.27583 0.23443
# Poissons Ratio (z) = 0.32279 0.14947
#
# Static dielectric constant tensor:
#      x y z
#    x 1.690160 0.007340 0.018510 
#    y 0.007340 1.709840 0.019470 
#    z 0.018510 0.019470 1.687720 
# 
# From -- ./inp_files/306385.got.cif
#   From: 2010.05.17/outbox.cif.g08.bks.cpg/sg2_154_cif.got.tgz:306385.got - 2010.06.03 11:33:40.
