data_PCOD9059302
_publ_section_title
;
Structure prediction by ZEFSAII (Michael W. Deem and Ramdas Pophale) SiO2 
 PCOD9059302
Probable space group: P -1
;
_chemical_formula_sum "Si O2"
_cell_formula_units_Z 16
_cell_length_a 9.901230
_cell_length_b 8.477203
_cell_length_c 15.739455
_cell_angle_alpha 105.193746
_cell_angle_beta 37.422996
_cell_angle_gamma 116.074309
_cell_volume 711.895753
_symmetry_space_group_name_H-M "P -1"
_symmetry_group_IT_number 2
_symmetry_cell_setting 'triclinic'
loop_
_space_group_symop_operation_xyz
x,y,z
-x,-y,-z
loop_
_atom_site_type_symbol
_atom_site_label
_atom_site_fract_x
_atom_site_fract_y
_atom_site_fract_z
Si Si1 0.255342 0.983145 0.370781
Si Si2 0.619879 0.690457 0.365308
Si Si3 0.408945 0.697001 0.644773
Si Si4 0.265396 0.640908 0.402915
Si Si5 0.491615 0.918948 0.899480
Si Si6 0.883981 0.666881 0.850923
Si Si7 0.449715 0.441672 0.152828
Si Si8 0.032430 0.956547 0.077082
O O1 0.269902 0.830295 0.401630
O O2 0.462036 0.166882 0.325706
O O3 0.318597 0.940788 0.238650
O O4 0.000000 0.000000 0.500000
O O5 0.605447 0.749368 0.477208
O O6 0.657185 0.507051 0.324963
O O7 0.353325 0.642352 0.454374
O O8 0.798085 0.833623 0.231087
O O9 0.160191 0.705560 0.738922
O O10 0.435874 0.573049 0.251256
O O11 0.000000 0.500000 0.500000
O O12 0.562863 0.749572 0.839998
O O13 0.229724 0.873058 0.981762
O O14 0.500000 0.000000 0.000000
O O15 0.774364 0.591080 0.803608
O O16 0.701031 0.531478 0.989778
O O17 0.859633 0.853354 0.903577
O O18 0.000000 0.000000 0.000000
#
# Coordination Sequence:
#
# PCOD9059302 Si02
#       8
#     2   2   2   2   2   2   2   2
#     4  12  28  46  73 103 142 187 239 298 361 426
#     4  11  25  44  71 102 140 189 236 295 358 428
#     4  11  25  46  70 102 141 185 242 297 358 427
#     4  12  25  45  69 102 142 186 236 291 358 425
#     4  12  25  45  71 105 141 187 238 291 355 423
#     4  11  23  41  65 101 136 188 230 289 353 416
#     4  11  24  42  70 100 145 183 238 290 350 426
#     4  12  25  44  70 104 144 184 238 294 359 427
#
# _framework density 22.475200999999998
#
# number of rings (size 3 to 8) (size 9 to 14) (size 15 to 20)
#    0.000    0.500    1.250    7.500    3.500    4.000 
#    0.000    3.750    0.000    0.000    0.000    0.000 
#    0.000    0.000    0.000    0.000    0.000    0.000 
#
# Total GULP energy -89534.167945 kJ/mol
# GULP energy per Si atom -5595.885497 kJ/mol
# Density = 2.242405 g / cm^3
# Si number density = 22.475201 Si / 1000 Ang^3
#
#
#
# Elastic Constant Matrix: (Units=GPa)
#
#
# Indices 1 2 3 4 5 6 
#
# 1 97.7856 7.9006 39.6082 9.7583 0.4953 -1.3449
# 2 7.9006 51.4815 -3.0365 11.1455 8.6409 -2.8100
# 3 39.6082 -3.0365 74.0145 -1.5605 1.2672 6.0957
# 4 9.7583 11.1455 -1.5605 34.1377 -0.3501 -3.8149
# 5 0.4953 8.6409 1.2672 -0.3501 44.5466 7.6881
# 6 -1.3449 -2.8100 6.0957 -3.8149 7.6881 38.7174
#
#
#
# Elastic Compliance Matrix: (Units=1/GPa)
#
#
# Indices 1 2 3 4 5 6 
#
# 1 0.013844 -0.001763 -0.007656 -0.003599 0.000176 0.001169
# 2 -0.001763 0.022061 0.001662 -0.006496 -0.004627 0.001557
# 3 -0.007656 0.001662 0.017949 0.002161 -0.000264 -0.002706
# 4 -0.003599 -0.006496 0.002161 0.032784 0.001139 0.002067
# 5 0.000176 -0.004627 -0.000264 0.001139 0.024221 -0.004985
# 6 0.001169 0.001557 -0.002706 0.002067 -0.004985 0.027601
#
#
# Mechanical properties :
#
#
# Convention : Reuss Voigt Hill
#
# Bulk Modulus (GPa) = 26.08133 34.69180 30.38656
# Shear Modulus (GPa) = 29.98418 35.40096 32.69257
#
# Velocity S-wave (km/s) = 3.65650 3.97307 3.81807
# Velocity P-wave (km/s) = 5.42737 6.04286 5.74337
#
# Compressibility (1/GPa) = 0.03834160
#
# Stress axis : x y z
#
# Youngs Moduli (GPa) = 72.23139 45.32893 55.71296
#
# Poissons Ratio (x) = 0.07990 0.42655
# Poissons Ratio (y) = 0.12732 -0.09262
# Poissons Ratio (z) = 0.55302 -0.07535
#
# Static dielectric constant tensor:
#      x y z
#    x 1.833390 0.021900 0.033020 
#    y 0.021900 1.803270 0.035970 
#    z 0.033020 0.035970 1.905180 
# 
# From -- ./inp_files/495121.got.cif
#   From: 2010.05.17/outbox.cif.g08.bks.cpg/sg2_248_cif.got.tgz:495121.got - 2010.06.03 11:33:40.
