data_PCOD9059097
_publ_section_title
;
Structure prediction by ZEFSAII (Michael W. Deem and Ramdas Pophale) SiO2 
 PCOD9059097
Probable space group: P -1
;
_chemical_formula_sum "Si O2"
_cell_formula_units_Z 16
_cell_length_a 12.045613
_cell_length_b 17.833514
_cell_length_c 20.312425
_cell_angle_alpha 159.998569
_cell_angle_beta 147.696955
_cell_angle_gamma 40.800256
_cell_volume 780.831666
_symmetry_space_group_name_H-M "P -1"
_symmetry_group_IT_number 2
_symmetry_cell_setting 'triclinic'
loop_
_space_group_symop_operation_xyz
x,y,z
-x,-y,-z
loop_
_atom_site_type_symbol
_atom_site_label
_atom_site_fract_x
_atom_site_fract_y
_atom_site_fract_z
Si Si1 0.802707 0.563351 0.882714
Si Si2 0.583352 0.893852 0.129161
Si Si3 0.819003 0.057010 0.502629
Si Si4 0.997235 0.165635 0.073368
Si Si5 0.697239 0.883615 0.580126
Si Si6 0.207120 0.923490 0.352348
Si Si7 0.808426 0.430218 0.297498
Si Si8 0.511179 0.648145 0.563194
O O1 0.826352 0.324396 0.728355
O O2 0.619580 0.495145 0.679652
O O3 0.726232 0.734587 0.036905
O O4 0.024849 0.695904 0.072100
O O5 0.617117 0.940246 0.262738
O O6 0.600223 0.137254 0.306549
O O7 0.344832 0.763168 0.899349
O O8 0.834867 0.964658 0.507095
O O9 0.000000 0.000000 0.500000
O O10 0.891220 0.357182 0.209661
O O11 0.241141 0.260202 0.253871
O O12 0.846274 0.043675 0.838999
O O13 0.000000 0.000000 0.000000
O O14 0.450918 0.900043 0.465185
O O15 0.694335 0.633740 0.395599
O O16 0.797096 0.942403 0.606372
O O17 0.000000 0.500000 0.500000
O O18 0.500000 0.500000 0.500000
#
# Coordination Sequence:
#
# PCOD9059097 Si02
#       8
#     2   2   2   2   2   2   2   2
#     4  11  24  41  68  97 133 177 223 280 336 406
#     4  11  23  40  66  99 127 172 228 275 332 406
#     4  11  23  41  65  95 126 173 221 270 332 404
#     4  12  23  45  69  96 135 178 232 280 330 408
#     4  11  26  44  66 100 138 179 225 278 340 405
#     4  11  24  46  65  98 144 175 219 282 343 412
#     4  12  23  40  70  97 129 177 231 276 332 400
#     4  11  25  43  66 100 137 173 225 289 343 395
#
# _framework density 20.490974000000001
#
# number of rings (size 3 to 8) (size 9 to 14) (size 15 to 20)
#    0.000    0.750    3.750    3.375    3.500    1.500 
#    2.250    1.875    0.000    0.000    0.000    0.000 
#    0.000    0.000    0.000    0.000    0.000    0.000 
#
# Total GULP energy -89340.469039 kJ/mol
# GULP energy per Si atom -5583.779315 kJ/mol
# Density = 2.044434 g / cm^3
# Si number density = 20.490974 Si / 1000 Ang^3
#
#
#
# Elastic Constant Matrix: (Units=GPa)
#
#
# Indices 1 2 3 4 5 6 
#
# 1 115.0756 35.4717 41.8609 5.6868 -4.1264 11.2165
# 2 35.4717 67.6852 28.3997 -5.9556 -15.5040 12.2765
# 3 41.8609 28.3997 120.1233 -17.4595 -2.1952 7.5031
# 4 5.6868 -5.9556 -17.4595 33.0965 -9.0725 -2.4392
# 5 -4.1264 -15.5040 -2.1952 -9.0725 42.5014 -1.6485
# 6 11.2165 12.2765 7.5031 -2.4392 -1.6485 40.1596
#
#
#
# Elastic Compliance Matrix: (Units=1/GPa)
#
#
# Indices 1 2 3 4 5 6 
#
# 1 0.012090 -0.005572 -0.003688 -0.005772 -0.002337 -0.001431
# 2 -0.005572 0.021655 -0.001928 0.005830 0.008348 -0.004007
# 3 -0.003688 -0.001928 0.011002 0.006324 0.000856 -0.000017
# 4 -0.005772 0.005830 0.006324 0.038481 0.010162 0.001402
# 5 -0.002337 0.008348 0.000856 0.010162 0.028550 -0.000270
# 6 -0.001431 -0.004007 -0.000017 0.001402 -0.000270 0.026602
#
#
# Mechanical properties :
#
#
# Convention : Reuss Voigt Hill
#
# Bulk Modulus (GPa) = 44.70046 57.14987 50.92517
# Shear Modulus (GPa) = 29.72427 36.29495 33.00961
#
# Velocity S-wave (km/s) = 3.81281 4.21321 4.01800
# Velocity P-wave (km/s) = 6.42226 7.18463 6.81412
#
# Compressibility (1/GPa) = 0.02237113
#
# Stress axis : x y z
#
# Youngs Moduli (GPa) = 82.71280 46.17804 90.89580
#
# Poissons Ratio (x) = 0.25731 0.33522
# Poissons Ratio (y) = 0.46089 0.17522
# Poissons Ratio (z) = 0.30505 0.08902
#
# Static dielectric constant tensor:
#      x y z
#    x 1.738520 -0.031690 -0.011620 
#    y -0.031690 1.764550 -0.037190 
#    z -0.011620 -0.037190 1.767410 
# 
# From -- ./inp_files/472383.got.cif
#   From: 2010.05.17/outbox.cif.g08.bks.cpg/sg2_237_cif.got.tgz:472383.got - 2010.06.03 11:33:40.
