data_PCOD9059384
_publ_section_title
;
Structure prediction by ZEFSAII (Michael W. Deem and Ramdas Pophale) SiO2 
 PCOD9059384
Probable space group: P -1
;
_chemical_formula_sum "Si O2"
_cell_formula_units_Z 16
_cell_length_a 15.024658
_cell_length_b 12.121159
_cell_length_c 11.636105
_cell_angle_alpha 51.245935
_cell_angle_beta 112.274812
_cell_angle_gamma 150.793214
_cell_volume 724.235450
_symmetry_space_group_name_H-M "P -1"
_symmetry_group_IT_number 2
_symmetry_cell_setting 'triclinic'
loop_
_space_group_symop_operation_xyz
x,y,z
-x,-y,-z
loop_
_atom_site_type_symbol
_atom_site_label
_atom_site_fract_x
_atom_site_fract_y
_atom_site_fract_z
Si Si1 0.523605 0.934148 0.725146
Si Si2 0.338191 0.730479 0.006244
Si Si3 0.785649 0.959052 0.536460
Si Si4 0.143362 0.818419 0.333850
Si Si5 0.827076 0.744485 0.425317
Si Si6 0.115282 0.845916 0.786138
Si Si7 0.455400 0.618885 0.260768
Si Si8 0.758571 0.489232 0.342325
O O1 0.416597 0.855169 0.835902
O O2 0.360594 0.657488 0.738549
O O3 0.687003 0.022027 0.772083
O O4 0.644771 0.217215 0.536190
O O5 0.353011 0.582154 0.137588
O O6 0.110532 0.490255 0.070544
O O7 0.500000 0.000000 0.000000
O O8 0.599217 0.614919 0.638542
O O9 0.759316 0.007757 0.610472
O O10 0.835454 0.120507 0.345534
O O11 0.982103 0.111101 0.549566
O O12 0.000000 0.500000 0.500000
O O13 0.990319 0.741208 0.268533
O O14 0.655504 0.488963 0.602658
O O15 0.760690 0.623299 0.342418
O O16 0.881990 0.978771 0.317410
O O17 0.306089 0.046477 0.825116
#
# Coordination Sequence:
#
# PCOD9059384 Si02
#       8
#     2   2   2   2   2   2   2   2
#     4  10  22  39  60  87 119 157 197 243 298 355
#     4  12  26  44  59  84 129 162 196 243 305 367
#     4  10  18  37  67  92 122 154 202 256 298 341
#     4   9  20  35  60  91 118 150 197 252 291 345
#     4  10  17  37  67  91 121 152 201 255 300 341
#     4  11  23  37  62  94 119 159 200 250 299 357
#     4  11  22  38  61  94 120 158 201 251 299 357
#     4   9  20  38  63  91 111 151 202 252 292 349
#
# _framework density 22.092264
#
# number of rings (size 3 to 8) (size 9 to 14) (size 15 to 20)
#    0.000    1.750    2.500    3.000    7.000    1.500 
#    2.250    1.250    0.000    0.000    0.000    0.000 
#    0.000    0.000    0.000    0.000    0.000    0.000 
#
# Total GULP energy -89450.788321 kJ/mol
# GULP energy per Si atom -5590.674270 kJ/mol
# Density = 2.204198 g / cm^3
# Si number density = 22.092264 Si / 1000 Ang^3
#
#
#
# Elastic Constant Matrix: (Units=GPa)
#
#
# Indices 1 2 3 4 5 6 
#
# 1 51.8913 16.3267 11.7917 -11.5704 -10.1143 3.3726
# 2 16.3267 114.1492 31.0832 -20.1953 -21.8811 2.7995
# 3 11.7917 31.0832 51.1680 -16.7298 -17.8532 6.6862
# 4 -11.5704 -20.1953 -16.7298 26.1814 9.2881 -3.4508
# 5 -10.1143 -21.8811 -17.8532 9.2881 16.6612 -4.1919
# 6 3.3726 2.7995 6.6862 -3.4508 -4.1919 41.8953
#
#
#
# Elastic Compliance Matrix: (Units=1/GPa)
#
#
# Indices 1 2 3 4 5 6 
#
# 1 0.022714 -0.000279 0.000799 0.006549 0.010542 -0.000343
# 2 -0.000279 0.012316 -0.002159 0.003969 0.011741 0.001046
# 3 0.000799 -0.002159 0.033996 0.010283 0.027916 -0.001705
# 4 0.006549 0.003969 0.010283 0.054346 -0.009823 0.001060
# 5 0.010542 0.011741 0.027916 -0.009823 0.118476 0.004957
# 6 -0.000343 0.001046 -0.001705 0.001060 0.004957 0.024682
#
#
# Mechanical properties :
#
#
# Convention : Reuss Voigt Hill
#
# Bulk Modulus (GPa) = 15.20951 37.29020 26.24985
# Shear Modulus (GPa) = 17.13948 27.48137 22.31042
#
# Velocity S-wave (km/s) = 2.78836 3.53077 3.18130
# Velocity P-wave (km/s) = 4.15525 5.79118 5.04003
#
# Compressibility (1/GPa) = 0.06574835
#
# Stress axis : x y z
#
# Youngs Moduli (GPa) = 44.02488 81.19788 29.41498
#
# Poissons Ratio (x) = 0.02262 -0.02350
# Poissons Ratio (y) = 0.01226 0.06352
# Poissons Ratio (z) = -0.03517 0.17533
#
# Static dielectric constant tensor:
#      x y z
#    x 1.844960 0.023880 0.033990 
#    y 0.023880 1.825090 -0.015540 
#    z 0.033990 -0.015540 1.809920 
# 
# From -- ./inp_files/271722.got.cif
#   From: 2010.05.17/outbox.cif.g08.bks.cpg/sg2_136_cif.got.tgz:271722.got - 2010.06.03 11:33:40.
