data_PCOD9059771
_publ_section_title
;
Structure prediction by ZEFSAII (Michael W. Deem and Ramdas Pophale) SiO2 
 PCOD9059771
Probable space group: P -1
;
_chemical_formula_sum "Si O2"
_cell_formula_units_Z 14
_cell_length_a 18.762189
_cell_length_b 13.400426
_cell_length_c 9.435309
_cell_angle_alpha 30.501596
_cell_angle_beta 135.600595
_cell_angle_gamma 143.636230
_cell_volume 712.215808
_symmetry_space_group_name_H-M "P -1"
_symmetry_group_IT_number 2
_symmetry_cell_setting 'triclinic'
loop_
_space_group_symop_operation_xyz
x,y,z
-x,-y,-z
loop_
_atom_site_type_symbol
_atom_site_label
_atom_site_fract_x
_atom_site_fract_y
_atom_site_fract_z
Si Si1 0.977102 0.368417 0.279368
Si Si2 0.405430 0.526201 0.743160
Si Si3 0.515079 0.034766 0.146669
Si Si4 0.682570 0.910627 0.047799
Si Si5 0.118876 0.066912 0.497778
Si Si6 0.789262 0.435591 0.102508
Si Si7 0.211409 0.592935 0.534312
O O1 0.877896 0.383239 0.208379
O O2 0.097632 0.478781 0.407616
O O3 0.926527 0.103691 0.491393
O O4 0.000000 0.500000 0.000000
O O5 0.352183 0.322360 0.800258
O O6 0.300846 0.513312 0.706729
O O7 0.472325 0.782780 0.457462
O O8 0.500000 0.500000 0.000000
O O9 0.651826 0.225667 0.146755
O O10 0.428100 0.113590 0.990433
O O11 0.500000 0.000000 0.000000
O O12 0.792785 0.973264 0.231694
O O13 0.722926 0.128302 0.734072
O O14 0.189795 0.331072 0.223825
O O15 0.000000 0.000000 0.500000
O O16 0.821226 0.470476 0.271166
#
# Coordination Sequence:
#
# PCOD9059771 Si02
#       7
#     2   2   2   2   2   2   2
#     4  12  24  44  70  92 131 174 220 272 331 388
#     4  11  24  42  68  95 135 175 216 265 328 393
#     4  11  25  42  65  99 136 174 219 270 325 389
#     4  11  23  42  68  94 135 177 218 266 326 392
#     4  12  24  41  68  97 126 174 224 270 324 389
#     4  12  26  42  67  99 134 168 223 276 326 389
#     4  11  25  44  67 100 134 172 218 273 331 385
#
# _framework density 19.656963000000001
#
# number of rings (size 3 to 8) (size 9 to 14) (size 15 to 20)
#    0.000    0.571    2.857    4.714    2.000    9.714 
#    0.000    0.000    0.000    0.000    0.000    0.000 
#    0.000    0.000    0.000    0.000    0.000    0.000 
#
# Total GULP energy -78351.653972 kJ/mol
# GULP energy per Si atom -5596.546712 kJ/mol
# Density = 1.961222 g / cm^3
# Si number density = 19.656963 Si / 1000 Ang^3
#
#
#
# Elastic Constant Matrix: (Units=GPa)
#
#
# Indices 1 2 3 4 5 6 
#
# 1 164.1748 55.4008 70.0107 8.3453 13.9691 -0.5568
# 2 55.4008 124.2877 31.5750 3.7582 10.7805 -0.4154
# 3 70.0107 31.5750 82.0618 1.5158 15.0474 -6.7852
# 4 8.3453 3.7582 1.5158 46.6898 -8.7936 8.1517
# 5 13.9691 10.7805 15.0474 -8.7936 30.3894 6.5708
# 6 -0.5568 -0.4154 -6.7852 8.1517 6.5708 37.1442
#
#
#
# Elastic Compliance Matrix: (Units=1/GPa)
#
#
# Indices 1 2 3 4 5 6 
#
# 1 0.010415 -0.002585 -0.007942 -0.001226 -0.000067 -0.001043
# 2 -0.002585 0.009675 -0.001109 -0.000720 -0.001984 0.000376
# 3 -0.007942 -0.001109 0.021400 -0.001724 -0.008266 0.005618
# 4 -0.001226 -0.000720 -0.001724 0.025097 0.010605 -0.007725
# 5 -0.000067 -0.001984 -0.008266 0.010605 0.043294 -0.011519
# 6 -0.001043 0.000376 0.005618 -0.007725 -0.011519 0.031670
#
#
# Mechanical properties :
#
#
# Convention : Reuss Voigt Hill
#
# Bulk Modulus (GPa) = 54.88994 76.05526 65.47260
# Shear Modulus (GPa) = 29.25775 37.08055 33.16915
#
# Velocity S-wave (km/s) = 3.86219 4.34796 4.11225
# Velocity P-wave (km/s) = 6.91904 7.99885 7.47846
#
# Compressibility (1/GPa) = 0.01821827
#
# Stress axis : x y z
#
# Youngs Moduli (GPa) = 96.01867 103.35836 46.72887
#
# Poissons Ratio (x) = 0.26721 0.37111
# Poissons Ratio (y) = 0.24824 0.05181
# Poissons Ratio (z) = 0.76255 0.11460
#
# Static dielectric constant tensor:
#      x y z
#    x 1.681400 -0.007050 0.005580 
#    y -0.007050 1.684700 -0.008020 
#    z 0.005580 -0.008020 1.720810 
# 
# From -- ./inp_files/27803.got.cif
#   From: 2010.05.17/outbox.cif.g08.bks.cpg/sg2_14_cif.got.tgz:27803.got - 2010.06.03 11:33:40.
