data_PCOD9059240
_publ_section_title
;
Structure prediction by ZEFSAII (Michael W. Deem and Ramdas Pophale) SiO2 
 PCOD9059240
Probable space group: P -1
;
_chemical_formula_sum "Si O2"
_cell_formula_units_Z 16
_cell_length_a 9.287509
_cell_length_b 9.176844
_cell_length_c 15.028346
_cell_angle_alpha 54.596659
_cell_angle_beta 133.150239
_cell_angle_gamma 93.632498
_cell_volume 631.184226
_symmetry_space_group_name_H-M "P -1"
_symmetry_group_IT_number 2
_symmetry_cell_setting 'triclinic'
loop_
_space_group_symop_operation_xyz
x,y,z
-x,-y,-z
loop_
_atom_site_type_symbol
_atom_site_label
_atom_site_fract_x
_atom_site_fract_y
_atom_site_fract_z
Si Si1 0.453694 0.825012 0.500413
Si Si2 0.152020 0.578188 0.087529
Si Si3 0.615859 0.188182 0.906493
Si Si4 0.158833 0.306011 0.775574
Si Si5 0.380838 0.290623 0.593281
Si Si6 0.032630 0.085815 0.334048
Si Si7 0.331671 0.897160 0.707633
Si Si8 0.160857 0.429055 0.925302
O O1 0.526534 0.754722 0.453935
O O2 0.610875 0.621187 0.700505
O O3 0.500000 0.000000 0.500000
O O4 0.177978 0.932556 0.367911
O O5 0.972158 0.682817 0.058560
O O6 0.000000 0.500000 0.000000
O O7 0.342460 0.297767 0.785111
O O8 0.579211 0.243002 0.766051
O O9 0.765805 0.281490 0.972334
O O10 0.755862 0.938731 0.081910
O O11 0.873631 0.479972 0.582105
O O12 0.217387 0.383514 0.862597
O O13 0.339703 0.101732 0.660773
O O14 0.782089 0.137977 0.242000
O O15 0.002766 0.313207 0.229028
O O16 0.188560 0.959889 0.532832
O O17 0.592098 0.685109 0.878510
#
# Coordination Sequence:
#
# PCOD9059240 Si02
#       8
#     2   2   2   2   2   2   2   2
#     4  12  23  48  71 114 160 200 253 313 392 459
#     4  12  28  49  76 114 155 202 252 323 386 469
#     4  11  29  51  79 110 150 207 262 316 392 460
#     4  11  24  53  76 113 150 198 265 319 382 463
#     4  12  24  51  76 108 160 201 257 324 381 467
#     4  11  24  43  68 113 155 199 257 317 378 451
#     4  11  23  40  74 103 150 206 252 313 381 441
#     4  12  23  47  72 107 156 192 252 319 384 447
#
# _framework density 25.349176
#
# number of rings (size 3 to 8) (size 9 to 14) (size 15 to 20)
#    0.000    0.500    6.250    1.500    1.750    3.000 
#    2.250    0.000    0.000    0.000    0.000    0.000 
#    0.000    0.000    0.000    0.000    0.000    0.000 
#
# Total GULP energy -89514.658209 kJ/mol
# GULP energy per Si atom -5594.666138 kJ/mol
# Density = 2.529148 g / cm^3
# Si number density = 25.349176 Si / 1000 Ang^3
#
#
#
# Elastic Constant Matrix: (Units=GPa)
#
#
# Indices 1 2 3 4 5 6 
#
# 1 161.3650 57.6625 68.6441 -24.1086 5.1039 -19.6937
# 2 57.6625 98.5654 42.4237 -3.6706 0.3498 -13.1920
# 3 68.6441 42.4237 128.0383 -15.5282 8.5451 -0.6126
# 4 -24.1086 -3.6706 -15.5282 40.2463 -7.0710 3.8929
# 5 5.1039 0.3498 8.5451 -7.0710 40.7364 -5.6211
# 6 -19.6937 -13.1920 -0.6126 3.8929 -5.6211 28.7539
#
#
#
# Elastic Compliance Matrix: (Units=1/GPa)
#
#
# Indices 1 2 3 4 5 6 
#
# 1 0.010300 -0.003531 -0.003903 0.004025 0.000946 0.004991
# 2 -0.003531 0.014059 -0.003097 -0.002253 0.001202 0.004506
# 3 -0.003903 -0.003097 0.011268 0.001784 -0.002162 -0.004518
# 4 0.004025 -0.002253 0.001784 0.028558 0.003913 -0.001340
# 5 0.000946 0.001202 -0.002162 0.003913 0.026349 0.005775
# 6 0.004991 0.004506 -0.004518 -0.001340 0.005775 0.041478
#
#
# Mechanical properties :
#
#
# Convention : Reuss Voigt Hill
#
# Bulk Modulus (GPa) = 68.66020 80.60328 74.63174
# Shear Modulus (GPa) = 31.65975 36.56322 34.11149
#
# Velocity S-wave (km/s) = 3.53788 3.80199 3.67231
# Velocity P-wave (km/s) = 6.62068 7.15121 6.89105
#
# Compressibility (1/GPa) = 0.01456448
#
# Stress axis : x y z
#
# Youngs Moduli (GPa) = 97.08769 71.12759 88.74754
#
# Poissons Ratio (x) = 0.25116 0.34639
# Poissons Ratio (y) = 0.34283 0.27486
# Poissons Ratio (z) = 0.37894 0.22029
#
# Static dielectric constant tensor:
#      x y z
#    x 2.124270 -0.043750 -0.016000 
#    y -0.043750 2.072290 0.073710 
#    z -0.016000 0.073710 1.990530 
# 
# From -- ./inp_files/504418.got.cif
#   From: 2010.05.17/outbox.cif.g08.bks.cpg/sg2_253_cif.got.tgz:504418.got - 2010.06.03 11:33:40.
