data_PCOD9059798
_publ_section_title
;
Structure prediction by ZEFSAII (Michael W. Deem and Ramdas Pophale) SiO2 
 PCOD9059798
Probable space group: P -1
;
_chemical_formula_sum "Si O2"
_cell_formula_units_Z 14
_cell_length_a 28.535526
_cell_length_b 12.233633
_cell_length_c 13.940816
_cell_angle_alpha 147.899687
_cell_angle_beta 158.239273
_cell_angle_gamma 20.884600
_cell_volume 635.316012
_symmetry_space_group_name_H-M "P -1"
_symmetry_group_IT_number 2
_symmetry_cell_setting 'triclinic'
loop_
_space_group_symop_operation_xyz
x,y,z
-x,-y,-z
loop_
_atom_site_type_symbol
_atom_site_label
_atom_site_fract_x
_atom_site_fract_y
_atom_site_fract_z
Si Si1 0.645718 0.796139 0.420871
Si Si2 0.602164 0.306015 0.793502
Si Si3 0.358858 0.543966 0.696832
Si Si4 0.506285 0.298768 0.295871
Si Si5 0.925085 0.221093 0.385376
Si Si6 0.894370 0.634112 0.503223
Si Si7 0.723129 0.760984 0.079544
O O1 0.639142 0.688661 0.430298
O O2 0.828588 0.480760 0.477671
O O3 0.639505 0.047900 0.615582
O O4 0.454653 0.966614 0.122596
O O5 0.446549 0.454377 0.690646
O O6 0.526539 0.576899 0.780297
O O7 0.797157 0.170284 0.102522
O O8 0.500000 0.500000 0.000000
O O9 0.146951 0.892855 0.568062
O O10 0.500000 0.500000 0.500000
O O11 0.706113 0.945660 0.428202
O O12 0.352083 0.327373 0.061893
O O13 0.908805 0.381154 0.378071
O O14 0.832831 0.764267 0.371840
O O15 0.082264 0.522452 0.817648
#
# Coordination Sequence:
#
# PCOD9059798 Si02
#       7
#     2   2   2   2   2   2   2
#     4  12  25  51  71 103 148 188 238 300 352 423
#     4  12  27  46  75 106 144 189 239 297 359 419
#     4  12  28  49  75 103 145 191 241 295 356 424
#     4  12  23  44  67 104 145 180 231 294 352 426
#     4  12  25  48  74 105 141 191 240 295 357 426
#     4  11  24  39  72 102 139 185 234 287 360 420
#     4  11  23  42  69 100 138 184 229 290 353 415
#
# _framework density 22.036276999999998
#
# number of rings (size 3 to 8) (size 9 to 14) (size 15 to 20)
#    0.000    0.286    5.714    3.000    4.000    1.143 
#    7.714    0.000    0.000    0.000    0.000    0.000 
#    0.000    0.000    0.000    0.000    0.000    0.000 
#
# Total GULP energy -78110.450060 kJ/mol
# GULP energy per Si atom -5579.317861 kJ/mol
# Density = 2.198612 g / cm^3
# Si number density = 22.036277 Si / 1000 Ang^3
#
#
#
# Elastic Constant Matrix: (Units=GPa)
#
#
# Indices 1 2 3 4 5 6 
#
# 1 150.0613 52.9089 15.9027 -36.2759 19.9472 12.6798
# 2 52.9089 150.3118 49.8818 -51.5641 5.2778 6.8092
# 3 15.9027 49.8818 128.9186 -7.3736 24.6481 -12.5341
# 4 -36.2759 -51.5641 -7.3736 59.5871 -2.1886 11.8094
# 5 19.9472 5.2778 24.6481 -2.1886 36.9341 6.5998
# 6 12.6798 6.8092 -12.5341 11.8094 6.5998 35.8805
#
#
#
# Elastic Compliance Matrix: (Units=1/GPa)
#
#
# Indices 1 2 3 4 5 6 
#
# 1 0.009181 -0.001016 -0.000142 0.005392 -0.003647 -0.004205
# 2 -0.001016 0.013671 -0.006394 0.012511 0.005313 -0.009564
# 3 -0.000142 -0.006394 0.012630 -0.006288 -0.009507 0.009494
# 4 0.005392 0.012511 -0.006288 0.033965 0.004823 -0.018542
# 5 -0.003647 0.005313 -0.009507 0.004823 0.036958 -0.011426
# 6 -0.004205 -0.009564 0.009494 -0.018542 -0.011426 0.042692
#
#
# Mechanical properties :
#
#
# Convention : Reuss Voigt Hill
#
# Bulk Modulus (GPa) = 49.07883 74.07539 61.57711
# Shear Modulus (GPa) = 29.24071 47.18690 38.21381
#
# Velocity S-wave (km/s) = 3.64666 4.63247 4.16881
# Velocity P-wave (km/s) = 6.32859 7.89311 7.15375
#
# Compressibility (1/GPa) = 0.02037539
#
# Stress axis : x y z
#
# Youngs Moduli (GPa) = 108.92277 73.14630 79.17910
#
# Poissons Ratio (x) = 0.07433 0.01128
# Poissons Ratio (y) = 0.11069 0.50631
# Poissons Ratio (z) = 0.01552 0.46773
#
# Static dielectric constant tensor:
#      x y z
#    x 2.089870 -0.092670 0.047610 
#    y -0.092670 1.849740 -0.040400 
#    z 0.047610 -0.040400 1.828060 
# 
# From -- ./inp_files/544970.got.cif
#   From: 2010.05.17/outbox.cif.g08.bks.cpg/sg2_273_cif.got.tgz:544970.got - 2010.06.03 11:33:40.
