data_PCOD9059892
_publ_section_title
;
Structure prediction by ZEFSAII (Michael W. Deem and Ramdas Pophale) SiO2 
 PCOD9059892
Probable space group: P -1
;
_chemical_formula_sum "Si O2"
_cell_formula_units_Z 16
_cell_length_a 12.334746
_cell_length_b 6.565728
_cell_length_c 11.132572
_cell_angle_alpha 67.249300
_cell_angle_beta 125.350477
_cell_angle_gamma 83.580287
_cell_volume 606.923186
_symmetry_space_group_name_H-M "P -1"
_symmetry_group_IT_number 2
_symmetry_cell_setting 'triclinic'
loop_
_space_group_symop_operation_xyz
x,y,z
-x,-y,-z
loop_
_atom_site_type_symbol
_atom_site_label
_atom_site_fract_x
_atom_site_fract_y
_atom_site_fract_z
Si Si1 0.930867 0.592064 0.688588
Si Si2 0.109333 0.874553 0.775601
Si Si3 0.319639 0.853952 0.597161
Si Si4 0.640941 0.796172 0.826843
Si Si5 0.867668 0.333596 0.922823
Si Si6 0.352181 0.743518 0.376164
Si Si7 0.136791 0.607060 0.557553
Si Si8 0.330193 0.075392 0.914663
O O1 0.949243 0.438867 0.858633
O O2 0.903304 0.456415 0.589005
O O3 0.066019 0.665906 0.741431
O O4 0.784115 0.854744 0.542206
O O5 0.270131 0.871221 0.895731
O O6 0.049763 0.872715 0.876288
O O7 0.011302 0.131169 0.588550
O O8 0.485636 0.789817 0.749195
O O9 0.312145 0.742687 0.488209
O O10 0.250131 0.709199 0.660807
O O11 0.752688 0.557409 0.880536
O O12 0.614802 0.025006 0.673208
O O13 0.686056 0.864400 0.967912
O O14 0.774596 0.243861 0.796918
O O15 0.500000 0.500000 0.500000
O O16 0.218788 0.326801 0.721387
O O17 0.500000 0.000000 0.000000
#
# Coordination Sequence:
#
# PCOD9059892 Si02
#       8
#     2   2   2   2   2   2   2   2
#     4  11  24  46  77 110 150 194 243 300 380 456
#     4  11  28  50  74 111 148 199 249 305 375 439
#     4  11  23  42  70 115 148 196 238 301 378 447
#     4  12  26  44  73 113 154 190 250 308 375 435
#     4  12  24  44  75 114 149 194 240 308 379 450
#     4  12  22  39  71 107 161 189 238 308 382 440
#     4  11  27  50  75 105 154 199 248 305 369 433
#     4  12  29  53  77 105 148 198 259 311 357 435
#
# _framework density 26.362482
#
# number of rings (size 3 to 8) (size 9 to 14) (size 15 to 20)
#    0.000    0.500    5.000    2.625    5.250    1.500 
#    4.500    0.000    0.000    0.000    0.000    0.000 
#    0.000    0.000    0.000    0.000    0.000    0.000 
#
# Total GULP energy -89529.145439 kJ/mol
# GULP energy per Si atom -5595.571590 kJ/mol
# Density = 2.630248 g / cm^3
# Si number density = 26.362482 Si / 1000 Ang^3
#
#
#
# Elastic Constant Matrix: (Units=GPa)
#
#
# Indices 1 2 3 4 5 6 
#
# 1 127.9595 54.7988 34.0514 1.9691 20.5404 32.4241
# 2 54.7988 145.4083 34.9084 19.1654 23.0653 8.7973
# 3 34.0514 34.9084 112.7601 8.2317 -8.6978 14.8668
# 4 1.9691 19.1654 8.2317 59.1665 3.7356 1.9131
# 5 20.5404 23.0653 -8.6978 3.7356 34.5288 8.6811
# 6 32.4241 8.7973 14.8668 1.9131 8.6811 70.2961
#
#
#
# Elastic Compliance Matrix: (Units=1/GPa)
#
#
# Indices 1 2 3 4 5 6 
#
# 1 0.011427 -0.002909 -0.002501 0.001329 -0.004663 -0.003838
# 2 -0.002909 0.009685 -0.002554 -0.002385 -0.005479 0.001412
# 3 -0.002501 -0.002554 0.011215 -0.001009 0.006551 -0.001680
# 4 0.001329 -0.002385 -0.001009 0.017865 -0.001276 -0.000430
# 5 -0.004663 -0.005479 0.006551 -0.001276 0.037989 -0.003206
# 6 -0.003838 0.001412 -0.001680 -0.000430 -0.003206 0.016582
#
#
# Mechanical properties :
#
#
# Convention : Reuss Voigt Hill
#
# Bulk Modulus (GPa) = 60.98352 70.40500 65.69426
# Shear Modulus (GPa) = 39.63310 50.28958 44.96134
#
# Velocity S-wave (km/s) = 3.88156 4.37237 4.13426
# Velocity P-wave (km/s) = 6.57812 7.22874 6.91109
#
# Compressibility (1/GPa) = 0.01639787
#
# Stress axis : x y z
#
# Youngs Moduli (GPa) = 87.51261 103.25407 89.16807
#
# Poissons Ratio (x) = 0.30039 0.22298
# Poissons Ratio (y) = 0.25460 0.22777
# Poissons Ratio (z) = 0.21884 0.26375
#
# Static dielectric constant tensor:
#      x y z
#    x 2.286540 0.007140 -0.114000 
#    y 0.007140 2.000010 0.041320 
#    z -0.114000 0.041320 2.082340 
# 
# From -- ./inp_files/441762.got.cif
#   From: 2010.05.17/outbox.cif.g08.bks.cpg/sg2_221_cif.got.tgz:441762.got - 2010.06.03 11:33:40.
