data_PCOD9059114
_publ_section_title
;
Structure prediction by ZEFSAII (Michael W. Deem and Ramdas Pophale) SiO2 
 PCOD9059114
Probable space group: P -1
;
_chemical_formula_sum "Si O2"
_cell_formula_units_Z 14
_cell_length_a 11.636583
_cell_length_b 7.966641
_cell_length_c 6.902253
_cell_angle_alpha 53.941459
_cell_angle_beta 104.382675
_cell_angle_gamma 108.981764
_cell_volume 487.793519
_symmetry_space_group_name_H-M "P -1"
_symmetry_group_IT_number 2
_symmetry_cell_setting 'triclinic'
loop_
_space_group_symop_operation_xyz
x,y,z
-x,-y,-z
loop_
_atom_site_type_symbol
_atom_site_label
_atom_site_fract_x
_atom_site_fract_y
_atom_site_fract_z
Si Si1 0.965915 0.414849 0.818441
Si Si2 0.359784 0.200923 0.824430
Si Si3 0.425389 0.836189 0.849271
Si Si4 0.288814 0.501477 0.336806
Si Si5 0.143736 0.153006 0.009181
Si Si6 0.858301 0.974099 0.498910
Si Si7 0.209827 0.653187 0.701151
O O1 0.826852 0.405117 0.712686
O O2 0.065687 0.589930 0.621654
O O3 0.000000 0.500000 0.000000
O O4 0.006976 0.193733 0.945378
O O5 0.434479 0.176029 0.066596
O O6 0.368582 0.437871 0.585954
O O7 0.216677 0.115286 0.876254
O O8 0.411301 0.061212 0.780440
O O9 0.364791 0.652699 0.106629
O O10 0.353401 0.769971 0.663035
O O11 0.217003 0.263743 0.406132
O O12 0.163592 0.005900 0.293278
O O13 0.212223 0.405632 0.907504
O O14 0.811330 0.172858 0.263204
O O15 0.000000 0.000000 0.500000
#
# Coordination Sequence:
#
# PCOD9059114 Si02
#       7
#     2   2   2   2   2   2   2
#     4  10  17  37  65  91 118 156 204 255 304 368
#     4  11  27  42  62  92 131 168 209 258 315 358
#     4  11  23  44  66  88 126 175 212 248 309 386
#     4  12  21  40  68  91 124 171 208 247 319 383
#     4  10  23  42  60  99 129 154 210 273 300 361
#     4  12  20  36  70  94 120 167 209 248 317 379
#     4  10  20  37  66  91 117 162 214 251 306 373
#
# _framework density 28.700671
#
# number of rings (size 3 to 8) (size 9 to 14) (size 15 to 20)
#    0.857    0.286    7.143    0.429    0.000    2.286 
#    0.000    3.571    0.000    0.000    0.000    0.000 
#    0.000    0.000    0.000    0.000    0.000    0.000 
#
# Total GULP energy -77953.845918 kJ/mol
# GULP energy per Si atom -5568.131851 kJ/mol
# Density = 2.863535 g / cm^3
# Si number density = 28.700671 Si / 1000 Ang^3
#
#
#
# Elastic Constant Matrix: (Units=GPa)
#
#
# Indices 1 2 3 4 5 6 
#
# 1 106.8463 15.2690 21.8528 -2.7048 20.4881 -5.5314
# 2 15.2690 100.4747 11.5170 -11.7573 4.1751 -18.3655
# 3 21.8528 11.5170 72.8464 -22.2094 -4.0223 -26.6016
# 4 -2.7048 -11.7573 -22.2094 36.7212 0.2612 6.4235
# 5 20.4881 4.1751 -4.0223 0.2612 58.4593 1.7036
# 6 -5.5314 -18.3655 -26.6016 6.4235 1.7036 48.0920
#
#
#
# Elastic Compliance Matrix: (Units=1/GPa)
#
#
# Indices 1 2 3 4 5 6 
#
# 1 0.011140 -0.001502 -0.004452 -0.002091 -0.004055 -0.001332
# 2 -0.001502 0.011261 0.001340 0.003537 -0.000330 0.004408
# 3 -0.004452 0.001340 0.022547 0.011830 0.002649 0.010798
# 4 -0.002091 0.003537 0.011830 0.034840 0.001052 0.002963
# 5 -0.004055 -0.000330 0.002649 0.001052 0.018726 0.000069
# 6 -0.001332 0.004408 0.010798 0.002963 0.000069 0.027898
#
#
# Mechanical properties :
#
#
# Convention : Reuss Voigt Hill
#
# Bulk Modulus (GPa) = 27.99632 41.93833 34.96732
# Shear Modulus (GPa) = 33.88725 44.08973 38.98849
#
# Velocity S-wave (km/s) = 3.43988 3.92368 3.68972
# Velocity P-wave (km/s) = 5.05498 5.93052 5.51016
#
# Compressibility (1/GPa) = 0.03571899
#
# Stress axis : x y z
#
# Youngs Moduli (GPa) = 89.76463 88.80418 44.35104
#
# Poissons Ratio (x) = 0.13341 0.19747
# Poissons Ratio (y) = 0.13486 -0.05943
# Poissons Ratio (z) = 0.39967 -0.11900
#
# Static dielectric constant tensor:
#      x y z
#    x 2.473940 0.175960 0.038060 
#    y 0.175960 2.347780 0.120400 
#    z 0.038060 0.120400 2.321190 
# 
# From -- ./inp_files/236795.got.cif
#   From: 2010.05.17/outbox.cif.g08.bks.cpg/sg2_119_cif.got.tgz:236795.got - 2010.06.03 11:33:40.
