data_PCOD9059120
_publ_section_title
;
Structure prediction by ZEFSAII (Michael W. Deem and Ramdas Pophale) SiO2 
 PCOD9059120
Probable space group: P -1
;
_chemical_formula_sum "Si O2"
_cell_formula_units_Z 16
_cell_length_a 14.301099
_cell_length_b 9.120167
_cell_length_c 15.262200
_cell_angle_alpha 93.139800
_cell_angle_beta 151.060392
_cell_angle_gamma 106.346260
_cell_volume 703.671079
_symmetry_space_group_name_H-M "P -1"
_symmetry_group_IT_number 2
_symmetry_cell_setting 'triclinic'
loop_
_space_group_symop_operation_xyz
x,y,z
-x,-y,-z
loop_
_atom_site_type_symbol
_atom_site_label
_atom_site_fract_x
_atom_site_fract_y
_atom_site_fract_z
Si Si1 0.362698 0.568687 0.845991
Si Si2 0.822171 0.636725 0.478260
Si Si3 0.740348 0.046395 0.520237
Si Si4 0.648328 0.416725 0.857189
Si Si5 0.194101 0.055357 0.899326
Si Si6 0.696268 0.971107 0.816840
Si Si7 0.729128 0.656530 0.762459
Si Si8 0.998252 0.447263 0.690761
O O1 0.136566 0.395538 0.587890
O O2 0.235782 0.593475 0.821999
O O3 0.500000 0.500000 0.000000
O O4 0.573741 0.763542 0.965826
O O5 0.539170 0.568317 0.243565
O O6 0.810655 0.487216 0.524401
O O7 0.027343 0.854021 0.697516
O O8 0.529095 0.818689 0.307990
O O9 0.556120 0.065032 0.423096
O O10 0.985960 0.076917 0.758058
O O11 0.871472 0.222546 0.562125
O O12 0.710619 0.529643 0.821559
O O13 0.895916 0.507541 0.122789
O O14 0.298165 0.037164 0.073067
O O15 0.689104 0.803117 0.767319
O O16 0.973749 0.190068 0.026426
O O17 0.500000 0.500000 0.500000
#
# Coordination Sequence:
#
# PCOD9059120 Si02
#       8
#     2   2   2   2   2   2   2   2
#     4  12  23  42  66  99 136 177 222 277 328 392
#     4  11  24  41  67  96 134 179 220 272 333 390
#     4  11  23  40  67  95 129 173 218 264 332 385
#     4  11  24  43  66  96 134 173 221 276 327 395
#     4  11  24  45  67  95 137 173 221 277 330 385
#     4  11  25  45  70  99 131 174 222 270 329 402
#     4  11  24  46  72  99 136 173 217 275 335 389
#     4  12  24  42  67  97 135 180 224 271 332 390
#
# _framework density 22.737895999999999
#
# number of rings (size 3 to 8) (size 9 to 14) (size 15 to 20)
#    0.000    0.750    2.500    5.625    0.000    4.500 
#    0.000   10.000    0.000    0.000    0.000    0.000 
#    0.000    0.000    0.000    0.000    0.000    0.000 
#
# Total GULP energy -89482.438555 kJ/mol
# GULP energy per Si atom -5592.652410 kJ/mol
# Density = 2.268614 g / cm^3
# Si number density = 22.737896 Si / 1000 Ang^3
#
#
#
# Elastic Constant Matrix: (Units=GPa)
#
#
# Indices 1 2 3 4 5 6 
#
# 1 57.1809 17.2774 28.2333 10.7387 -0.8482 24.7825
# 2 17.2774 116.8760 30.4197 12.6846 -8.6080 6.4312
# 3 28.2333 30.4197 95.9093 16.3846 -10.3809 3.8658
# 4 10.7387 12.6846 16.3846 44.0462 1.5100 11.7448
# 5 -0.8482 -8.6080 -10.3809 1.5100 42.5332 -4.3648
# 6 24.7825 6.4312 3.8658 11.7448 -4.3648 34.2735
#
#
#
# Elastic Compliance Matrix: (Units=1/GPa)
#
#
# Indices 1 2 3 4 5 6 
#
# 1 0.031812 -0.001724 -0.008744 0.002278 -0.004292 -0.023020
# 2 -0.001724 0.009634 -0.002105 -0.001748 0.001512 0.000467
# 3 -0.008744 -0.002105 0.014608 -0.004746 0.003871 0.007189
# 4 0.002278 -0.001748 -0.004746 0.027367 -0.003527 -0.010612
# 5 -0.004292 0.001512 0.003871 -0.003527 0.025503 0.006840
# 6 -0.023020 0.000467 0.007189 -0.010612 0.006840 0.049431
#
#
# Mechanical properties :
#
#
# Convention : Reuss Voigt Hill
#
# Bulk Modulus (GPa) = 32.35266 46.86968 39.61117
# Shear Modulus (GPa) = 25.79932 37.10630 31.45281
#
# Velocity S-wave (km/s) = 3.37210 4.04408 3.72328
# Velocity P-wave (km/s) = 5.42409 6.51643 5.99519
#
# Compressibility (1/GPa) = 0.03090936
#
# Stress axis : x y z
#
# Youngs Moduli (GPa) = 31.43473 103.79889 68.45524
#
# Poissons Ratio (x) = 0.17890 0.59856
# Poissons Ratio (y) = 0.05418 0.14409
# Poissons Ratio (z) = 0.27486 0.21849
#
# Static dielectric constant tensor:
#      x y z
#    x 1.862790 -0.037380 0.039280 
#    y -0.037380 1.840420 0.010670 
#    z 0.039280 0.010670 1.836770 
# 
# From -- ./inp_files/529848.got.cif
#   From: 2010.05.17/outbox.cif.g08.bks.cpg/sg2_265_cif.got.tgz:529848.got - 2010.06.03 11:33:40.
