data_PCOD9059148
_publ_section_title
;
Structure prediction by ZEFSAII (Michael W. Deem and Ramdas Pophale) SiO2 
 PCOD9059148
Probable space group: P -1
;
_chemical_formula_sum "Si O2"
_cell_formula_units_Z 16
_cell_length_a 15.285036
_cell_length_b 15.102388
_cell_length_c 15.358509
_cell_angle_alpha 38.076131
_cell_angle_beta 37.707251
_cell_angle_gamma 18.468737
_cell_volume 674.436033
_symmetry_space_group_name_H-M "P -1"
_symmetry_group_IT_number 2
_symmetry_cell_setting 'triclinic'
loop_
_space_group_symop_operation_xyz
x,y,z
-x,-y,-z
loop_
_atom_site_type_symbol
_atom_site_label
_atom_site_fract_x
_atom_site_fract_y
_atom_site_fract_z
Si Si1 0.619177 0.131720 0.833682
Si Si2 0.436836 0.510810 0.231766
Si Si3 0.914185 0.967135 0.169192
Si Si4 0.334080 0.575664 0.458145
Si Si5 0.134103 0.380859 0.282849
Si Si6 0.132580 0.609073 0.960643
Si Si7 0.245989 0.023315 0.339315
Si Si8 0.667322 0.894204 0.362126
O O1 0.574895 0.336547 0.679826
O O2 0.327001 0.347395 0.944322
O O3 0.701293 0.977207 0.801227
O O4 0.870965 0.899521 0.886547
O O5 0.609579 0.259813 0.225323
O O6 0.351946 0.525170 0.381039
O O7 0.652654 0.455270 0.122882
O O8 0.145458 0.797047 0.192265
O O9 0.889570 0.828274 0.259917
O O10 0.000000 0.000000 0.000000
O O11 0.032415 0.831242 0.542943
O O12 0.505834 0.298993 0.580256
O O13 0.198598 0.191038 0.315919
O O14 0.868462 0.598176 0.389949
O O15 0.423489 0.153451 0.285324
O O16 0.050335 0.583395 0.127215
O O17 0.500000 0.000000 0.500000
#
# Coordination Sequence:
#
# PCOD9059148 Si02
#       8
#     2   2   2   2   2   2   2   2
#     4  11  23  42  70 104 137 185 230 291 342 397
#     4  11  23  40  68  97 128 173 230 283 343 405
#     4  12  24  42  70  98 130 175 233 293 349 412
#     4  11  23  41  65  99 138 177 231 286 340 408
#     4  12  27  47  69 100 142 189 229 286 353 422
#     4  11  23  44  70 102 145 178 232 286 349 411
#     4  12  25  41  69  99 142 186 232 276 343 430
#     4  12  28  47  70 100 145 183 238 296 356 422
#
# _framework density 23.723526
#
# number of rings (size 3 to 8) (size 9 to 14) (size 15 to 20)
#    0.000    0.500    0.000    9.750    5.250    1.000 
#    0.000    0.000    0.000    0.000    0.000    0.000 
#    0.000    0.000    0.000    0.000    0.000    0.000 
#
# Total GULP energy -89550.126005 kJ/mol
# GULP energy per Si atom -5596.882875 kJ/mol
# Density = 2.366953 g / cm^3
# Si number density = 23.723526 Si / 1000 Ang^3
#
#
#
# Elastic Constant Matrix: (Units=GPa)
#
#
# Indices 1 2 3 4 5 6 
#
# 1 168.2022 106.3424 -48.9788 -104.5749 98.7518 31.4006
# 2 106.3424 282.8258 -129.8391 -143.0131 135.2753 39.1769
# 3 -48.9788 -129.8391 265.8382 166.2628 -133.8952 -21.5030
# 4 -104.5749 -143.0131 166.2628 196.8035 -124.0218 -7.1083
# 5 98.7518 135.2753 -133.8952 -124.0218 151.7308 12.1884
# 6 31.4006 39.1769 -21.5030 -7.1083 12.1884 45.4192
#
#
#
# Elastic Compliance Matrix: (Units=1/GPa)
#
#
# Indices 1 2 3 4 5 6 
#
# 1 0.019474 0.002249 -0.010786 0.012507 -0.012759 -0.015128
# 2 0.002249 0.007998 -0.002442 0.004950 -0.006125 -0.007191
# 3 -0.010786 -0.002442 0.015221 -0.012941 0.011106 0.011764
# 4 0.012507 0.004950 -0.012941 0.023424 -0.003671 -0.014392
# 5 -0.012759 -0.006125 0.011106 -0.003671 0.026211 0.011754
# 6 -0.015128 -0.007191 0.011764 -0.014392 0.011754 0.038841
#
#
# Mechanical properties :
#
#
# Convention : Reuss Voigt Hill
#
# Bulk Modulus (GPa) = 48.23237 63.54614 55.88925
# Shear Modulus (GPa) = 31.24225 131.41348 81.32786
#
# Velocity S-wave (km/s) = 3.63289 7.45077 5.86139
# Velocity P-wave (km/s) = 6.16217 10.04305 8.33173
#
# Compressibility (1/GPa) = 0.02073297
#
# Stress axis : x y z
#
# Youngs Moduli (GPa) = 51.35169 125.02861 65.70021
#
# Poissons Ratio (x) = -0.28115 0.70865
# Poissons Ratio (y) = -0.11547 0.16046
# Poissons Ratio (z) = 0.55388 0.30535
#
# Static dielectric constant tensor:
#      x y z
#    x 1.876340 0.035980 -0.023570 
#    y 0.035980 1.861010 -0.006140 
#    z -0.023570 -0.006140 1.900970 
# 
# From -- ./inp_files/534250.got.cif
#   From: 2010.05.17/outbox.cif.g08.bks.cpg/sg2_268_cif.got.tgz:534250.got - 2010.06.03 11:33:40.
