data_PCOD9059112
_publ_section_title
;
Structure prediction by ZEFSAII (Michael W. Deem and Ramdas Pophale) SiO2 
 PCOD9059112
Probable space group: P -1
;
_chemical_formula_sum "Si O2"
_cell_formula_units_Z 14
_cell_length_a 11.260184
_cell_length_b 9.027319
_cell_length_c 14.705928
_cell_angle_alpha 62.780338
_cell_angle_beta 30.222326
_cell_angle_gamma 53.517662
_cell_volume 599.098787
_symmetry_space_group_name_H-M "P -1"
_symmetry_group_IT_number 2
_symmetry_cell_setting 'triclinic'
loop_
_space_group_symop_operation_xyz
x,y,z
-x,-y,-z
loop_
_atom_site_type_symbol
_atom_site_label
_atom_site_fract_x
_atom_site_fract_y
_atom_site_fract_z
Si Si1 0.101051 0.728502 0.746733
Si Si2 0.586773 0.678456 0.086932
Si Si3 0.366830 0.565221 0.429033
Si Si4 0.787391 0.149212 0.874131
Si Si5 0.611155 0.027113 0.321630
Si Si6 0.114384 0.349765 0.543816
Si Si7 0.839760 0.244279 0.006954
O O1 0.191214 0.684528 0.594762
O O2 0.343936 0.573608 0.685213
O O3 0.018154 0.943575 0.762069
O O4 0.834030 0.709586 0.945423
O O5 0.397432 0.690876 0.292987
O O6 0.440329 0.806215 0.061652
O O7 0.698896 0.463772 0.043346
O O8 0.240209 0.435801 0.509336
O O9 0.891761 0.302715 0.744281
O O10 0.732105 0.174893 0.010623
O O11 0.341581 0.153801 0.412732
O O12 0.767577 0.153046 0.166891
O O13 0.500000 0.000000 0.500000
O O14 0.843848 0.831854 0.190233
O O15 0.000000 0.500000 0.500000
#
# Coordination Sequence:
#
# PCOD9059112 Si02
#       7
#     2   2   2   2   2   2   2
#     4  11  28  46  71 103 147 197 236 289 350 439
#     4  12  25  48  72 102 148 189 239 291 356 430
#     4  11  25  49  72 101 144 194 243 284 361 424
#     4  12  25  46  71 110 146 183 241 298 362 418
#     4  11  23  40  67 104 139 176 229 293 352 411
#     4  12  23  45  74 105 144 181 236 308 354 413
#     4  11  24  42  74 106 138 182 241 297 354 416
#
# _framework density 23.368434000000001
#
# number of rings (size 3 to 8) (size 9 to 14) (size 15 to 20)
#    0.000    0.571    4.286    3.000    2.000    2.857 
#    2.571    0.000    0.000    0.000    0.000    0.000 
#    0.000    0.000    0.000    0.000    0.000    0.000 
#
# Total GULP energy -78294.228644 kJ/mol
# GULP energy per Si atom -5592.444903 kJ/mol
# Density = 2.331525 g / cm^3
# Si number density = 23.368434 Si / 1000 Ang^3
#
#
#
# Elastic Constant Matrix: (Units=GPa)
#
#
# Indices 1 2 3 4 5 6 
#
# 1 92.1432 30.2774 17.1141 -11.2681 -1.8867 -4.9406
# 2 30.2774 85.8767 23.5623 -8.2757 15.7580 -16.7814
# 3 17.1141 23.5623 107.8169 -18.0159 13.6159 5.2563
# 4 -11.2681 -8.2757 -18.0159 31.8411 5.9089 -7.2296
# 5 -1.8867 15.7580 13.6159 5.9089 41.4980 2.3736
# 6 -4.9406 -16.7814 5.2563 -7.2296 2.3736 43.9130
#
#
#
# Elastic Compliance Matrix: (Units=1/GPa)
#
#
# Indices 1 2 3 4 5 6 
#
# 1 0.012831 -0.004394 -0.000945 0.002495 0.002197 0.000169
# 2 -0.004394 0.016866 -0.001616 0.004916 -0.007194 0.007343
# 3 -0.000945 -0.001616 0.011364 0.006225 -0.003996 -0.000843
# 4 0.002495 0.004916 0.006225 0.040943 -0.010124 0.008702
# 5 0.002197 -0.007194 -0.003996 -0.010124 0.029986 -0.005311
# 6 0.000169 0.007343 -0.000843 0.008702 -0.005311 0.027418
#
#
# Mechanical properties :
#
#
# Convention : Reuss Voigt Hill
#
# Bulk Modulus (GPa) = 36.83277 47.52714 42.17996
# Shear Modulus (GPa) = 30.79377 37.77595 34.28486
#
# Velocity S-wave (km/s) = 3.63402 4.02498 3.83449
# Velocity P-wave (km/s) = 5.77963 6.47943 6.13951
#
# Compressibility (1/GPa) = 0.02714974
#
# Stress axis : x y z
#
# Youngs Moduli (GPa) = 77.93458 59.29092 87.99470
#
# Poissons Ratio (x) = 0.26054 0.08319
# Poissons Ratio (y) = 0.34246 0.14223
# Poissons Ratio (z) = 0.07368 0.09584
#
# Static dielectric constant tensor:
#      x y z
#    x 2.036310 -0.015960 0.079470 
#    y -0.015960 1.884130 -0.004380 
#    z 0.079470 -0.004380 1.959690 
# 
# From -- ./inp_files/515158.got.cif
#   From: 2010.05.17/outbox.cif.g08.bks.cpg/sg2_258_cif.got.tgz:515158.got - 2010.06.03 11:33:40.
