data_PCOD9059644
_publ_section_title
;
Structure prediction by ZEFSAII (Michael W. Deem and Ramdas Pophale) SiO2 
 PCOD9059644
Probable space group: P -1
;
_chemical_formula_sum "Si O2"
_cell_formula_units_Z 16
_cell_length_a 11.918246
_cell_length_b 8.371218
_cell_length_c 16.236573
_cell_angle_alpha 70.562434
_cell_angle_beta 137.861409
_cell_angle_gamma 77.328391
_cell_volume 693.014589
_symmetry_space_group_name_H-M "P -1"
_symmetry_group_IT_number 2
_symmetry_cell_setting 'triclinic'
loop_
_space_group_symop_operation_xyz
x,y,z
-x,-y,-z
loop_
_atom_site_type_symbol
_atom_site_label
_atom_site_fract_x
_atom_site_fract_y
_atom_site_fract_z
Si Si1 0.460122 0.356430 0.054295
Si Si2 0.989200 0.088665 0.568008
Si Si3 0.338914 0.105314 0.974730
Si Si4 0.747807 0.611739 0.382152
Si Si5 0.761068 0.106153 0.595110
Si Si6 0.201390 0.561552 0.389251
Si Si7 0.122065 0.632010 0.975262
Si Si8 0.241456 0.411057 0.249843
O O1 0.277414 0.346532 0.923040
O O2 0.726604 0.065869 0.241777
O O3 0.500000 0.500000 0.000000
O O4 0.361062 0.462700 0.074429
O O5 0.787818 0.386868 0.415047
O O6 0.922055 0.007623 0.617281
O O7 0.000000 0.000000 0.500000
O O8 0.502943 0.882850 0.168440
O O9 0.092144 0.188575 0.804964
O O10 0.500000 0.000000 0.000000
O O11 0.740632 0.616593 0.476761
O O12 0.000000 0.500000 0.500000
O O13 0.666512 0.362769 0.526514
O O14 0.533038 0.152860 0.443754
O O15 0.934349 0.916228 0.795651
O O16 0.229354 0.484456 0.324188
O O17 0.961181 0.583415 0.875266
O O18 0.188746 0.579215 0.116640
#
# Coordination Sequence:
#
# PCOD9059644 Si02
#       8
#     2   2   2   2   2   2   2   2
#     4  12  24  43  69 102 138 175 224 289 351 408
#     4  11  24  40  66 102 138 180 224 282 351 409
#     4  12  24  42  69 100 142 183 225 285 347 418
#     4  11  23  42  65 101 139 180 229 280 345 418
#     4  11  24  45  68 100 138 180 232 287 340 411
#     4  11  25  44  69 101 136 184 232 282 349 408
#     4  11  25  45  71 101 137 180 235 284 347 408
#     4  11  25  47  68  97 140 184 234 283 336 418
#
# _framework density 23.087537000000001
#
# number of rings (size 3 to 8) (size 9 to 14) (size 15 to 20)
#    0.000    0.750    5.000    2.250    1.750    4.500 
#    2.250    0.000    0.000    0.000    0.000    0.000 
#    0.000    0.000    0.000    0.000    0.000    0.000 
#
# Total GULP energy -89369.415124 kJ/mol
# GULP energy per Si atom -5585.588445 kJ/mol
# Density = 2.303499 g / cm^3
# Si number density = 23.087537 Si / 1000 Ang^3
#
#
#
# Elastic Constant Matrix: (Units=GPa)
#
#
# Indices 1 2 3 4 5 6 
#
# 1 139.6936 28.1885 50.6544 14.4789 -14.7214 -16.5756
# 2 28.1885 61.4953 10.9198 20.0369 -21.2988 -7.8080
# 3 50.6544 10.9198 112.9318 9.6022 -19.1106 -0.3509
# 4 14.4789 20.0369 9.6022 32.2511 -3.6966 -10.3133
# 5 -14.7214 -21.2988 -19.1106 -3.6966 55.9312 7.8226
# 6 -16.5756 -7.8080 -0.3509 -10.3133 7.8226 39.9925
#
#
#
# Elastic Compliance Matrix: (Units=1/GPa)
#
#
# Indices 1 2 3 4 5 6 
#
# 1 0.009694 -0.003543 -0.004119 0.000100 -0.000681 0.003449
# 2 -0.003543 0.024822 0.001807 -0.013997 0.008474 -0.001873
# 3 -0.004119 0.001807 0.011409 -0.003139 0.003684 -0.002784
# 4 0.000100 -0.013997 -0.003139 0.043019 -0.004837 0.009321
# 5 -0.000681 0.008474 0.003684 -0.004837 0.022459 -0.004235
# 6 0.003449 -0.001873 -0.002784 0.009321 -0.004235 0.029276
#
#
# Mechanical properties :
#
#
# Convention : Reuss Voigt Hill
#
# Bulk Modulus (GPa) = 29.22492 54.84957 42.03724
# Shear Modulus (GPa) = 30.52646 40.59215 35.55930
#
# Velocity S-wave (km/s) = 3.64016 4.19762 3.92879
# Velocity P-wave (km/s) = 5.50940 6.87766 6.23120
#
# Compressibility (1/GPa) = 0.03421737
#
# Stress axis : x y z
#
# Youngs Moduli (GPa) = 103.15701 40.28661 87.64866
#
# Poissons Ratio (x) = 0.14272 0.36098
# Poissons Ratio (y) = 0.36544 -0.15840
# Poissons Ratio (z) = 0.42485 -0.07280
#
# Static dielectric constant tensor:
#      x y z
#    x 1.947020 0.037070 0.019510 
#    y 0.037070 1.970940 0.012570 
#    z 0.019510 0.012570 1.906670 
# 
# From -- ./inp_files/499324.got.cif
#   From: 2010.05.17/outbox.cif.g08.bks.cpg/sg2_250_cif.got.tgz:499324.got - 2010.06.03 11:33:40.
