data_PCOD9059353
_publ_section_title
;
Structure prediction by ZEFSAII (Michael W. Deem and Ramdas Pophale) SiO2 
 PCOD9059353
Probable space group: P -1
;
_chemical_formula_sum "Si O2"
_cell_formula_units_Z 16
_cell_length_a 10.692609
_cell_length_b 7.385907
_cell_length_c 19.512132
_cell_angle_alpha 129.725713
_cell_angle_beta 39.997557
_cell_angle_gamma 100.853329
_cell_volume 603.921239
_symmetry_space_group_name_H-M "P -1"
_symmetry_group_IT_number 2
_symmetry_cell_setting 'triclinic'
loop_
_space_group_symop_operation_xyz
x,y,z
-x,-y,-z
loop_
_atom_site_type_symbol
_atom_site_label
_atom_site_fract_x
_atom_site_fract_y
_atom_site_fract_z
Si Si1 0.985598 0.669735 0.164353
Si Si2 0.795526 0.350329 0.180688
Si Si3 0.644791 0.214985 0.015360
Si Si4 0.107307 0.204216 0.385206
Si Si5 0.716489 0.293049 0.473212
Si Si6 0.098638 0.709929 0.384375
Si Si7 0.084425 0.565200 0.701290
Si Si8 0.425943 0.279920 0.981049
O O1 0.883441 0.505391 0.135520
O O2 0.173864 0.698114 0.051934
O O3 0.154501 0.473604 0.111429
O O4 0.753489 0.998200 0.362288
O O5 0.513353 0.481026 0.326865
O O6 0.783735 0.470337 0.291618
O O7 0.000000 0.000000 0.000000
O O8 0.390576 0.492540 0.219607
O O9 0.544978 0.155362 0.975198
O O10 0.825099 0.897697 0.898285
O O11 0.962580 0.152874 0.380086
O O12 0.083124 0.006918 0.418249
O O13 0.052362 0.518859 0.427840
O O14 0.398205 0.995979 0.209496
O O15 0.748083 0.432945 0.427266
O O16 0.983897 0.634234 0.353795
O O17 0.500000 0.500000 0.000000
#
# Coordination Sequence:
#
# PCOD9059353 Si02
#       8
#     2   2   2   2   2   2   2   2
#     4  10  22  43  71  92 130 180 222 269 330 396
#     4  12  29  45  70  97 129 181 238 277 324 393
#     4  10  21  41  66  96 136 176 214 270 339 396
#     4  12  23  39  68 103 138 172 216 275 338 404
#     4  11  24  48  68  96 136 182 224 273 333 398
#     4  12  25  37  66 110 139 167 214 274 344 402
#     4  11  24  48  66  95 137 180 219 276 334 395
#     4  10  17  37  66  95 129 170 211 261 336 396
#
# _framework density 26.493521000000001
#
# number of rings (size 3 to 8) (size 9 to 14) (size 15 to 20)
#    0.000    1.000    5.000    3.375    5.250    1.000 
#    0.000    2.500    0.000    0.000    0.000    0.000 
#    0.000    0.000    0.000    0.000    0.000    0.000 
#
# Total GULP energy -89255.440202 kJ/mol
# GULP energy per Si atom -5578.465013 kJ/mol
# Density = 2.643322 g / cm^3
# Si number density = 26.493521 Si / 1000 Ang^3
#
#
#
# Elastic Constant Matrix: (Units=GPa)
#
#
# Indices 1 2 3 4 5 6 
#
# 1 62.5483 20.8401 21.9330 -8.4193 8.5031 -0.6699
# 2 20.8401 146.4001 43.7711 27.0651 3.3957 17.0317
# 3 21.9330 43.7711 182.0843 13.9508 -21.0763 20.8305
# 4 -8.4193 27.0651 13.9508 44.3423 -1.8709 10.2084
# 5 8.5031 3.3957 -21.0763 -1.8709 38.7478 -1.6297
# 6 -0.6699 17.0317 20.8305 10.2084 -1.6297 42.7022
#
#
#
# Elastic Compliance Matrix: (Units=1/GPa)
#
#
# Indices 1 2 3 4 5 6 
#
# 1 0.019520 -0.003064 -0.002820 0.005948 -0.005208 0.001283
# 2 -0.003064 0.008846 -0.001289 -0.005222 -0.001129 -0.001742
# 3 -0.002820 -0.001289 0.007028 -0.001198 0.004391 -0.002505
# 4 0.005948 -0.005222 -0.001198 0.028149 -0.000308 -0.003980
# 5 -0.005208 -0.001129 0.004391 -0.000308 0.029399 -0.000578
# 6 0.001283 -0.001742 -0.002505 -0.003980 -0.000578 0.026284
#
#
# Mechanical properties :
#
#
# Convention : Reuss Voigt Hill
#
# Bulk Modulus (GPa) = 47.50804 62.68010 55.09407
# Shear Modulus (GPa) = 35.56485 45.45769 40.51127
#
# Velocity S-wave (km/s) = 3.66785 4.14672 3.91461
# Velocity P-wave (km/s) = 5.99236 6.82913 6.42438
#
# Compressibility (1/GPa) = 0.02104907
#
# Stress axis : x y z
#
# Youngs Moduli (GPa) = 51.23037 113.04051 142.28581
#
# Poissons Ratio (x) = 0.34631 0.40126
# Poissons Ratio (y) = 0.15695 0.18338
# Poissons Ratio (z) = 0.14448 0.14569
#
# Static dielectric constant tensor:
#      x y z
#    x 1.762240 1.213470 -0.107460 
#    y 1.213470 -2.219810 -0.036630 
#    z -0.107460 -0.036630 2.176230 
# 
# From -- ./inp_files/593735.got.cif
#   From: 2010.05.17/outbox.cif.g08.bks.cpg/sg2_297_cif.got.tgz:593735.got - 2010.06.03 11:33:40.
