data_PCOD9059532
_publ_section_title
;
Structure prediction by ZEFSAII (Michael W. Deem and Ramdas Pophale) SiO2 
 PCOD9059532
Probable space group: P -1
;
_chemical_formula_sum "Si O2"
_cell_formula_units_Z 16
_cell_length_a 19.986032
_cell_length_b 10.803962
_cell_length_c 8.547525
_cell_angle_alpha 138.338643
_cell_angle_beta 124.905796
_cell_angle_gamma 33.870603
_cell_volume 677.967697
_symmetry_space_group_name_H-M "P -1"
_symmetry_group_IT_number 2
_symmetry_cell_setting 'triclinic'
loop_
_space_group_symop_operation_xyz
x,y,z
-x,-y,-z
loop_
_atom_site_type_symbol
_atom_site_label
_atom_site_fract_x
_atom_site_fract_y
_atom_site_fract_z
Si Si1 0.461268 0.069151 0.776719
Si Si2 0.045411 0.700624 0.914035
Si Si3 0.714155 0.480396 0.464696
Si Si4 0.092142 0.920767 0.414680
Si Si5 0.798232 0.972381 0.938508
Si Si6 0.561874 0.206080 0.248259
Si Si7 0.844253 0.778043 0.154523
Si Si8 0.228283 0.354390 0.554151
O O1 0.582194 0.790674 0.592252
O O2 0.437451 0.955511 0.771803
O O3 0.341725 0.266155 0.700285
O O4 0.491035 0.222761 0.028900
O O5 0.103040 0.483871 0.929036
O O6 0.119074 0.533710 0.699362
O O7 0.905055 0.884194 0.896986
O O8 0.064932 0.875273 0.169181
O O9 0.774829 0.356803 0.599703
O O10 0.797320 0.481378 0.478338
O O11 0.719607 0.271345 0.189387
O O12 0.096531 0.134976 0.615866
O O13 0.000000 0.000000 0.500000
O O14 0.736389 0.914137 0.702523
O O15 0.858974 0.769553 0.979591
O O16 0.500000 0.500000 0.500000
O O17 0.699755 0.016852 0.210512
#
# Coordination Sequence:
#
# PCOD9059532 Si02
#       8
#     2   2   2   2   2   2   2   2
#     4  11  25  45  66 101 136 179 229 278 337 400
#     4  12  24  43  67 101 138 173 227 283 338 398
#     4  11  25  45  69  95 141 180 226 281 330 407
#     4  11  23  43  71 104 127 178 232 274 338 398
#     4  11  25  43  65 100 132 184 225 271 340 405
#     4  11  23  41  71 102 135 170 226 290 339 392
#     4  11  23  41  71  99 131 175 226 282 333 404
#     4  12  27  42  68  98 141 183 220 277 345 406
#
# _framework density 23.599945000000002
#
# number of rings (size 3 to 8) (size 9 to 14) (size 15 to 20)
#    0.000    0.750    3.750    4.875    5.250    3.000 
#    0.000    0.000    0.000    0.000    0.000    0.000 
#    0.000    0.000    0.000    0.000    0.000    0.000 
#
# Total GULP energy -89638.677139 kJ/mol
# GULP energy per Si atom -5602.417321 kJ/mol
# Density = 2.354623 g / cm^3
# Si number density = 23.599945 Si / 1000 Ang^3
#
#
#
# Elastic Constant Matrix: (Units=GPa)
#
#
# Indices 1 2 3 4 5 6 
#
# 1 103.7194 4.7462 40.0901 5.5720 0.2430 -16.0123
# 2 4.7462 61.6268 17.3922 8.9035 11.1206 -9.0040
# 3 40.0901 17.3922 146.4575 -1.1233 40.7053 -10.3218
# 4 5.5720 8.9035 -1.1233 24.6975 -6.6928 1.5644
# 5 0.2430 11.1206 40.7053 -6.6928 44.8880 -1.4044
# 6 -16.0123 -9.0040 -10.3218 1.5644 -1.4044 28.4597
#
#
#
# Elastic Compliance Matrix: (Units=1/GPa)
#
#
# Indices 1 2 3 4 5 6 
#
# 1 0.012170 0.000904 -0.003864 -0.002821 0.002982 0.006034
# 2 0.000904 0.019637 -0.000668 -0.009210 -0.005427 0.006718
# 3 -0.003864 -0.000668 0.010718 -0.001087 -0.009661 0.001085
# 4 -0.002821 -0.009210 -0.001087 0.047594 0.010159 -0.007010
# 5 0.002982 -0.005427 -0.009661 0.010159 0.033805 -0.002433
# 6 0.006034 0.006718 0.001085 -0.007010 -0.002433 0.041316
#
#
# Mechanical properties :
#
#
# Convention : Reuss Voigt Hill
#
# Bulk Modulus (GPa) = 28.35352 48.47341 38.41347
# Shear Modulus (GPa) = 27.13660 36.24736 31.69198
#
# Velocity S-wave (km/s) = 3.39464 3.92332 3.66851
# Velocity P-wave (km/s) = 5.23498 6.41151 5.85288
#
# Compressibility (1/GPa) = 0.03526899
#
# Stress axis : x y z
#
# Youngs Moduli (GPa) = 82.17206 50.92428 93.29956
#
# Poissons Ratio (x) = -0.04605 0.36049
# Poissons Ratio (y) = -0.07431 0.06237
# Poissons Ratio (z) = 0.31749 0.03404
#
# Static dielectric constant tensor:
#      x y z
#    x 1.892930 0.024400 -0.013440 
#    y 0.024400 1.927600 -0.008910 
#    z -0.013440 -0.008910 1.872260 
# 
# From -- ./inp_files/282864.got.cif
#   From: 2010.05.17/outbox.cif.g08.bks.cpg/sg2_142_cif.got.tgz:282864.got - 2010.06.03 11:33:40.
