data_PCOD9059585
_publ_section_title
;
Structure prediction by ZEFSAII (Michael W. Deem and Ramdas Pophale) SiO2 
 PCOD9059585
Probable space group: P -1
;
_chemical_formula_sum "Si O2"
_cell_formula_units_Z 16
_cell_length_a 14.693434
_cell_length_b 8.335354
_cell_length_c 14.021717
_cell_angle_alpha 98.060387
_cell_angle_beta 149.752122
_cell_angle_gamma 98.957952
_cell_volume 712.483882
_symmetry_space_group_name_H-M "P -1"
_symmetry_group_IT_number 2
_symmetry_cell_setting 'triclinic'
loop_
_space_group_symop_operation_xyz
x,y,z
-x,-y,-z
loop_
_atom_site_type_symbol
_atom_site_label
_atom_site_fract_x
_atom_site_fract_y
_atom_site_fract_z
Si Si1 0.680638 0.367532 0.008797
Si Si2 0.687574 0.428826 0.611957
Si Si3 0.680590 0.617010 0.419405
Si Si4 0.117618 0.689631 0.355189
Si Si5 0.201253 0.198646 0.155484
Si Si6 0.249267 0.575002 0.717980
Si Si7 0.516927 0.928567 0.874039
Si Si8 0.078596 0.062676 0.819495
O O1 0.678143 0.456335 0.116328
O O2 0.928163 0.479789 0.206237
O O3 0.534707 0.387018 0.800963
O O4 0.589659 0.145039 0.931637
O O5 0.663739 0.513588 0.495647
O O6 0.827134 0.340968 0.703917
O O7 0.444355 0.264953 0.412139
O O8 0.798373 0.612834 0.797722
O O9 0.718133 0.526710 0.350920
O O10 0.883594 0.838524 0.631767
O O11 0.345679 0.799765 0.624948
O O12 0.020535 0.818509 0.295606
O O13 0.179899 0.156056 0.020955
O O14 0.000000 0.000000 0.000000
O O15 0.379007 0.805098 0.830518
O O16 0.000000 0.500000 0.500000
O O17 0.728625 0.920157 0.064832
#
# Coordination Sequence:
#
# PCOD9059585 Si02
#       8
#     2   2   2   2   2   2   2   2
#     4  12  26  43  71 101 137 181 231 282 337 405
#     4  11  23  44  70 100 137 179 222 282 339 400
#     4  12  24  44  70 102 138 185 225 277 349 404
#     4  12  24  46  72  99 138 179 230 276 342 405
#     4  11  23  41  73  99 135 176 225 278 339 404
#     4  12  23  44  67  99 138 179 232 284 333 399
#     4  12  24  46  71  99 137 182 225 282 344 400
#     4  12  25  46  72 102 137 183 225 280 345 406
#
# _framework density 22.456647
#
# number of rings (size 3 to 8) (size 9 to 14) (size 15 to 20)
#    0.000    0.250    6.250    3.750    0.000    0.500 
#    0.000    2.500    0.000    0.000    0.000    0.000 
#    0.000    0.000    0.000    0.000    0.000    0.000 
#
# Total GULP energy -89444.322437 kJ/mol
# GULP energy per Si atom -5590.270152 kJ/mol
# Density = 2.240554 g / cm^3
# Si number density = 22.456647 Si / 1000 Ang^3
#
#
#
# Elastic Constant Matrix: (Units=GPa)
#
#
# Indices 1 2 3 4 5 6 
#
# 1 58.2334 6.7901 22.6696 13.2119 14.4777 -9.3003
# 2 6.7901 71.7099 38.5680 11.4876 14.3123 -6.3675
# 3 22.6696 38.5680 129.0203 29.8503 16.3323 -5.8429
# 4 13.2119 11.4876 29.8503 48.3483 1.1801 5.7741
# 5 14.4777 14.3123 16.3323 1.1801 45.6912 4.5122
# 6 -9.3003 -6.3675 -5.8429 5.7741 4.5122 29.7050
#
#
#
# Elastic Compliance Matrix: (Units=1/GPa)
#
#
# Indices 1 2 3 4 5 6 
#
# 1 0.022639 0.002300 -0.001651 -0.006685 -0.008098 0.009786
# 2 0.002300 0.017948 -0.004236 -0.002755 -0.005266 0.005070
# 3 -0.001651 -0.004236 0.010945 -0.005502 -0.002130 0.002121
# 4 -0.006685 -0.002755 -0.005502 0.027620 0.005215 -0.009927
# 5 -0.008098 -0.005266 -0.002130 0.005215 0.027646 -0.009296
# 6 0.009786 0.005070 0.002121 -0.009927 -0.009296 0.041574
#
#
# Mechanical properties :
#
#
# Convention : Reuss Voigt Hill
#
# Bulk Modulus (GPa) = 22.54258 43.89102 33.21680
# Shear Modulus (GPa) = 29.35450 37.47796 33.41623
#
# Velocity S-wave (km/s) = 3.61939 4.08965 3.86169
# Velocity P-wave (km/s) = 5.24659 6.47206 5.89128
#
# Compressibility (1/GPa) = 0.04436050
#
# Stress axis : x y z
#
# Youngs Moduli (GPa) = 44.17067 55.71671 91.36186
#
# Poissons Ratio (x) = -0.12815 0.15079
# Poissons Ratio (y) = -0.10160 0.38699
# Poissons Ratio (z) = 0.07290 0.23600
#
# Static dielectric constant tensor:
#      x y z
#    x 1.877570 -0.029930 -0.023980 
#    y -0.029930 1.871710 -0.003030 
#    z -0.023980 -0.003030 1.835600 
# 
# From -- ./inp_files/529937.got.cif
#   From: 2010.05.17/outbox.cif.g08.bks.cpg/sg2_265_cif.got.tgz:529937.got - 2010.06.03 11:33:40.
