data_PCOD9059952
_publ_section_title
;
Structure prediction by ZEFSAII (Michael W. Deem and Ramdas Pophale) SiO2 
 PCOD9059952
Probable space group: P -1
;
_chemical_formula_sum "Si O2"
_cell_formula_units_Z 12
_cell_length_a 8.709168
_cell_length_b 7.628897
_cell_length_c 14.194701
_cell_angle_alpha 58.365479
_cell_angle_beta 103.545237
_cell_angle_gamma 59.616141
_cell_volume 507.842338
_symmetry_space_group_name_H-M "P -1"
_symmetry_group_IT_number 2
_symmetry_cell_setting 'triclinic'
loop_
_space_group_symop_operation_xyz
x,y,z
-x,-y,-z
loop_
_atom_site_type_symbol
_atom_site_label
_atom_site_fract_x
_atom_site_fract_y
_atom_site_fract_z
Si Si1 0.289210 0.042055 0.970011
Si Si2 0.855029 0.142383 0.563893
Si Si3 0.184581 0.467849 0.114361
Si Si4 0.511051 0.533944 0.721305
Si Si5 0.411594 0.821227 0.327712
Si Si6 0.212045 0.804577 0.876225
O O1 0.062007 0.332343 0.920128
O O2 0.174499 0.056991 0.854666
O O3 0.500000 0.000000 0.000000
O O4 0.427403 0.714617 0.131125
O O5 0.768000 0.176508 0.434670
O O6 0.702608 0.505435 0.458271
O O7 0.709892 0.106905 0.610813
O O8 0.098183 0.912848 0.725015
O O9 0.372609 0.384048 0.238509
O O10 0.314328 0.134047 0.190633
O O11 0.138181 0.681825 0.965489
O O12 0.649963 0.314491 0.709370
O O13 0.500000 0.500000 0.000000
#
# Coordination Sequence:
#
# PCOD9059952 Si02
#       6
#     2   2   2   2   2   2
#     4  11  25  42  63 100 136 172 223 275 320 392
#     4   9  20  41  64  98 134 166 217 277 324 391
#     4  11  23  42  71  96 130 178 223 266 328 395
#     4   9  20  42  65  93 134 167 218 272 329 378
#     4   9  20  37  71  94 128 168 221 258 342 373
#     4  11  25  44  69  99 131 174 221 272 329 391
#
# _framework density 23.629379
#
# number of rings (size 3 to 8) (size 9 to 14) (size 15 to 20)
#    1.000    1.000    0.000    4.000    4.667    2.000 
#    0.000    6.667    0.000    0.000    0.000    0.000 
#    0.000    0.000    0.000    0.000    0.000    0.000 
#
# Total GULP energy -66896.974304 kJ/mol
# GULP energy per Si atom -5574.747859 kJ/mol
# Density = 2.357560 g / cm^3
# Si number density = 23.629379 Si / 1000 Ang^3
#
#
#
# Elastic Constant Matrix: (Units=GPa)
#
#
# Indices 1 2 3 4 5 6 
#
# 1 88.5416 16.8916 37.1500 -1.0589 22.6988 15.1349
# 2 16.8916 78.2189 56.7262 11.5872 7.7462 24.2245
# 3 37.1500 56.7262 170.4982 30.9637 43.1266 9.7363
# 4 -1.0589 11.5872 30.9637 50.6080 -0.6718 5.7983
# 5 22.6988 7.7462 43.1266 -0.6718 37.0905 1.7671
# 6 15.1349 24.2245 9.7363 5.7983 1.7671 32.0992
#
#
#
# Elastic Compliance Matrix: (Units=1/GPa)
#
#
# Indices 1 2 3 4 5 6 
#
# 1 0.014846 0.000459 -0.001561 0.001849 -0.007008 -0.006821
# 2 0.000459 0.022912 -0.008636 0.001905 0.005750 -0.015549
# 3 -0.001561 -0.008636 0.013393 -0.007019 -0.013187 0.005185
# 4 0.001849 0.001905 -0.007019 0.024324 0.007309 -0.004977
# 5 -0.007008 0.005750 -0.013187 0.007309 0.045556 -0.000864
# 6 -0.006821 -0.015549 0.005185 -0.004977 -0.000864 0.045478
#
#
# Mechanical properties :
#
#
# Convention : Reuss Voigt Hill
#
# Bulk Modulus (GPa) = 31.57089 62.08824 46.82957
# Shear Modulus (GPa) = 25.43970 39.05895 32.24933
#
# Velocity S-wave (km/s) = 3.28474 4.07010 3.69833
# Velocity P-wave (km/s) = 5.27028 6.95849 6.17237
#
# Compressibility (1/GPa) = 0.03167474
#
# Stress axis : x y z
#
# Youngs Moduli (GPa) = 67.35707 43.64491 74.66726
#
# Poissons Ratio (x) = -0.02002 0.11657
# Poissons Ratio (y) = -0.03089 0.64480
# Poissons Ratio (z) = 0.10516 0.37690
#
# Static dielectric constant tensor:
#      x y z
#    x 1.954350 -0.088030 0.066090 
#    y -0.088030 2.071910 0.035250 
#    z 0.066090 0.035250 1.968810 
# 
# From -- ./inp_files/555018.got.cif
#   From: 2010.05.17/outbox.cif.g08.bks.cpg/sg2_278_cif.got.tgz:555018.got - 2010.06.03 11:33:40.
