data_PCOD9059716
_publ_section_title
;
Structure prediction by ZEFSAII (Michael W. Deem and Ramdas Pophale) SiO2 
 PCOD9059716
Probable space group: P -1
;
_chemical_formula_sum "Si O2"
_cell_formula_units_Z 16
_cell_length_a 11.594755
_cell_length_b 5.412569
_cell_length_c 11.364026
_cell_angle_alpha 105.142885
_cell_angle_beta 81.672038
_cell_angle_gamma 104.224392
_cell_volume 664.823821
_symmetry_space_group_name_H-M "P -1"
_symmetry_group_IT_number 2
_symmetry_cell_setting 'triclinic'
loop_
_space_group_symop_operation_xyz
x,y,z
-x,-y,-z
loop_
_atom_site_type_symbol
_atom_site_label
_atom_site_fract_x
_atom_site_fract_y
_atom_site_fract_z
Si Si1 0.817660 0.200773 0.333919
Si Si2 0.925031 0.829903 0.108893
Si Si3 0.318822 0.299623 0.310303
Si Si4 0.442921 0.817723 0.735528
Si Si5 0.174756 0.003735 0.079565
Si Si6 0.712022 0.385048 0.078639
Si Si7 0.128037 0.196615 0.531624
Si Si8 0.573004 0.368961 0.876100
O O1 0.678119 0.183444 0.317256
O O2 0.876919 0.509880 0.385184
O O3 0.896050 0.080237 0.211984
O O4 0.814899 0.992912 0.415240
O O5 0.823784 0.588092 0.135886
O O6 0.896735 0.833124 0.973457
O O7 0.057391 0.794061 0.112292
O O8 0.437188 0.236976 0.346360
O O9 0.255683 0.112579 0.190454
O O10 0.214712 0.279313 0.416951
O O11 0.375544 0.548177 0.251243
O O12 0.397829 0.605301 0.819384
O O13 0.493943 0.081901 0.832774
O O14 0.257944 0.900414 0.960524
O O15 0.689718 0.405625 0.946504
O O16 0.000000 0.000000 0.500000
O O17 0.500000 0.500000 0.000000
#
# Coordination Sequence:
#
# PCOD9059716 Si02
#       8
#     2   2   2   2   2   2   2   2
#     4  12  28  53  82 113 151 206 259 326 389 449
#     4  11  24  43  71 108 151 193 257 317 391 455
#     4  12  27  47  74 112 149 207 261 316 386 468
#     4  12  26  42  74 109 152 196 254 316 388 460
#     4  11  23  42  67 111 146 195 253 318 389 463
#     4  12  21  41  69 110 159 205 246 309 396 472
#     4  12  31  58  84 109 151 207 269 323 382 454
#     4  12  23  40  70 108 161 203 248 308 389 476
#
# _framework density 24.066524000000001
#
# number of rings (size 3 to 8) (size 9 to 14) (size 15 to 20)
#    0.000    0.250    5.000    4.125    3.500    1.000 
#    4.500    0.000    0.000    0.000    0.000    0.000 
#    0.000    0.000    0.000    0.000    0.000    0.000 
#
# Total GULP energy -89102.113307 kJ/mol
# GULP energy per Si atom -5568.882082 kJ/mol
# Density = 2.401175 g / cm^3
# Si number density = 24.066524 Si / 1000 Ang^3
#
#
#
# Elastic Constant Matrix: (Units=GPa)
#
#
# Indices 1 2 3 4 5 6 
#
# 1 132.1355 30.4153 32.8427 -2.3428 -1.9589 31.8169
# 2 30.4153 77.7212 26.4952 1.5275 0.3540 25.2071
# 3 32.8427 26.4952 79.5607 -12.7850 -14.1351 3.0954
# 4 -2.3428 1.5275 -12.7850 42.9738 5.0183 7.4167
# 5 -1.9589 0.3540 -14.1351 5.0183 40.0970 -9.2161
# 6 31.8169 25.2071 3.0954 7.4167 -9.2161 48.3107
#
#
#
# Elastic Compliance Matrix: (Units=1/GPa)
#
#
# Indices 1 2 3 4 5 6 
#
# 1 0.010365 -0.000338 -0.004238 0.000844 -0.002705 -0.007024
# 2 -0.000338 0.018428 -0.006507 -0.000369 -0.004682 -0.009812
# 3 -0.004238 -0.006507 0.018094 0.003542 0.007128 0.005843
# 4 0.000844 -0.000369 0.003542 0.025626 -0.003089 -0.005114
# 5 -0.002705 -0.004682 0.007128 -0.003089 0.030040 0.009973
# 6 -0.007024 -0.009812 0.005843 -0.005114 0.009973 0.032758
#
#
# Mechanical properties :
#
#
# Convention : Reuss Voigt Hill
#
# Bulk Modulus (GPa) = 40.44975 52.10263 46.27619
# Shear Modulus (GPa) = 30.17181 39.58725 34.87953
#
# Velocity S-wave (km/s) = 3.54458 4.06015 3.81109
# Velocity P-wave (km/s) = 5.79621 6.60879 6.21579
#
# Compressibility (1/GPa) = 0.02472203
#
# Stress axis : x y z
#
# Youngs Moduli (GPa) = 96.47530 54.26591 55.26787
#
# Poissons Ratio (x) = 0.01833 0.23422
# Poissons Ratio (y) = 0.03258 0.35961
# Poissons Ratio (z) = 0.40885 0.35310
#
# Static dielectric constant tensor:
#      x y z
#    x 2.080280 -0.074220 -0.025330 
#    y -0.074220 2.259110 -0.150720 
#    z -0.025330 -0.150720 1.998450 
# 
# From -- ./inp_files/411055.got.cif
#   From: 2010.05.17/outbox.cif.g08.bks.cpg/sg2_206_cif.got.tgz:411055.got - 2010.06.03 11:33:40.
