data_PCOD9059157
_publ_section_title
;
Structure prediction by ZEFSAII (Michael W. Deem and Ramdas Pophale) SiO2 
 PCOD9059157
Probable space group: P -1
;
_chemical_formula_sum "Si O2"
_cell_formula_units_Z 16
_cell_length_a 16.270737
_cell_length_b 10.164480
_cell_length_c 9.533237
_cell_angle_alpha 118.106625
_cell_angle_beta 47.378160
_cell_angle_gamma 85.856880
_cell_volume 816.502324
_symmetry_space_group_name_H-M "P -1"
_symmetry_group_IT_number 2
_symmetry_cell_setting 'triclinic'
loop_
_space_group_symop_operation_xyz
x,y,z
-x,-y,-z
loop_
_atom_site_type_symbol
_atom_site_label
_atom_site_fract_x
_atom_site_fract_y
_atom_site_fract_z
Si Si1 0.632885 0.964134 0.903360
Si Si2 0.968389 0.307139 0.035760
Si Si3 0.233642 0.313804 0.127736
Si Si4 0.567831 0.802953 0.396959
Si Si5 0.394492 0.724999 0.733640
Si Si6 0.996435 0.728878 0.712885
Si Si7 0.936689 0.056966 0.756849
Si Si8 0.777217 0.708335 0.358048
O O1 0.677177 0.835252 0.925931
O O2 0.747323 0.844624 0.589869
O O3 0.500000 0.000000 0.000000
O O4 0.602559 0.157635 0.082455
O O5 0.974400 0.236242 0.148062
O O6 0.826941 0.512024 0.268612
O O7 0.988518 0.163211 0.827205
O O8 0.092464 0.328279 0.894843
O O9 0.120130 0.514799 0.426588
O O10 0.147181 0.249929 0.121822
O O11 0.321065 0.332891 0.919034
O O12 0.450597 0.778172 0.563958
O O13 0.651573 0.781477 0.430750
O O14 0.500000 0.000000 0.500000
O O15 0.500000 0.500000 0.500000
O O16 0.232760 0.805327 0.962378
O O17 0.987154 0.868944 0.684179
O O18 0.000000 0.000000 0.500000
#
# Coordination Sequence:
#
# PCOD9059157 Si02
#       8
#     2   2   2   2   2   2   2   2
#     4  12  22  43  68  99 133 177 233 287 337 416
#     4  11  24  41  68  97 138 182 226 288 351 414
#     4  11  23  40  69 101 130 173 236 292 344 404
#     4  12  22  43  70  98 135 183 234 291 347 414
#     4  12  27  44  69 103 143 183 226 286 361 423
#     4  11  23  42  68  97 139 177 228 291 349 414
#     4  12  27  45  68 100 143 184 231 286 360 426
#     4  11  23  40  69 102 128 174 239 288 339 407
#
# _framework density 19.595779
#
# number of rings (size 3 to 8) (size 9 to 14) (size 15 to 20)
#    0.000    0.500    6.250    1.875    3.500    0.000 
#    0.000    0.000    0.000    2.250    0.000    0.000 
#    0.000    0.000    0.000    0.000    0.000    0.000 
#
# Total GULP energy -89339.393983 kJ/mol
# GULP energy per Si atom -5583.712124 kJ/mol
# Density = 1.955118 g / cm^3
# Si number density = 19.595779 Si / 1000 Ang^3
#
#
#
# Elastic Constant Matrix: (Units=GPa)
#
#
# Indices 1 2 3 4 5 6 
#
# 1 97.2386 40.7219 36.0129 2.2786 7.0559 -20.3446
# 2 40.7219 125.4718 50.9706 4.3546 1.0036 -20.3931
# 3 36.0129 50.9706 93.2594 -5.4570 5.5067 -18.4144
# 4 2.2786 4.3546 -5.4570 43.9330 2.6050 4.9010
# 5 7.0559 1.0036 5.5067 2.6050 39.8462 -4.6744
# 6 -20.3446 -20.3931 -18.4144 4.9010 -4.6744 31.2480
#
#
#
# Elastic Compliance Matrix: (Units=1/GPa)
#
#
# Indices 1 2 3 4 5 6 
#
# 1 0.013622 -0.002248 -0.002913 -0.001414 -0.001188 0.005729
# 2 -0.002248 0.011295 -0.004793 -0.002080 0.001335 0.003609
# 3 -0.002913 -0.004793 0.015359 0.002216 -0.001221 0.003496
# 4 -0.001414 -0.002080 0.002216 0.024010 -0.002167 -0.005062
# 5 -0.001188 0.001335 -0.001221 -0.002167 0.026007 0.003609
# 6 0.005729 0.003609 0.003496 -0.005062 0.003609 0.041482
#
#
# Mechanical properties :
#
#
# Convention : Reuss Voigt Hill
#
# Bulk Modulus (GPa) = 49.09541 63.48673 56.29107
# Shear Modulus (GPa) = 31.55122 35.55641 33.55382
#
# Velocity S-wave (km/s) = 4.01696 4.26431 4.14248
# Velocity P-wave (km/s) = 6.82811 7.53089 7.18809
#
# Compressibility (1/GPa) = 0.02036850
#
# Stress axis : x y z
#
# Youngs Moduli (GPa) = 73.40876 88.53777 65.10684
#
# Poissons Ratio (x) = 0.19903 0.18966
# Poissons Ratio (y) = 0.16502 0.31205
# Poissons Ratio (z) = 0.21384 0.42435
#
# Static dielectric constant tensor:
#      x y z
#    x 1.671290 -0.003430 -0.020960 
#    y -0.003430 1.668160 -0.005370 
#    z -0.020960 -0.005370 1.771260 
# 
# From -- ./inp_files/217919.got.cif
#   From: 2010.05.17/outbox.cif.g08.bks.cpg/sg2_109_cif.got.tgz:217919.got - 2010.06.03 11:33:40.
