data_PCOD9059177
_publ_section_title
;
Structure prediction by ZEFSAII (Michael W. Deem and Ramdas Pophale) SiO2 
 PCOD9059177
Probable space group: P -1
;
_chemical_formula_sum "Si O2"
_cell_formula_units_Z 16
_cell_length_a 14.443868
_cell_length_b 17.716371
_cell_length_c 9.155238
_cell_angle_alpha 142.281004
_cell_angle_beta 37.168754
_cell_angle_gamma 150.881365
_cell_volume 651.919629
_symmetry_space_group_name_H-M "P -1"
_symmetry_group_IT_number 2
_symmetry_cell_setting 'triclinic'
loop_
_space_group_symop_operation_xyz
x,y,z
-x,-y,-z
loop_
_atom_site_type_symbol
_atom_site_label
_atom_site_fract_x
_atom_site_fract_y
_atom_site_fract_z
Si Si1 0.779563 0.048391 0.014032
Si Si2 0.333837 0.533376 0.690721
Si Si3 0.782230 0.372979 0.267225
Si Si4 0.426550 0.040655 0.367268
Si Si5 0.938558 0.601891 0.671195
Si Si6 0.048651 0.794809 0.252598
Si Si7 0.775825 0.891334 0.048662
Si Si8 0.552747 0.464327 0.134544
O O1 0.561962 0.990530 0.151087
O O2 0.881413 0.208724 0.232251
O O3 0.785751 0.932393 0.929089
O O4 0.910766 0.102621 0.784263
O O5 0.247266 0.605849 0.830287
O O6 0.507462 0.574969 0.426429
O O7 0.400707 0.587723 0.855172
O O8 0.171127 0.334061 0.596819
O O9 0.576665 0.215452 0.361736
O O10 0.876157 0.538926 0.487746
O O11 0.926546 0.331667 0.033478
O O12 0.348568 0.065548 0.648692
O O13 0.230727 0.911805 0.315914
O O14 0.000000 0.500000 0.500000
O O15 0.743268 0.552121 0.924236
O O16 0.642616 0.698716 0.945713
O O17 0.000000 0.000000 0.000000
#
# Coordination Sequence:
#
# PCOD9059177 Si02
#       8
#     2   2   2   2   2   2   2   2
#     4  11  24  43  69  96 131 179 221 277 333 391
#     4  11  25  44  66  99 134 177 219 273 330 400
#     4  11  23  40  69  98 129 173 215 279 330 383
#     4  11  24  44  66 102 137 170 226 275 335 401
#     4  12  21  43  69  96 130 168 227 276 325 392
#     4  11  23  44  67 102 136 171 224 276 332 400
#     4  12  27  46  65  98 135 181 223 274 335 401
#     4  11  25  46  65  91 139 175 226 268 331 401
#
# _framework density 24.542902999999999
#
# number of rings (size 3 to 8) (size 9 to 14) (size 15 to 20)
#    0.000    0.750    5.000    3.000    7.000    1.500 
#    0.000    1.250    0.000    0.000    0.000    0.000 
#    0.000    0.000    0.000    0.000    0.000    0.000 
#
# Total GULP energy -89589.424668 kJ/mol
# GULP energy per Si atom -5599.339042 kJ/mol
# Density = 2.448704 g / cm^3
# Si number density = 24.542903 Si / 1000 Ang^3
#
#
#
# Elastic Constant Matrix: (Units=GPa)
#
#
# Indices 1 2 3 4 5 6 
#
# 1 81.4579 27.4383 -17.7911 2.8469 7.2207 -3.1768
# 2 27.4383 80.9191 0.2569 1.5882 -0.3847 20.8300
# 3 -17.7911 0.2569 72.2543 -13.2844 8.0761 -0.8908
# 4 2.8469 1.5882 -13.2844 37.5995 8.6704 11.5562
# 5 7.2207 -0.3847 8.0761 8.6704 30.2240 5.6721
# 6 -3.1768 20.8300 -0.8908 11.5562 5.6721 47.3334
#
#
#
# Elastic Compliance Matrix: (Units=1/GPa)
#
#
# Indices 1 2 3 4 5 6 
#
# 1 0.016412 -0.006861 0.005004 0.000839 -0.006484 0.004787
# 2 -0.006861 0.016906 -0.002130 0.000818 0.003802 -0.008595
# 3 0.005004 -0.002130 0.017381 0.007504 -0.008159 0.000746
# 4 0.000839 0.000818 0.007504 0.033777 -0.010544 -0.007145
# 5 -0.006484 0.003802 -0.008159 -0.010544 0.040747 -0.004570
# 6 0.004787 -0.008595 0.000746 -0.007145 -0.004570 0.027537
#
#
# Mechanical properties :
#
#
# Convention : Reuss Voigt Hill
#
# Bulk Modulus (GPa) = 23.40564 28.27106 25.83835
# Shear Modulus (GPa) = 28.57568 38.01319 33.29444
#
# Velocity S-wave (km/s) = 3.41591 3.93981 3.68718
# Velocity P-wave (km/s) = 5.01151 5.67804 5.35516
#
# Compressibility (1/GPa) = 0.04272475
#
# Stress axis : x y z
#
# Youngs Moduli (GPa) = 60.93051 59.15158 57.53573
#
# Poissons Ratio (x) = 0.40581 -0.28788
# Poissons Ratio (y) = 0.41801 0.12254
# Poissons Ratio (z) = -0.30487 0.12598
#
# Static dielectric constant tensor:
#      x y z
#    x 1.957360 0.009210 -0.001490 
#    y 0.009210 1.993180 -0.037790 
#    z -0.001490 -0.037790 1.953520 
# 
# From -- ./inp_files/298793.got.cif
#   From: 2010.05.17/outbox.cif.g08.bks.cpg/sg2_150_cif.got.tgz:298793.got - 2010.06.03 11:33:40.
