data_PCOD9059215
_publ_section_title
;
Structure prediction by ZEFSAII (Michael W. Deem and Ramdas Pophale) SiO2 
 PCOD9059215
Probable space group: P -1
;
_chemical_formula_sum "Si O2"
_cell_formula_units_Z 16
_cell_length_a 11.433853
_cell_length_b 9.427413
_cell_length_c 21.434705
_cell_angle_alpha 25.428996
_cell_angle_beta 44.411286
_cell_angle_gamma 52.898251
_cell_volume 687.496389
_symmetry_space_group_name_H-M "P -1"
_symmetry_group_IT_number 2
_symmetry_cell_setting 'triclinic'
loop_
_space_group_symop_operation_xyz
x,y,z
-x,-y,-z
loop_
_atom_site_type_symbol
_atom_site_label
_atom_site_fract_x
_atom_site_fract_y
_atom_site_fract_z
Si Si1 0.555912 0.976777 0.587868
Si Si2 0.013976 0.882604 0.856049
Si Si3 0.369270 0.240308 0.929873
Si Si4 0.862950 0.886013 0.148944
Si Si5 0.545517 0.738029 0.254681
Si Si6 0.163982 0.819491 0.506470
Si Si7 0.845785 0.860525 0.426925
Si Si8 0.808665 0.186919 0.645089
O O1 0.427143 0.629254 0.774026
O O2 0.691299 0.951403 0.489923
O O3 0.498312 0.346001 0.451321
O O4 0.664601 0.983676 0.607956
O O5 0.817389 0.935167 0.909814
O O6 0.092742 0.953932 0.865131
O O7 0.130146 0.039417 0.693618
O O8 0.000000 0.500000 0.000000
O O9 0.371913 0.264935 0.843768
O O10 0.500000 0.000000 0.000000
O O11 0.678259 0.916380 0.182138
O O12 0.866283 0.496693 0.312160
O O13 0.000000 0.000000 0.000000
O O14 0.388414 0.943216 0.225617
O O15 0.175883 0.701961 0.477348
O O16 0.000000 0.000000 0.500000
O O17 0.823637 0.460961 0.586045
O O18 0.027761 0.994769 0.334657
#
# Coordination Sequence:
#
# PCOD9059215 Si02
#       8
#     2   2   2   2   2   2   2   2
#     4  11  25  43  73  99 139 183 234 277 346 412
#     4  12  27  43  71 101 140 181 230 281 350 413
#     4  12  26  43  67 104 140 178 224 287 348 405
#     4  11  25  45  68  96 139 185 223 278 352 410
#     4  11  24  44  72 100 135 181 231 289 337 410
#     4  11  24  42  71  99 134 184 231 278 336 415
#     4  11  23  43  68 101 137 178 231 280 338 414
#     4  11  23  40  71  99 132 170 233 289 333 392
#
# _framework density 23.272849999999998
#
# number of rings (size 3 to 8) (size 9 to 14) (size 15 to 20)
#    0.000    0.750    5.000    1.875    7.000    3.000 
#    0.000    0.000    0.000    3.750    0.000    0.000 
#    0.000    0.000    0.000    0.000    0.000    0.000 
#
# Total GULP energy -89350.221762 kJ/mol
# GULP energy per Si atom -5584.388860 kJ/mol
# Density = 2.321988 g / cm^3
# Si number density = 23.272850 Si / 1000 Ang^3
#
#
#
# Elastic Constant Matrix: (Units=GPa)
#
#
# Indices 1 2 3 4 5 6 
#
# 1 165.0107 36.0123 33.3480 2.8136 -22.9544 10.6596
# 2 36.0123 58.8709 7.4090 8.5085 -10.0375 3.2839
# 3 33.3480 7.4090 65.2648 9.3780 -9.1213 11.2486
# 4 2.8136 8.5085 9.3780 23.4147 3.4046 -6.2805
# 5 -22.9544 -10.0375 -9.1213 3.4046 35.9251 7.3733
# 6 10.6596 3.2839 11.2486 -6.2805 7.3733 36.6036
#
#
#
# Elastic Compliance Matrix: (Units=1/GPa)
#
#
# Indices 1 2 3 4 5 6 
#
# 1 0.008138 -0.003993 -0.003011 0.000702 0.003600 -0.001691
# 2 -0.003993 0.021988 0.002815 -0.010847 0.006323 -0.004810
# 3 -0.003011 0.002815 0.021032 -0.012703 0.007356 -0.009500
# 4 0.000702 -0.010847 -0.012703 0.058596 -0.015003 0.017749
# 5 0.003600 0.006323 0.007356 -0.015003 0.038091 -0.014124
# 6 -0.001691 -0.004810 -0.009500 0.017749 -0.014124 0.037054
#
#
# Mechanical properties :
#
#
# Convention : Reuss Voigt Hill
#
# Bulk Modulus (GPa) = 23.37461 49.18723 36.28092
# Shear Modulus (GPa) = 24.09212 33.34715 28.71963
#
# Velocity S-wave (km/s) = 3.22095 3.78944 3.51670
# Velocity P-wave (km/s) = 4.88858 6.35039 5.66682
#
# Compressibility (1/GPa) = 0.04278146
#
# Stress axis : x y z
#
# Youngs Moduli (GPa) = 122.87633 45.47859 47.54646
#
# Poissons Ratio (x) = 0.18157 0.14318
# Poissons Ratio (y) = 0.49059 -0.13385
# Poissons Ratio (z) = 0.37001 -0.12803
#
# Static dielectric constant tensor:
#      x y z
#    x 2.003010 -0.075630 -0.095120 
#    y -0.075630 1.931970 0.041930 
#    z -0.095120 0.041930 2.073550 
# 
# From -- ./inp_files/403221.got.cif
#   From: 2010.05.17/outbox.cif.g08.bks.cpg/sg2_202_cif.got.tgz:403221.got - 2010.06.03 11:33:40.
