data_PCOD9059831
_publ_section_title
;
Structure prediction by ZEFSAII (Michael W. Deem and Ramdas Pophale) SiO2 
 PCOD9059831
Probable space group: P -1
;
_chemical_formula_sum "Si O2"
_cell_formula_units_Z 16
_cell_length_a 6.843476
_cell_length_b 10.052664
_cell_length_c 17.025368
_cell_angle_alpha 69.793841
_cell_angle_beta 59.957265
_cell_angle_gamma 48.556309
_cell_volume 759.853250
_symmetry_space_group_name_H-M "P -1"
_symmetry_group_IT_number 2
_symmetry_cell_setting 'triclinic'
loop_
_space_group_symop_operation_xyz
x,y,z
-x,-y,-z
loop_
_atom_site_type_symbol
_atom_site_label
_atom_site_fract_x
_atom_site_fract_y
_atom_site_fract_z
Si Si1 0.558500 0.161562 0.606762
Si Si2 0.876001 0.678462 0.037749
Si Si3 0.719600 0.526154 0.859235
Si Si4 0.196612 0.017536 0.724959
Si Si5 0.182516 0.865458 0.600868
Si Si6 0.573368 0.336652 0.807360
Si Si7 0.191445 0.532265 0.694647
Si Si8 0.134888 0.866029 0.927854
O O1 0.402909 0.073433 0.675049
O O2 0.609763 0.158608 0.504113
O O3 0.368905 0.361012 0.637650
O O4 0.868878 0.041156 0.607815
O O5 0.558828 0.754900 0.108521
O O6 0.053665 0.617248 0.095341
O O7 0.000000 0.500000 0.000000
O O8 0.939585 0.803947 0.959621
O O9 0.607805 0.443306 0.844063
O O10 0.448771 0.693851 0.922246
O O11 0.885153 0.579558 0.763116
O O12 0.878938 0.193868 0.739185
O O13 0.270713 0.886882 0.664506
O O14 0.180506 0.943837 0.826095
O O15 0.173353 0.698689 0.634406
O O16 0.355846 0.468485 0.757757
O O17 0.000000 0.000000 0.000000
#
# Coordination Sequence:
#
# PCOD9059831 Si02
#       8
#     2   2   2   2   2   2   2   2
#     4  11  24  47  70 103 138 182 221 283 347 398
#     4  11  25  42  66  92 128 180 228 275 333 397
#     4  11  23  44  67  93 138 179 222 280 337 402
#     4  12  25  45  68  97 142 177 224 284 344 399
#     4  11  25  44  72 104 139 173 231 283 335 415
#     4  11  23  42  69  94 133 184 220 275 343 399
#     4  11  23  43  74 100 134 182 227 272 346 405
#     4  12  27  42  67 102 134 178 229 281 341 399
#
# _framework density 21.056698000000001
#
# number of rings (size 3 to 8) (size 9 to 14) (size 15 to 20)
#    0.000    0.750    3.750    3.375    5.250    1.500 
#    0.000    0.625    0.000    0.000    0.000    0.000 
#    0.000    0.000    0.000    0.000    0.000    0.000 
#
# Total GULP energy -89555.829498 kJ/mol
# GULP energy per Si atom -5597.239344 kJ/mol
# Density = 2.100877 g / cm^3
# Si number density = 21.056698 Si / 1000 Ang^3
#
#
#
# Elastic Constant Matrix: (Units=GPa)
#
#
# Indices 1 2 3 4 5 6 
#
# 1 71.3024 11.0104 32.3121 17.7775 6.2654 13.9075
# 2 11.0104 79.0547 32.8034 12.2445 3.6374 27.7556
# 3 32.3121 32.8034 130.2970 3.2891 5.3112 23.7563
# 4 17.7775 12.2445 3.2891 38.3206 2.8185 3.7470
# 5 6.2654 3.6374 5.3112 2.8185 34.0551 5.1421
# 6 13.9075 27.7556 23.7563 3.7470 5.1421 29.1815
#
#
#
# Elastic Compliance Matrix: (Units=1/GPa)
#
#
# Indices 1 2 3 4 5 6 
#
# 1 0.019017 0.002930 -0.003834 -0.008606 -0.001387 -0.007379
# 2 0.002930 0.020600 -0.002446 -0.006001 0.000915 -0.018389
# 3 -0.003834 -0.002446 0.009960 0.002126 -0.000128 -0.004205
# 4 -0.008606 -0.006001 0.002126 0.031505 -0.001360 0.004272
# 5 -0.001387 0.000915 -0.000128 -0.001360 0.030454 -0.005297
# 6 -0.007379 -0.018389 -0.004205 0.004272 -0.005297 0.059084
#
#
# Mechanical properties :
#
#
# Convention : Reuss Voigt Hill
#
# Bulk Modulus (GPa) = 23.32323 48.10067 35.71195
# Shear Modulus (GPa) = 26.09443 33.94664 30.02054
#
# Velocity S-wave (km/s) = 3.52411 4.01952 3.77994
# Velocity P-wave (km/s) = 5.25924 6.66596 6.00394
#
# Compressibility (1/GPa) = 0.04287570
#
# Stress axis : x y z
#
# Youngs Moduli (GPa) = 52.58523 48.54362 100.40575
#
# Poissons Ratio (x) = -0.14223 0.38500
# Poissons Ratio (y) = -0.15407 0.24557
# Poissons Ratio (z) = 0.20163 0.11873
#
# Static dielectric constant tensor:
#      x y z
#    x 1.737540 -0.009960 0.005700 
#    y -0.009960 1.765380 -0.013660 
#    z 0.005700 -0.013660 1.762960 
# 
# From -- ./inp_files/48140.got.cif
#   From: 2010.05.17/outbox.cif.g08.bks.cpg/sg2_25_cif.got.tgz:48140.got - 2010.06.03 11:33:40.
