data_PCOD9059352
_publ_section_title
;
Structure prediction by ZEFSAII (Michael W. Deem and Ramdas Pophale) SiO2 
 PCOD9059352
Probable space group: P -1
;
_chemical_formula_sum "Si O2"
_cell_formula_units_Z 16
_cell_length_a 9.816715
_cell_length_b 11.970495
_cell_length_c 17.374936
_cell_angle_alpha 42.748140
_cell_angle_beta 94.152795
_cell_angle_gamma 127.251206
_cell_volume 799.864074
_symmetry_space_group_name_H-M "P -1"
_symmetry_group_IT_number 2
_symmetry_cell_setting 'triclinic'
loop_
_space_group_symop_operation_xyz
x,y,z
-x,-y,-z
loop_
_atom_site_type_symbol
_atom_site_label
_atom_site_fract_x
_atom_site_fract_y
_atom_site_fract_z
Si Si1 0.486894 0.104191 0.698948
Si Si2 0.019801 0.814741 0.887154
Si Si3 0.081388 0.259680 0.654388
Si Si4 0.809417 0.992435 0.617576
Si Si5 0.257293 0.453908 0.148067
Si Si6 0.672445 0.288099 0.247551
Si Si7 0.265387 0.901761 0.170162
Si Si8 0.972963 0.557125 0.724015
O O1 0.662206 0.420057 0.518642
O O2 0.627108 0.124730 0.752635
O O3 0.407760 0.920105 0.715579
O O4 0.257066 0.949708 0.809375
O O5 0.848681 0.630271 0.899149
O O6 0.880789 0.602668 0.060221
O O7 0.078794 0.064664 0.772459
O O8 0.966956 0.250954 0.723055
O O9 0.914333 0.119192 0.643555
O O10 0.796844 0.785210 0.707524
O O11 0.550567 0.817244 0.690562
O O12 0.972646 0.249213 0.434404
O O13 0.134935 0.464037 0.194381
O O14 0.535198 0.764059 0.000966
O O15 0.786287 0.299253 0.316269
O O16 0.201069 0.745450 0.168521
#
# Coordination Sequence:
#
# PCOD9059352 Si02
#       8
#     2   2   2   2   2   2   2   2
#     4  12  21  40  65  94 126 160 212 252 307 372
#     4  11  23  41  66  96 125 162 211 262 309 365
#     4  11  23  41  66  96 125 162 211 262 309 365
#     4  11  23  42  65  94 127 166 208 255 314 373
#     4  11  23  42  65  94 127 166 208 255 314 373
#     4  12  23  42  67  94 125 164 213 258 308 369
#     4  12  23  42  67  94 125 164 213 258 308 369
#     4  12  25  42  61  96 132 164 204 256 317 372
#
# _framework density 20.003399999999999
#
# number of rings (size 3 to 8) (size 9 to 14) (size 15 to 20)
#    0.000    0.500    5.000    4.500    0.000    2.000 
#    0.000    5.000    0.000    0.000    0.000    0.000 
#    0.000    0.000    0.000    0.000    0.000    0.000 
#
# Total GULP energy -89557.257546 kJ/mol
# GULP energy per Si atom -5597.328597 kJ/mol
# Density = 1.995787 g / cm^3
# Si number density = 20.003400 Si / 1000 Ang^3
#
#
#
# Elastic Constant Matrix: (Units=GPa)
#
#
# Indices 1 2 3 4 5 6 
#
# 1 45.3304 25.4553 -8.5863 -20.1465 -1.6425 -49.2373
# 2 25.4553 69.9376 -1.8918 -39.6374 10.7779 -79.8544
# 3 -8.5863 -1.8918 69.6021 -20.6167 5.5729 -22.9778
# 4 -20.1465 -39.6374 -20.6167 57.2785 12.4977 78.6852
# 5 -1.6425 10.7779 5.5729 12.4977 39.6833 23.4928
# 6 -49.2373 -79.8544 -22.9778 78.6852 23.4928 220.0011
#
#
#
# Elastic Compliance Matrix: (Units=1/GPa)
#
#
# Indices 1 2 3 4 5 6 
#
# 1 0.034081 0.002174 0.009869 0.009057 -0.007572 0.007017
# 2 0.002174 0.056460 0.020108 0.035522 -0.037787 0.014411
# 3 0.009869 0.020108 0.026452 0.022514 -0.019594 0.006310
# 4 0.009057 0.035522 0.022514 0.062564 -0.031081 -0.001786
# 5 -0.007572 -0.037787 -0.019594 -0.031081 0.054914 -0.012204
# 6 0.007017 0.014411 0.006310 -0.001786 -0.012204 0.013947
#
#
# Mechanical properties :
#
#
# Convention : Reuss Voigt Hill
#
# Bulk Modulus (GPa) = 5.51589 23.86938 14.69263
# Shear Modulus (GPa) = 20.44576 74.71876 47.58226
#
# Velocity S-wave (km/s) = 3.20052 6.11834 4.88249
# Velocity P-wave (km/s) = 4.05231 7.86579 6.25667
#
# Compressibility (1/GPa) = 0.18129456
#
# Stress axis : x y z
#
# Youngs Moduli (GPa) = 29.34183 17.71152 37.80419
#
# Poissons Ratio (x) = -0.03851 -0.37309
# Poissons Ratio (y) = -0.06379 -0.76015
# Poissons Ratio (z) = -0.28957 -0.35614
#
# Static dielectric constant tensor:
#      x y z
#    x 1.673450 0.002410 0.002140 
#    y 0.002410 1.671240 -0.005070 
#    z 0.002140 -0.005070 1.692920 
# 
# From -- ./inp_files/189900.got.cif
#   From: 2010.05.17/outbox.cif.g08.bks.cpg/sg2_95_cif.got.tgz:189900.got - 2010.06.03 11:33:40.
