data_PCOD9059986
_publ_section_title
;
Structure prediction by ZEFSAII (Michael W. Deem and Ramdas Pophale) SiO2 
 PCOD9059986
Probable space group: P -1
;
_chemical_formula_sum "Si O2"
_cell_formula_units_Z 14
_cell_length_a 8.446816
_cell_length_b 11.364839
_cell_length_c 12.030473
_cell_angle_alpha 54.583339
_cell_angle_beta 137.644456
_cell_angle_gamma 110.859861
_cell_volume 628.602480
_symmetry_space_group_name_H-M "P -1"
_symmetry_group_IT_number 2
_symmetry_cell_setting 'triclinic'
loop_
_space_group_symop_operation_xyz
x,y,z
-x,-y,-z
loop_
_atom_site_type_symbol
_atom_site_label
_atom_site_fract_x
_atom_site_fract_y
_atom_site_fract_z
Si Si1 0.250128 0.453775 0.942852
Si Si2 0.435250 0.149685 0.240957
Si Si3 0.387910 0.841569 0.441359
Si Si4 0.875743 0.728651 0.639236
Si Si5 0.345653 0.195447 0.751767
Si Si6 0.685837 0.134150 0.145838
Si Si7 0.000198 0.355205 0.651713
O O1 0.069945 0.583900 0.831728
O O2 0.116173 0.397897 0.800082
O O3 0.500000 0.500000 0.000000
O O4 0.299180 0.306404 0.119984
O O5 0.626265 0.123812 0.453226
O O6 0.539144 0.175537 0.159800
O O7 0.317586 0.000170 0.260368
O O8 0.650110 0.778020 0.571650
O O9 0.236653 0.712173 0.409635
O O10 0.758193 0.720123 0.459265
O O11 0.048419 0.849449 0.689583
O O12 0.154341 0.230194 0.730105
O O13 0.354878 0.030246 0.808913
O O14 0.584637 0.217548 0.933851
O O15 0.000000 0.500000 0.500000
#
# Coordination Sequence:
#
# PCOD9059986 Si02
#       7
#     2   2   2   2   2   2   2
#     4  12  24  44  74 103 139 192 236 289 355 428
#     4  11  23  47  67 104 148 183 245 283 355 436
#     4  11  28  43  70 106 141 195 233 297 364 418
#     4  12  24  45  73 105 147 187 236 299 357 419
#     4  11  23  42  72 108 135 189 248 291 351 429
#     4  11  23  42  73 106 141 189 245 295 346 431
#     4  12  24  45  72  99 138 186 241 292 358 433
#
# _framework density 22.271626000000001
#
# number of rings (size 3 to 8) (size 9 to 14) (size 15 to 20)
#    0.000    0.571    5.714    2.143    4.000    1.714 
#    2.571    0.000    0.000    0.000    0.000    0.000 
#    0.000    0.000    0.000    0.000    0.000    0.000 
#
# Total GULP energy -78005.200640 kJ/mol
# GULP energy per Si atom -5571.800046 kJ/mol
# Density = 2.222093 g / cm^3
# Si number density = 22.271626 Si / 1000 Ang^3
#
#
#
# Elastic Constant Matrix: (Units=GPa)
#
#
# Indices 1 2 3 4 5 6 
#
# 1 57.6202 43.9552 27.8462 0.9158 8.1478 -10.4739
# 2 43.9552 120.7946 44.8314 2.0188 5.4409 13.8604
# 3 27.8462 44.8314 84.5141 1.9984 -6.9108 15.9437
# 4 0.9158 2.0188 1.9984 51.6952 -16.8204 4.5032
# 5 8.1478 5.4409 -6.9108 -16.8204 31.2032 0.2501
# 6 -10.4739 13.8604 15.9437 4.5032 0.2501 43.9884
#
#
#
# Elastic Compliance Matrix: (Units=1/GPa)
#
#
# Indices 1 2 3 4 5 6 
#
# 1 0.034380 -0.009996 -0.009837 -0.005205 -0.012343 0.015504
# 2 -0.009996 0.013654 -0.002913 0.000154 -0.000288 -0.005641
# 3 -0.009837 -0.002913 0.018921 0.003273 0.009101 -0.008669
# 4 -0.005205 0.000154 0.003273 0.024776 0.015454 -0.005099
# 5 -0.012343 -0.000288 0.009101 0.015454 0.045732 -0.007989
# 6 0.015504 -0.005641 -0.008669 -0.005099 -0.007989 0.031912
#
#
# Mechanical properties :
#
#
# Convention : Reuss Voigt Hill
#
# Bulk Modulus (GPa) = 46.58667 55.13273 50.85970
# Shear Modulus (GPa) = 22.52050 35.13044 28.82547
#
# Velocity S-wave (km/s) = 3.18335 3.97591 3.60150
# Velocity P-wave (km/s) = 5.87150 6.77389 6.33877
#
# Compressibility (1/GPa) = 0.02146537
#
# Stress axis : x y z
#
# Youngs Moduli (GPa) = 29.08642 73.23625 52.85236
#
# Poissons Ratio (x) = 0.73205 0.51989
# Poissons Ratio (y) = 0.29074 0.15394
# Poissons Ratio (z) = 0.28611 0.21332
#
# Static dielectric constant tensor:
#      x y z
#    x 1.794840 -0.036230 0.069260 
#    y -0.036230 1.823480 0.048200 
#    z 0.069260 0.048200 1.783330 
# 
# From -- ./inp_files/263789.got.cif
#   From: 2010.05.17/outbox.cif.g08.bks.cpg/sg2_132_cif.got.tgz:263789.got - 2010.06.03 11:33:40.
