data_PCOD9059368
_publ_section_title
;
Structure prediction by ZEFSAII (Michael W. Deem and Ramdas Pophale) SiO2 
 PCOD9059368
Probable space group: P -1
;
_chemical_formula_sum "Si O2"
_cell_formula_units_Z 16
_cell_length_a 21.509380
_cell_length_b 24.272393
_cell_length_c 9.637811
_cell_angle_alpha 29.076366
_cell_angle_beta 151.498738
_cell_angle_gamma 160.676110
_cell_volume 762.059020
_symmetry_space_group_name_H-M "P -1"
_symmetry_group_IT_number 2
_symmetry_cell_setting 'triclinic'
loop_
_space_group_symop_operation_xyz
x,y,z
-x,-y,-z
loop_
_atom_site_type_symbol
_atom_site_label
_atom_site_fract_x
_atom_site_fract_y
_atom_site_fract_z
Si Si1 0.423452 0.842063 0.106483
Si Si2 0.247430 0.965839 0.885611
Si Si3 0.014135 0.119290 0.665700
Si Si4 0.578874 0.630789 0.242425
Si Si5 0.814263 0.328258 0.594361
Si Si6 0.085843 0.767556 0.546081
Si Si7 0.706227 0.436711 0.370815
Si Si8 0.638818 0.922723 0.821496
O O1 0.451612 0.740524 0.460197
O O2 0.538099 0.908559 0.041153
O O3 0.194512 0.721608 0.896287
O O4 0.500000 0.000000 0.000000
O O5 0.127416 0.978737 0.532000
O O6 0.144418 0.776688 0.072882
O O7 0.271396 0.001063 0.017672
O O8 0.234452 0.286311 0.667273
O O9 0.938810 0.171792 0.499979
O O10 0.000000 0.000000 0.000000
O O11 0.500000 0.500000 0.500000
O O12 0.398800 0.542666 0.979727
O O13 0.643143 0.793573 0.075228
O O14 0.797199 0.395554 0.547210
O O15 0.594724 0.193777 0.388156
O O16 0.000000 0.500000 0.500000
O O17 0.872510 0.604667 0.419323
O O18 0.232137 0.925408 0.374622
#
# Coordination Sequence:
#
# PCOD9059368 Si02
#       8
#     2   2   2   2   2   2   2   2
#     4  12  21  44  68 102 142 177 212 285 354 419
#     4  12  25  40  74 101 137 179 227 276 352 411
#     4  12  26  46  72  96 133 192 237 279 343 409
#     4  11  27  48  69  96 142 182 238 294 337 396
#     4  11  23  41  67 101 140 175 217 278 352 415
#     4  12  24  44  73 104 136 178 233 280 350 415
#     4  11  25  43  68  99 139 178 224 288 343 405
#     4  11  25  45  69 104 137 179 227 292 343 410
#
# _framework density 20.995749
#
# number of rings (size 3 to 8) (size 9 to 14) (size 15 to 20)
#    0.000    0.500    5.000    3.000    7.000    3.000 
#    0.000    0.000    0.000    0.000    0.000    0.000 
#    0.000    0.000    0.000    0.000    0.000    0.000 
#
# Total GULP energy -89442.091872 kJ/mol
# GULP energy per Si atom -5590.130742 kJ/mol
# Density = 2.094796 g / cm^3
# Si number density = 20.995749 Si / 1000 Ang^3
#
#
#
# Elastic Constant Matrix: (Units=GPa)
#
#
# Indices 1 2 3 4 5 6 
#
# 1 81.8348 28.2671 23.8829 12.1599 -31.1372 13.0638
# 2 28.2671 81.9978 33.7177 -2.3234 -16.8536 12.6048
# 3 23.8829 33.7177 122.6178 -2.7294 -26.8964 11.3736
# 4 12.1599 -2.3234 -2.7294 27.1743 3.0197 -13.4693
# 5 -31.1372 -16.8536 -26.8964 3.0197 31.5812 -2.0270
# 6 13.0638 12.6048 11.3736 -13.4693 -2.0270 34.7256
#
#
#
# Elastic Compliance Matrix: (Units=1/GPa)
#
#
# Indices 1 2 3 4 5 6 
#
# 1 0.034512 -0.003186 0.003689 -0.030756 0.036945 -0.022808
# 2 -0.003186 0.015439 -0.002782 0.000658 0.002467 -0.003095
# 3 0.003689 -0.002782 0.011157 -0.004622 0.011766 -0.005138
# 4 -0.030756 0.000658 -0.004622 0.073887 -0.038454 0.039260
# 5 0.036945 0.002467 0.011766 -0.038454 0.081254 -0.028820
# 6 -0.022808 -0.003095 -0.005138 0.039260 -0.028820 0.053730
#
#
# Mechanical properties :
#
#
# Convention : Reuss Voigt Hill
#
# Bulk Modulus (GPa) = 17.68365 50.90956 34.29661
# Shear Modulus (GPa) = 17.04239 32.06838 24.55539
#
# Velocity S-wave (km/s) = 2.85214 3.91240 3.42357
# Velocity P-wave (km/s) = 4.39170 6.68651 5.65670
#
# Compressibility (1/GPa) = 0.05654942
#
# Stress axis : x y z
#
# Youngs Moduli (GPa) = 28.97571 64.76984 89.63342
#
# Poissons Ratio (x) = 0.20635 -0.33065
# Poissons Ratio (y) = 0.09232 0.24936
# Poissons Ratio (z) = -0.10689 0.18019
#
# Static dielectric constant tensor:
#      x y z
#    x 1.390140 -0.117750 0.131350 
#    y -0.117750 1.734300 0.033540 
#    z 0.131350 0.033540 1.761200 
# 
# From -- ./inp_files/349984.got.cif
#   From: 2010.05.17/outbox.cif.g08.bks.cpg/sg2_175_cif.got.tgz:349984.got - 2010.06.03 11:33:40.
