data_PCOD9059071
_publ_section_title
;
Structure prediction by ZEFSAII (Michael W. Deem and Ramdas Pophale) SiO2 
 PCOD9059071
Probable space group: P -1
;
_chemical_formula_sum "Si O2"
_cell_formula_units_Z 14
_cell_length_a 9.765773
_cell_length_b 10.348865
_cell_length_c 12.396923
_cell_angle_alpha 34.858448
_cell_angle_beta 118.407556
_cell_angle_gamma 126.399719
_cell_volume 576.208527
_symmetry_space_group_name_H-M "P -1"
_symmetry_group_IT_number 2
_symmetry_cell_setting 'triclinic'
loop_
_space_group_symop_operation_xyz
x,y,z
-x,-y,-z
loop_
_atom_site_type_symbol
_atom_site_label
_atom_site_fract_x
_atom_site_fract_y
_atom_site_fract_z
Si Si1 0.239016 0.356986 0.549845
Si Si2 0.921019 0.524522 0.070702
Si Si3 0.805248 0.968826 0.435282
Si Si4 0.826564 0.216153 0.814924
Si Si5 0.692934 0.630629 0.190029
Si Si6 0.856717 0.257575 0.542563
Si Si7 0.654018 0.734989 0.758746
O O1 0.261883 0.160882 0.614360
O O2 0.291222 0.626895 0.330719
O O3 0.330206 0.382405 0.680197
O O4 0.030491 0.253355 0.561281
O O5 0.055738 0.676383 0.108832
O O6 0.816041 0.243045 0.260243
O O7 0.794808 0.656240 0.915966
O O8 0.000000 0.500000 0.000000
O O9 0.697857 0.795634 0.608082
O O10 0.000000 0.000000 0.500000
O O11 0.880908 0.277639 0.666811
O O12 0.767856 0.921814 0.996076
O O13 0.806009 0.470614 0.328499
O O14 0.528267 0.486659 0.155518
O O15 0.692061 0.002367 0.638829
#
# Coordination Sequence:
#
# PCOD9059071 Si02
#       7
#     2   2   2   2   2   2   2
#     4  11  23  44  70  98 127 170 226 273 317 388
#     4  12  23  41  70  96 127 170 226 268 316 389
#     4  12  22  44  72  96 125 171 224 273 322 376
#     4  11  23  40  65  97 129 168 217 269 324 379
#     4  11  26  42  64  98 138 171 212 268 335 391
#     4  11  24  44  69  94 130 175 226 266 316 392
#     4  12  26  43  65  99 133 173 217 271 327 392
#
# _framework density 24.296759000000002
#
# number of rings (size 3 to 8) (size 9 to 14) (size 15 to 20)
#    0.000    0.571    4.286    3.857    0.000    9.714 
#    0.000    5.000    0.000    0.000    0.000    0.000 
#    0.000    0.000    0.000    0.000    0.000    0.000 
#
# Total GULP energy -78296.022378 kJ/mol
# GULP energy per Si atom -5592.573027 kJ/mol
# Density = 2.424146 g / cm^3
# Si number density = 24.296759 Si / 1000 Ang^3
#
#
#
# Elastic Constant Matrix: (Units=GPa)
#
#
# Indices 1 2 3 4 5 6 
#
# 1 28.1954 37.0982 10.2035 -5.2216 -9.1937 -11.3204
# 2 37.0982 124.3554 18.2679 -12.3541 -5.6661 -18.7013
# 3 10.2035 18.2679 156.9136 -25.1644 6.6879 4.8408
# 4 -5.2216 -12.3541 -25.1644 50.8601 -14.1778 3.1494
# 5 -9.1937 -5.6661 6.6879 -14.1778 14.2222 2.3858
# 6 -11.3204 -18.7013 4.8408 3.1494 2.3858 33.2932
#
#
#
# Elastic Compliance Matrix: (Units=1/GPa)
#
#
# Indices 1 2 3 4 5 6 
#
# 1 0.103244 -0.021596 -0.004115 0.025494 0.082934 0.015218
# 2 -0.021596 0.014072 -0.000135 -0.001856 -0.010392 0.001501
# 3 -0.004115 -0.000135 0.007254 0.002354 -0.003358 -0.002512
# 4 0.025494 -0.001856 0.002354 0.037489 0.052004 0.000011
# 5 0.082934 -0.010392 -0.003358 0.052004 0.172268 0.005586
# 6 0.015218 0.001501 -0.002512 0.000011 0.005586 0.036018
#
#
# Mechanical properties :
#
#
# Convention : Reuss Voigt Hill
#
# Bulk Modulus (GPa) = 13.72140 48.95595 31.33868
# Shear Modulus (GPa) = 11.20250 35.93472 23.56861
#
# Velocity S-wave (km/s) = 2.14958 3.84994 3.11791
# Velocity P-wave (km/s) = 3.43811 6.32105 5.08804
#
# Compressibility (1/GPa) = 0.07287884
#
# Stress axis : x y z
#
# Youngs Moduli (GPa) = 9.68578 71.06487 137.84977
#
# Poissons Ratio (x) = 1.53468 0.56727
# Poissons Ratio (y) = 0.20917 0.01860
# Poissons Ratio (z) = 0.03986 0.00959
#
# Static dielectric constant tensor:
#      x y z
#    x 2.002300 -0.000130 -0.052280 
#    y -0.000130 1.989130 -0.036110 
#    z -0.052280 -0.036110 2.030920 
# 
# From -- ./inp_files/518582.got.cif
#   From: 2010.05.17/outbox.cif.g08.bks.cpg/sg2_260_cif.got.tgz:518582.got - 2010.06.03 11:33:40.
