data_PCOD9059503
_publ_section_title
;
Structure prediction by ZEFSAII (Michael W. Deem and Ramdas Pophale) SiO2 
 PCOD9059503
Probable space group: P -1
;
_chemical_formula_sum "Si O2"
_cell_formula_units_Z 16
_cell_length_a 23.962760
_cell_length_b 7.950666
_cell_length_c 24.928082
_cell_angle_alpha 139.340390
_cell_angle_beta 168.335482
_cell_angle_gamma 40.989118
_cell_volume 623.081620
_symmetry_space_group_name_H-M "P -1"
_symmetry_group_IT_number 2
_symmetry_cell_setting 'triclinic'
loop_
_space_group_symop_operation_xyz
x,y,z
-x,-y,-z
loop_
_atom_site_type_symbol
_atom_site_label
_atom_site_fract_x
_atom_site_fract_y
_atom_site_fract_z
Si Si1 0.679465 0.772971 0.145630
Si Si2 0.487430 0.779597 0.156116
Si Si3 0.893731 0.455009 0.804052
Si Si4 0.079290 0.940832 0.910580
Si Si5 0.828307 0.192878 0.460428
Si Si6 0.477311 0.343630 0.673151
Si Si7 0.019357 0.082254 0.731161
Si Si8 0.587265 0.287569 0.644605
O O1 0.961858 0.711708 0.363078
O O2 0.762046 0.908503 0.310917
O O3 0.515107 0.521323 0.932679
O O4 0.500000 0.000000 0.000000
O O5 0.291677 0.848913 0.040318
O O6 0.785345 0.880837 0.470736
O O7 0.320702 0.940430 0.991257
O O8 0.579795 0.568554 0.526609
O O9 0.969373 0.301725 0.782461
O O10 0.089947 0.685250 0.049951
O O11 0.980252 0.240079 0.878122
O O12 0.258630 0.848301 0.108630
O O13 0.800093 0.798236 0.613576
O O14 0.563666 0.401289 0.267030
O O15 0.972932 0.183742 0.652116
O O16 0.500354 0.421498 0.651872
O O17 0.500000 0.000000 0.500000
#
# Coordination Sequence:
#
# PCOD9059503 Si02
#       8
#     2   2   2   2   2   2   2   2
#     4  11  26  43  66  93 143 180 226 294 347 391
#     4  11  24  43  65  98 137 176 229 285 338 396
#     4  11  23  46  70 103 143 181 224 282 345 413
#     4  11  23  41  70 102 136 182 230 278 337 407
#     4  11  26  42  66 100 133 183 235 285 342 408
#     4  12  24  43  71 102 133 180 238 277 334 420
#     4  11  25  42  70  98 131 182 230 277 339 406
#     4  12  26  46  74 107 142 178 225 286 345 408
#
# _framework density 25.678820000000002
#
# number of rings (size 3 to 8) (size 9 to 14) (size 15 to 20)
#    0.000    0.750    2.500    5.625    5.250    1.000 
#    0.000    3.750    0.000    0.000    0.000    0.000 
#    0.000    0.000    0.000    0.000    0.000    0.000 
#
# Total GULP energy -89786.577251 kJ/mol
# GULP energy per Si atom -5611.661078 kJ/mol
# Density = 2.562037 g / cm^3
# Si number density = 25.678820 Si / 1000 Ang^3
#
#
#
# Elastic Constant Matrix: (Units=GPa)
#
#
# Indices 1 2 3 4 5 6 
#
# 1 96.7212 31.8257 28.5939 -2.3406 -6.7067 -10.5839
# 2 31.8257 115.3364 48.8246 -2.0914 -7.6534 -0.2137
# 3 28.5939 48.8246 132.8559 15.4941 -5.1294 3.7163
# 4 -2.3406 -2.0914 15.4941 56.7491 18.6313 -5.0062
# 5 -6.7067 -7.6534 -5.1294 18.6313 34.4186 -6.5456
# 6 -10.5839 -0.2137 3.7163 -5.0062 -6.5456 38.3458
#
#
#
# Elastic Compliance Matrix: (Units=1/GPa)
#
#
# Indices 1 2 3 4 5 6 
#
# 1 0.012281 -0.002456 -0.001847 0.000616 0.001994 0.003976
# 2 -0.002456 0.010937 -0.003572 0.000986 0.000889 0.000010
# 3 -0.001847 -0.003572 0.009787 -0.003675 0.001986 -0.001619
# 4 0.000616 0.000986 -0.003675 0.022853 -0.012310 0.001414
# 5 0.001994 0.000889 0.001986 -0.012310 0.037583 0.005171
# 6 0.003976 0.000010 -0.001619 0.001414 0.005171 0.028400
#
#
# Mechanical properties :
#
#
# Convention : Reuss Voigt Hill
#
# Bulk Modulus (GPa) = 57.94826 62.60022 60.27424
# Shear Modulus (GPa) = 34.88127 41.61401 38.24764
#
# Velocity S-wave (km/s) = 3.68960 4.02998 3.86354
# Velocity P-wave (km/s) = 6.38486 6.78862 6.58984
#
# Compressibility (1/GPa) = 0.01725677
#
# Stress axis : x y z
#
# Youngs Moduli (GPa) = 81.42378 91.43355 102.17124
#
# Poissons Ratio (x) = 0.22459 0.18868
# Poissons Ratio (y) = 0.20000 0.36491
# Poissons Ratio (z) = 0.15036 0.32656
#
# Static dielectric constant tensor:
#      x y z
#    x 2.027780 -0.010190 -0.019280 
#    y -0.010190 2.013460 0.012310 
#    z -0.019280 0.012310 1.974230 
# 
# From -- ./inp_files/621175.got.cif
#   From: 2010.05.17/outbox.cif.g08.bks.cpg/sg2_311_cif.got.tgz:621175.got - 2010.06.03 11:33:40.
