data_PCOD9059465
_publ_section_title
;
Structure prediction by ZEFSAII (Michael W. Deem and Ramdas Pophale) SiO2 
 PCOD9059465
Probable space group: P -1
;
_chemical_formula_sum "Si O2"
_cell_formula_units_Z 16
_cell_length_a 17.269740
_cell_length_b 24.043624
_cell_length_c 11.451189
_cell_angle_alpha 154.251340
_cell_angle_beta 29.452060
_cell_angle_gamma 162.876980
_cell_volume 606.313300
_symmetry_space_group_name_H-M "P -1"
_symmetry_group_IT_number 2
_symmetry_cell_setting 'triclinic'
loop_
_space_group_symop_operation_xyz
x,y,z
-x,-y,-z
loop_
_atom_site_type_symbol
_atom_site_label
_atom_site_fract_x
_atom_site_fract_y
_atom_site_fract_z
Si Si1 0.724617 0.886861 0.588442
Si Si2 0.731055 0.433651 0.083321
Si Si3 0.431261 0.487102 0.933245
Si Si4 0.597530 0.069324 0.637461
Si Si5 0.001925 0.127157 0.161967
Si Si6 0.752579 0.379091 0.689030
Si Si7 0.205398 0.123716 0.279525
Si Si8 0.740694 0.254773 0.143515
O O1 0.741820 0.745290 0.316275
O O2 0.753507 0.946314 0.797122
O O3 0.434517 0.737224 0.645677
O O4 0.960958 0.061460 0.514271
O O5 0.696866 0.279637 0.909937
O O6 0.640072 0.353574 0.915784
O O7 0.046536 0.655647 0.063619
O O8 0.496876 0.366053 0.320351
O O9 0.698054 0.642136 0.807743
O O10 0.500000 0.500000 0.000000
O O11 0.324527 0.557874 0.178564
O O12 0.847408 0.139913 0.448909
O O13 0.500000 0.000000 0.500000
O O14 0.376766 0.846398 0.579117
O O15 0.893387 0.022491 0.977730
O O16 0.000000 0.000000 0.000000
O O17 0.934914 0.413306 0.297318
O O18 0.500000 0.000000 0.000000
#
# Coordination Sequence:
#
# PCOD9059465 Si02
#       8
#     2   2   2   2   2   2   2   2
#     4  11  27  44  67 103 145 200 240 296 371 452
#     4   9  20  41  75 103 140 193 237 305 368 429
#     4  12  24  42  70 101 142 195 242 294 373 437
#     4  10  17  37  72 102 140 176 239 307 363 423
#     4  12  21  41  71 106 143 183 247 310 358 431
#     4   9  21  40  68 103 139 181 238 310 348 432
#     4  11  23  43  70 101 147 187 244 294 371 430
#     4  10  23  44  70  96 147 188 246 297 360 444
#
# _framework density 26.388997
#
# number of rings (size 3 to 8) (size 9 to 14) (size 15 to 20)
#    0.750    0.750    5.000    0.750    3.500    0.500 
#    0.000    8.750    2.750    0.000    0.000    0.000 
#    0.000    0.000    0.000    0.000    0.000    0.000 
#
# Total GULP energy -89250.055388 kJ/mol
# GULP energy per Si atom -5578.128462 kJ/mol
# Density = 2.632893 g / cm^3
# Si number density = 26.388997 Si / 1000 Ang^3
#
#
#
# Elastic Constant Matrix: (Units=GPa)
#
#
# Indices 1 2 3 4 5 6 
#
# 1 129.8520 41.6326 53.2887 6.4761 -26.4050 -1.6981
# 2 41.6326 232.5215 58.9641 -35.8676 -23.2309 -2.7261
# 3 53.2887 58.9641 74.7631 -5.3127 -12.3250 -11.2469
# 4 6.4761 -35.8676 -5.3127 53.3708 -5.6508 -9.5326
# 5 -26.4050 -23.2309 -12.3250 -5.6508 42.2857 4.0570
# 6 -1.6981 -2.7261 -11.2469 -9.5326 4.0570 43.5729
#
#
#
# Elastic Compliance Matrix: (Units=1/GPa)
#
#
# Indices 1 2 3 4 5 6 
#
# 1 0.012318 0.000121 -0.008575 -0.002195 0.005224 -0.002692
# 2 0.000121 0.006275 -0.004294 0.004058 0.002822 -0.000086
# 3 -0.008575 -0.004294 0.023674 0.001445 -0.001190 0.005935
# 4 -0.002195 0.004058 0.001445 0.023225 0.003879 0.005261
# 5 0.005224 0.002822 -0.001190 0.003879 0.028801 -0.001760
# 6 -0.002692 -0.000086 0.005935 0.005261 -0.001760 0.025686
#
#
# Mechanical properties :
#
#
# Convention : Reuss Voigt Hill
#
# Bulk Modulus (GPa) = 59.63198 82.76749 71.19973
# Shear Modulus (GPa) = 33.09827 46.72930 39.91379
#
# Velocity S-wave (km/s) = 3.54537 4.21264 3.89333
# Velocity P-wave (km/s) = 6.27741 7.42255 6.87387
#
# Compressibility (1/GPa) = 0.01676952
#
# Stress axis : x y z
#
# Youngs Moduli (GPa) = 81.18351 159.36328 42.24121
#
# Poissons Ratio (x) = -0.01924 0.36221
# Poissons Ratio (y) = -0.00980 0.18140
# Poissons Ratio (z) = 0.69613 0.68437
#
# Static dielectric constant tensor:
#      x y z
#    x 2.025330 0.032010 -0.147940 
#    y 0.032010 2.102210 -0.064550 
#    z -0.147940 -0.064550 1.743530 
# 
# From -- ./inp_files/467373.got.cif
#   From: 2010.05.17/outbox.cif.g08.bks.cpg/sg2_234_cif.got.tgz:467373.got - 2010.06.03 11:33:40.
