data_PCOD9059959
_publ_section_title
;
Structure prediction by ZEFSAII (Michael W. Deem and Ramdas Pophale) SiO2 
 PCOD9059959
Probable space group: P -1
;
_chemical_formula_sum "Si O2"
_cell_formula_units_Z 15
_cell_length_a 5.116935
_cell_length_b 9.073199
_cell_length_c 19.532536
_cell_angle_alpha 129.230350
_cell_angle_beta 110.977025
_cell_angle_gamma 61.547025
_cell_volume 615.452623
_symmetry_space_group_name_H-M "P -1"
_symmetry_group_IT_number 2
_symmetry_cell_setting 'triclinic'
loop_
_space_group_symop_operation_xyz
x,y,z
-x,-y,-z
loop_
_atom_site_type_symbol
_atom_site_label
_atom_site_fract_x
_atom_site_fract_y
_atom_site_fract_z
Si Si1 0.502925 0.393506 0.541837
Si Si2 0.107436 0.457912 0.919175
Si Si3 0.219952 0.832559 0.818013
Si Si4 0.499151 0.966827 0.367766
Si Si5 0.500000 0.000000 0.000000
Si Si6 0.282901 0.807263 0.048328
Si Si7 0.890359 0.555868 0.355000
Si Si8 0.111763 0.070990 0.740250
O O1 0.500000 0.500000 0.500000
O O2 0.210419 0.473887 0.585667
O O3 0.784756 0.426089 0.614742
O O4 0.547486 0.159473 0.463750
O O5 0.461644 0.327416 0.917128
O O6 0.981286 0.304645 0.823658
O O7 0.093571 0.679413 0.959456
O O8 0.000000 0.500000 0.000000
O O9 0.140402 0.632335 0.743903
O O10 0.256872 0.923871 0.774288
O O11 0.948065 0.011081 0.879676
O O12 0.476967 0.816797 0.890978
O O13 0.658340 0.765361 0.366850
O O14 0.650400 0.943694 0.300599
O O15 0.154348 0.993817 0.333839
O O16 0.438468 0.881757 0.024961
#
# Coordination Sequence:
#
# PCOD9059959 Si02
#       8
#     2   2   2   2   1   2   2   2
#     4  12  25  51  81 112 149 195 239 305 381 454
#     4  11  23  42  71  99 141 193 254 308 367 435
#     4  12  27  46  68 105 148 199 247 315 371 453
#     4  12  27  48  77 112 148 193 246 315 375 446
#     4  12  26  44  70  96 154 194 256 304 384 430
#     4  11  24  45  66 101 141 198 247 314 372 443
#     4  12  28  47  78 112 152 190 250 305 371 451
#     4  12  25  46  74 107 148 195 254 304 376 453
#
# _framework density 24.372306999999999
#
# number of rings (size 3 to 8) (size 9 to 14) (size 15 to 20)
#    0.000    0.267    2.667    5.600    5.600    1.067 
#    0.000    0.000    0.000    0.000    0.000    0.000 
#    0.000    0.000    0.000    0.000    0.000    0.000 
#
# Total GULP energy -83834.799036 kJ/mol
# GULP energy per Si atom -5588.986602 kJ/mol
# Density = 2.431683 g / cm^3
# Si number density = 24.372307 Si / 1000 Ang^3
#
#
#
# Elastic Constant Matrix: (Units=GPa)
#
#
# Indices 1 2 3 4 5 6 
#
# 1 86.6158 7.2804 12.4991 6.4648 14.0457 7.3397
# 2 7.2804 50.4822 50.6705 20.6684 7.2204 8.1053
# 3 12.4991 50.6705 112.0685 49.2606 45.2267 19.7642
# 4 6.4648 20.6684 49.2606 53.8633 10.6035 9.0013
# 5 14.0457 7.2204 45.2267 10.6035 47.4281 2.0646
# 6 7.3397 8.1053 19.7642 9.0013 2.0646 36.8973
#
#
#
# Elastic Compliance Matrix: (Units=1/GPa)
#
#
# Indices 1 2 3 4 5 6 
#
# 1 0.012877 -0.004723 0.005648 -0.002808 -0.007703 -0.003433
# 2 -0.004723 0.051817 -0.041247 0.011294 0.030004 0.007217
# 3 0.005648 -0.041247 0.061236 -0.029147 -0.046611 -0.015145
# 4 -0.002808 0.011294 -0.029147 0.036980 0.018481 0.003635
# 5 -0.007703 0.030004 -0.046611 0.018481 0.058586 0.012122
# 6 -0.003433 0.007217 -0.015145 0.003635 0.012122 0.032747
#
#
# Mechanical properties :
#
#
# Convention : Reuss Voigt Hill
#
# Bulk Modulus (GPa) = 22.08256 43.34071 32.71163
# Shear Modulus (GPa) = 14.28642 39.55218 26.91930
#
# Velocity S-wave (km/s) = 2.42373 4.03281 3.32701
# Velocity P-wave (km/s) = 4.11252 6.28539 5.31126
#
# Compressibility (1/GPa) = 0.04528461
#
# Stress axis : x y z
#
# Youngs Moduli (GPa) = 77.65892 19.29863 16.33033
#
# Poissons Ratio (x) = 0.09115 -0.09223
# Poissons Ratio (y) = 0.36679 0.67358
# Poissons Ratio (z) = -0.43859 0.79601
#
# Static dielectric constant tensor:
#      x y z
#    x 1.958170 -0.083880 0.053440 
#    y -0.083880 1.991050 -0.015350 
#    z 0.053440 -0.015350 1.949310 
# 
# From -- ./inp_files/548456.got.cif
#   From: 2010.05.17/outbox.cif.g08.bks.cpg/sg2_275_cif.got.tgz:548456.got - 2010.06.03 11:33:40.
