data_PCOD9059907
_publ_section_title
;
Structure prediction by ZEFSAII (Michael W. Deem and Ramdas Pophale) SiO2 
 PCOD9059907
Probable space group: P -1
;
_chemical_formula_sum "Si O2"
_cell_formula_units_Z 14
_cell_length_a 6.149468
_cell_length_b 15.053539
_cell_length_c 24.469445
_cell_angle_alpha 17.481132
_cell_angle_beta 119.699186
_cell_angle_gamma 119.635346
_cell_volume 588.966197
_symmetry_space_group_name_H-M "P -1"
_symmetry_group_IT_number 2
_symmetry_cell_setting 'triclinic'
loop_
_space_group_symop_operation_xyz
x,y,z
-x,-y,-z
loop_
_atom_site_type_symbol
_atom_site_label
_atom_site_fract_x
_atom_site_fract_y
_atom_site_fract_z
Si Si1 0.091961 0.882836 0.169225
Si Si2 0.102121 0.873004 0.532741
Si Si3 0.400252 0.228209 0.288256
Si Si4 0.240940 0.712433 0.173821
Si Si5 0.700787 0.386395 0.044384
Si Si6 0.307757 0.623937 0.563639
Si Si7 0.444098 0.781368 0.364535
O O1 0.959088 0.551025 0.356099
O O2 0.255146 0.882220 0.134032
O O3 0.238843 0.941159 0.209542
O O4 0.891922 0.113533 0.992083
O O5 0.370647 0.758843 0.648642
O O6 0.926056 0.594737 0.655178
O O7 0.145144 0.154076 0.333524
O O8 0.000000 0.000000 0.500000
O O9 0.384379 0.936257 0.418895
O O10 0.419782 0.509298 0.087946
O O11 0.506238 0.605537 0.254443
O O12 0.674021 0.031369 0.254424
O O13 0.500000 0.500000 0.000000
O O14 0.000000 0.500000 0.000000
O O15 0.347867 0.673005 0.475340
O O16 0.500000 0.500000 0.500000
#
# Coordination Sequence:
#
# PCOD9059907 Si02
#       7
#     2   2   2   2   2   2   2
#     4  11  25  44  69 103 148 187 248 308 381 453
#     4  11  23  42  71 101 140 191 247 317 377 468
#     4  11  25  44  71 105 143 197 256 314 395 460
#     4  11  23  43  69 101 145 185 242 312 380 446
#     4  12  30  51  80 114 159 207 261 324 392 469
#     4  12  23  44  76 100 147 194 255 311 392 455
#     4  12  27  49  75 111 150 206 260 319 387 473
#
# _framework density 23.770462999999999
#
# number of rings (size 3 to 8) (size 9 to 14) (size 15 to 20)
#    0.000    0.571    5.714    1.714    6.000    1.143 
#    2.571    0.000    0.000    0.000    0.000    0.000 
#    0.000    0.000    0.000    0.000    0.000    0.000 
#
# Total GULP energy -78135.287782 kJ/mol
# GULP energy per Si atom -5581.091984 kJ/mol
# Density = 2.371636 g / cm^3
# Si number density = 23.770463 Si / 1000 Ang^3
#
#
#
# Elastic Constant Matrix: (Units=GPa)
#
#
# Indices 1 2 3 4 5 6 
#
# 1 89.1567 33.0552 31.8548 -6.8770 -18.3328 -10.1845
# 2 33.0552 64.5499 0.2699 2.4900 -1.9250 -8.1935
# 3 31.8548 0.2699 95.0468 4.3027 -15.0270 -8.1547
# 4 -6.8770 2.4900 4.3027 48.8819 3.2078 -6.9423
# 5 -18.3328 -1.9250 -15.0270 3.2078 36.9182 0.5511
# 6 -10.1845 -8.1935 -8.1547 -6.9423 0.5511 47.6721
#
#
#
# Elastic Compliance Matrix: (Units=1/GPa)
#
#
# Indices 1 2 3 4 5 6 
#
# 1 0.018062 -0.008935 -0.005047 0.003304 0.006134 0.001870
# 2 -0.008935 0.020304 0.002863 -0.002156 -0.002052 0.001780
# 3 -0.005047 0.002863 0.012887 -0.002007 0.003044 0.001291
# 4 0.003304 -0.002156 -0.002007 0.021740 -0.001225 0.003172
# 5 0.006134 -0.002052 0.003044 -0.001225 0.031357 0.000937
# 6 0.001870 0.001780 0.001291 0.003172 0.000937 0.022354
#
#
# Mechanical properties :
#
#
# Convention : Reuss Voigt Hill
#
# Bulk Modulus (GPa) = 34.46727 42.12368 38.29547
# Shear Modulus (GPa) = 31.52287 38.93268 35.22777
#
# Velocity S-wave (km/s) = 3.64557 4.05144 3.85385
# Velocity P-wave (km/s) = 5.67906 6.29643 5.99570
#
# Compressibility (1/GPa) = 0.02901303
#
# Stress axis : x y z
#
# Youngs Moduli (GPa) = 55.36431 49.25243 77.59501
#
# Poissons Ratio (x) = 0.44009 0.39166
# Poissons Ratio (y) = 0.49471 -0.22215
# Poissons Ratio (z) = 0.27945 -0.14100
#
# Static dielectric constant tensor:
#      x y z
#    x 1.935530 -0.021830 0.085620 
#    y -0.021830 1.854770 0.053710 
#    z 0.085620 0.053710 1.886790 
# 
# From -- ./inp_files/101220.got.cif
#   From: 2010.05.17/outbox.cif.g08.bks.cpg/sg2_51_cif.got.tgz:101220.got - 2010.06.03 11:33:40.
