data_PCOD9059412
_publ_section_title
;
Structure prediction by ZEFSAII (Michael W. Deem and Ramdas Pophale) SiO2 
 PCOD9059412
Probable space group: P -1
;
_chemical_formula_sum "Si O2"
_cell_formula_units_Z 16
_cell_length_a 11.249350
_cell_length_b 14.143889
_cell_length_c 9.442037
_cell_angle_alpha 67.287605
_cell_angle_beta 63.068261
_cell_angle_gamma 121.312541
_cell_volume 661.554196
_symmetry_space_group_name_H-M "P -1"
_symmetry_group_IT_number 2
_symmetry_cell_setting 'triclinic'
loop_
_space_group_symop_operation_xyz
x,y,z
-x,-y,-z
loop_
_atom_site_type_symbol
_atom_site_label
_atom_site_fract_x
_atom_site_fract_y
_atom_site_fract_z
Si Si1 0.520638 0.899142 0.106825
Si Si2 0.231610 0.222276 0.212947
Si Si3 0.730857 0.418355 0.775456
Si Si4 0.911918 0.753135 0.452691
Si Si5 0.615357 0.891261 0.359450
Si Si6 0.063312 0.279080 0.063951
Si Si7 0.841265 0.464217 0.998941
Si Si8 0.569800 0.643071 0.472587
O O1 0.328143 0.701111 0.244313
O O2 0.496217 0.877810 0.302736
O O3 0.500000 0.000000 0.000000
O O4 0.796030 0.035416 0.837890
O O5 0.216785 0.296160 0.302896
O O6 0.182704 0.253092 0.077690
O O7 0.475250 0.311304 0.021602
O O8 0.000000 0.000000 0.500000
O O9 0.890199 0.617515 0.519616
O O10 0.836104 0.436827 0.851253
O O11 0.748942 0.710265 0.453900
O O12 0.440646 0.742744 0.671294
O O13 0.688682 0.831800 0.275329
O O14 0.840275 0.101285 0.186350
O O15 0.029325 0.338351 0.174709
O O16 0.281828 0.484251 0.752123
O O17 0.000000 0.500000 0.000000
O O18 0.500000 0.500000 0.500000
#
# Coordination Sequence:
#
# PCOD9059412 Si02
#       8
#     2   2   2   2   2   2   2   2
#     4  12  31  49  68 103 145 200 243 282 349 429
#     4  12  21  40  73 110 139 172 230 298 363 413
#     4  12  25  47  75 106 143 185 239 300 355 422
#     4  12  24  43  75 105 143 183 232 296 363 419
#     4  11  27  46  70 104 145 184 235 293 351 425
#     4  11  23  43  69 103 143 174 227 295 355 420
#     4  11  27  47  74 102 135 192 243 293 349 412
#     4  11  23  41  68 102 139 182 225 282 363 423
#
# _framework density 24.185472000000001
#
# number of rings (size 3 to 8) (size 9 to 14) (size 15 to 20)
#    0.000    0.500    3.750    4.875    3.500    3.000 
#    0.000    0.000    0.000    0.000    0.000    0.000 
#    0.000    0.000    0.000    0.000    0.000    0.000 
#
# Total GULP energy -89350.829774 kJ/mol
# GULP energy per Si atom -5584.426861 kJ/mol
# Density = 2.413042 g / cm^3
# Si number density = 24.185472 Si / 1000 Ang^3
#
#
#
# Elastic Constant Matrix: (Units=GPa)
#
#
# Indices 1 2 3 4 5 6 
#
# 1 115.7282 40.1117 15.2348 -1.4530 20.1167 21.3659
# 2 40.1117 139.1945 35.4136 -22.4678 5.5763 23.4531
# 3 15.2348 35.4136 69.3490 -15.1176 2.9371 0.1607
# 4 -1.4530 -22.4678 -15.1176 34.8505 -2.4973 2.4212
# 5 20.1167 5.5763 2.9371 -2.4973 39.2823 0.5432
# 6 21.3659 23.4531 0.1607 2.4212 0.5432 34.9790
#
#
#
# Elastic Compliance Matrix: (Units=1/GPa)
#
#
# Indices 1 2 3 4 5 6 
#
# 1 0.011495 -0.002012 -0.001583 -0.001519 -0.005504 -0.005475
# 2 -0.002012 0.010689 -0.003787 0.005620 0.000241 -0.006313
# 3 -0.001583 -0.003787 0.017774 0.005011 0.000295 0.003073
# 4 -0.001519 0.005620 0.005011 0.034933 0.001899 -0.005311
# 5 -0.005504 0.000241 0.000295 0.001899 0.028303 0.002628
# 6 -0.005475 -0.006313 0.003073 -0.005311 0.002628 0.036478
#
#
# Mechanical properties :
#
#
# Convention : Reuss Voigt Hill
#
# Bulk Modulus (GPa) = 39.69182 56.19909 47.94546
# Shear Modulus (GPa) = 30.70634 37.38981 34.04807
#
# Velocity S-wave (km/s) = 3.56704 3.93614 3.75612
# Velocity P-wave (km/s) = 5.78032 6.62908 6.21920
#
# Compressibility (1/GPa) = 0.02519411
#
# Stress axis : x y z
#
# Youngs Moduli (GPa) = 86.99437 93.55771 56.26226
#
# Poissons Ratio (x) = 0.18824 0.08907
# Poissons Ratio (y) = 0.17503 0.21304
# Poissons Ratio (z) = 0.13772 0.35427
#
# Static dielectric constant tensor:
#      x y z
#    x 1.104400 1.348040 0.758870 
#    y 1.348040 -0.364280 -1.226100 
#    z 0.758870 -1.226100 1.285280 
# 
# From -- ./inp_files/272470.got.cif
#   From: 2010.05.17/outbox.cif.g08.bks.cpg/sg2_137_cif.got.tgz:272470.got - 2010.06.03 11:33:40.
