data_PCOD9059398
_publ_section_title
;
Structure prediction by ZEFSAII (Michael W. Deem and Ramdas Pophale) SiO2 
 PCOD9059398
Probable space group: P -1
;
_chemical_formula_sum "Si O2"
_cell_formula_units_Z 16
_cell_length_a 10.531119
_cell_length_b 13.487638
_cell_length_c 13.851661
_cell_angle_alpha 136.721695
_cell_angle_beta 147.175485
_cell_angle_gamma 44.290556
_cell_volume 701.913748
_symmetry_space_group_name_H-M "P -1"
_symmetry_group_IT_number 2
_symmetry_cell_setting 'triclinic'
loop_
_space_group_symop_operation_xyz
x,y,z
-x,-y,-z
loop_
_atom_site_type_symbol
_atom_site_label
_atom_site_fract_x
_atom_site_fract_y
_atom_site_fract_z
Si Si1 0.648545 0.252532 0.567765
Si Si2 0.796350 0.555519 0.265756
Si Si3 0.652499 0.156259 0.294567
Si Si4 0.094137 0.940897 0.913743
Si Si5 0.865880 0.857700 0.093630
Si Si6 0.647454 0.831516 0.505471
Si Si7 0.672388 0.438113 0.399781
Si Si8 0.482479 0.653770 0.966045
O O1 0.693873 0.147229 0.428599
O O2 0.473805 0.203304 0.498282
O O3 0.504657 0.419323 0.560022
O O4 0.896940 0.247766 0.778971
O O5 0.649988 0.701530 0.337640
O O6 0.697264 0.416213 0.134138
O O7 0.080882 0.522437 0.444856
O O8 0.734881 0.597044 0.143967
O O9 0.751296 0.286853 0.404843
O O10 0.770563 0.000851 0.205221
O O11 0.363498 0.203468 0.119076
O O12 0.369421 0.833560 0.017156
O O13 0.924425 0.838269 0.697631
O O14 0.066451 0.075134 0.915777
O O15 0.000000 0.000000 0.000000
O O16 0.500000 0.000000 0.500000
O O17 0.531008 0.407545 0.192793
#
# Coordination Sequence:
#
# PCOD9059398 Si02
#       8
#     2   2   2   2   2   2   2   2
#     4  12  26  43  71 100 133 178 229 280 334 404
#     4  11  24  42  68 102 139 179 217 276 353 409
#     4  11  26  48  67  95 134 184 233 279 331 391
#     4  12  23  41  69 102 138 172 221 283 342 406
#     4  11  25  47  68  96 139 175 229 281 333 399
#     4  12  22  40  67 103 139 168 222 279 340 409
#     4  12  24  46  70  98 139 178 226 280 334 403
#     4  11  23  41  67  99 137 178 216 272 347 406
#
# _framework density 22.794824999999999
#
# number of rings (size 3 to 8) (size 9 to 14) (size 15 to 20)
#    0.000    0.500    5.000    3.375    0.000    2.500 
#    0.000    0.000    0.000    0.000    0.000    0.000 
#    0.000    0.000    0.000    0.000    0.000    0.000 
#
# Total GULP energy -89597.328688 kJ/mol
# GULP energy per Si atom -5599.833043 kJ/mol
# Density = 2.274294 g / cm^3
# Si number density = 22.794825 Si / 1000 Ang^3
#
#
#
# Elastic Constant Matrix: (Units=GPa)
#
#
# Indices 1 2 3 4 5 6 
#
# 1 64.5687 -14.8687 25.3611 -7.0097 -17.3427 -3.4838
# 2 -14.8687 70.1006 5.9207 -13.3887 -5.1395 -4.1670
# 3 25.3611 5.9207 51.7763 -2.3168 -12.2991 6.4635
# 4 -7.0097 -13.3887 -2.3168 24.9214 2.5849 -3.3077
# 5 -17.3427 -5.1395 -12.2991 2.5849 38.8818 3.1441
# 6 -3.4838 -4.1670 6.4635 -3.3077 3.1441 23.0137
#
#
#
# Elastic Compliance Matrix: (Units=1/GPa)
#
#
# Indices 1 2 3 4 5 6 
#
# 1 0.027168 0.010499 -0.013470 0.012652 0.007548 0.010584
# 2 0.010499 0.020584 -0.007144 0.014165 0.003484 0.008883
# 3 -0.013470 -0.007144 0.028914 -0.007045 0.003711 -0.012973
# 4 0.012652 0.014165 -0.007045 0.052414 0.000678 0.013899
# 5 0.007548 0.003484 0.003711 0.000678 0.030950 -0.003400
# 6 0.010584 0.008883 -0.012973 0.013899 -0.003400 0.052769
#
#
# Mechanical properties :
#
#
# Convention : Reuss Voigt Hill
#
# Bulk Modulus (GPa) = 17.71903 24.36354 21.04129
# Shear Modulus (GPa) = 19.85377 28.69888 24.27632
#
# Velocity S-wave (km/s) = 2.95443 3.55210 3.26696
# Velocity P-wave (km/s) = 4.40776 5.24734 4.84577
#
# Compressibility (1/GPa) = 0.05643648
#
# Stress axis : x y z
#
# Youngs Moduli (GPa) = 36.80861 48.58048 34.58476
#
# Poissons Ratio (x) = -0.51004 0.46586
# Poissons Ratio (y) = -0.38645 0.24707
# Poissons Ratio (z) = 0.49581 0.34705
#
# Static dielectric constant tensor:
#      x y z
#    x 1.833500 -0.003340 0.006140 
#    y -0.003340 1.855040 -0.016270 
#    z 0.006140 -0.016270 1.851570 
# 
# From -- ./inp_files/521812.got.cif
#   From: 2010.05.17/outbox.cif.g08.bks.cpg/sg2_261_cif.got.tgz:521812.got - 2010.06.03 11:33:40.
