data_PCOD9059487
_publ_section_title
;
Structure prediction by ZEFSAII (Michael W. Deem and Ramdas Pophale) SiO2 
 PCOD9059487
Probable space group: P -1
;
_chemical_formula_sum "Si O2"
_cell_formula_units_Z 16
_cell_length_a 11.428847
_cell_length_b 9.112356
_cell_length_c 14.433385
_cell_angle_alpha 71.294188
_cell_angle_beta 50.100065
_cell_angle_gamma 111.049822
_cell_volume 687.020875
_symmetry_space_group_name_H-M "P -1"
_symmetry_group_IT_number 2
_symmetry_cell_setting 'triclinic'
loop_
_space_group_symop_operation_xyz
x,y,z
-x,-y,-z
loop_
_atom_site_type_symbol
_atom_site_label
_atom_site_fract_x
_atom_site_fract_y
_atom_site_fract_z
Si Si1 0.038203 0.592615 0.654637
Si Si2 0.579242 0.864592 0.130920
Si Si3 0.121357 0.342757 0.557492
Si Si4 0.666758 0.019181 0.726998
Si Si5 0.056273 0.054617 0.161161
Si Si6 0.028138 0.767478 0.982442
Si Si7 0.251815 0.728722 0.717456
Si Si8 0.317967 0.489837 0.066520
O O1 0.032003 0.421458 0.645012
O O2 0.250618 0.850527 0.440664
O O3 0.082323 0.606277 0.737837
O O4 0.798404 0.507574 0.789942
O O5 0.372597 0.590807 0.333588
O O6 0.447903 0.925750 0.170129
O O7 0.791452 0.066480 0.057006
O O8 0.714696 0.880630 0.977496
O O9 0.909108 0.150276 0.628651
O O10 0.146636 0.215777 0.637455
O O11 0.467533 0.729605 0.880946
O O12 0.111821 0.237128 0.166092
O O13 0.013652 0.103983 0.075142
O O14 0.162444 0.762059 0.841401
O O15 0.784633 0.480185 0.192202
O O16 0.500000 0.000000 0.500000
O O17 0.500000 0.500000 0.000000
#
# Coordination Sequence:
#
# PCOD9059487 Si02
#       8
#     2   2   2   2   2   2   2   2
#     4  11  24  43  68  96 130 173 225 269 323 397
#     4  11  25  44  71  94 133 180 221 275 325 389
#     4  11  25  44  68 101 131 176 227 267 328 395
#     4  11  25  44  70  97 131 176 226 270 325 395
#     4  12  26  43  67 101 138 173 217 273 336 394
#     4  11  25  44  65 100 134 171 224 270 329 393
#     4  11  23  41  69  97 131 174 219 272 328 391
#     4  12  26  42  65  99 136 176 215 272 335 390
#
# _framework density 23.288957
#
# number of rings (size 3 to 8) (size 9 to 14) (size 15 to 20)
#    0.000    0.750    2.500    5.625    7.000    4.000 
#    0.000    0.000    0.000    0.000    0.000    0.000 
#    0.000    0.000    0.000    0.000    0.000    0.000 
#
# Total GULP energy -89519.219801 kJ/mol
# GULP energy per Si atom -5594.951238 kJ/mol
# Density = 2.323595 g / cm^3
# Si number density = 23.288957 Si / 1000 Ang^3
#
#
#
# Elastic Constant Matrix: (Units=GPa)
#
#
# Indices 1 2 3 4 5 6 
#
# 1 55.6832 -5.2079 16.3342 -20.6405 20.5746 -15.6982
# 2 -5.2079 65.5739 37.5231 -8.8268 20.9393 -4.1452
# 3 16.3342 37.5231 112.6649 -34.6284 22.1213 -23.1473
# 4 -20.6405 -8.8268 -34.6284 37.0082 -6.9752 11.8252
# 5 20.5746 20.9393 22.1213 -6.9752 34.2212 -12.8164
# 6 -15.6982 -4.1452 -23.1473 11.8252 -12.8164 34.0733
#
#
#
# Elastic Compliance Matrix: (Units=1/GPa)
#
#
# Indices 1 2 3 4 5 6 
#
# 1 0.036038 0.012578 0.002230 0.019297 -0.025631 0.003310
# 2 0.012578 0.026692 -0.005946 0.005406 -0.020693 -0.004657
# 3 0.002230 -0.005946 0.016246 0.012555 -0.003527 0.005657
# 4 0.019297 0.005406 0.012555 0.049536 -0.014663 -0.004630
# 5 -0.025631 -0.020693 -0.003527 -0.014663 0.060792 0.011233
# 6 0.003310 -0.004657 0.005657 -0.004630 0.011233 0.039982
#
#
# Mechanical properties :
#
#
# Convention : Reuss Voigt Hill
#
# Bulk Modulus (GPa) = 10.34120 36.80230 23.57175
# Shear Modulus (GPa) = 20.50897 33.41204 26.96051
#
# Velocity S-wave (km/s) = 2.97076 3.79182 3.40612
# Velocity P-wave (km/s) = 4.02707 5.91669 5.06086
#
# Compressibility (1/GPa) = 0.09670061
#
# Stress axis : x y z
#
# Youngs Moduli (GPa) = 27.74865 37.46414 61.55214
#
# Poissons Ratio (x) = -0.47121 -0.13727
# Poissons Ratio (y) = -0.34901 0.36596
# Poissons Ratio (z) = -0.06188 0.22274
#
# Static dielectric constant tensor:
#      x y z
#    x 1.922870 0.001730 -0.004020 
#    y 0.001730 1.843530 -0.003540 
#    z -0.004020 -0.003540 1.870020 
# 
# From -- ./inp_files/272622.got.cif
#   From: 2010.05.17/outbox.cif.g08.bks.cpg/sg2_137_cif.got.tgz:272622.got - 2010.06.03 11:33:40.
