data_PCOD9059461
_publ_section_title
;
Structure prediction by ZEFSAII (Michael W. Deem and Ramdas Pophale) SiO2 
 PCOD9059461
Probable space group: P -1
;
_chemical_formula_sum "Si O2"
_cell_formula_units_Z 16
_cell_length_a 10.992164
_cell_length_b 11.509236
_cell_length_c 6.610215
_cell_angle_alpha 87.230095
_cell_angle_beta 100.673768
_cell_angle_gamma 54.196436
_cell_volume 653.495158
_symmetry_space_group_name_H-M "P -1"
_symmetry_group_IT_number 2
_symmetry_cell_setting 'triclinic'
loop_
_space_group_symop_operation_xyz
x,y,z
-x,-y,-z
loop_
_atom_site_type_symbol
_atom_site_label
_atom_site_fract_x
_atom_site_fract_y
_atom_site_fract_z
Si Si1 0.689775 0.503404 0.125341
Si Si2 0.327619 0.982622 0.072424
Si Si3 0.344371 0.236634 0.025379
Si Si4 0.776683 0.099410 0.628506
Si Si5 0.887457 0.571294 0.759158
Si Si6 0.106671 0.000400 0.727198
Si Si7 0.397098 0.591536 0.265932
Si Si8 0.033752 0.677988 0.504417
O O1 0.519011 0.584536 0.155316
O O2 0.816627 0.369535 0.313525
O O3 0.727085 0.619518 0.142944
O O4 0.682750 0.459291 0.898170
O O5 0.480305 0.872795 0.994791
O O6 0.190869 0.975458 0.963198
O O7 0.327709 0.946191 0.310641
O O8 0.282377 0.141101 0.004566
O O9 0.289014 0.309643 0.224042
O O10 0.725318 0.247613 0.702469
O O11 0.965274 0.991513 0.704382
O O12 0.761215 0.114127 0.380234
O O13 0.913173 0.440834 0.646008
O O14 0.930318 0.658659 0.627222
O O15 0.000000 0.500000 0.000000
O O16 0.047449 0.160975 0.620197
O O17 0.500000 0.500000 0.500000
#
# Coordination Sequence:
#
# PCOD9059461 Si02
#       8
#     2   2   2   2   2   2   2   2
#     4  11  25  44  69 104 141 176 234 289 350 414
#     4  11  25  47  69  98 145 183 231 285 348 416
#     4  11  24  45  70 102 136 188 226 283 349 414
#     4  11  25  46  68 101 136 184 233 289 344 415
#     4  11  23  41  69 102 143 182 229 283 342 415
#     4  11  26  43  70 102 137 185 237 281 346 417
#     4  11  26  44  72 102 137 182 234 290 351 413
#     4  11  25  43  69 105 140 183 230 288 349 408
#
# _framework density 24.483730999999999
#
# number of rings (size 3 to 8) (size 9 to 14) (size 15 to 20)
#    0.000    1.000    2.500    2.625    7.000    4.000 
#    0.000    1.875    0.000    0.000    0.000    0.000 
#    0.000    0.000    0.000    0.000    0.000    0.000 
#
# Total GULP energy -89383.494414 kJ/mol
# GULP energy per Si atom -5586.468401 kJ/mol
# Density = 2.442801 g / cm^3
# Si number density = 24.483731 Si / 1000 Ang^3
#
#
#
# Elastic Constant Matrix: (Units=GPa)
#
#
# Indices 1 2 3 4 5 6 
#
# 1 94.1138 27.9413 31.3492 14.5141 -34.6365 3.1883
# 2 27.9413 129.9330 48.2057 17.2561 -12.7830 0.0166
# 3 31.3492 48.2057 103.4068 14.5198 -6.4421 0.8240
# 4 14.5141 17.2561 14.5198 32.2915 -6.4003 -7.9847
# 5 -34.6365 -12.7830 -6.4421 -6.4003 50.1921 9.2126
# 6 3.1883 0.0166 0.8240 -7.9847 9.2126 29.6050
#
#
#
# Elastic Compliance Matrix: (Units=1/GPa)
#
#
# Indices 1 2 3 4 5 6 
#
# 1 0.017437 -0.000573 -0.003469 -0.005306 0.012043 -0.006959
# 2 -0.000573 0.009820 -0.003849 -0.003266 0.001407 -0.001156
# 3 -0.003469 -0.003849 0.012743 -0.002527 -0.002057 -0.000020
# 4 -0.005306 -0.003266 -0.002527 0.038730 -0.002030 0.011721
# 5 0.012043 0.001407 -0.002057 -0.002030 0.030118 -0.011160
# 6 -0.006959 -0.001156 -0.000020 0.011721 -0.011160 0.041163
#
#
# Mechanical properties :
#
#
# Convention : Reuss Voigt Hill
#
# Bulk Modulus (GPa) = 41.28800 60.27177 50.77988
# Shear Modulus (GPa) = 28.75823 37.08155 32.91989
#
# Velocity S-wave (km/s) = 3.43094 3.89593 3.67080
# Velocity P-wave (km/s) = 5.70922 6.70136 6.22509
#
# Compressibility (1/GPa) = 0.02422011
#
# Stress axis : x y z
#
# Youngs Moduli (GPa) = 57.34996 101.83671 78.47405
#
# Poissons Ratio (x) = 0.05830 0.27220
# Poissons Ratio (y) = 0.03283 0.30201
# Poissons Ratio (z) = 0.19893 0.39192
#
# Static dielectric constant tensor:
#      x y z
#    x 1.980240 -0.009400 -0.012330 
#    y -0.009400 1.905110 0.014840 
#    z -0.012330 0.014840 1.968650 
# 
# From -- ./inp_files/70653.got.cif
#   From: 2010.05.17/outbox.cif.g08.bks.cpg/sg2_36_cif.got.tgz:70653.got - 2010.06.03 11:33:40.
