data_PCOD9059158
_publ_section_title
;
Structure prediction by ZEFSAII (Michael W. Deem and Ramdas Pophale) SiO2 
 PCOD9059158
Probable space group: P -1
;
_chemical_formula_sum "Si O2"
_cell_formula_units_Z 15
_cell_length_a 16.059122
_cell_length_b 10.348773
_cell_length_c 16.320846
_cell_angle_alpha 138.819706
_cell_angle_beta 23.791620
_cell_angle_gamma 128.172762
_cell_volume 694.512981
_symmetry_space_group_name_H-M "P -1"
_symmetry_group_IT_number 2
_symmetry_cell_setting 'triclinic'
loop_
_space_group_symop_operation_xyz
x,y,z
-x,-y,-z
loop_
_atom_site_type_symbol
_atom_site_label
_atom_site_fract_x
_atom_site_fract_y
_atom_site_fract_z
Si Si1 0.217863 0.873240 0.202734
Si Si2 0.000000 0.500000 0.500000
Si Si3 0.308114 0.440535 0.749817
Si Si4 0.449572 0.240292 0.358209
Si Si5 0.346416 0.883632 0.624728
Si Si6 0.034407 0.225110 0.170041
Si Si7 0.616014 0.840698 0.936281
Si Si8 0.007316 0.462963 0.793485
O O1 0.151241 0.682086 0.136194
O O2 0.285912 0.021586 0.147918
O O3 0.412094 0.798458 0.055014
O O4 0.000000 0.000000 0.500000
O O5 0.042385 0.328983 0.300383
O O6 0.207017 0.358309 0.292948
O O7 0.346926 0.306837 0.569461
O O8 0.359477 0.652352 0.778057
O O9 0.505458 0.327763 0.576412
O O10 0.086311 0.426808 0.984917
O O11 0.252888 0.332455 0.516308
O O12 0.526064 0.999418 0.165334
O O13 0.180988 0.842969 0.687334
O O14 0.500000 0.000000 0.500000
O O15 0.220420 0.024146 0.879573
O O16 0.031828 0.390974 0.179401
#
# Coordination Sequence:
#
# PCOD9059158 Si02
#       8
#     2   1   2   2   2   2   2   2
#     4  11  23  42  72  97 129 185 238 281 349 427
#     4  12  28  48  70 106 150 188 234 302 368 412
#     4  11  23  40  69 101 134 179 230 289 354 414
#     4  11  23  42  67 102 141 170 234 300 341 416
#     4  11  23  46  72  99 138 194 236 282 359 434
#     4  11  26  45  69 101 144 188 239 296 348 432
#     4  11  25  45  68  99 141 183 231 294 353 422
#     4  12  22  42  71 100 134 184 237 285 354 419
#
# _framework density 21.597867999999998
#
# number of rings (size 3 to 8) (size 9 to 14) (size 15 to 20)
#    0.000    0.800    5.333    2.000    3.733    0.000 
#    2.400    4.667    0.000    0.000    0.000    0.000 
#    0.000    0.000    0.000    0.000    0.000    0.000 
#
# Total GULP energy -83534.580088 kJ/mol
# GULP energy per Si atom -5568.972006 kJ/mol
# Density = 2.154871 g / cm^3
# Si number density = 21.597868 Si / 1000 Ang^3
#
#
#
# Elastic Constant Matrix: (Units=GPa)
#
#
# Indices 1 2 3 4 5 6 
#
# 1 77.4056 10.1049 28.2307 -7.7011 -0.3860 10.7403
# 2 10.1049 37.0589 21.0688 -16.2220 -0.1192 8.4383
# 3 28.2307 21.0688 99.0080 11.3785 -13.0982 3.6253
# 4 -7.7011 -16.2220 11.3785 34.1421 -6.5280 -4.8585
# 5 -0.3860 -0.1192 -13.0982 -6.5280 46.3966 10.6992
# 6 10.7403 8.4383 3.6253 -4.8585 10.6992 20.1258
#
#
#
# Elastic Compliance Matrix: (Units=1/GPa)
#
#
# Indices 1 2 3 4 5 6 
#
# 1 0.016299 0.003348 -0.005589 0.006205 0.001358 -0.008319
# 2 0.003348 0.049097 -0.013461 0.027090 0.003712 -0.015381
# 3 -0.005589 -0.013461 0.016255 -0.012407 0.002438 0.001407
# 4 0.006205 0.027090 -0.012407 0.048047 0.004070 -0.003000
# 5 0.001358 0.003712 0.002438 0.004070 0.026482 -0.015816
# 6 -0.008319 -0.015381 0.001407 -0.003000 -0.015816 0.068006
#
#
# Mechanical properties :
#
#
# Convention : Reuss Voigt Hill
#
# Bulk Modulus (GPa) = 19.90196 36.92013 28.41105
# Shear Modulus (GPa) = 18.35956 30.40411 24.38184
#
# Velocity S-wave (km/s) = 2.91875 3.75605 3.36356
# Velocity P-wave (km/s) = 4.53801 5.99517 5.31675
#
# Compressibility (1/GPa) = 0.05024630
#
# Stress axis : x y z
#
# Youngs Moduli (GPa) = 61.35515 20.36803 61.51889
#
# Poissons Ratio (x) = -0.06819 0.34381
# Poissons Ratio (y) = -0.20542 0.82813
# Poissons Ratio (z) = 0.34289 0.27418
#
# Static dielectric constant tensor:
#      x y z
#    x 1.971170 -0.017190 0.202260 
#    y -0.017190 1.798670 -0.036080 
#    z 0.202260 -0.036080 2.029850 
# 
# From -- ./inp_files/575774.got.cif
#   From: 2010.05.17/outbox.cif.g08.bks.cpg/sg2_288_cif.got.tgz:575774.got - 2010.06.03 11:33:40.
