data_PCOD9059999
_publ_section_title
;
Structure prediction by ZEFSAII (Michael W. Deem and Ramdas Pophale) SiO2 
 PCOD9059999
Probable space group: P -1
;
_chemical_formula_sum "Si O2"
_cell_formula_units_Z 14
_cell_length_a 9.114496
_cell_length_b 10.153022
_cell_length_c 18.220529
_cell_angle_alpha 124.299711
_cell_angle_beta 149.104865
_cell_angle_gamma 51.117261
_cell_volume 672.638470
_symmetry_space_group_name_H-M "P -1"
_symmetry_group_IT_number 2
_symmetry_cell_setting 'triclinic'
loop_
_space_group_symop_operation_xyz
x,y,z
-x,-y,-z
loop_
_atom_site_type_symbol
_atom_site_label
_atom_site_fract_x
_atom_site_fract_y
_atom_site_fract_z
Si Si1 0.187049 0.027737 0.017887
Si Si2 0.139447 0.646915 0.623656
Si Si3 0.723740 0.985433 0.470057
Si Si4 0.055101 0.186257 0.255798
Si Si5 0.848171 0.488851 0.156354
Si Si6 0.838428 0.587221 0.883853
Si Si7 0.794793 0.839681 0.295858
O O1 0.147430 0.223313 0.053658
O O2 0.536901 0.923136 0.151746
O O3 0.000000 0.000000 0.000000
O O4 0.085919 0.949874 0.878331
O O5 0.489406 0.596285 0.734009
O O6 0.000000 0.500000 0.500000
O O7 0.934208 0.819101 0.549621
O O8 0.122749 0.695990 0.717720
O O9 0.670087 0.923155 0.346496
O O10 0.397980 0.084898 0.395267
O O11 0.910043 0.112848 0.580163
O O12 0.038818 0.311148 0.219568
O O13 0.858432 0.640908 0.260108
O O14 0.985014 0.505816 0.141539
O O15 0.500000 0.500000 0.000000
O O16 0.000000 0.500000 0.000000
#
# Coordination Sequence:
#
# PCOD9059999 Si02
#       7
#     2   2   2   2   2   2   2
#     4  12  22  47  75 104 140 185 244 298 347 426
#     4  12  29  49  67 105 152 185 237 301 360 425
#     4  11  25  45  69 102 140 187 233 290 362 421
#     4  12  26  44  77 101 139 195 238 289 361 427
#     4  12  24  44  73 107 138 183 241 294 358 418
#     4  12  28  46  73 107 146 190 237 298 360 420
#     4  11  23  42  73 101 139 179 240 295 346 430
#
# _framework density 20.813558
#
# number of rings (size 3 to 8) (size 9 to 14) (size 15 to 20)
#    0.000    0.286    5.714    2.143    6.000    2.286 
#    0.000    0.000    0.000    0.000    0.000    0.000 
#    0.000    0.000    0.000    0.000    0.000    0.000 
#
# Total GULP energy -78368.348524 kJ/mol
# GULP energy per Si atom -5597.739180 kJ/mol
# Density = 2.076619 g / cm^3
# Si number density = 20.813558 Si / 1000 Ang^3
#
#
#
# Elastic Constant Matrix: (Units=GPa)
#
#
# Indices 1 2 3 4 5 6 
#
# 1 101.3097 -2.4377 49.7702 5.1314 19.8509 -10.4900
# 2 -2.4377 97.4153 41.0148 12.0429 18.5167 8.7530
# 3 49.7702 41.0148 101.6173 11.3884 14.2218 -8.3391
# 4 5.1314 12.0429 11.3884 58.8280 -3.3264 -6.8648
# 5 19.8509 18.5167 14.2218 -3.3264 20.3140 -4.4664
# 6 -10.4900 8.7530 -8.3391 -6.8648 -4.4664 33.4389
#
#
#
# Elastic Compliance Matrix: (Units=1/GPa)
#
#
# Indices 1 2 3 4 5 6 
#
# 1 0.019040 0.009290 -0.009966 -0.003109 -0.021135 -0.002406
# 2 0.009290 0.020677 -0.009650 -0.005623 -0.024131 -0.009282
# 3 -0.009966 -0.009650 0.017992 0.000333 0.007071 0.004899
# 4 -0.003109 -0.005623 0.000333 0.019805 0.012563 0.006323
# 5 -0.021135 -0.024131 0.007071 0.012563 0.092588 0.016396
# 6 -0.002406 -0.009282 0.004899 0.006323 0.016396 0.036290
#
#
# Mechanical properties :
#
#
# Convention : Reuss Voigt Hill
#
# Bulk Modulus (GPa) = 26.98546 53.00411 39.99479
# Shear Modulus (GPa) = 20.88586 36.64918 28.76752
#
# Velocity S-wave (km/s) = 3.17120 4.20078 3.72176
# Velocity P-wave (km/s) = 5.13830 7.00358 6.14216
#
# Compressibility (1/GPa) = 0.03705699
#
# Stress axis : x y z
#
# Youngs Moduli (GPa) = 52.52105 48.36348 55.57952
#
# Poissons Ratio (x) = -0.44931 0.55392
# Poissons Ratio (y) = -0.48794 0.53635
# Poissons Ratio (z) = 0.52344 0.46671
#
# Static dielectric constant tensor:
#      x y z
#    x 1.681850 -0.015000 -0.049280 
#    y -0.015000 1.741820 -0.002220 
#    z -0.049280 -0.002220 1.704380 
# 
# From -- ./inp_files/157344.got.cif
#   From: 2010.05.17/outbox.cif.g08.bks.cpg/sg2_79_cif.got.tgz:157344.got - 2010.06.03 11:33:40.
