data_PCOD9059708
_publ_section_title
;
Structure prediction by ZEFSAII (Michael W. Deem and Ramdas Pophale) SiO2 
 PCOD9059708
Probable space group: P -1
;
_chemical_formula_sum "Si O2"
_cell_formula_units_Z 15
_cell_length_a 14.833179
_cell_length_b 16.231617
_cell_length_c 13.784278
_cell_angle_alpha 153.888358
_cell_angle_beta 154.673507
_cell_angle_gamma 27.356563
_cell_volume 570.888523
_symmetry_space_group_name_H-M "P -1"
_symmetry_group_IT_number 2
_symmetry_cell_setting 'triclinic'
loop_
_space_group_symop_operation_xyz
x,y,z
-x,-y,-z
loop_
_atom_site_type_symbol
_atom_site_label
_atom_site_fract_x
_atom_site_fract_y
_atom_site_fract_z
Si Si1 0.204441 0.876250 0.825224
Si Si2 0.166628 0.100409 0.356770
Si Si3 0.995315 0.396132 0.014107
Si Si4 0.549744 0.836516 0.702031
Si Si5 0.000000 0.500000 0.500000
Si Si6 0.502057 0.319904 0.718242
Si Si7 0.095964 0.170889 0.691562
Si Si8 0.340399 0.418234 0.953550
O O1 0.076358 0.845524 0.573627
O O2 0.422072 0.673878 0.855664
O O3 0.027533 0.930513 0.800146
O O4 0.309242 0.038277 0.071310
O O5 0.068109 0.253887 0.334436
O O6 0.366354 0.876932 0.295021
O O7 0.267933 0.233553 0.662175
O O8 0.996120 0.222256 0.757187
O O9 0.860462 0.418454 0.006205
O O10 0.261020 0.342344 0.240812
O O11 0.873143 0.620307 0.085247
O O12 0.455637 0.765005 0.440840
O O13 0.340331 0.983314 0.719005
O O14 0.770683 0.571542 0.422201
O O15 0.625744 0.479309 0.005229
#
# Coordination Sequence:
#
# PCOD9059708 Si02
#       8
#     2   2   2   2   1   2   2   2
#     4  12  21  46  73  97 145 192 234 291 342 423
#     4  12  25  51  71 107 143 183 238 287 362 431
#     4  11  23  42  67 104 145 187 242 295 342 404
#     4  12  24  46  71 100 142 197 235 286 358 419
#     4  12  28  46  78 110 138 174 238 302 354 436
#     4  12  25  48  76 102 141 188 231 291 363 425
#     4  11  24  44  65 103 147 185 246 295 335 416
#     4  12  24  48  75 104 146 192 235 289 354 428
#
# _framework density 26.274830999999999
#
# number of rings (size 3 to 8) (size 9 to 14) (size 15 to 20)
#    0.000    0.267    6.667    3.200    0.000    1.600 
#    2.400    3.333    0.000    0.000    0.000    0.000 
#    0.000    0.000    0.000    0.000    0.000    0.000 
#
# Total GULP energy -83938.433221 kJ/mol
# GULP energy per Si atom -5595.895548 kJ/mol
# Density = 2.621503 g / cm^3
# Si number density = 26.274831 Si / 1000 Ang^3
#
#
#
# Elastic Constant Matrix: (Units=GPa)
#
#
# Indices 1 2 3 4 5 6 
#
# 1 78.7077 37.7754 30.1212 3.9508 13.3628 -9.0795
# 2 37.7754 199.8027 13.8437 -2.6877 9.1798 -18.2605
# 3 30.1212 13.8437 87.4499 7.4526 4.0384 -14.4393
# 4 3.9508 -2.6877 7.4526 34.1715 9.4974 0.4694
# 5 13.3628 9.1798 4.0384 9.4974 47.2077 -1.0772
# 6 -9.0795 -18.2605 -14.4393 0.4694 -1.0772 51.3108
#
#
#
# Elastic Compliance Matrix: (Units=1/GPa)
#
#
# Indices 1 2 3 4 5 6 
#
# 1 0.016559 -0.002561 -0.005041 0.000018 -0.003750 0.000521
# 2 -0.002561 0.005656 0.000205 0.000819 -0.000521 0.001599
# 3 -0.005041 0.000205 0.013845 -0.002690 0.000815 0.003119
# 4 0.000018 0.000819 -0.002690 0.031684 -0.006329 -0.000885
# 5 -0.003750 -0.000521 0.000815 -0.006329 0.023548 -0.000067
# 6 0.000521 0.001599 0.003119 -0.000885 -0.000067 0.021035
#
#
# Mechanical properties :
#
#
# Convention : Reuss Voigt Hill
#
# Bulk Modulus (GPa) = 47.02058 58.82677 52.92367
# Shear Modulus (GPa) = 37.25495 45.48600 41.37047
#
# Velocity S-wave (km/s) = 3.76958 4.16524 3.97234
# Velocity P-wave (km/s) = 6.07296 6.75055 6.42070
#
# Compressibility (1/GPa) = 0.02126728
#
# Stress axis : x y z
#
# Youngs Moduli (GPa) = 60.38855 176.80165 72.22603
#
# Poissons Ratio (x) = 0.45285 0.36406
# Poissons Ratio (y) = 0.15468 -0.01481
# Poissons Ratio (z) = 0.30439 -0.03626
#
# Static dielectric constant tensor:
#      x y z
#    x 2.104550 0.086060 -0.029900 
#    y 0.086060 2.063130 -0.004990 
#    z -0.029900 -0.004990 2.130900 
# 
# From -- ./inp_files/576396.got.cif
#   From: 2010.05.17/outbox.cif.g08.bks.cpg/sg2_289_cif.got.tgz:576396.got - 2010.06.03 11:33:40.
