data_PCOD9059766
_publ_section_title
;
Structure prediction by ZEFSAII (Michael W. Deem and Ramdas Pophale) SiO2 
 PCOD9059766
Probable space group: P -1
;
_chemical_formula_sum "Si O2"
_cell_formula_units_Z 14
_cell_length_a 9.997386
_cell_length_b 11.452147
_cell_length_c 5.137860
_cell_angle_alpha 90.253041
_cell_angle_beta 78.603991
_cell_angle_gamma 86.049737
_cell_volume 575.176523
_symmetry_space_group_name_H-M "P -1"
_symmetry_group_IT_number 2
_symmetry_cell_setting 'triclinic'
loop_
_space_group_symop_operation_xyz
x,y,z
-x,-y,-z
loop_
_atom_site_type_symbol
_atom_site_label
_atom_site_fract_x
_atom_site_fract_y
_atom_site_fract_z
Si Si1 0.435782 0.735866 0.757575
Si Si2 0.855365 0.150541 0.182507
Si Si3 0.606726 0.752537 0.214884
Si Si4 0.691776 0.490478 0.372333
Si Si5 0.973497 0.699603 0.562090
Si Si6 0.139803 0.118340 0.755608
Si Si7 0.141312 0.514275 0.175734
O O1 0.287138 0.798503 0.881594
O O2 0.501459 0.797003 0.484062
O O3 0.415298 0.602395 0.671004
O O4 0.531113 0.738224 0.971561
O O5 0.894575 0.238218 0.394139
O O6 0.841532 0.020049 0.291125
O O7 0.991402 0.143520 0.950228
O O8 0.658759 0.624020 0.300059
O O9 0.731667 0.834886 0.143944
O O10 0.737965 0.479799 0.654285
O O11 0.816156 0.454670 0.127374
O O12 0.022188 0.606462 0.321505
O O13 0.871311 0.803608 0.498237
O O14 0.901723 0.617956 0.791164
#
# Coordination Sequence:
#
# PCOD9059766 Si02
#       7
#     2   2   2   2   2   2   2
#     4  12  27  47  73 105 150 189 235 293 360 427
#     4  11  26  47  75 103 140 191 245 298 351 419
#     4  12  27  47  73 105 150 189 235 293 360 427
#     4  12  22  46  66 107 140 192 228 289 353 438
#     4  11  23  42  68 108 141 183 232 302 354 425
#     4  11  26  47  75 103 140 191 245 298 351 419
#     4  11  24  37  76 103 147 178 234 290 366 413
#
# _framework density 24.340354000000001
#
# number of rings (size 3 to 8) (size 9 to 14) (size 15 to 20)
#    0.000    0.571    2.857    4.714    4.000    2.286 
#    0.000    0.000    0.000    0.000    0.000    0.000 
#    0.000    0.000    0.000    0.000    0.000    0.000 
#
# Total GULP energy -78449.874373 kJ/mol
# GULP energy per Si atom -5603.562455 kJ/mol
# Density = 2.428495 g / cm^3
# Si number density = 24.340354 Si / 1000 Ang^3
#
#
#
# Elastic Constant Matrix: (Units=GPa)
#
#
# Indices 1 2 3 4 5 6 
#
# 1 137.0202 55.8524 43.2545 1.2687 26.7300 23.2705
# 2 55.8524 171.5252 25.0380 -13.8578 9.0650 19.8391
# 3 43.2545 25.0380 78.7762 4.1287 9.1028 18.1143
# 4 1.2687 -13.8578 4.1287 18.3835 -2.8585 -5.1318
# 5 26.7300 9.0650 9.1028 -2.8585 58.1775 0.8581
# 6 23.2705 19.8391 18.1143 -5.1318 0.8581 32.3613
#
#
#
# Elastic Compliance Matrix: (Units=1/GPa)
#
#
# Indices 1 2 3 4 5 6 
#
# 1 0.011205 -0.002667 -0.003433 -0.004090 -0.004322 -0.005035
# 2 -0.002667 0.007415 -0.000982 0.005746 0.000524 -0.001181
# 3 -0.003433 -0.000982 0.017102 -0.006625 -0.001160 -0.007522
# 4 -0.004090 0.005746 -0.006625 0.064991 0.005018 0.013300
# 5 -0.004322 0.000524 -0.001160 0.005018 0.019466 0.003716
# 6 -0.005035 -0.001181 -0.007522 0.013300 0.003716 0.041466
#
#
# Mechanical properties :
#
#
# Convention : Reuss Voigt Hill
#
# Bulk Modulus (GPa) = 46.38903 70.62348 58.50626
# Shear Modulus (GPa) = 27.32269 39.32959 33.32614
#
# Velocity S-wave (km/s) = 3.35405 4.02409 3.70425
# Velocity P-wave (km/s) = 5.83947 7.11821 6.51031
#
# Compressibility (1/GPa) = 0.02155682
#
# Stress axis : x y z
#
# Youngs Moduli (GPa) = 89.24285 134.86003 58.47100
#
# Poissons Ratio (x) = 0.35971 0.20075
# Poissons Ratio (y) = 0.23803 0.05744
# Poissons Ratio (z) = 0.30640 0.13249
#
# Static dielectric constant tensor:
#      x y z
#    x 2.003200 -0.012230 -0.058820 
#    y -0.012230 1.883790 0.022860 
#    z -0.058820 0.022860 1.963290 
# 
# From -- ./inp_files/27544.got.cif
#   From: 2010.05.17/outbox.cif.g08.bks.cpg/sg2_14_cif.got.tgz:27544.got - 2010.06.03 11:33:40.
