data_PCOD9059522
_publ_section_title
;
Structure prediction by ZEFSAII (Michael W. Deem and Ramdas Pophale) SiO2 
 PCOD9059522
Probable space group: P -1
;
_chemical_formula_sum "Si O2"
_cell_formula_units_Z 16
_cell_length_a 8.660267
_cell_length_b 13.132961
_cell_length_c 18.587173
_cell_angle_alpha 150.328311
_cell_angle_beta 129.922021
_cell_angle_gamma 50.613972
_cell_volume 785.921578
_symmetry_space_group_name_H-M "P -1"
_symmetry_group_IT_number 2
_symmetry_cell_setting 'triclinic'
loop_
_space_group_symop_operation_xyz
x,y,z
-x,-y,-z
loop_
_atom_site_type_symbol
_atom_site_label
_atom_site_fract_x
_atom_site_fract_y
_atom_site_fract_z
Si Si1 0.936121 0.512877 0.406838
Si Si2 0.238983 0.960095 0.566164
Si Si3 0.842126 0.667223 0.881974
Si Si4 0.813604 0.094109 0.055309
Si Si5 0.609566 0.626747 0.936791
Si Si6 0.487536 0.219231 0.592452
Si Si7 0.711748 0.417084 0.553554
Si Si8 0.708582 0.586441 0.102147
O O1 0.871466 0.295604 0.233801
O O2 0.740826 0.697888 0.452534
O O3 0.000000 0.500000 0.500000
O O4 0.110001 0.554482 0.430306
O O5 0.360989 0.821358 0.454479
O O6 0.274492 0.822604 0.564669
O O7 0.306463 0.182745 0.727236
O O8 0.000000 0.000000 0.500000
O O9 0.737570 0.650072 0.917421
O O10 0.745560 0.545374 0.714923
O O11 0.085845 0.564878 0.898546
O O12 0.801683 0.908746 0.993442
O O13 0.594368 0.187060 0.009171
O O14 0.000000 0.000000 0.000000
O O15 0.540505 0.403094 0.770748
O O16 0.729706 0.617350 0.041653
O O17 0.500000 0.000000 0.500000
O O18 0.500000 0.500000 0.500000
O O19 0.500000 0.500000 0.000000
#
# Coordination Sequence:
#
# PCOD9059522 Si02
#       8
#     2   2   2   2   2   2   2   2
#     4  11  26  44  67 102 136 177 234 285 343 415
#     4  12  24  46  72 103 141 185 228 290 347 410
#     4  12  25  47  70 101 141 183 232 289 342 416
#     4  11  24  43  72  96 141 182 225 288 349 407
#     4  11  25  44  68 104 138 181 232 284 346 415
#     4  11  23  41  70  98 139 179 227 285 347 408
#     4  12  26  43  73  99 139 182 235 282 351 408
#     4  12  27  44  74 105 142 183 234 282 351 414
#
# _framework density 20.358264999999999
#
# number of rings (size 3 to 8) (size 9 to 14) (size 15 to 20)
#    0.000    0.500    3.750    3.750    5.250    5.000 
#    0.000    0.000    0.000    0.000    0.000    0.000 
#    0.000    0.000    0.000    0.000    0.000    0.000 
#
# Total GULP energy -89531.437963 kJ/mol
# GULP energy per Si atom -5595.714873 kJ/mol
# Density = 2.031193 g / cm^3
# Si number density = 20.358265 Si / 1000 Ang^3
#
#
#
# Elastic Constant Matrix: (Units=GPa)
#
#
# Indices 1 2 3 4 5 6 
#
# 1 107.5923 44.7140 25.8279 0.2433 -0.5837 -5.0927
# 2 44.7140 165.7605 62.7036 13.6673 4.3258 -14.6967
# 3 25.8279 62.7036 71.7556 11.0452 5.1993 -9.5032
# 4 0.2433 13.6673 11.0452 46.2935 10.4716 4.7468
# 5 -0.5837 4.3258 5.1993 10.4716 35.1559 0.1814
# 6 -5.0927 -14.6967 -9.5032 4.7468 0.1814 44.6035
#
#
#
# Elastic Compliance Matrix: (Units=1/GPa)
#
#
# Indices 1 2 3 4 5 6 
#
# 1 0.010712 -0.002176 -0.002150 0.001000 0.000466 -0.000060
# 2 -0.002176 0.009581 -0.007204 -0.001306 0.000232 0.001511
# 3 -0.002150 -0.007204 0.021888 -0.002985 -0.001509 0.002368
# 4 0.001000 -0.001306 -0.002985 0.024568 -0.006681 -0.003539
# 5 0.000466 0.000232 -0.001509 -0.006681 0.030635 0.000394
# 6 -0.000060 0.001511 0.002368 -0.003539 0.000394 0.023790
#
#
# Mechanical properties :
#
#
# Convention : Reuss Voigt Hill
#
# Bulk Modulus (GPa) = 52.30078 67.95549 60.12814
# Shear Modulus (GPa) = 33.19854 39.33476 36.26665
#
# Velocity S-wave (km/s) = 4.04259 4.40037 4.22527
# Velocity P-wave (km/s) = 6.89464 7.69869 7.30773
#
# Compressibility (1/GPa) = 0.01912017
#
# Stress axis : x y z
#
# Youngs Moduli (GPa) = 93.35079 104.37555 45.68704
#
# Poissons Ratio (x) = 0.22717 0.09821
# Poissons Ratio (y) = 0.20317 0.32915
# Poissons Ratio (z) = 0.20067 0.75197
#
# Static dielectric constant tensor:
#      x y z
#    x 1.723280 0.018710 0.008150 
#    y 0.018710 1.724920 -0.004550 
#    z 0.008150 -0.004550 1.704910 
# 
# From -- ./inp_files/244203.got.cif
#   From: 2010.05.17/outbox.cif.g08.bks.cpg/sg2_123_cif.got.tgz:244203.got - 2010.06.03 11:33:40.
