data_PCOD9059759
_publ_section_title
;
Structure prediction by ZEFSAII (Michael W. Deem and Ramdas Pophale) SiO2 
 PCOD9059759
Probable space group: P -1
;
_chemical_formula_sum "Si O2"
_cell_formula_units_Z 16
_cell_length_a 19.815171
_cell_length_b 9.714454
_cell_length_c 9.462960
_cell_angle_alpha 149.869032
_cell_angle_beta 120.387118
_cell_angle_gamma 55.501102
_cell_volume 753.014543
_symmetry_space_group_name_H-M "P -1"
_symmetry_group_IT_number 2
_symmetry_cell_setting 'triclinic'
loop_
_space_group_symop_operation_xyz
x,y,z
-x,-y,-z
loop_
_atom_site_type_symbol
_atom_site_label
_atom_site_fract_x
_atom_site_fract_y
_atom_site_fract_z
Si Si1 0.180472 0.428481 0.095841
Si Si2 0.239234 0.893247 0.187410
Si Si3 0.446704 0.298157 0.134297
Si Si4 0.694223 0.912301 0.853765
Si Si5 0.925580 0.938231 0.448210
Si Si6 0.399875 0.521892 0.581635
Si Si7 0.950790 0.825598 0.706556
Si Si8 0.291481 0.266393 0.791782
O O1 0.240689 0.321292 0.932008
O O2 0.103810 0.310318 0.877399
O O3 0.227674 0.299820 0.173630
O O4 0.149896 0.770534 0.375144
O O5 0.280227 0.976559 0.166211
O O6 0.143278 0.067026 0.246683
O O7 0.280110 0.995965 0.457395
O O8 0.254018 0.552990 0.912880
O O9 0.396196 0.486434 0.376951
O O10 0.508573 0.458866 0.279935
O O11 0.384802 0.237050 0.902619
O O12 0.500000 0.000000 0.000000
O O13 0.627103 0.740230 0.614912
O O14 0.658892 0.182368 0.159235
O O15 0.948602 0.871247 0.576353
O O16 0.000000 0.000000 0.500000
O O17 0.000000 0.500000 0.500000
O O18 0.000000 0.000000 0.000000
#
# Coordination Sequence:
#
# PCOD9059759 Si02
#       8
#     2   2   2   2   2   2   2   2
#     4  12  23  45  70  98 135 178 232 292 332 402
#     4  12  28  47  68 103 143 183 233 276 356 416
#     4  11  24  42  77 106 136 180 236 283 346 408
#     4  12  26  44  70 101 142 183 228 286 348 408
#     4  12  27  44  67 104 136 170 237 288 343 403
#     4  11  23  42  68 105 136 171 234 282 327 417
#     4  12  26  46  71  96 139 186 225 276 345 420
#     4  12  24  46  72 100 136 186 228 290 332 412
#
# _framework density 21.24793
#
# number of rings (size 3 to 8) (size 9 to 14) (size 15 to 20)
#    0.000    0.250    5.000    3.375    8.750    0.000 
#    0.000    3.750    0.000    0.000    0.000    0.000 
#    0.000    0.000    0.000    0.000    0.000    0.000 
#
# Total GULP energy -89612.946506 kJ/mol
# GULP energy per Si atom -5600.809157 kJ/mol
# Density = 2.119957 g / cm^3
# Si number density = 21.247930 Si / 1000 Ang^3
#
#
#
# Elastic Constant Matrix: (Units=GPa)
#
#
# Indices 1 2 3 4 5 6 
#
# 1 108.0852 28.3152 16.5183 -8.0668 19.8955 5.7336
# 2 28.3152 54.0901 0.4240 11.6695 -5.2843 -4.9475
# 3 16.5183 0.4240 89.9698 11.1928 11.3957 -15.6787
# 4 -8.0668 11.6695 11.1928 33.1084 -7.7171 10.1475
# 5 19.8955 -5.2843 11.3957 -7.7171 43.5727 2.2308
# 6 5.7336 -4.9475 -15.6787 10.1475 2.2308 28.2036
#
#
#
# Elastic Compliance Matrix: (Units=1/GPa)
#
#
# Indices 1 2 3 4 5 6 
#
# 1 0.016312 -0.013266 -0.006669 0.014305 -0.004053 -0.014177
# 2 -0.013266 0.032706 0.008698 -0.023762 0.002433 0.021627
# 3 -0.006669 0.008698 0.018805 -0.018497 -0.005138 0.020397
# 4 0.014305 -0.023762 -0.018497 0.062781 0.008623 -0.040630
# 5 -0.004053 0.002433 -0.005138 0.008623 0.028323 -0.006948
# 6 -0.014177 0.021627 0.020397 -0.040630 -0.006948 0.068640
#
#
# Mechanical properties :
#
#
# Convention : Reuss Voigt Hill
#
# Bulk Modulus (GPa) = 22.05097 38.07335 30.06216
# Shear Modulus (GPa) = 18.85671 34.76944 26.81308
#
# Velocity S-wave (km/s) = 2.98226 4.04959 3.55620
# Velocity P-wave (km/s) = 4.71794 6.31056 5.57145
#
# Compressibility (1/GPa) = 0.04534948
#
# Stress axis : x y z
#
# Youngs Moduli (GPa) = 61.30299 30.57505 53.17763
#
# Poissons Ratio (x) = 0.40561 0.35466
# Poissons Ratio (y) = 0.81325 -0.46255
# Poissons Ratio (z) = 0.40885 -0.26595
#
# Static dielectric constant tensor:
#      x y z
#    x 1.772590 -0.027600 0.017920 
#    y -0.027600 1.782320 -0.000280 
#    z 0.017920 -0.000280 1.741450 
# 
# From -- ./inp_files/226250.got.cif
#   From: 2010.05.17/outbox.cif.g08.bks.cpg/sg2_114_cif.got.tgz:226250.got - 2010.06.03 11:33:40.
