data_PCOD9059382
_publ_section_title
;
Structure prediction by ZEFSAII (Michael W. Deem and Ramdas Pophale) SiO2 
 PCOD9059382
Probable space group: P -1
;
_chemical_formula_sum "Si O2"
_cell_formula_units_Z 14
_cell_length_a 12.576922
_cell_length_b 17.184715
_cell_length_c 18.288476
_cell_angle_alpha 150.475828
_cell_angle_beta 21.277311
_cell_angle_gamma 136.251229
_cell_volume 614.311828
_symmetry_space_group_name_H-M "P -1"
_symmetry_group_IT_number 2
_symmetry_cell_setting 'triclinic'
loop_
_space_group_symop_operation_xyz
x,y,z
-x,-y,-z
loop_
_atom_site_type_symbol
_atom_site_label
_atom_site_fract_x
_atom_site_fract_y
_atom_site_fract_z
Si Si1 0.370204 0.351286 0.043625
Si Si2 0.044662 0.568593 0.238762
Si Si3 0.295476 0.842239 0.727789
Si Si4 0.772301 0.813594 0.137198
Si Si5 0.323332 0.303867 0.278451
Si Si6 0.617732 0.053349 0.767157
Si Si7 0.233797 0.538749 0.933327
O O1 0.005872 0.528097 0.410485
O O2 0.641220 0.417623 0.919387
O O3 0.396998 0.220517 0.853573
O O4 0.451714 0.233515 0.968958
O O5 0.745530 0.685897 0.582723
O O6 0.118580 0.362522 0.026712
O O7 0.042761 0.617641 0.195979
O O8 0.450852 0.666575 0.431687
O O9 0.549380 0.909154 0.649524
O O10 0.109748 0.808772 0.887880
O O11 0.000000 0.000000 0.000000
O O12 0.500000 0.000000 0.500000
O O13 0.625216 0.343790 0.099719
O O14 0.410568 0.119596 0.030107
O O15 0.000000 0.000000 0.500000
O O16 0.000000 0.500000 0.000000
#
# Coordination Sequence:
#
# PCOD9059382 Si02
#       7
#     2   2   2   2   2   2   2
#     4  11  23  44  71  99 137 187 235 281 345 415
#     4  11  25  43  72 103 134 181 237 287 339 421
#     4  12  24  43  69 102 139 183 230 290 350 401
#     4  11  23  41  67 109 137 174 237 300 342 399
#     4  11  23  47  69 100 131 183 238 278 340 417
#     4  12  26  44  68 103 144 185 228 285 357 417
#     4  12  25  45  69  98 140 180 230 284 349 417
#
# _framework density 22.789729999999999
#
# number of rings (size 3 to 8) (size 9 to 14) (size 15 to 20)
#    0.000    0.571    5.714    3.857    6.000    0.571 
#    0.000    0.714    0.000    0.000    0.000    0.000 
#    0.000    0.000    0.000    0.000    0.000    0.000 
#
# Total GULP energy -78278.292865 kJ/mol
# GULP energy per Si atom -5591.306633 kJ/mol
# Density = 2.273786 g / cm^3
# Si number density = 22.789730 Si / 1000 Ang^3
#
#
#
# Elastic Constant Matrix: (Units=GPa)
#
#
# Indices 1 2 3 4 5 6 
#
# 1 99.1926 15.5005 37.6991 -25.0965 16.4038 11.7724
# 2 15.5005 104.4558 12.5790 -27.0906 6.4253 7.8558
# 3 37.6991 12.5790 85.8291 0.0442 25.5816 -0.8411
# 4 -25.0965 -27.0906 0.0442 42.1461 6.1562 9.7075
# 5 16.4038 6.4253 25.5816 6.1562 44.8572 -6.0050
# 6 11.7724 7.8558 -0.8411 9.7075 -6.0050 37.5255
#
#
#
# Elastic Compliance Matrix: (Units=1/GPa)
#
#
# Indices 1 2 3 4 5 6 
#
# 1 0.019831 0.004335 -0.007022 0.018921 -0.008273 -0.013505
# 2 0.004335 0.013958 -0.002447 0.014392 -0.005357 -0.008917
# 3 -0.007022 -0.002447 0.016716 -0.005862 -0.005307 0.003757
# 4 0.018921 0.014392 -0.005862 0.052432 -0.016212 -0.025238
# 5 -0.008273 -0.005357 -0.005307 -0.016212 0.033089 0.013087
# 6 -0.013505 -0.008917 0.003757 -0.025238 0.013087 0.041459
#
#
# Mechanical properties :
#
#
# Convention : Reuss Voigt Hill
#
# Bulk Modulus (GPa) = 24.85443 46.78163 35.81803
# Shear Modulus (GPa) = 24.85515 39.81900 32.33707
#
# Velocity S-wave (km/s) = 3.30605 4.18453 3.77096
# Velocity P-wave (km/s) = 5.05004 6.62715 5.89161
#
# Compressibility (1/GPa) = 0.04023428
#
# Stress axis : x y z
#
# Youngs Moduli (GPa) = 50.42634 71.64542 59.82440
#
# Poissons Ratio (x) = -0.31055 0.42009
# Poissons Ratio (y) = -0.21858 0.14642
# Poissons Ratio (z) = 0.35409 0.17535
#
# Static dielectric constant tensor:
#      x y z
#    x 1.884220 -0.031110 0.049720 
#    y -0.031110 1.882720 0.051820 
#    z 0.049720 0.051820 1.993220 
# 
# From -- ./inp_files/570355.got.cif
#   From: 2010.05.17/outbox.cif.g08.bks.cpg/sg2_286_cif.got.tgz:570355.got - 2010.06.03 11:33:40.
