data_PCOD9059536
_publ_section_title
;
Structure prediction by ZEFSAII (Michael W. Deem and Ramdas Pophale) SiO2 
 PCOD9059536
Probable space group: P -1
;
_chemical_formula_sum "Si O2"
_cell_formula_units_Z 16
_cell_length_a 15.000463
_cell_length_b 12.233927
_cell_length_c 8.734175
_cell_angle_alpha 51.320143
_cell_angle_beta 52.006969
_cell_angle_gamma 39.124635
_cell_volume 761.246453
_symmetry_space_group_name_H-M "P -1"
_symmetry_group_IT_number 2
_symmetry_cell_setting 'triclinic'
loop_
_space_group_symop_operation_xyz
x,y,z
-x,-y,-z
loop_
_atom_site_type_symbol
_atom_site_label
_atom_site_fract_x
_atom_site_fract_y
_atom_site_fract_z
Si Si1 0.079379 0.817612 0.476414
Si Si2 0.842119 0.552740 0.567230
Si Si3 0.610018 0.799074 0.994332
Si Si4 0.912563 0.673418 0.679602
Si Si5 0.121523 0.794537 0.103040
Si Si6 0.603695 0.531306 0.443676
Si Si7 0.479142 0.162860 0.296765
Si Si8 0.583109 0.332238 0.174419
O O1 0.139595 0.813169 0.248581
O O2 0.227022 0.647063 0.553194
O O3 0.957597 0.792849 0.584922
O O4 0.000000 0.000000 0.500000
O O5 0.857621 0.668395 0.569903
O O6 0.901615 0.356290 0.742941
O O7 0.672641 0.658659 0.631187
O O8 0.924503 0.519546 0.349640
O O9 0.603408 0.668606 0.219918
O O10 0.778823 0.719599 0.878524
O O11 0.551460 0.817287 0.868371
O O12 0.500000 0.000000 0.000000
O O13 0.262179 0.716656 0.918550
O O14 0.000000 0.000000 0.000000
O O15 0.500000 0.500000 0.500000
O O16 0.515145 0.620345 0.616938
O O17 0.606600 0.167700 0.205400
O O18 0.500000 0.000000 0.500000
O O19 0.500000 0.500000 0.000000
#
# Coordination Sequence:
#
# PCOD9059536 Si02
#       8
#     2   2   2   2   2   2   2   2
#     4  11  26  45  68 107 144 182 237 291 358 430
#     4   9  19  41  68  98 136 173 237 289 340 413
#     4  11  26  43  68 105 144 183 232 286 362 427
#     4   9  21  41  69  91 139 179 226 281 352 405
#     4  11  25  41  71 106 135 183 238 292 354 414
#     4  12  28  45  72 100 143 192 232 293 365 415
#     4  11  23  41  71 104 134 181 240 290 346 418
#     4  12  22  45  73  96 138 184 244 294 343 421
#
# _framework density 21.018160000000002
#
# number of rings (size 3 to 8) (size 9 to 14) (size 15 to 20)
#    0.000    1.250    2.500    2.250    5.250    6.500 
#    0.000    0.000    0.000    0.000    0.000    0.000 
#    0.000    0.000    0.000    0.000    0.000    0.000 
#
# Total GULP energy -89124.291714 kJ/mol
# GULP energy per Si atom -5570.268232 kJ/mol
# Density = 2.097032 g / cm^3
# Si number density = 21.018160 Si / 1000 Ang^3
#
#
#
# Elastic Constant Matrix: (Units=GPa)
#
#
# Indices 1 2 3 4 5 6 
#
# 1 125.2565 47.4715 62.3727 -2.1538 -15.9326 20.1502
# 2 47.4715 118.6606 80.1889 1.3132 -5.0452 -1.8912
# 3 62.3727 80.1889 165.8523 0.2158 -11.5884 -2.9787
# 4 -2.1538 1.3132 0.2158 49.8048 -6.0768 4.8493
# 5 -15.9326 -5.0452 -11.5884 -6.0768 41.9867 -1.3895
# 6 20.1502 -1.8912 -2.9787 4.8493 -1.3895 32.7775
#
#
#
# Elastic Compliance Matrix: (Units=1/GPa)
#
#
# Indices 1 2 3 4 5 6 
#
# 1 0.012459 -0.002799 -0.003239 0.001855 0.003493 -0.008242
# 2 -0.002799 0.013154 -0.005339 -0.000768 -0.000998 0.002066
# 3 -0.003239 -0.005339 0.009942 -0.000187 0.000934 0.002654
# 4 0.001855 -0.000768 -0.000187 0.021008 0.003463 -0.004163
# 5 0.003493 -0.000998 0.000934 0.003463 0.025731 -0.001542
# 6 -0.008242 0.002066 0.002654 -0.004163 -0.001542 0.036486
#
#
# Mechanical properties :
#
#
# Convention : Reuss Voigt Hill
#
# Bulk Modulus (GPa) = 78.11263 87.75948 82.93606
# Shear Modulus (GPa) = 34.29337 39.56288 36.92813
#
# Velocity S-wave (km/s) = 4.04370 4.34328 4.19616
# Velocity P-wave (km/s) = 7.68421 8.18516 7.93864
#
# Compressibility (1/GPa) = 0.01280203
#
# Stress axis : x y z
#
# Youngs Moduli (GPa) = 80.26131 76.02125 100.58448
#
# Poissons Ratio (x) = 0.21281 0.32574
# Poissons Ratio (y) = 0.22468 0.53701
# Poissons Ratio (z) = 0.25993 0.40587
#
# Static dielectric constant tensor:
#      x y z
#    x 1.848550 0.055430 -0.095560 
#    y 0.055430 1.855610 -0.074020 
#    z -0.095560 -0.074020 1.880420 
# 
# From -- ./inp_files/306436.got.cif
#   From: 2010.05.17/outbox.cif.g08.bks.cpg/sg2_154_cif.got.tgz:306436.got - 2010.06.03 11:33:40.
