data_PCOD9059677
_publ_section_title
;
Structure prediction by ZEFSAII (Michael W. Deem and Ramdas Pophale) SiO2 
 PCOD9059677
Probable space group: P -1
;
_chemical_formula_sum "Si O2"
_cell_formula_units_Z 15
_cell_length_a 25.630003
_cell_length_b 11.901641
_cell_length_c 16.991088
_cell_angle_alpha 146.453770
_cell_angle_beta 162.718452
_cell_angle_gamma 26.254706
_cell_volume 670.668018
_symmetry_space_group_name_H-M "P -1"
_symmetry_group_IT_number 2
_symmetry_cell_setting 'triclinic'
loop_
_space_group_symop_operation_xyz
x,y,z
-x,-y,-z
loop_
_atom_site_type_symbol
_atom_site_label
_atom_site_fract_x
_atom_site_fract_y
_atom_site_fract_z
Si Si1 0.452257 0.614668 0.084082
Si Si2 0.352948 0.637040 0.512764
Si Si3 0.668500 0.579693 0.065182
Si Si4 0.855559 0.844784 0.558260
Si Si5 0.179216 0.343285 0.292876
Si Si6 0.978404 0.253168 0.095292
Si Si7 0.500000 0.500000 0.500000
Si Si8 0.915642 0.818837 0.085252
O O1 0.633555 0.646802 0.394880
O O2 0.500000 0.500000 0.000000
O O3 0.442294 0.440566 0.030475
O O4 0.212993 0.893497 0.903748
O O5 0.475575 0.393563 0.490720
O O6 0.142513 0.711391 0.301880
O O7 0.275972 0.845511 0.451221
O O8 0.509092 0.646210 0.801876
O O9 0.722052 0.775025 0.274869
O O10 0.905193 0.302494 0.225201
O O11 0.912809 0.723485 0.656678
O O12 0.100158 0.240826 0.184908
O O13 0.982095 0.629920 0.143588
O O14 0.235606 0.186319 0.201201
O O15 0.717235 0.473261 0.834209
O O16 0.000000 0.000000 0.000000
#
# Coordination Sequence:
#
# PCOD9059677 Si02
#       8
#     2   2   2   2   2   2   1   2
#     4  12  26  47  69 101 140 189 234 285 344 413
#     4  12  22  45  69 101 136 179 225 283 348 404
#     4  11  24  42  68  96 134 183 230 275 340 412
#     4  11  23  42  66  98 136 180 227 278 339 405
#     4  11  25  45  70 105 135 184 233 285 349 416
#     4  12  24  43  69 102 140 173 223 289 343 412
#     4  12  24  38  70 108 136 170 222 282 346 408
#     4  11  24  46  72  99 140 181 236 284 347 417
#
# _framework density 22.365760000000002
#
# number of rings (size 3 to 8) (size 9 to 14) (size 15 to 20)
#    0.000    0.533    6.667    1.600    0.000    1.600 
#    2.400    0.000    0.000    0.000    0.000    0.000 
#    0.000    0.000    0.000    0.000    0.000    0.000 
#
# Total GULP energy -83639.888064 kJ/mol
# GULP energy per Si atom -5575.992538 kJ/mol
# Density = 2.231485 g / cm^3
# Si number density = 22.365760 Si / 1000 Ang^3
#
#
#
# Elastic Constant Matrix: (Units=GPa)
#
#
# Indices 1 2 3 4 5 6 
#
# 1 155.3517 26.4860 49.8882 -2.2371 -21.7771 8.6860
# 2 26.4860 33.0476 17.0849 -1.1290 -2.7186 3.8258
# 3 49.8882 17.0849 146.1387 11.8668 -17.7155 2.3028
# 4 -2.2371 -1.1290 11.8668 18.4901 -3.1801 -6.8906
# 5 -21.7771 -2.7186 -17.7155 -3.1801 45.3679 4.0236
# 6 8.6860 3.8258 2.3028 -6.8906 4.0236 31.6902
#
#
#
# Elastic Compliance Matrix: (Units=1/GPa)
#
#
# Indices 1 2 3 4 5 6 
#
# 1 0.008572 -0.005294 -0.002050 0.002020 0.003275 -0.001538
# 2 -0.005294 0.036131 -0.002706 0.002346 -0.001085 -0.002067
# 3 -0.002050 -0.002706 0.008605 -0.006095 0.001902 -0.001303
# 4 0.002020 0.002346 -0.006095 0.063645 0.002022 0.013188
# 5 0.003275 -0.001085 0.001902 0.002022 0.024753 -0.003608
# 6 -0.001538 -0.002067 -0.001303 0.013188 -0.003608 0.035647
#
#
# Mechanical properties :
#
#
# Convention : Reuss Voigt Hill
#
# Bulk Modulus (GPa) = 30.11328 57.93957 44.02642
# Shear Modulus (GPa) = 23.97810 35.18155 29.57983
#
# Velocity S-wave (km/s) = 3.27783 3.97042 3.64063
# Velocity P-wave (km/s) = 5.27435 6.85425 6.11553
#
# Compressibility (1/GPa) = 0.03320794
#
# Stress axis : x y z
#
# Youngs Moduli (GPa) = 116.65804 27.67682 116.20974
#
# Poissons Ratio (x) = 0.14651 0.23825
# Poissons Ratio (y) = 0.61755 0.31451
# Poissons Ratio (z) = 0.23917 0.07490
#
# Static dielectric constant tensor:
#      x y z
#    x 1.639810 0.243570 -0.061080 
#    y 0.243570 1.529640 0.077750 
#    z -0.061080 0.077750 1.840390 
# 
# From -- ./inp_files/542893.got.cif
#   From: 2010.05.17/outbox.cif.g08.bks.cpg/sg2_272_cif.got.tgz:542893.got - 2010.06.03 11:33:40.
