data_PCOD9059964
_publ_section_title
;
Structure prediction by ZEFSAII (Michael W. Deem and Ramdas Pophale) SiO2 
 PCOD9059964
Probable space group: P -1
;
_chemical_formula_sum "Si O2"
_cell_formula_units_Z 16
_cell_length_a 11.019953
_cell_length_b 19.240847
_cell_length_c 7.936517
_cell_angle_alpha 132.451801
_cell_angle_beta 126.704946
_cell_angle_gamma 32.063250
_cell_volume 657.717907
_symmetry_space_group_name_H-M "P -1"
_symmetry_group_IT_number 2
_symmetry_cell_setting 'triclinic'
loop_
_space_group_symop_operation_xyz
x,y,z
-x,-y,-z
loop_
_atom_site_type_symbol
_atom_site_label
_atom_site_fract_x
_atom_site_fract_y
_atom_site_fract_z
Si Si1 0.214781 0.038453 0.681981
Si Si2 0.567133 0.812913 0.336554
Si Si3 0.056241 0.494358 0.730220
Si Si4 0.259771 0.843166 0.602327
Si Si5 0.247546 0.608725 0.551530
Si Si6 0.393789 0.454973 0.767888
Si Si7 0.228171 0.830865 0.925134
Si Si8 0.147139 0.260661 0.831759
O O1 0.157228 0.175489 0.845352
O O2 0.993899 0.084448 0.501699
O O3 0.436721 0.924781 0.561797
O O4 0.259675 0.954957 0.748657
O O5 0.809658 0.656320 0.333168
O O6 0.628437 0.843995 0.272719
O O7 0.401827 0.802655 0.142886
O O8 0.235593 0.494768 0.852941
O O9 0.000000 0.500000 0.500000
O O10 0.871648 0.627395 0.916318
O O11 0.420213 0.712871 0.392032
O O12 0.341610 0.781709 0.755134
O O13 0.500000 0.500000 0.500000
O O14 0.269486 0.534494 0.615820
O O15 0.177891 0.745958 0.782078
O O16 0.068617 0.662019 0.344319
O O17 0.500000 0.500000 0.000000
O O18 0.000000 0.000000 0.000000
#
# Coordination Sequence:
#
# PCOD9059964 Si02
#       8
#     2   2   2   2   2   2   2   2
#     4  11  23  45  70 104 140 187 228 293 352 428
#     4  12  25  45  73 101 145 188 236 292 359 427
#     4  12  28  47  67 102 141 190 238 288 364 421
#     4  11  23  42  72 100 146 177 237 288 357 406
#     4  12  23  42  71 102 140 182 244 294 349 414
#     4  12  24  42  72 105 137 182 236 296 351 416
#     4  12  24  42  69 108 139 185 236 288 357 423
#     4  12  26  47  70 106 142 188 240 296 352 427
#
# _framework density 24.326539
#
# number of rings (size 3 to 8) (size 9 to 14) (size 15 to 20)
#    0.000    0.250    5.000    4.500    1.750    1.000 
#    0.000    3.750    0.000    0.000    0.000    0.000 
#    0.000    0.000    0.000    0.000    0.000    0.000 
#
# Total GULP energy -89523.148727 kJ/mol
# GULP energy per Si atom -5595.196795 kJ/mol
# Density = 2.427117 g / cm^3
# Si number density = 24.326539 Si / 1000 Ang^3
#
#
#
# Elastic Constant Matrix: (Units=GPa)
#
#
# Indices 1 2 3 4 5 6 
#
# 1 87.8433 21.7096 -13.8663 16.5421 -1.4376 9.1809
# 2 21.7096 81.2389 29.0498 22.0993 13.9933 17.2207
# 3 -13.8663 29.0498 53.9055 6.9048 6.7213 -3.8588
# 4 16.5421 22.0993 6.9048 39.3487 -3.5128 -2.5122
# 5 -1.4376 13.9933 6.7213 -3.5128 29.0069 4.9575
# 6 9.1809 17.2207 -3.8588 -2.5122 4.9575 46.4647
#
#
#
# Elastic Compliance Matrix: (Units=1/GPa)
#
#
# Indices 1 2 3 4 5 6 
#
# 1 0.014721 -0.005312 0.006998 -0.004367 0.001266 -0.000730
# 2 -0.005312 0.024607 -0.012763 -0.010707 -0.008978 -0.008751
# 3 0.006998 -0.012763 0.027808 -0.000374 -0.000966 0.005740
# 4 -0.004367 -0.010707 -0.000374 0.034432 0.008217 0.005785
# 5 0.001266 -0.008978 -0.000966 0.008217 0.040233 -0.000852
# 6 -0.000730 -0.008751 0.005740 0.005785 -0.000852 0.025790
#
#
# Mechanical properties :
#
#
# Convention : Reuss Voigt Hill
#
# Bulk Modulus (GPa) = 22.23023 32.97486 27.60254
# Shear Modulus (GPa) = 24.42171 35.37038 29.89604
#
# Velocity S-wave (km/s) = 3.17189 3.81725 3.50944
# Velocity P-wave (km/s) = 4.75107 5.74570 5.27189
#
# Compressibility (1/GPa) = 0.04498380
#
# Stress axis : x y z
#
# Youngs Moduli (GPa) = 67.93120 40.63939 35.96064
#
# Poissons Ratio (x) = 0.21587 -0.25167
# Poissons Ratio (y) = 0.36084 0.45895
# Poissons Ratio (z) = -0.47541 0.51866
#
# Static dielectric constant tensor:
#      x y z
#    x 1.939820 -0.017880 0.013320 
#    y -0.017880 1.997250 -0.009560 
#    z 0.013320 -0.009560 1.960520 
# 
# From -- ./inp_files/205152.got.cif
#   From: 2010.05.17/outbox.cif.g08.bks.cpg/sg2_103_cif.got.tgz:205152.got - 2010.06.03 11:33:40.
