data_PCOD9059543
_publ_section_title
;
Structure prediction by ZEFSAII (Michael W. Deem and Ramdas Pophale) SiO2 
 PCOD9059543
Probable space group: P -1
;
_chemical_formula_sum "Si O2"
_cell_formula_units_Z 14
_cell_length_a 19.849380
_cell_length_b 11.230486
_cell_length_c 6.316351
_cell_angle_alpha 66.369306
_cell_angle_beta 66.006353
_cell_angle_gamma 27.526729
_cell_volume 591.802551
_symmetry_space_group_name_H-M "P -1"
_symmetry_group_IT_number 2
_symmetry_cell_setting 'triclinic'
loop_
_space_group_symop_operation_xyz
x,y,z
-x,-y,-z
loop_
_atom_site_type_symbol
_atom_site_label
_atom_site_fract_x
_atom_site_fract_y
_atom_site_fract_z
Si Si1 0.655446 0.992072 0.533857
Si Si2 0.338149 0.283304 0.094815
Si Si3 0.173403 0.927569 0.342177
Si Si4 0.452913 0.663132 0.242536
Si Si5 0.075907 0.245447 0.625279
Si Si6 0.955997 0.192268 0.069538
Si Si7 0.599643 0.588487 0.752483
O O1 0.723892 0.751249 0.684302
O O2 0.763242 0.947354 0.382079
O O3 0.572992 0.161998 0.731043
O O4 0.547538 0.144717 0.367078
O O5 0.219680 0.519921 0.911354
O O6 0.344365 0.379967 0.201903
O O7 0.500000 0.000000 0.000000
O O8 0.298826 0.850019 0.205232
O O9 0.289621 0.631950 0.410772
O O10 0.088593 0.126795 0.497772
O O11 0.050211 0.050056 0.263954
O O12 0.500000 0.500000 0.500000
O O13 0.566686 0.522365 0.011007
O O14 0.000000 0.500000 0.500000
O O15 0.010850 0.250371 0.877741
O O16 0.000000 0.000000 0.000000
#
# Coordination Sequence:
#
# PCOD9059543 Si02
#       7
#     2   2   2   2   2   2   2
#     4  11  24  45  72 106 146 190 250 306 372 438
#     4  12  26  48  73 107 149 199 246 311 373 442
#     4  11  26  42  74 109 140 199 246 296 381 435
#     4  11  23  41  71 110 149 185 245 311 367 448
#     4  11  26  48  74 104 146 190 251 307 368 441
#     4  12  27  50  73 107 157 193 247 310 372 448
#     4  12  24  43  72 108 148 193 246 303 379 446
#
# _framework density 23.656538000000001
#
# number of rings (size 3 to 8) (size 9 to 14) (size 15 to 20)
#    0.000    0.571    5.714    1.714    4.000    3.429 
#    2.571    0.000    0.000    0.000    0.000    0.000 
#    0.000    0.000    0.000    0.000    0.000    0.000 
#
# Total GULP energy -78003.484080 kJ/mol
# GULP energy per Si atom -5571.677434 kJ/mol
# Density = 2.360269 g / cm^3
# Si number density = 23.656538 Si / 1000 Ang^3
#
#
#
# Elastic Constant Matrix: (Units=GPa)
#
#
# Indices 1 2 3 4 5 6 
#
# 1 131.8552 13.3522 30.3252 -13.5239 6.7176 -1.5450
# 2 13.3522 90.0218 13.0801 -11.3180 -6.8318 -11.0407
# 3 30.3252 13.0801 58.4685 -15.0734 -11.7149 -2.9154
# 4 -13.5239 -11.3180 -15.0734 31.1276 1.2724 11.0754
# 5 6.7176 -6.8318 -11.7149 1.2724 39.7999 -16.3865
# 6 -1.5450 -11.0407 -2.9154 11.0754 -16.3865 37.6865
#
#
#
# Elastic Compliance Matrix: (Units=1/GPa)
#
#
# Indices 1 2 3 4 5 6 
#
# 1 0.009294 -0.001054 -0.005003 0.002494 -0.004547 -0.003025
# 2 -0.001054 0.012493 -0.000724 0.001880 0.004004 0.004749
# 3 -0.005003 -0.000724 0.023714 0.007647 0.008665 0.002938
# 4 0.002494 0.001880 0.007647 0.042513 -0.004675 -0.013282
# 5 -0.004547 0.004004 0.008665 -0.004675 0.037186 0.019200
# 6 -0.003025 0.004749 0.002938 -0.013282 0.019200 0.040281
#
#
# Mechanical properties :
#
#
# Convention : Reuss Voigt Hill
#
# Bulk Modulus (GPa) = 31.31130 43.76229 37.53679
# Shear Modulus (GPa) = 26.35889 36.62866 31.49378
#
# Velocity S-wave (km/s) = 3.34163 3.93918 3.65265
# Velocity P-wave (km/s) = 5.30596 6.26328 5.80439
#
# Compressibility (1/GPa) = 0.03193736
#
# Stress axis : x y z
#
# Youngs Moduli (GPa) = 107.60132 80.04637 42.16840
#
# Poissons Ratio (x) = 0.08437 0.21099
# Poissons Ratio (y) = 0.11341 0.03054
# Poissons Ratio (z) = 0.53838 0.05797
#
# Static dielectric constant tensor:
#      x y z
#    x 1.921280 -0.083890 -0.076340 
#    y -0.083890 1.966450 -0.030780 
#    z -0.076340 -0.030780 1.831900 
# 
# From -- ./inp_files/118637.got.cif
#   From: 2010.05.17/outbox.cif.g08.bks.cpg/sg2_60_cif.got.tgz:118637.got - 2010.06.03 11:33:40.
