data_PCOD9059515
_publ_section_title
;
Structure prediction by ZEFSAII (Michael W. Deem and Ramdas Pophale) SiO2 
 PCOD9059515
Probable space group: P -1
;
_chemical_formula_sum "Si O2"
_cell_formula_units_Z 14
_cell_length_a 14.329929
_cell_length_b 9.054641
_cell_length_c 14.008277
_cell_angle_alpha 104.653636
_cell_angle_beta 30.254447
_cell_angle_gamma 125.274361
_cell_volume 599.391731
_symmetry_space_group_name_H-M "P -1"
_symmetry_group_IT_number 2
_symmetry_cell_setting 'triclinic'
loop_
_space_group_symop_operation_xyz
x,y,z
-x,-y,-z
loop_
_atom_site_type_symbol
_atom_site_label
_atom_site_fract_x
_atom_site_fract_y
_atom_site_fract_z
Si Si1 0.442222 0.031795 0.297671
Si Si2 0.485108 0.418162 0.893244
Si Si3 0.155420 0.491147 0.937205
Si Si4 0.487824 0.443677 0.677718
Si Si5 0.671522 0.209543 0.456282
Si Si6 0.926095 0.138363 0.586669
Si Si7 0.115859 0.902624 0.169373
O O1 0.543106 0.256113 0.279285
O O2 0.297682 0.853394 0.479933
O O3 0.270767 0.946564 0.340242
O O4 0.723581 0.113400 0.043141
O O5 0.428381 0.454765 0.843539
O O6 0.810641 0.591785 0.615802
O O7 0.500000 0.500000 0.000000
O O8 0.254661 0.149186 0.064576
O O9 0.232918 0.361123 0.831295
O O10 0.000000 0.500000 0.000000
O O11 0.970430 0.402906 0.178813
O O12 0.521578 0.281272 0.613201
O O13 0.790073 0.685443 0.418998
O O14 0.500000 0.000000 0.500000
O O15 0.806763 0.092505 0.789108
O O16 0.000000 0.000000 0.500000
#
# Coordination Sequence:
#
# PCOD9059515 Si02
#       7
#     2   2   2   2   2   2   2
#     4  12  25  47  73 103 154 191 248 312 360 446
#     4  11  23  41  70 111 147 193 247 291 370 447
#     4  12  28  50  74 107 144 195 253 311 373 441
#     4  11  27  49  78 107 152 197 242 311 380 438
#     4  12  27  52  75 114 141 192 260 309 377 440
#     4  11  24  41  67 109 146 196 245 291 369 445
#     4  11  23  45  71 107 150 196 243 296 377 442
#
# _framework density 23.357012000000001
#
# number of rings (size 3 to 8) (size 9 to 14) (size 15 to 20)
#    0.000    0.571    5.714    2.143    2.000    1.714 
#    0.000    0.000    0.000    0.000    0.000    0.000 
#    0.000    0.000    0.000    0.000    0.000    0.000 
#
# Total GULP energy -78135.582255 kJ/mol
# GULP energy per Si atom -5581.113018 kJ/mol
# Density = 2.330385 g / cm^3
# Si number density = 23.357012 Si / 1000 Ang^3
#
#
#
# Elastic Constant Matrix: (Units=GPa)
#
#
# Indices 1 2 3 4 5 6 
#
# 1 119.6000 14.1116 69.4632 6.0268 -2.3815 -16.6899
# 2 14.1116 69.0898 22.3512 3.0643 4.2019 -7.5782
# 3 69.4632 22.3512 100.7731 -7.2189 31.6846 -29.9681
# 4 6.0268 3.0643 -7.2189 44.8132 -8.2303 -1.4524
# 5 -2.3815 4.2019 31.6846 -8.2303 41.8083 -4.4995
# 6 -16.6899 -7.5782 -29.9681 -1.4524 -4.4995 28.8802
#
#
#
# Elastic Compliance Matrix: (Units=1/GPa)
#
#
# Indices 1 2 3 4 5 6 
#
# 1 0.020566 0.001284 -0.022489 -0.003747 0.016407 -0.008746
# 2 0.001284 0.015833 -0.005288 -0.001731 0.002111 -0.000349
# 3 -0.022489 -0.005288 0.044897 0.005892 -0.030631 0.027728
# 4 -0.003747 -0.001731 0.005892 0.024185 0.000777 0.004832
# 5 0.016407 0.002111 -0.030631 0.000777 0.046450 -0.014473
# 6 -0.008746 -0.000349 0.027728 0.004832 -0.014473 0.056240
#
#
# Mechanical properties :
#
#
# Convention : Reuss Voigt Hill
#
# Bulk Modulus (GPa) = 35.32540 55.70166 45.51353
# Shear Modulus (GPa) = 18.47783 35.33614 26.90698
#
# Velocity S-wave (km/s) = 2.81571 3.89378 3.39778
# Velocity P-wave (km/s) = 5.07227 6.64192 5.90944
#
# Compressibility (1/GPa) = 0.02830824
#
# Stress axis : x y z
#
# Youngs Moduli (GPa) = 48.62286 63.16107 22.27333
#
# Poissons Ratio (x) = -0.08109 0.50091
# Poissons Ratio (y) = -0.06242 0.11778
# Poissons Ratio (z) = 1.09350 0.33400
#
# Static dielectric constant tensor:
#      x y z
#    x 1.891200 0.028530 -0.010830 
#    y 0.028530 1.942600 0.032620 
#    z -0.010830 0.032620 1.863060 
# 
# From -- ./inp_files/528712.got.cif
#   From: 2010.05.17/outbox.cif.g08.bks.cpg/sg2_265_cif.got.tgz:528712.got - 2010.06.03 11:33:40.
