data_PCOD9059799
_publ_section_title
;
Structure prediction by ZEFSAII (Michael W. Deem and Ramdas Pophale) SiO2 
 PCOD9059799
Probable space group: P -1
;
_chemical_formula_sum "Si O2"
_cell_formula_units_Z 16
_cell_length_a 14.020997
_cell_length_b 9.082812
_cell_length_c 7.596790
_cell_angle_alpha 106.489779
_cell_angle_beta 47.669807
_cell_angle_gamma 96.618794
_cell_volume 681.857547
_symmetry_space_group_name_H-M "P -1"
_symmetry_group_IT_number 2
_symmetry_cell_setting 'triclinic'
loop_
_space_group_symop_operation_xyz
x,y,z
-x,-y,-z
loop_
_atom_site_type_symbol
_atom_site_label
_atom_site_fract_x
_atom_site_fract_y
_atom_site_fract_z
Si Si1 0.707726 0.825273 0.915583
Si Si2 0.247130 0.800639 0.299372
Si Si3 0.401103 0.854784 0.766939
Si Si4 0.015854 0.311908 0.389810
Si Si5 0.645372 0.521120 0.801242
Si Si6 0.685075 0.881113 0.561795
Si Si7 0.644447 0.457843 0.386742
Si Si8 0.887244 0.612017 0.077380
O O1 0.859927 0.778383 0.700941
O O2 0.664579 0.659997 0.955786
O O3 0.651130 0.863495 0.804962
O O4 0.660071 0.971655 0.140764
O O5 0.275422 0.636779 0.301215
O O6 0.097433 0.787459 0.441109
O O7 0.276382 0.944386 0.432193
O O8 0.335215 0.809075 0.018541
O O9 0.555450 0.854521 0.604966
O O10 0.357662 0.725396 0.647240
O O11 0.000000 0.500000 0.500000
O O12 0.046373 0.312304 0.144410
O O13 0.662019 0.541435 0.579266
O O14 0.500000 0.500000 0.000000
O O15 0.808296 0.759456 0.321075
O O16 0.500000 0.500000 0.500000
O O17 0.769904 0.505571 0.141008
O O18 0.000000 0.500000 0.000000
#
# Coordination Sequence:
#
# PCOD9059799 Si02
#       8
#     2   2   2   2   2   2   2   2
#     4  11  23  42  69 100 139 180 226 285 343 409
#     4  11  24  43  70  99 138 184 228 282 350 416
#     4  11  24  45  71 104 141 178 232 290 351 407
#     4  12  25  43  67  99 139 182 237 282 336 416
#     4  12  23  40  69  99 133 179 226 278 347 408
#     4  11  23  46  68 101 141 181 228 289 356 409
#     4  12  24  43  69 102 137 182 233 286 346 411
#     4  12  26  45  71  98 145 188 228 285 354 419
#
# _framework density 23.465312000000001
#
# number of rings (size 3 to 8) (size 9 to 14) (size 15 to 20)
#    0.000    0.500    3.750    6.000    1.750    4.500 
#    0.000    1.875    0.000    0.000    0.000    0.000 
#    0.000    0.000    0.000    0.000    0.000    0.000 
#
# Total GULP energy -89325.726249 kJ/mol
# GULP energy per Si atom -5582.857891 kJ/mol
# Density = 2.341190 g / cm^3
# Si number density = 23.465312 Si / 1000 Ang^3
#
#
#
# Elastic Constant Matrix: (Units=GPa)
#
#
# Indices 1 2 3 4 5 6 
#
# 1 38.5280 19.5157 -3.7700 -9.7146 -24.6997 2.7169
# 2 19.5157 126.3184 14.2276 26.9160 -4.1406 18.4093
# 3 -3.7700 14.2276 68.5869 -4.0945 -7.3423 1.6195
# 4 -9.7146 26.9160 -4.0945 47.1417 -0.4107 2.5033
# 5 -24.6997 -4.1406 -7.3423 -0.4107 48.0919 -3.9868
# 6 2.7169 18.4093 1.6195 2.5033 -3.9868 35.3540
#
#
#
# Elastic Compliance Matrix: (Units=1/GPa)
#
#
# Indices 1 2 3 4 5 6 
#
# 1 0.060132 -0.014811 0.010982 0.021833 0.031856 0.004634
# 2 -0.014811 0.013733 -0.005018 -0.011085 -0.007772 -0.005875
# 3 0.010982 -0.005018 0.017449 0.006639 0.008045 0.001407
# 4 0.021833 -0.011085 0.006639 0.032571 0.011784 0.002813
# 5 0.031856 -0.007772 0.008045 0.011784 0.038204 0.004704
# 6 0.004634 -0.005875 0.001407 0.002813 0.004704 0.031255
#
#
# Mechanical properties :
#
#
# Convention : Reuss Voigt Hill
#
# Bulk Modulus (GPa) = 13.58307 32.59777 23.09042
# Shear Modulus (GPa) = 21.22437 39.68152 30.45294
#
# Velocity S-wave (km/s) = 3.01075 4.11673 3.60639
# Velocity P-wave (km/s) = 4.22934 6.04306 5.21565
#
# Compressibility (1/GPa) = 0.07362105
#
# Stress axis : x y z
#
# Youngs Moduli (GPa) = 16.63001 72.81622 57.30991
#
# Poissons Ratio (x) = 1.07845 -0.62936
# Poissons Ratio (y) = 0.24630 0.28758
# Poissons Ratio (z) = -0.18263 0.36539
#
# Static dielectric constant tensor:
#      x y z
#    x 1.877490 -0.007300 -0.059850 
#    y -0.007300 1.948320 -0.015290 
#    z -0.059850 -0.015290 2.098050 
# 
# From -- ./inp_files/299045.got.cif
#   From: 2010.05.17/outbox.cif.g08.bks.cpg/sg2_150_cif.got.tgz:299045.got - 2010.06.03 11:33:40.
