data_PCOD9059036
_publ_section_title
;
Structure prediction by ZEFSAII (Michael W. Deem and Ramdas Pophale) SiO2 
 PCOD9059036
Probable space group: P -1
;
_chemical_formula_sum "Si O2"
_cell_formula_units_Z 16
_cell_length_a 14.291032
_cell_length_b 5.528208
_cell_length_c 18.200575
_cell_angle_alpha 81.122279
_cell_angle_beta 149.324522
_cell_angle_gamma 107.984868
_cell_volume 679.163672
_symmetry_space_group_name_H-M "P -1"
_symmetry_group_IT_number 2
_symmetry_cell_setting 'triclinic'
loop_
_space_group_symop_operation_xyz
x,y,z
-x,-y,-z
loop_
_atom_site_type_symbol
_atom_site_label
_atom_site_fract_x
_atom_site_fract_y
_atom_site_fract_z
Si Si1 0.294011 0.264365 0.589599
Si Si2 0.629422 0.229853 0.627854
Si Si3 0.219417 0.683905 0.622546
Si Si4 0.099050 0.053971 0.919986
Si Si5 0.457373 0.425198 0.059186
Si Si6 0.232700 0.282151 0.386891
Si Si7 0.027716 0.776592 0.046814
Si Si8 0.318879 0.638792 0.087134
O O1 0.274883 0.522752 0.601757
O O2 0.178220 0.229335 0.436942
O O3 0.529546 0.338166 0.746369
O O4 0.227022 0.977004 0.596048
O O5 0.463881 0.330792 0.543359
O O6 0.779427 0.455047 0.668889
O O7 0.751993 0.153599 0.776254
O O8 0.500000 0.000000 0.500000
O O9 0.375797 0.678376 0.790985
O O10 0.000000 0.500000 0.500000
O O11 0.001471 0.940705 0.947112
O O12 0.240675 0.229165 0.939684
O O13 0.893574 0.942594 0.741735
O O14 0.224752 0.856140 0.016667
O O15 0.445118 0.649207 0.098055
O O16 0.500000 0.500000 0.000000
O O17 0.854892 0.651837 0.007675
O O18 0.000000 0.500000 0.000000
#
# Coordination Sequence:
#
# PCOD9059036 Si02
#       8
#     2   2   2   2   2   2   2   2
#     4  11  25  45  71 101 140 183 227 286 355 412
#     4  11  23  40  63  96 144 173 237 290 335 427
#     4  11  25  45  71 105 139 174 235 291 345 427
#     4   8  19  39  62  94 133 168 238 269 344 412
#     4   8  18  39  67  92 137 174 223 281 349 404
#     4  11  25  39  67 101 133 189 229 285 359 402
#     4   9  19  36  67  89 135 177 226 283 350 399
#     4   7  19  38  62  92 133 169 232 270 338 414
#
# _framework density 23.558385999999999
#
# number of rings (size 3 to 8) (size 9 to 14) (size 15 to 20)
#    1.500    0.750    1.250    0.375    5.250    3.000 
#    2.250    3.750    0.000    0.000    0.000    0.000 
#    0.000    0.000    0.000    0.000    0.000    0.000 
#
# Total GULP energy -89172.211202 kJ/mol
# GULP energy per Si atom -5573.263200 kJ/mol
# Density = 2.350477 g / cm^3
# Si number density = 23.558386 Si / 1000 Ang^3
#
#
#
# Elastic Constant Matrix: (Units=GPa)
#
#
# Indices 1 2 3 4 5 6 
#
# 1 129.6186 27.3921 44.9601 -1.9385 -22.1676 10.8332
# 2 27.3921 114.5261 24.0055 10.0607 -3.5785 -1.2374
# 3 44.9601 24.0055 158.5900 7.8609 -13.4657 12.5451
# 4 -1.9385 10.0607 7.8609 37.9551 -1.3612 9.1228
# 5 -22.1676 -3.5785 -13.4657 -1.3612 52.5793 -1.1408
# 6 10.8332 -1.2374 12.5451 9.1228 -1.1408 38.5350
#
#
#
# Elastic Compliance Matrix: (Units=1/GPa)
#
#
# Indices 1 2 3 4 5 6 
#
# 1 0.009680 -0.001996 -0.002060 0.002181 0.003419 -0.002530
# 2 -0.001996 0.009669 -0.000938 -0.002934 -0.000459 0.001858
# 3 -0.002060 -0.000938 0.007277 -0.000955 0.000873 -0.001568
# 4 0.002181 -0.002934 -0.000955 0.029223 0.001074 -0.007283
# 5 0.003419 -0.000459 0.000873 0.001074 0.020661 -0.000903
# 6 -0.002530 0.001858 -0.001568 -0.007283 -0.000903 0.028929
#
#
# Mechanical properties :
#
#
# Convention : Reuss Voigt Hill
#
# Bulk Modulus (GPa) = 60.10150 66.16113 63.13131
# Shear Modulus (GPa) = 41.33168 46.23902 43.78535
#
# Velocity S-wave (km/s) = 4.19314 4.43509 4.31581
# Velocity P-wave (km/s) = 7.00074 7.37371 7.18964
#
# Compressibility (1/GPa) = 0.01663852
#
# Stress axis : x y z
#
# Youngs Moduli (GPa) = 103.30611 103.42289 137.41795
#
# Poissons Ratio (x) = 0.20638 0.28306
# Poissons Ratio (y) = 0.20615 0.12895
# Poissons Ratio (z) = 0.21279 0.09705
#
# Static dielectric constant tensor:
#      x y z
#    x 2.050920 -0.047350 -0.023470 
#    y -0.047350 1.978850 0.028240 
#    z -0.023470 0.028240 1.872810 
# 
# From -- ./inp_files/571706.got.cif
#   From: 2010.05.17/outbox.cif.g08.bks.cpg/sg2_286_cif.got.tgz:571706.got - 2010.06.03 11:33:40.
