data_PCOD9059258
_publ_section_title
;
Structure prediction by ZEFSAII (Michael W. Deem and Ramdas Pophale) SiO2 
 PCOD9059258
Probable space group: P -1
;
_chemical_formula_sum "Si O2"
_cell_formula_units_Z 16
_cell_length_a 18.985792
_cell_length_b 12.692573
_cell_length_c 22.150384
_cell_angle_alpha 30.020104
_cell_angle_beta 17.384505
_cell_angle_gamma 39.367345
_cell_volume 745.651490
_symmetry_space_group_name_H-M "P -1"
_symmetry_group_IT_number 2
_symmetry_cell_setting 'triclinic'
loop_
_space_group_symop_operation_xyz
x,y,z
-x,-y,-z
loop_
_atom_site_type_symbol
_atom_site_label
_atom_site_fract_x
_atom_site_fract_y
_atom_site_fract_z
Si Si1 0.219002 0.952569 0.776785
Si Si2 0.033964 0.077861 0.696762
Si Si3 0.022190 0.577797 0.772113
Si Si4 0.216570 0.754595 0.398970
Si Si5 0.459640 0.249186 0.673693
Si Si6 0.419941 0.935108 0.750211
Si Si7 0.200225 0.099266 0.148989
Si Si8 0.032986 0.333081 0.680914
O O1 0.264781 0.972944 0.801288
O O2 0.500000 0.000000 0.500000
O O3 0.122237 0.138083 0.734142
O O4 0.050820 0.692041 0.028636
O O5 0.974913 0.041834 0.691947
O O6 0.311024 0.072220 0.484487
O O7 0.026240 0.292354 0.635000
O O8 0.804016 0.875028 0.015746
O O9 0.036556 0.635565 0.660639
O O10 0.298940 0.727865 0.494986
O O11 0.840953 0.669500 0.914586
O O12 0.202335 0.572995 0.448356
O O13 0.146138 0.950054 0.327842
O O14 0.509575 0.850998 0.130587
O O15 0.500000 0.500000 0.500000
O O16 0.467540 0.127576 0.665165
O O17 0.243345 0.716883 0.039717
#
# Coordination Sequence:
#
# PCOD9059258 Si02
#       8
#     2   2   2   2   2   2   2   2
#     4  12  24  40  67  98 133 169 212 262 323 392
#     4  11  23  44  62  94 132 165 216 267 322 381
#     4  12  23  44  67  97 130 171 216 264 326 386
#     4  11  25  45  69  93 127 173 222 271 322 371
#     4  11  25  39  63  96 132 173 208 261 329 390
#     4  11  23  41  61  91 134 169 207 264 318 391
#     4  11  25  45  68  95 127 171 223 275 314 378
#     4  11  24  43  66  96 130 173 212 261 326 390
#
# _framework density 21.457746
#
# number of rings (size 3 to 8) (size 9 to 14) (size 15 to 20)
#    0.000    0.750    5.000    3.000    1.750    2.000 
#    0.000    0.625    0.000    0.000    0.000    0.000 
#    0.000    0.000    0.000    0.000    0.000    0.000 
#
# Total GULP energy -89373.147408 kJ/mol
# GULP energy per Si atom -5585.821713 kJ/mol
# Density = 2.140891 g / cm^3
# Si number density = 21.457746 Si / 1000 Ang^3
#
#
#
# Elastic Constant Matrix: (Units=GPa)
#
#
# Indices 1 2 3 4 5 6 
#
# 1 84.2188 26.2745 7.8254 -3.7704 -21.1479 22.3023
# 2 26.2745 49.2912 14.8188 -1.8766 -4.1317 3.3191
# 3 7.8254 14.8188 56.7647 15.7995 -15.8518 2.9786
# 4 -3.7704 -1.8766 15.7995 37.5008 8.0958 -3.1286
# 5 -21.1479 -4.1317 -15.8518 8.0958 37.8754 0.7094
# 6 22.3023 3.3191 2.9786 -3.1286 0.7094 26.5595
#
#
#
# Elastic Compliance Matrix: (Units=1/GPa)
#
#
# Indices 1 2 3 4 5 6 
#
# 1 0.025180 -0.013178 0.008158 -0.007264 0.017996 -0.021749
# 2 -0.013178 0.029595 -0.011854 0.008372 -0.011067 0.009979
# 3 0.008158 -0.011854 0.030903 -0.018133 0.020287 -0.011512
# 4 -0.007264 0.008372 -0.018133 0.039188 -0.019337 0.012220
# 5 0.017996 -0.011067 0.020287 -0.019337 0.048234 -0.019570
# 6 -0.021749 0.009979 -0.011512 0.012220 -0.019570 0.057920
#
#
# Mechanical properties :
#
#
# Convention : Reuss Voigt Hill
#
# Bulk Modulus (GPa) = 19.25692 32.01247 25.63469
# Shear Modulus (GPa) = 17.72556 29.81088 23.76822
#
# Velocity S-wave (km/s) = 2.87726 3.73135 3.33179
# Velocity P-wave (km/s) = 4.47571 5.78923 5.17432
#
# Compressibility (1/GPa) = 0.05192938
#
# Stress axis : x y z
#
# Youngs Moduli (GPa) = 39.71353 33.78942 32.35967
#
# Poissons Ratio (x) = 0.44529 -0.26398
# Poissons Ratio (y) = 0.52336 0.38358
# Poissons Ratio (z) = -0.32397 0.40053
#
# Static dielectric constant tensor:
#      x y z
#    x 1.804980 -0.028120 0.021140 
#    y -0.028120 1.792580 0.081700 
#    z 0.021140 0.081700 1.734530 
# 
# From -- ./inp_files/427635.got.cif
#   From: 2010.05.17/outbox.cif.g08.bks.cpg/sg2_214_cif.got.tgz:427635.got - 2010.06.03 11:33:40.
