data_PCOD9059713
_publ_section_title
;
Structure prediction by ZEFSAII (Michael W. Deem and Ramdas Pophale) SiO2 
 PCOD9059713
Probable space group: P -1
;
_chemical_formula_sum "Si O2"
_cell_formula_units_Z 13
_cell_length_a 11.728245
_cell_length_b 8.179365
_cell_length_c 12.581839
_cell_angle_alpha 107.155387
_cell_angle_beta 120.138129
_cell_angle_gamma 123.133009
_cell_volume 540.118082
_symmetry_space_group_name_H-M "P -1"
_symmetry_group_IT_number 2
_symmetry_cell_setting 'triclinic'
loop_
_space_group_symop_operation_xyz
x,y,z
-x,-y,-z
loop_
_atom_site_type_symbol
_atom_site_label
_atom_site_fract_x
_atom_site_fract_y
_atom_site_fract_z
Si Si1 0.760207 0.227431 0.560966
Si Si2 0.602486 0.417921 0.844390
Si Si3 0.045110 0.367891 0.437422
Si Si4 0.338574 0.123535 0.020421
Si Si5 0.244076 0.536416 0.847340
Si Si6 0.961938 0.614329 0.923384
Si Si7 0.000000 0.000000 0.500000
O O1 0.729542 0.339334 0.477758
O O2 0.755953 0.318078 0.688879
O O3 0.040494 0.460995 0.739874
O O4 0.601884 0.895573 0.383414
O O5 0.854623 0.655949 0.947247
O O6 0.550454 0.562748 0.859543
O O7 0.623902 0.348823 0.955175
O O8 0.051696 0.232458 0.502855
O O9 0.000000 0.500000 0.500000
O O10 0.847410 0.088268 0.205384
O O11 0.550183 0.227131 0.101979
O O12 0.194935 0.922987 0.022296
O O13 0.097244 0.201879 0.693004
O O14 0.000000 0.500000 0.000000
#
# Coordination Sequence:
#
# PCOD9059713 Si02
#       7
#     2   2   2   2   2   2   1
#     4  11  25  46  74 108 148 193 247 308 374 435
#     4  12  24  48  77 103 150 198 249 304 372 447
#     4  11  23  42  67 106 150 189 241 298 374 437
#     4  11  26  44  73 109 146 198 241 310 377 437
#     4  12  24  43  75 108 148 185 248 306 370 443
#     4  11  25  48  72 104 145 199 253 299 369 444
#     4  12  24  42  68 110 152 188 238 306 366 448
#
# _framework density 24.068812000000001
#
# number of rings (size 3 to 8) (size 9 to 14) (size 15 to 20)
#    0.000    0.615    4.615    3.231    0.000    3.692 
#    0.000    0.769    0.000    0.000    0.000    0.000 
#    0.000    0.000    0.000    0.000    0.000    0.000 
#
# Total GULP energy -72453.930982 kJ/mol
# GULP energy per Si atom -5573.379306 kJ/mol
# Density = 2.401403 g / cm^3
# Si number density = 24.068812 Si / 1000 Ang^3
#
#
#
# Elastic Constant Matrix: (Units=GPa)
#
#
# Indices 1 2 3 4 5 6 
#
# 1 124.9439 41.0904 6.2390 -0.8145 -5.6825 -2.1078
# 2 41.0904 158.3223 23.6144 -21.8992 -2.1020 -15.4743
# 3 6.2390 23.6144 62.4839 -6.5499 -23.0985 -5.8253
# 4 -0.8145 -21.8992 -6.5499 36.8229 -0.2712 -9.1759
# 5 -5.6825 -2.1020 -23.0985 -0.2712 46.7394 8.8164
# 6 -2.1078 -15.4743 -5.8253 -9.1759 8.8164 51.9425
#
#
#
# Elastic Compliance Matrix: (Units=1/GPa)
#
#
# Indices 1 2 3 4 5 6 
#
# 1 0.008887 -0.002636 0.000345 -0.001518 0.001288 -0.000873
# 2 -0.002636 0.008449 -0.002768 0.005297 -0.001911 0.003360
# 3 0.000345 -0.002768 0.021080 0.002237 0.010311 0.000199
# 4 -0.001518 0.005297 0.002237 0.032547 -0.000072 0.007529
# 5 0.001288 -0.001911 0.010311 -0.000072 0.027317 -0.004010
# 6 -0.000873 0.003360 0.000199 0.007529 -0.004010 0.022251
#
#
# Mechanical properties :
#
#
# Convention : Reuss Voigt Hill
#
# Bulk Modulus (GPa) = 35.33880 54.18196 44.76038
# Shear Modulus (GPa) = 35.69297 45.42141 40.55719
#
# Velocity S-wave (km/s) = 3.85509 4.34884 4.10939
# Velocity P-wave (km/s) = 5.87622 6.91207 6.41509
#
# Compressibility (1/GPa) = 0.02829750
#
# Stress axis : x y z
#
# Youngs Moduli (GPa) = 112.52020 118.35730 47.43752
#
# Poissons Ratio (x) = 0.31201 -0.01634
# Poissons Ratio (y) = 0.29662 0.13131
# Poissons Ratio (z) = -0.03877 0.32761
#
# Static dielectric constant tensor:
#      x y z
#    x 1.950370 0.076120 0.070670 
#    y 0.076120 1.945920 0.053110 
#    z 0.070670 0.053110 2.028710 
# 
# From -- ./inp_files/417880.got.cif
#   From: 2010.05.17/outbox.cif.g08.bks.cpg/sg2_209_cif.got.tgz:417880.got - 2010.06.03 11:33:40.
