data_PCOD9059270
_publ_section_title
;
Structure prediction by ZEFSAII (Michael W. Deem and Ramdas Pophale) SiO2 
 PCOD9059270
Probable space group: P -1
;
_chemical_formula_sum "Si O2"
_cell_formula_units_Z 15
_cell_length_a 8.189703
_cell_length_b 14.622025
_cell_length_c 12.185848
_cell_angle_alpha 149.385703
_cell_angle_beta 78.277372
_cell_angle_gamma 85.533083
_cell_volume 627.242040
_symmetry_space_group_name_H-M "P -1"
_symmetry_group_IT_number 2
_symmetry_cell_setting 'triclinic'
loop_
_space_group_symop_operation_xyz
x,y,z
-x,-y,-z
loop_
_atom_site_type_symbol
_atom_site_label
_atom_site_fract_x
_atom_site_fract_y
_atom_site_fract_z
Si Si1 0.698869 0.227356 0.463900
Si Si2 0.275880 0.668983 0.677449
Si Si3 0.150624 0.951132 0.525983
Si Si4 0.000000 0.500000 0.500000
Si Si5 0.810766 0.676283 0.149745
Si Si6 0.485385 0.349540 0.977978
Si Si7 0.571100 0.947021 0.668700
Si Si8 0.719749 0.922416 0.849196
O O1 0.750797 0.287822 0.405280
O O2 0.860243 0.128474 0.434672
O O3 0.611462 0.077869 0.305069
O O4 0.526228 0.447801 0.761649
O O5 0.500000 0.500000 0.500000
O O6 0.136960 0.578796 0.629754
O O7 0.239578 0.886364 0.955930
O O8 0.348359 0.772855 0.259918
O O9 0.153049 0.163766 0.759254
O O10 0.000000 0.000000 0.500000
O O11 0.865288 0.733800 0.709871
O O12 0.712595 0.586650 0.991783
O O13 0.663721 0.821888 0.414901
O O14 0.000000 0.500000 0.000000
O O15 0.512515 0.184218 0.897198
O O16 0.719270 0.859197 0.657651
O O17 0.500000 0.000000 0.000000
#
# Coordination Sequence:
#
# PCOD9059270 Si02
#       8
#     2   2   2   1   2   2   2   2
#     4  12  23  41  75 103 138 196 239 295 385 434
#     4  12  26  50  78 113 152 199 257 320 385 454
#     4  11  23  41  63 101 143 185 238 299 356 443
#     4  12  28  50  78 108 152 200 250 322 386 444
#     4  11  23  42  66  99 145 187 234 297 357 442
#     4  11  23  41  67  95 144 182 233 296 358 441
#     4  11  23  45  70 104 141 194 241 297 380 440
#     4  12  25  49  79 108 153 194 256 326 375 455
#
# _framework density 23.914213
#
# number of rings (size 3 to 8) (size 9 to 14) (size 15 to 20)
#    0.000    0.533    5.333    3.200    1.867    3.200 
#    2.400    1.333    0.000    0.000    0.000    0.000 
#    0.000    0.000    0.000    0.000    0.000    0.000 
#
# Total GULP energy -83728.455895 kJ/mol
# GULP energy per Si atom -5581.897060 kJ/mol
# Density = 2.385978 g / cm^3
# Si number density = 23.914213 Si / 1000 Ang^3
#
#
#
# Elastic Constant Matrix: (Units=GPa)
#
#
# Indices 1 2 3 4 5 6 
#
# 1 97.2924 21.6000 20.4182 11.8783 17.7260 -24.3278
# 2 21.6000 101.1015 40.5518 13.6032 -12.3436 -26.0914
# 3 20.4182 40.5518 71.1777 19.6237 28.8668 0.8546
# 4 11.8783 13.6032 19.6237 33.5521 -1.6936 5.8432
# 5 17.7260 -12.3436 28.8668 -1.6936 32.4364 7.8472
# 6 -24.3278 -26.0914 0.8546 5.8432 7.8472 44.6445
#
#
#
# Elastic Compliance Matrix: (Units=1/GPa)
#
#
# Indices 1 2 3 4 5 6 
#
# 1 0.022540 -0.013940 0.025759 -0.022200 -0.045213 0.014495
# 2 -0.013940 0.042862 -0.058778 0.025539 0.077168 0.001672
# 3 0.025759 -0.058778 0.116724 -0.062934 -0.146372 0.011416
# 4 -0.022200 0.025539 -0.062934 0.072082 0.086613 -0.020625
# 5 -0.045213 0.077168 -0.146372 0.086613 0.226433 -0.027873
# 6 0.014495 0.001672 0.011416 -0.020625 -0.027873 0.038656
#
#
# Mechanical properties :
#
#
# Convention : Reuss Voigt Hill
#
# Bulk Modulus (GPa) = 11.33686 48.30129 29.81908
# Shear Modulus (GPa) = 7.78069 34.59337 21.18703
#
# Velocity S-wave (km/s) = 1.80573 3.80749 2.97974
# Velocity P-wave (km/s) = 3.01637 6.29054 4.93302
#
# Compressibility (1/GPa) = 0.08820782
#
# Stress axis : x y z
#
# Youngs Moduli (GPa) = 44.36646 23.33064 8.56723
#
# Poissons Ratio (x) = 0.32522 -0.22069
# Poissons Ratio (y) = 0.61846 0.50357
# Poissons Ratio (z) = -1.14285 1.37134
#
# Static dielectric constant tensor:
#      x y z
#    x 2.009170 0.023660 0.025500 
#    y 0.023660 1.955760 -0.020800 
#    z 0.025500 -0.020800 1.910050 
# 
# From -- ./inp_files/400082.got.cif
#   From: 2010.05.17/outbox.cif.g08.bks.cpg/sg2_201_cif.got.tgz:400082.got - 2010.06.03 11:33:40.
