data_PCOD9059284
_publ_section_title
;
Structure prediction by ZEFSAII (Michael W. Deem and Ramdas Pophale) SiO2 
 PCOD9059284
Probable space group: P -1
;
_chemical_formula_sum "Si O2"
_cell_formula_units_Z 10
_cell_length_a 12.853871
_cell_length_b 5.482304
_cell_length_c 12.526109
_cell_angle_alpha 72.896473
_cell_angle_beta 155.379514
_cell_angle_gamma 106.725442
_cell_volume 351.012169
_symmetry_space_group_name_H-M "P -1"
_symmetry_group_IT_number 2
_symmetry_cell_setting 'triclinic'
loop_
_space_group_symop_operation_xyz
x,y,z
-x,-y,-z
loop_
_atom_site_type_symbol
_atom_site_label
_atom_site_fract_x
_atom_site_fract_y
_atom_site_fract_z
Si Si1 0.734795 0.349677 0.778022
Si Si2 0.090274 0.318771 0.450324
Si Si3 0.217747 0.758711 0.383435
Si Si4 0.310784 0.058994 0.058236
Si Si5 0.694053 0.236818 0.246394
O O1 0.500000 0.500000 0.500000
O O2 0.759508 0.151845 0.728304
O O3 0.688971 0.234593 0.867003
O O4 0.000000 0.500000 0.000000
O O5 0.157600 0.455615 0.384661
O O6 0.218978 0.520036 0.630212
O O7 0.800769 0.303407 0.220277
O O8 0.182376 0.032884 0.576589
O O9 0.474142 0.826002 0.675871
O O10 0.968538 0.867071 0.187527
O O11 0.409233 0.160129 0.022485
#
# Coordination Sequence:
#
# PCOD9059284 Si02
#       5
#     2   2   2   2   2
#     4  12  24  40  64  94 130 172 221 274 331 392
#     4   9  19  38  64  95 131 172 218 269 326 389
#     4  11  23  41  64  92 130 174 220 270 329 393
#     4  11  23  41  64  92 130 174 220 270 329 393
#     4   9  19  38  64  95 131 172 218 269 326 389
#
# _framework density 28.489039999999999
#
# number of rings (size 3 to 8) (size 9 to 14) (size 15 to 20)
#    0.000    1.600    0.000    4.800    0.000    4.000 
#    0.000    0.000    0.000   22.800    0.000    0.000 
#    0.000    0.000    0.000    0.000    0.000    0.000 
#
# Total GULP energy -55959.330238 kJ/mol
# GULP energy per Si atom -5595.933024 kJ/mol
# Density = 2.842420 g / cm^3
# Si number density = 28.489040 Si / 1000 Ang^3
#
#
#
# Elastic Constant Matrix: (Units=GPa)
#
#
# Indices 1 2 3 4 5 6 
#
# 1 133.7421 39.2388 43.2067 13.7024 26.3458 29.9171
# 2 39.2388 139.9967 76.0804 1.6233 3.6734 9.8795
# 3 43.2067 76.0804 155.9577 8.1177 16.3359 -2.7655
# 4 13.7024 1.6233 8.1177 73.1963 -12.9671 2.0101
# 5 26.3458 3.6734 16.3359 -12.9671 53.2418 6.2064
# 6 29.9171 9.8795 -2.7655 2.0101 6.2064 60.5943
#
#
#
# Elastic Compliance Matrix: (Units=1/GPa)
#
#
# Indices 1 2 3 4 5 6 
#
# 1 0.010683 -0.001650 -0.001605 -0.002506 -0.004765 -0.004508
# 2 -0.001650 0.010261 -0.004832 0.001006 0.001990 -0.001316
# 3 -0.001605 -0.004832 0.009560 -0.001132 -0.002348 0.002295
# 4 -0.002506 0.001006 -0.001132 0.015158 0.005211 -0.000015
# 5 -0.004765 0.001990 -0.002348 0.005211 0.023064 -0.000614
# 6 -0.004508 -0.001316 0.002295 -0.000015 -0.000614 0.019112
#
#
# Mechanical properties :
#
#
# Convention : Reuss Voigt Hill
#
# Bulk Modulus (GPa) = 69.79027 82.97203 76.38115
# Shear Modulus (GPa) = 45.96072 55.48452 50.72262
#
# Velocity S-wave (km/s) = 4.02092 4.41792 4.22409
# Velocity P-wave (km/s) = 6.79025 7.43044 7.11755
#
# Compressibility (1/GPa) = 0.01432864
#
# Stress axis : x y z
#
# Youngs Moduli (GPa) = 93.60260 97.46030 104.60560
#
# Poissons Ratio (x) = 0.16079 0.16793
# Poissons Ratio (y) = 0.15442 0.50550
# Poissons Ratio (z) = 0.15027 0.47097
#
# Static dielectric constant tensor:
#      x y z
#    x 2.114880 -0.291870 -0.130730 
#    y -0.291870 1.856380 -0.204790 
#    z -0.130730 -0.204790 2.135780 
# 
# From -- ./inp_files/2332.got.cif
#   From: 2010.05.17/outbox.cif.g08.bks.cpg/sg2_2_cif.got.tgz:2332.got - 2010.06.03 11:33:40.
