data_PCOD9059874
_publ_section_title
;
Structure prediction by ZEFSAII (Michael W. Deem and Ramdas Pophale) SiO2 
 PCOD9059874
Probable space group: P -1
;
_chemical_formula_sum "Si O2"
_cell_formula_units_Z 16
_cell_length_a 8.850297
_cell_length_b 22.401303
_cell_length_c 8.674094
_cell_angle_alpha 45.830786
_cell_angle_beta 95.683588
_cell_angle_gamma 130.054445
_cell_volume 728.374309
_symmetry_space_group_name_H-M "P -1"
_symmetry_group_IT_number 2
_symmetry_cell_setting 'triclinic'
loop_
_space_group_symop_operation_xyz
x,y,z
-x,-y,-z
loop_
_atom_site_type_symbol
_atom_site_label
_atom_site_fract_x
_atom_site_fract_y
_atom_site_fract_z
Si Si1 0.896960 0.302977 0.320371
Si Si2 0.404917 0.686862 0.863002
Si Si3 0.768022 0.918343 0.737538
Si Si4 0.870421 0.211426 0.821485
Si Si5 0.140166 0.485272 0.461952
Si Si6 0.361981 0.957805 0.401625
Si Si7 0.673855 0.716914 0.273093
Si Si8 0.473585 0.587552 0.820544
O O1 0.694782 0.288478 0.310225
O O2 0.890469 0.255101 0.571207
O O3 0.830314 0.200129 0.378774
O O4 0.167237 0.462418 0.014570
O O5 0.532015 0.794540 0.821472
O O6 0.569208 0.689443 0.785252
O O7 0.193225 0.538651 0.196962
O O8 0.764398 0.008140 0.646492
O O9 0.751102 0.843957 0.006010
O O10 0.000000 0.000000 0.500000
O O11 0.955253 0.325157 0.733492
O O12 0.084796 0.235409 0.823841
O O13 0.585960 0.059222 0.112843
O O14 0.414906 0.584452 0.387022
O O15 0.000000 0.500000 0.500000
O O16 0.500000 0.000000 0.500000
O O17 0.600654 0.671717 0.524009
O O18 0.500000 0.500000 0.000000
#
# Coordination Sequence:
#
# PCOD9059874 Si02
#       8
#     2   2   2   2   2   2   2   2
#     4  12  26  45  72 100 145 185 234 291 352 428
#     4  11  24  44  69 104 136 183 231 290 356 413
#     4  11  26  49  73 103 141 186 238 293 350 426
#     4  12  25  46  67 102 144 183 235 285 356 428
#     4  11  23  42  70 104 138 183 235 292 350 412
#     4  12  27  48  71 103 137 191 239 285 358 425
#     4  11  25  43  72 107 138 187 235 294 354 415
#     4  12  25  45  70 108 144 181 234 294 362 414
#
# _framework density 21.966728
#
# number of rings (size 3 to 8) (size 9 to 14) (size 15 to 20)
#    0.000    0.500    3.750    4.125    7.000    1.000 
#    0.000    1.250    0.000    0.000    0.000    0.000 
#    0.000    0.000    0.000    0.000    0.000    0.000 
#
# Total GULP energy -89483.617917 kJ/mol
# GULP energy per Si atom -5592.726120 kJ/mol
# Density = 2.191673 g / cm^3
# Si number density = 21.966728 Si / 1000 Ang^3
#
#
#
# Elastic Constant Matrix: (Units=GPa)
#
#
# Indices 1 2 3 4 5 6 
#
# 1 137.3594 35.9187 23.0216 12.5844 15.3164 -11.9407
# 2 35.9187 55.0656 10.9492 6.1910 8.3517 -18.6172
# 3 23.0216 10.9492 85.8895 13.2782 0.0320 -2.8689
# 4 12.5844 6.1910 13.2782 32.8925 7.1470 7.7372
# 5 15.3164 8.3517 0.0320 7.1470 40.1465 -0.6098
# 6 -11.9407 -18.6172 -2.8689 7.7372 -0.6098 35.9708
#
#
#
# Elastic Compliance Matrix: (Units=1/GPa)
#
#
# Indices 1 2 3 4 5 6 
#
# 1 0.009312 -0.005003 -0.001576 -0.001671 -0.002203 0.000698
# 2 -0.005003 0.027138 -0.000823 -0.005470 -0.002558 0.013453
# 3 -0.001576 -0.000823 0.013007 -0.005150 0.001697 0.001225
# 4 -0.001671 -0.005470 -0.005150 0.038120 -0.005190 -0.012084
# 5 -0.002203 -0.002558 0.001697 -0.005190 0.027199 -0.000342
# 6 0.000698 0.013453 0.001225 -0.012084 -0.000342 0.037686
#
#
# Mechanical properties :
#
#
# Convention : Reuss Voigt Hill
#
# Bulk Modulus (GPa) = 28.85645 46.45483 37.65564
# Shear Modulus (GPa) = 27.96189 35.69697 31.82943
#
# Velocity S-wave (km/s) = 3.57167 4.03556 3.81068
# Velocity P-wave (km/s) = 5.49309 6.55042 6.04492
#
# Compressibility (1/GPa) = 0.03465429
#
# Stress axis : x y z
#
# Youngs Moduli (GPa) = 107.39055 36.84834 76.88447
#
# Poissons Ratio (x) = 0.18434 0.12115
# Poissons Ratio (y) = 0.53725 0.06325
# Poissons Ratio (z) = 0.16922 0.03031
#
# Static dielectric constant tensor:
#      x y z
#    x 1.842850 -0.000600 -0.003720 
#    y -0.000600 1.855080 -0.035870 
#    z -0.003720 -0.035870 1.799670 
# 
# From -- ./inp_files/216445.got.cif
#   From: 2010.05.17/outbox.cif.g08.bks.cpg/sg2_109_cif.got.tgz:216445.got - 2010.06.03 11:33:40.
