data_PCOD9059034
_publ_section_title
;
Structure prediction by ZEFSAII (Michael W. Deem and Ramdas Pophale) SiO2 
 PCOD9059034
Probable space group: P -1
;
_chemical_formula_sum "Si O2"
_cell_formula_units_Z 14
_cell_length_a 8.919754
_cell_length_b 12.985527
_cell_length_c 8.924682
_cell_angle_alpha 53.494363
_cell_angle_beta 74.192393
_cell_angle_gamma 53.487182
_cell_volume 662.476130
_symmetry_space_group_name_H-M "P -1"
_symmetry_group_IT_number 2
_symmetry_cell_setting 'triclinic'
loop_
_space_group_symop_operation_xyz
x,y,z
-x,-y,-z
loop_
_atom_site_type_symbol
_atom_site_label
_atom_site_fract_x
_atom_site_fract_y
_atom_site_fract_z
Si Si1 0.713148 0.305026 0.495944
Si Si2 0.138101 0.904998 0.907459
Si Si3 0.783076 0.575915 0.803728
Si Si4 0.808583 0.999914 0.691502
Si Si5 0.995764 0.305180 0.213028
Si Si6 0.407359 0.905060 0.637983
Si Si7 0.696382 0.423925 0.716931
O O1 0.685684 0.167087 0.663643
O O2 0.885940 0.246545 0.385914
O O3 0.756976 0.363726 0.583344
O O4 0.525152 0.445510 0.350281
O O5 0.281101 0.951141 0.781040
O O6 0.254789 0.724434 0.072391
O O7 0.005558 0.938762 0.772077
O O8 0.000000 0.000000 0.000000
O O9 0.572318 0.724458 0.754499
O O10 0.791603 0.499865 0.708608
O O11 0.916964 0.635862 0.743471
O O12 0.849910 0.445503 0.025204
O O13 0.728224 0.061000 0.494559
O O14 0.836306 0.832806 0.814332
O O15 0.500000 0.000000 0.500000
#
# Coordination Sequence:
#
# PCOD9059034 Si02
#       7
#     2   2   2   2   2   2   2
#     4  11  23  40  63  94 127 165 215 265 317 380
#     4  12  25  43  67  96 130 171 218 266 320 380
#     4  11  24  40  63  92 129 167 210 263 320 380
#     4  12  23  40  69  94 123 170 221 266 313 384
#     4  11  23  40  63  94 127 165 215 265 317 380
#     4  12  25  43  67  96 130 171 218 266 320 380
#     4  11  24  40  63  92 129 167 210 263 320 380
#
# _framework density 21.132833999999999
#
# number of rings (size 3 to 8) (size 9 to 14) (size 15 to 20)
#    0.000    0.571    5.714    3.429    0.000    1.714 
#    0.000    0.714    0.000    0.000    0.000    0.000 
#    0.000    0.000    0.000    0.000    0.000    0.000 
#
# Total GULP energy -77971.138832 kJ/mol
# GULP energy per Si atom -5569.367059 kJ/mol
# Density = 2.108473 g / cm^3
# Si number density = 21.132834 Si / 1000 Ang^3
#
#
#
# Elastic Constant Matrix: (Units=GPa)
#
#
# Indices 1 2 3 4 5 6 
#
# 1 96.0315 53.3395 63.7469 11.1765 14.9916 26.4241
# 2 53.3395 123.8553 52.1288 -10.7095 3.6023 20.2848
# 3 63.7469 52.1288 97.7376 -28.1978 28.4644 -11.7027
# 4 11.1765 -10.7095 -28.1978 45.9187 -6.5496 11.7361
# 5 14.9916 3.6023 28.4644 -6.5496 42.0461 -3.6116
# 6 26.4241 20.2848 -11.7027 11.7361 -3.6116 39.2200
#
#
#
# Elastic Compliance Matrix: (Units=1/GPa)
#
#
# Indices 1 2 3 4 5 6 
#
# 1 0.107197 0.007441 -0.108255 -0.066218 0.016638 -0.087027
# 2 0.007441 0.014113 -0.017147 -0.004234 0.005743 -0.015633
# 3 -0.108255 -0.017147 0.131396 0.074335 -0.029052 0.096092
# 4 -0.066218 -0.004234 0.074335 0.068809 -0.011566 0.047329
# 5 0.016638 0.005743 -0.029052 -0.011566 0.033827 -0.016273
# 6 -0.087027 -0.015633 0.096092 0.047329 -0.016273 0.105228
#
#
# Mechanical properties :
#
#
# Convention : Reuss Voigt Hill
#
# Bulk Modulus (GPa) = 59.57886 72.89501 66.23693
# Shear Modulus (GPa) = 7.12162 35.33088 21.22625
#
# Velocity S-wave (km/s) = 1.83773 4.09326 3.17270
# Velocity P-wave (km/s) = 5.72335 7.54376 6.69571
#
# Compressibility (1/GPa) = 0.01678448
#
# Stress axis : x y z
#
# Youngs Moduli (GPa) = 9.32860 70.85433 7.61058
#
# Poissons Ratio (x) = -0.52722 0.82389
# Poissons Ratio (y) = -0.06941 0.13050
# Poissons Ratio (z) = 1.00987 1.21492
#
# Static dielectric constant tensor:
#      x y z
#    x 1.762750 0.025600 -0.018550 
#    y 0.025600 1.818780 -0.015510 
#    z -0.018550 -0.015510 1.754370 
# 
# From -- ./inp_files/185006.got.cif
#   From: 2010.05.17/outbox.cif.g08.bks.cpg/sg2_93_cif.got.tgz:185006.got - 2010.06.03 11:33:40.
