data_PCOD9059491
_publ_section_title
;
Structure prediction by ZEFSAII (Michael W. Deem and Ramdas Pophale) SiO2 
 PCOD9059491
Probable space group: P -1
;
_chemical_formula_sum "Si O2"
_cell_formula_units_Z 16
_cell_length_a 8.644298
_cell_length_b 10.461789
_cell_length_c 10.111891
_cell_angle_alpha 124.562456
_cell_angle_beta 107.698398
_cell_angle_gamma 55.212826
_cell_volume 618.218718
_symmetry_space_group_name_H-M "P -1"
_symmetry_group_IT_number 2
_symmetry_cell_setting 'triclinic'
loop_
_space_group_symop_operation_xyz
x,y,z
-x,-y,-z
loop_
_atom_site_type_symbol
_atom_site_label
_atom_site_fract_x
_atom_site_fract_y
_atom_site_fract_z
Si Si1 0.249762 0.692671 0.735575
Si Si2 0.365173 0.955833 0.851065
Si Si3 0.024875 0.418548 0.288024
Si Si4 0.349942 0.567399 0.206324
Si Si5 0.661132 0.104420 0.662519
Si Si6 0.810156 0.667242 0.000783
Si Si7 0.978573 0.238503 0.552680
Si Si8 0.379478 0.193460 0.404049
O O1 0.261847 0.873486 0.859014
O O2 0.460202 0.525735 0.712271
O O3 0.158716 0.714984 0.581262
O O4 0.116438 0.654959 0.772949
O O5 0.487875 0.816909 0.687091
O O6 0.500000 0.000000 0.000000
O O7 0.234436 0.140983 0.846516
O O8 0.157740 0.320799 0.139490
O O9 0.937167 0.627941 0.353105
O O10 0.174032 0.358993 0.412733
O O11 0.337529 0.398145 0.049981
O O12 0.165520 0.688467 0.319724
O O13 0.341260 0.714977 0.189490
O O14 0.486077 0.176967 0.558051
O O15 0.849537 0.963296 0.545820
O O16 0.644192 0.982725 0.699601
O O17 0.000000 0.500000 0.000000
#
# Coordination Sequence:
#
# PCOD9059491 Si02
#       8
#     2   2   2   2   2   2   2   2
#     4  12  24  41  72  98 132 179 222 271 331 405
#     4  12  24  48  68  95 132 182 229 266 334 394
#     4  11  24  45  67 101 134 175 222 273 338 395
#     4  11  24  43  64  99 134 174 227 272 334 393
#     4  11  25  40  69 106 134 173 223 276 338 390
#     4  11  27  46  68  93 134 175 223 284 325 391
#     4  11  23  41  69  99 138 172 218 278 334 397
#     4  11  24  44  70  97 142 176 214 283 330 397
#
# _framework density 25.880807999999998
#
# number of rings (size 3 to 8) (size 9 to 14) (size 15 to 20)
#    0.000    0.750    3.750    3.375    8.750    0.500 
#    2.250    1.250    0.000    0.000    0.000    0.000 
#    0.000    0.000    0.000    0.000    0.000    0.000 
#
# Total GULP energy -89526.516577 kJ/mol
# GULP energy per Si atom -5595.407286 kJ/mol
# Density = 2.582190 g / cm^3
# Si number density = 25.880808 Si / 1000 Ang^3
#
#
#
# Elastic Constant Matrix: (Units=GPa)
#
#
# Indices 1 2 3 4 5 6 
#
# 1 108.0333 68.0514 9.1499 22.0791 23.7811 -7.0978
# 2 68.0514 167.1051 17.3466 39.1408 26.9475 -2.8275
# 3 9.1499 17.3466 29.9394 16.7528 19.2479 3.5584
# 4 22.0791 39.1408 16.7528 50.5689 8.4222 15.5127
# 5 23.7811 26.9475 19.2479 8.4222 35.9833 10.9228
# 6 -7.0978 -2.8275 3.5584 15.5127 10.9228 60.8255
#
#
#
# Elastic Compliance Matrix: (Units=1/GPa)
#
#
# Indices 1 2 3 4 5 6 
#
# 1 0.014787 -0.003601 0.007269 -0.005637 -0.011026 0.004551
# 2 -0.003601 0.009640 0.002270 -0.006530 -0.005287 0.002510
# 3 0.007269 0.002270 0.067987 -0.023891 -0.040414 0.010327
# 4 -0.005637 -0.006530 -0.023891 0.036051 0.016516 -0.011724
# 5 -0.011026 -0.005287 -0.040414 0.016516 0.061149 -0.014361
# 6 0.004551 0.002510 0.010327 -0.011724 -0.014361 0.022053
#
#
# Mechanical properties :
#
#
# Convention : Reuss Voigt Hill
#
# Bulk Modulus (GPa) = 9.58862 54.90818 32.24840
# Shear Modulus (GPa) = 21.31710 43.51088 32.41399
#
# Velocity S-wave (km/s) = 2.87307 4.10470 3.54281
# Velocity P-wave (km/s) = 3.83653 6.61261 5.40581
#
# Compressibility (1/GPa) = 0.10429024
#
# Stress axis : x y z
#
# Youngs Moduli (GPa) = 67.62562 103.73699 14.70874
#
# Poissons Ratio (x) = 0.37357 -0.10692
# Poissons Ratio (y) = 0.24353 -0.03339
# Poissons Ratio (z) = -0.49159 -0.23549
#
# Static dielectric constant tensor:
#      x y z
#    x 2.087830 0.021610 0.007200 
#    y 0.021610 2.078340 0.045550 
#    z 0.007200 0.045550 2.121310 
# 
# From -- ./inp_files/383318.got.cif
#   From: 2010.05.17/outbox.cif.g08.bks.cpg/sg2_192_cif.got.tgz:383318.got - 2010.06.03 11:33:40.
