data_PCOD9059075
_publ_section_title
;
Structure prediction by ZEFSAII (Michael W. Deem and Ramdas Pophale) SiO2 
 PCOD9059075
Probable space group: P -1
;
_chemical_formula_sum "Si O2"
_cell_formula_units_Z 16
_cell_length_a 27.483241
_cell_length_b 11.042743
_cell_length_c 10.080901
_cell_angle_alpha 41.947654
_cell_angle_beta 151.213280
_cell_angle_gamma 147.423563
_cell_volume 793.090436
_symmetry_space_group_name_H-M "P -1"
_symmetry_group_IT_number 2
_symmetry_cell_setting 'triclinic'
loop_
_space_group_symop_operation_xyz
x,y,z
-x,-y,-z
loop_
_atom_site_type_symbol
_atom_site_label
_atom_site_fract_x
_atom_site_fract_y
_atom_site_fract_z
Si Si1 0.397560 0.434212 0.198001
Si Si2 0.612743 0.188609 0.027225
Si Si3 0.604120 0.189691 0.696035
Si Si4 0.123563 0.728816 0.404600
Si Si5 0.019555 0.788301 0.589322
Si Si6 0.868935 0.995970 0.044303
Si Si7 0.208129 0.927244 0.710852
Si Si8 0.425913 0.429545 0.743434
O O1 0.500000 0.500000 0.500000
O O2 0.349204 0.580062 0.006319
O O3 0.473900 0.509717 0.181799
O O4 0.278619 0.175677 0.133003
O O5 0.568464 0.153956 0.796468
O O6 0.732352 0.186370 0.322655
O O7 0.500000 0.000000 0.000000
O O8 0.625679 0.422212 0.522357
O O9 0.500000 0.000000 0.500000
O O10 0.723698 0.183308 0.985026
O O11 0.038589 0.466301 0.381084
O O12 0.107613 0.778598 0.476676
O O13 0.109732 0.870873 0.147645
O O14 0.925282 0.853923 0.284980
O O15 0.141085 0.948225 0.657520
O O16 0.059748 0.835114 0.800356
O O17 0.313804 0.167154 0.702182
O O18 0.500000 0.500000 0.000000
#
# Coordination Sequence:
#
# PCOD9059075 Si02
#       8
#     2   2   2   2   2   2   2   2
#     4  12  22  42  69  98 137 175 216 281 338 390
#     4  11  23  40  65  99 134 172 223 275 334 399
#     4  11  24  42  63  97 140 175 217 274 336 399
#     4  11  24  43  67  97 130 169 231 277 329 397
#     4  11  25  48  66  95 136 178 224 277 328 397
#     4  11  25  44  69  98 133 177 223 275 336 398
#     4  11  25  43  68  97 133 178 227 272 334 399
#     4  12  24  41  64  98 139 178 220 272 338 403
#
# _framework density 20.174243000000001
#
# number of rings (size 3 to 8) (size 9 to 14) (size 15 to 20)
#    0.000    0.750    3.750    4.500    0.000    1.500 
#    0.000    0.000    0.000    0.000    0.000    0.000 
#    0.000    0.000    0.000    0.000    0.000    0.000 
#
# Total GULP energy -89441.665957 kJ/mol
# GULP energy per Si atom -5590.104122 kJ/mol
# Density = 2.012833 g / cm^3
# Si number density = 20.174243 Si / 1000 Ang^3
#
#
#
# Elastic Constant Matrix: (Units=GPa)
#
#
# Indices 1 2 3 4 5 6 
#
# 1 93.8616 9.4145 36.2003 -0.5795 -15.7882 3.3570
# 2 9.4145 86.6940 32.0402 3.0500 -10.6670 -11.2598
# 3 36.2003 32.0402 122.9073 -12.1078 -23.6686 -2.8894
# 4 -0.5795 3.0500 -12.1078 17.8848 2.1175 -0.7925
# 5 -15.7882 -10.6670 -23.6686 2.1175 34.2682 2.9667
# 6 3.3570 -11.2598 -2.8894 -0.7925 2.9667 34.9851
#
#
#
# Elastic Compliance Matrix: (Units=1/GPa)
#
#
# Indices 1 2 3 4 5 6 
#
# 1 0.012610 0.000174 -0.003286 -0.002388 0.003898 -0.001810
# 2 0.000174 0.013770 -0.003687 -0.004880 0.001788 0.003848
# 3 -0.003286 -0.003687 0.011808 0.007916 0.005017 -0.000142
# 4 -0.002388 -0.004880 0.007916 0.062189 -0.001065 0.000811
# 5 0.003898 0.001788 0.005017 -0.001065 0.035273 -0.002399
# 6 -0.001810 0.003848 -0.000142 0.000811 -0.002399 0.030206
#
#
# Mechanical properties :
#
#
# Convention : Reuss Voigt Hill
#
# Bulk Modulus (GPa) = 40.66864 50.97478 45.82171
# Shear Modulus (GPa) = 26.64531 32.48147 29.56339
#
# Velocity S-wave (km/s) = 3.63817 4.01689 3.83221
# Velocity P-wave (km/s) = 6.15230 6.84368 6.50718
#
# Compressibility (1/GPa) = 0.02458897
#
# Stress axis : x y z
#
# Youngs Moduli (GPa) = 79.30385 72.62146 84.68982
#
# Poissons Ratio (x) = -0.01262 0.27832
# Poissons Ratio (y) = -0.01378 0.31222
# Poissons Ratio (z) = 0.26062 0.26773
#
# Static dielectric constant tensor:
#      x y z
#    x 1.666640 0.008470 0.006140 
#    y 0.008470 1.652990 0.006590 
#    z 0.006140 0.006590 1.700500 
# 
# From -- ./inp_files/226388.got.cif
#   From: 2010.05.17/outbox.cif.g08.bks.cpg/sg2_114_cif.got.tgz:226388.got - 2010.06.03 11:33:40.
