data_PCOD9059155
_publ_section_title
;
Structure prediction by ZEFSAII (Michael W. Deem and Ramdas Pophale) SiO2 
 PCOD9059155
Probable space group: P -1
;
_chemical_formula_sum "Si O2"
_cell_formula_units_Z 16
_cell_length_a 8.290289
_cell_length_b 9.236053
_cell_length_c 14.660637
_cell_angle_alpha 66.966307
_cell_angle_beta 91.809573
_cell_angle_gamma 46.376068
_cell_volume 666.829708
_symmetry_space_group_name_H-M "P -1"
_symmetry_group_IT_number 2
_symmetry_cell_setting 'triclinic'
loop_
_space_group_symop_operation_xyz
x,y,z
-x,-y,-z
loop_
_atom_site_type_symbol
_atom_site_label
_atom_site_fract_x
_atom_site_fract_y
_atom_site_fract_z
Si Si1 0.089324 0.261973 0.592413
Si Si2 0.760516 0.361356 0.081918
Si Si3 0.084019 0.702091 0.103125
Si Si4 0.479632 0.853072 0.983192
Si Si5 0.640460 0.816457 0.793542
Si Si6 0.317171 0.978007 0.500929
Si Si7 0.819279 0.013414 0.706380
Si Si8 0.682182 0.421842 0.681075
O O1 0.000000 0.500000 0.500000
O O2 0.917051 0.326305 0.654605
O O3 0.380485 0.036973 0.681823
O O4 0.092626 0.162396 0.523265
O O5 0.500000 0.500000 0.000000
O O6 0.905203 0.279614 0.009443
O O7 0.911028 0.140211 0.209227
O O8 0.672866 0.577183 0.086616
O O9 0.168427 0.455011 0.177478
O O10 0.263900 0.650048 0.193397
O O11 0.812364 0.964065 0.062732
O O12 0.561586 0.812403 0.890933
O O13 0.500000 0.000000 0.000000
O O14 0.762176 0.895600 0.788286
O O15 0.209696 0.021033 0.388677
O O16 0.473679 0.709035 0.598063
O O17 0.500000 0.000000 0.500000
O O18 0.637263 0.291465 0.660219
#
# Coordination Sequence:
#
# PCOD9059155 Si02
#       8
#     2   2   2   2   2   2   2   2
#     4  12  24  42  73 102 133 188 241 281 355 431
#     4  11  27  46  68 105 149 189 235 294 360 420
#     4  11  23  45  74  98 140 195 240 289 355 426
#     4  11  23  40  69 100 134 184 248 290 346 420
#     4  11  23  43  68 101 140 185 240 293 346 423
#     4  12  24  47  73 101 141 188 234 296 352 423
#     4  12  26  44  71 107 149 184 238 299 359 422
#     4  12  25  44  73 105 143 187 236 292 364 423
#
# _framework density 23.994133000000001
#
# number of rings (size 3 to 8) (size 9 to 14) (size 15 to 20)
#    0.000    0.500    5.000    2.625    1.750    6.500 
#    0.000    3.750    0.000    0.000    0.000    0.000 
#    0.000    0.000    0.000    0.000    0.000    0.000 
#
# Total GULP energy -89424.357637 kJ/mol
# GULP energy per Si atom -5589.022352 kJ/mol
# Density = 2.393952 g / cm^3
# Si number density = 23.994133 Si / 1000 Ang^3
#
#
#
# Elastic Constant Matrix: (Units=GPa)
#
#
# Indices 1 2 3 4 5 6 
#
# 1 24.0520 17.7068 6.6404 -1.0158 4.1788 10.3619
# 2 17.7068 165.3327 44.9515 -10.4273 -6.1051 12.7294
# 3 6.6404 44.9515 123.7718 3.0971 12.1014 6.1533
# 4 -1.0158 -10.4273 3.0971 48.9421 12.1014 0.8166
# 5 4.1788 -6.1051 12.1014 12.1014 22.0251 1.0095
# 6 10.3619 12.7294 6.1533 0.8166 1.0095 40.8882
#
#
#
# Elastic Compliance Matrix: (Units=1/GPa)
#
#
# Indices 1 2 3 4 5 6 
#
# 1 0.052640 -0.005260 0.000873 0.003387 -0.013255 -0.011574
# 2 -0.005260 0.007662 -0.002911 0.000630 0.004409 -0.000736
# 3 0.000873 -0.002911 0.009749 0.000404 -0.006522 -0.000629
# 4 0.003387 0.000630 0.000404 0.024057 -0.013850 -0.001254
# 5 -0.013255 0.004409 -0.006522 -0.013850 0.060252 0.001757
# 6 -0.011574 -0.000736 -0.000629 -0.001254 0.001757 0.027696
#
#
# Mechanical properties :
#
#
# Convention : Reuss Voigt Hill
#
# Bulk Modulus (GPa) = 18.03248 50.19486 34.11367
# Shear Modulus (GPa) = 23.24108 38.62828 30.93468
#
# Velocity S-wave (km/s) = 3.11563 4.01672 3.59452
# Velocity P-wave (km/s) = 4.52489 6.51744 5.61033
#
# Compressibility (1/GPa) = 0.05545548
#
# Stress axis : x y z
#
# Youngs Moduli (GPa) = 18.99691 130.50918 102.57944
#
# Poissons Ratio (x) = 0.68643 -0.08952
# Poissons Ratio (y) = 0.09992 0.29859
# Poissons Ratio (z) = -0.01658 0.37989
#
# Static dielectric constant tensor:
#      x y z
#    x 2.125550 0.041980 0.026060 
#    y 0.041980 1.923000 -0.042150 
#    z 0.026060 -0.042150 2.021170 
# 
# From -- ./inp_files/188927.got.cif
#   From: 2010.05.17/outbox.cif.g08.bks.cpg/sg2_95_cif.got.tgz:188927.got - 2010.06.03 11:33:40.
