data_PCOD9059670
_publ_section_title
;
Structure prediction by ZEFSAII (Michael W. Deem and Ramdas Pophale) SiO2 
 PCOD9059670
Probable space group: P -1
;
_chemical_formula_sum "Si O2"
_cell_formula_units_Z 14
_cell_length_a 17.652073
_cell_length_b 9.636767
_cell_length_c 8.910446
_cell_angle_alpha 106.749106
_cell_angle_beta 56.463141
_cell_angle_gamma 59.320774
_cell_volume 658.815629
_symmetry_space_group_name_H-M "P -1"
_symmetry_group_IT_number 2
_symmetry_cell_setting 'triclinic'
loop_
_space_group_symop_operation_xyz
x,y,z
-x,-y,-z
loop_
_atom_site_type_symbol
_atom_site_label
_atom_site_fract_x
_atom_site_fract_y
_atom_site_fract_z
Si Si1 0.047269 0.994161 0.283441
Si Si2 0.431191 0.965771 0.869423
Si Si3 0.526761 0.783648 0.037611
Si Si4 0.899353 0.759606 0.615204
Si Si5 0.241783 0.758243 0.506188
Si Si6 0.850220 0.792934 0.335744
Si Si7 0.380309 0.521766 0.615389
O O1 0.043560 0.171132 0.348707
O O2 0.237839 0.705271 0.950990
O O3 0.000000 0.000000 0.500000
O O4 0.926737 0.094100 0.318755
O O5 0.529819 0.753953 0.565228
O O6 0.388714 0.191569 0.963266
O O7 0.536343 0.817065 0.862176
O O8 0.288112 0.040073 0.084402
O O9 0.333000 0.037265 0.383844
O O10 0.619403 0.502893 0.840010
O O11 0.918860 0.738596 0.409195
O O12 0.000000 0.500000 0.500000
O O13 0.296923 0.654491 0.583753
O O14 0.202494 0.982028 0.607288
O O15 0.000000 0.500000 0.000000
O O16 0.500000 0.500000 0.500000
#
# Coordination Sequence:
#
# PCOD9059670 Si02
#       7
#     2   2   2   2   2   2   2
#     4  12  25  43  68 104 140 180 228 290 344 408
#     4   9  19  39  64  95 125 178 231 281 331 412
#     4   9  20  39  66  92 131 178 228 279 344 404
#     4  11  23  42  66  93 140 183 231 277 351 415
#     4  11  24  44  68 100 137 185 231 284 348 413
#     4  11  25  40  65 102 139 177 230 293 345 408
#     4  11  24  43  72 100 137 184 232 285 345 415
#
# _framework density 21.250254999999999
#
# number of rings (size 3 to 8) (size 9 to 14) (size 15 to 20)
#    0.000    1.429    2.857    1.714    4.000    2.286 
#    0.000    0.000    0.000    4.286    0.000    0.000 
#    0.000    0.000    0.000    0.000    0.000    0.000 
#
# Total GULP energy -78012.676906 kJ/mol
# GULP energy per Si atom -5572.334065 kJ/mol
# Density = 2.120189 g / cm^3
# Si number density = 21.250255 Si / 1000 Ang^3
#
#
#
# Elastic Constant Matrix: (Units=GPa)
#
#
# Indices 1 2 3 4 5 6 
#
# 1 98.7137 9.3994 27.6800 -7.7013 -7.8324 25.1506
# 2 9.3994 54.4205 12.8132 8.2988 20.6497 22.2997
# 3 27.6800 12.8132 145.8279 7.4575 19.4550 23.0486
# 4 -7.7013 8.2988 7.4575 25.7057 8.2320 8.6048
# 5 -7.8324 20.6497 19.4550 8.2320 21.2439 11.2141
# 6 25.1506 22.2997 23.0486 8.6048 11.2141 41.7089
#
#
#
# Elastic Compliance Matrix: (Units=1/GPa)
#
#
# Indices 1 2 3 4 5 6 
#
# 1 0.016295 -0.005066 -0.003566 0.005532 0.017917 -0.011105
# 2 -0.005066 0.035115 0.003895 0.000098 -0.035149 -0.008441
# 3 -0.003566 0.003895 0.009120 -0.000469 -0.012466 -0.001523
# 4 0.005532 0.000098 -0.000469 0.047455 -0.010716 -0.010038
# 5 0.017917 -0.035149 -0.012466 -0.010716 0.110005 -0.012488
# 6 -0.011105 -0.008441 -0.001523 -0.010038 -0.012488 0.041455
#
#
# Mechanical properties :
#
#
# Convention : Reuss Voigt Hill
#
# Bulk Modulus (GPa) = 19.58672 44.30524 31.94598
# Shear Modulus (GPa) = 17.48623 34.33636 25.91129
#
# Velocity S-wave (km/s) = 2.87169 4.02407 3.49569
# Velocity P-wave (km/s) = 4.49807 6.51808 5.59991
#
# Compressibility (1/GPa) = 0.05105499
#
# Stress axis : x y z
#
# Youngs Moduli (GPa) = 61.36788 28.47808 109.64991
#
# Poissons Ratio (x) = 0.14428 0.39099
# Poissons Ratio (y) = 0.31091 -0.42706
# Poissons Ratio (z) = 0.21883 -0.11091
#
# Static dielectric constant tensor:
#      x y z
#    x 1.719210 -0.001680 0.044340 
#    y -0.001680 1.729460 0.027420 
#    z 0.044340 0.027420 1.812700 
# 
# From -- ./inp_files/217092.got.cif
#   From: 2010.05.17/outbox.cif.g08.bks.cpg/sg2_109_cif.got.tgz:217092.got - 2010.06.03 11:33:40.
