data_PCOD9059330
_publ_section_title
;
Structure prediction by ZEFSAII (Michael W. Deem and Ramdas Pophale) SiO2 
 PCOD9059330
Probable space group: P -1
;
_chemical_formula_sum "Si O2"
_cell_formula_units_Z 12
_cell_length_a 14.903638
_cell_length_b 11.111347
_cell_length_c 13.872331
_cell_angle_alpha 30.088083
_cell_angle_beta 37.409207
_cell_angle_gamma 57.041877
_cell_volume 617.414063
_symmetry_space_group_name_H-M "P -1"
_symmetry_group_IT_number 2
_symmetry_cell_setting 'triclinic'
loop_
_space_group_symop_operation_xyz
x,y,z
-x,-y,-z
loop_
_atom_site_type_symbol
_atom_site_label
_atom_site_fract_x
_atom_site_fract_y
_atom_site_fract_z
Si Si1 0.305433 0.832740 0.253644
Si Si2 0.468016 0.659119 0.830563
Si Si3 0.321867 0.250063 0.795970
Si Si4 0.773275 0.185667 0.157900
Si Si5 0.311124 0.295969 0.557804
Si Si6 0.930423 0.501166 0.163856
O O1 0.265549 0.535765 0.452420
O O2 0.195309 0.780331 0.480438
O O3 0.500000 0.000000 0.000000
O O4 0.276329 0.001950 0.078084
O O5 0.288800 0.646506 0.975125
O O6 0.524787 0.578669 0.737325
O O7 0.604539 0.978005 0.503481
O O8 0.500000 0.500000 0.000000
O O9 0.500000 0.500000 0.500000
O O10 0.338752 0.195453 0.707303
O O11 0.178677 0.340930 0.861232
O O12 0.810646 0.973248 0.211575
O O13 0.917403 0.355877 0.990457
O O14 0.000000 0.500000 0.000000
#
# Coordination Sequence:
#
# PCOD9059330 Si02
#       6
#     2   2   2   2   2   2
#     4  11  23  41  65  97 125 178 224 256 332 390
#     4   9  20  37  65  95 130 175 212 263 333 394
#     4  11  23  42  65  93 130 179 219 265 328 389
#     4   9  22  40  59  99 131 166 220 264 337 374
#     4   9  21  38  64  90 128 170 215 270 311 396
#     4  11  26  43  67  98 137 167 216 287 322 383
#
# _framework density 19.435903
#
# number of rings (size 3 to 8) (size 9 to 14) (size 15 to 20)
#    1.000    1.000    3.333    0.000    4.667    6.000 
#    0.000    1.667    0.000    0.000    0.000    0.000 
#    0.000    0.000    0.000    0.000    0.000    0.000 
#
# Total GULP energy -66820.700589 kJ/mol
# GULP energy per Si atom -5568.391716 kJ/mol
# Density = 1.939167 g / cm^3
# Si number density = 19.435903 Si / 1000 Ang^3
#
#
#
# Elastic Constant Matrix: (Units=GPa)
#
#
# Indices 1 2 3 4 5 6 
#
# 1 168.3866 57.0722 79.8592 -0.0156 17.1146 -10.5336
# 2 57.0722 79.6112 35.2770 11.5217 13.3510 0.4542
# 3 79.8592 35.2770 95.1885 8.0647 12.6723 4.9483
# 4 -0.0156 11.5217 8.0647 25.7562 -3.2261 8.0568
# 5 17.1146 13.3510 12.6723 -3.2261 56.6817 -3.4130
# 6 -10.5336 0.4542 4.9483 8.0568 -3.4130 44.5753
#
#
#
# Elastic Compliance Matrix: (Units=1/GPa)
#
#
# Indices 1 2 3 4 5 6 
#
# 1 0.012071 -0.005454 -0.008620 0.004172 -0.000008 0.003110
# 2 -0.005454 0.018735 -0.001263 -0.008341 -0.002962 -0.000059
# 3 -0.008620 -0.001263 0.019011 -0.004540 -0.001816 -0.003453
# 4 0.004172 -0.008341 -0.004540 0.046521 0.003975 -0.006529
# 5 -0.000008 -0.002962 -0.001816 0.003975 0.019033 0.000969
# 6 0.003110 -0.000059 -0.003453 -0.006529 0.000969 0.024807
#
#
# Mechanical properties :
#
#
# Convention : Reuss Voigt Hill
#
# Bulk Modulus (GPa) = 52.23915 76.40035 64.31975
# Shear Modulus (GPa) = 28.21101 36.80119 32.50610
#
# Velocity S-wave (km/s) = 3.81398 4.35612 4.09403
# Velocity P-wave (km/s) = 6.80670 8.04333 7.45072
#
# Compressibility (1/GPa) = 0.01914273
#
# Stress axis : x y z
#
# Youngs Moduli (GPa) = 82.84116 53.37553 52.59977
#
# Poissons Ratio (x) = 0.29113 0.45341
# Poissons Ratio (y) = 0.45184 0.06645
# Poissons Ratio (z) = 0.71409 0.06743
#
# Static dielectric constant tensor:
#      x y z
#    x 1.668110 -0.016440 0.004730 
#    y -0.016440 1.702400 0.006960 
#    z 0.004730 0.006960 1.707160 
# 
# From -- ./inp_files/530337.got.cif
#   From: 2010.05.17/outbox.cif.g08.bks.cpg/sg2_266_cif.got.tgz:530337.got - 2010.06.03 11:33:40.
