data_PCOD9059125
_publ_section_title
;
Structure prediction by ZEFSAII (Michael W. Deem and Ramdas Pophale) SiO2 
 PCOD9059125
Probable space group: P -1
;
_chemical_formula_sum "Si O2"
_cell_formula_units_Z 15
_cell_length_a 8.644765
_cell_length_b 9.474392
_cell_length_c 11.471925
_cell_angle_alpha 59.485198
_cell_angle_beta 64.832000
_cell_angle_gamma 84.639196
_cell_volume 723.513518
_symmetry_space_group_name_H-M "P -1"
_symmetry_group_IT_number 2
_symmetry_cell_setting 'triclinic'
loop_
_space_group_symop_operation_xyz
x,y,z
-x,-y,-z
loop_
_atom_site_type_symbol
_atom_site_label
_atom_site_fract_x
_atom_site_fract_y
_atom_site_fract_z
Si Si1 0.435112 0.371357 0.903002
Si Si2 0.296256 0.012717 0.073985
Si Si3 0.565463 0.355898 0.611835
Si Si4 0.000000 0.000000 0.000000
Si Si5 0.435848 0.705247 0.858915
Si Si6 0.853068 0.171216 0.566605
Si Si7 0.309043 0.052190 0.716124
Si Si8 0.239418 0.134623 0.445095
O O1 0.542952 0.389654 0.741475
O O2 0.357821 0.536676 0.889048
O O3 0.290777 0.209602 0.002744
O O4 0.550177 0.332939 0.992816
O O5 0.224156 0.922291 0.252289
O O6 0.177014 0.954364 0.027052
O O7 0.500000 0.000000 0.000000
O O8 0.500000 0.500000 0.500000
O O9 0.757643 0.330644 0.524844
O O10 0.443146 0.182773 0.691603
O O11 0.884461 0.948031 0.176057
O O12 0.630900 0.748444 0.728658
O O13 0.353381 0.866969 0.789020
O O14 0.059222 0.201931 0.490182
O O15 0.799684 0.044709 0.530042
O O16 0.322128 0.112326 0.553145
#
# Coordination Sequence:
#
# PCOD9059125 Si02
#       8
#     2   2   2   1   2   2   2   2
#     4  11  23  41  68  97 135 178 233 278 349 415
#     4  12  21  45  73  99 137 179 229 290 342 411
#     4  12  25  43  68  99 133 179 228 291 345 409
#     4  12  24  40  74 108 128 174 244 280 342 418
#     4  11  24  42  68 100 135 187 224 280 354 417
#     4  11  23  41  67  97 135 177 228 282 347 410
#     4  12  24  43  69  97 133 173 233 283 336 418
#     4  11  23  40  67  97 134 179 226 279 346 419
#
# _framework density 20.732161000000001
#
# number of rings (size 3 to 8) (size 9 to 14) (size 15 to 20)
#    0.000    0.533    6.667    2.000    1.867    0.000 
#    0.000    7.333    0.000    0.000    0.000    0.000 
#    0.000    0.000    0.000    0.000    0.000    0.000 
#
# Total GULP energy -83615.007235 kJ/mol
# GULP energy per Si atom -5574.333816 kJ/mol
# Density = 2.068497 g / cm^3
# Si number density = 20.732161 Si / 1000 Ang^3
#
#
#
# Elastic Constant Matrix: (Units=GPa)
#
#
# Indices 1 2 3 4 5 6 
#
# 1 98.8009 34.5375 47.8151 18.8294 7.8609 -21.2809
# 2 34.5375 98.9170 32.9811 -1.6717 13.9202 -17.9461
# 3 47.8151 32.9811 89.4690 18.3473 8.7235 -15.1486
# 4 18.8294 -1.6717 18.3473 38.0343 2.5873 6.6915
# 5 7.8609 13.9202 8.7235 2.5873 38.2938 10.4410
# 6 -21.2809 -17.9461 -15.1486 6.6915 10.4410 31.3419
#
#
#
# Elastic Compliance Matrix: (Units=1/GPa)
#
#
# Indices 1 2 3 4 5 6 
#
# 1 0.017479 -0.001967 -0.004440 -0.008382 -0.004539 0.011897
# 2 -0.001967 0.013823 -0.002743 0.002116 -0.005993 0.006798
# 3 -0.004440 -0.002743 0.017491 -0.007282 -0.003369 0.006545
# 4 -0.008382 0.002116 -0.007282 0.036791 0.004892 -0.017484
# 5 -0.004539 -0.005993 -0.003369 0.004892 0.035379 -0.020972
# 6 0.011897 0.006798 0.006545 -0.017484 -0.020972 0.057760
#
#
# Mechanical properties :
#
#
# Convention : Reuss Voigt Hill
#
# Bulk Modulus (GPa) = 32.79423 57.53937 45.16680
# Shear Modulus (GPa) = 24.13255 32.99088 28.56171
#
# Velocity S-wave (km/s) = 3.41547 3.99343 3.71570
# Velocity P-wave (km/s) = 5.60413 7.00551 6.34364
#
# Compressibility (1/GPa) = 0.03049317
#
# Stress axis : x y z
#
# Youngs Moduli (GPa) = 57.21123 72.34127 57.17071
#
# Poissons Ratio (x) = 0.14228 0.25386
# Poissons Ratio (y) = 0.11252 0.15683
# Poissons Ratio (z) = 0.25404 0.19844
#
# Static dielectric constant tensor:
#      x y z
#    x 1.731280 0.013710 0.003530 
#    y 0.013710 1.794070 0.003610 
#    z 0.003530 0.003610 1.759810 
# 
# From -- ./inp_files/303799.got.cif
#   From: 2010.05.17/outbox.cif.g08.bks.cpg/sg2_152_cif.got.tgz:303799.got - 2010.06.03 11:33:40.
