data_PCOD9059123
_publ_section_title
;
Structure prediction by ZEFSAII (Michael W. Deem and Ramdas Pophale) SiO2 
 PCOD9059123
Probable space group: P -1
;
_chemical_formula_sum "Si O2"
_cell_formula_units_Z 16
_cell_length_a 14.894691
_cell_length_b 9.587390
_cell_length_c 9.432213
_cell_angle_alpha 115.960595
_cell_angle_beta 139.787046
_cell_angle_gamma 80.491755
_cell_volume 747.960388
_symmetry_space_group_name_H-M "P -1"
_symmetry_group_IT_number 2
_symmetry_cell_setting 'triclinic'
loop_
_space_group_symop_operation_xyz
x,y,z
-x,-y,-z
loop_
_atom_site_type_symbol
_atom_site_label
_atom_site_fract_x
_atom_site_fract_y
_atom_site_fract_z
Si Si1 0.513290 0.689906 0.597143
Si Si2 0.210531 0.350485 0.537661
Si Si3 0.262550 0.667369 0.911821
Si Si4 0.945181 0.640569 0.928598
Si Si5 0.820517 0.810309 0.094588
Si Si6 0.581080 0.835065 0.425043
Si Si7 0.251050 0.791415 0.258906
Si Si8 0.021500 0.816923 0.602557
O O1 0.500000 0.500000 0.500000
O O2 0.556316 0.766660 0.525623
O O3 0.362151 0.728815 0.462603
O O4 0.649477 0.772564 0.897868
O O5 0.268292 0.495729 0.783475
O O6 0.329333 0.265211 0.595582
O O7 0.074907 0.221070 0.389934
O O8 0.147960 0.411103 0.348445
O O9 0.134680 0.713308 0.696017
O O10 0.420794 0.796916 0.147092
O O11 0.225238 0.675722 0.037176
O O12 0.096133 0.777420 0.134537
O O13 0.849055 0.703951 0.951925
O O14 0.000000 0.500000 0.000000
O O15 0.910385 0.776552 0.320517
O O16 0.887343 0.996810 0.215987
O O17 0.667876 0.024709 0.608802
#
# Coordination Sequence:
#
# PCOD9059123 Si02
#       8
#     2   2   2   2   2   2   2   2
#     4  11  23  40  67  97 133 175 217 274 329 392
#     4  12  25  41  69  97 135 171 222 272 336 387
#     4  11  23  41  66  96 131 168 219 272 326 389
#     4  12  25  41  67  99 134 171 223 279 327 393
#     4  11  24  43  65  95 135 170 225 267 333 394
#     4  11  24  44  67  99 130 178 224 271 324 400
#     4  11  24  42  71  97 131 175 227 270 327 396
#     4  11  24  42  68  95 130 178 214 277 330 393
#
# _framework density 21.391507000000001
#
# number of rings (size 3 to 8) (size 9 to 14) (size 15 to 20)
#    0.000    0.750    2.500    6.000    5.250    1.000 
#    0.000    0.000    0.000    5.250    0.000    0.000 
#    0.000    0.000    0.000    0.000    0.000    0.000 
#
# Total GULP energy -89522.006642 kJ/mol
# GULP energy per Si atom -5595.125415 kJ/mol
# Density = 2.134282 g / cm^3
# Si number density = 21.391507 Si / 1000 Ang^3
#
#
#
# Elastic Constant Matrix: (Units=GPa)
#
#
# Indices 1 2 3 4 5 6 
#
# 1 43.1989 6.4679 -7.0053 -6.8739 5.3333 -16.4143
# 2 6.4679 63.6871 13.0258 -1.5849 -2.0064 0.0423
# 3 -7.0053 13.0258 75.8279 -5.2385 0.8576 -6.5492
# 4 -6.8739 -1.5849 -5.2385 24.7754 -2.9801 7.4784
# 5 5.3333 -2.0064 0.8576 -2.9801 23.4040 -2.6979
# 6 -16.4143 0.0423 -6.5492 7.4784 -2.6979 36.7066
#
#
#
# Elastic Compliance Matrix: (Units=1/GPa)
#
#
# Indices 1 2 3 4 5 6 
#
# 1 0.031197 -0.004291 0.005176 0.004735 -0.005506 0.013509
# 2 -0.004291 0.016938 -0.003531 0.000157 0.002299 -0.002432
# 3 0.005176 -0.003531 0.014858 0.002917 -0.001161 0.004290
# 4 0.004735 0.000157 0.002917 0.044624 0.003798 -0.006174
# 5 -0.005506 0.002299 -0.001161 0.003798 0.044687 -0.000161
# 6 0.013509 -0.002432 0.004290 -0.006174 -0.000161 0.035298
#
#
# Mechanical properties :
#
#
# Convention : Reuss Voigt Hill
#
# Bulk Modulus (GPa) = 17.33158 23.07675 20.20416
# Shear Modulus (GPa) = 23.57057 28.32556 25.94806
#
# Velocity S-wave (km/s) = 3.32304 3.64283 3.48660
# Velocity P-wave (km/s) = 4.77945 5.33900 5.06695
#
# Compressibility (1/GPa) = 0.05769816
#
# Stress axis : x y z
#
# Youngs Moduli (GPa) = 32.05430 59.03962 67.30541
#
# Poissons Ratio (x) = 0.25336 -0.34834
# Poissons Ratio (y) = 0.13756 0.23767
# Poissons Ratio (z) = -0.16590 0.20848
#
# Static dielectric constant tensor:
#      x y z
#    x 1.768330 0.014340 0.022130 
#    y 0.014340 1.772820 -0.014100 
#    z 0.022130 -0.014100 1.797040 
# 
# From -- ./inp_files/218265.got.cif
#   From: 2010.05.17/outbox.cif.g08.bks.cpg/sg2_110_cif.got.tgz:218265.got - 2010.06.03 11:33:40.
