data_PCOD9059590
_publ_section_title
;
Structure prediction by ZEFSAII (Michael W. Deem and Ramdas Pophale) SiO2 
 PCOD9059590
Probable space group: P -1
;
_chemical_formula_sum "Si O2"
_cell_formula_units_Z 14
_cell_length_a 9.063802
_cell_length_b 8.533976
_cell_length_c 16.987335
_cell_angle_alpha 46.896758
_cell_angle_beta 116.750936
_cell_angle_gamma 81.535334
_cell_volume 613.871143
_symmetry_space_group_name_H-M "P -1"
_symmetry_group_IT_number 2
_symmetry_cell_setting 'triclinic'
loop_
_space_group_symop_operation_xyz
x,y,z
-x,-y,-z
loop_
_atom_site_type_symbol
_atom_site_label
_atom_site_fract_x
_atom_site_fract_y
_atom_site_fract_z
Si Si1 0.643542 0.947165 0.759480
Si Si2 0.777773 0.171854 0.443180
Si Si3 0.563986 0.830078 0.988535
Si Si4 0.886971 0.696763 0.740054
Si Si5 0.590375 0.481201 0.900403
Si Si6 0.975502 0.190106 0.995454
Si Si7 0.242771 0.400627 0.599779
O O1 0.788076 0.869556 0.741569
O O2 0.607965 0.720276 0.841119
O O3 0.389237 0.276039 0.596609
O O4 0.804309 0.896905 0.884025
O O5 0.566228 0.396447 0.257038
O O6 0.787187 0.341673 0.455345
O O7 0.777134 0.939256 0.562701
O O8 0.000000 0.000000 0.500000
O O9 0.406980 0.111487 0.795621
O O10 0.492714 0.643811 0.025822
O O11 0.839623 0.566036 0.127481
O O12 0.500000 0.000000 0.000000
O O13 0.825261 0.506862 0.805860
O O14 0.848169 0.194585 0.035423
O O15 0.000000 0.000000 0.000000
O O16 0.000000 0.500000 0.500000
#
# Coordination Sequence:
#
# PCOD9059590 Si02
#       7
#     2   2   2   2   2   2   2
#     4  11  26  47  69 109 144 190 243 301 374 434
#     4  12  24  46  69 106 147 189 243 305 368 424
#     4  12  23  45  78 109 141 201 251 292 365 438
#     4  11  24  44  77 103 146 193 244 299 364 442
#     4  11  23  41  74 101 142 190 240 301 351 437
#     4  11  23  44  70 103 142 187 240 300 358 442
#     4  12  27  44  72 108 153 183 245 312 361 440
#
# _framework density 22.806090999999999
#
# number of rings (size 3 to 8) (size 9 to 14) (size 15 to 20)
#    0.000    0.571    4.286    4.286    0.000    5.714 
#    0.000    2.857    0.000    0.000    0.000    0.000 
#    0.000    0.000    0.000    0.000    0.000    0.000 
#
# Total GULP energy -78048.180406 kJ/mol
# GULP energy per Si atom -5574.870029 kJ/mol
# Density = 2.275418 g / cm^3
# Si number density = 22.806091 Si / 1000 Ang^3
#
#
#
# Elastic Constant Matrix: (Units=GPa)
#
#
# Indices 1 2 3 4 5 6 
#
# 1 90.8189 13.9861 8.7549 -11.4452 10.9871 -15.9125
# 2 13.9861 131.8692 -1.6779 -14.2599 22.4514 -10.8583
# 3 8.7549 -1.6779 60.2110 -7.0251 5.2382 -10.5291
# 4 -11.4452 -14.2599 -7.0251 27.4283 -6.3962 12.7378
# 5 10.9871 22.4514 5.2382 -6.3962 49.9764 -5.7336
# 6 -15.9125 -10.8583 -10.5291 12.7378 -5.7336 37.3729
#
#
#
# Elastic Compliance Matrix: (Units=1/GPa)
#
#
# Indices 1 2 3 4 5 6 
#
# 1 0.012339 -0.000440 -0.000696 0.002591 -0.001676 0.003790
# 2 -0.000440 0.008665 0.001166 0.003373 -0.003373 0.000992
# 3 -0.000696 0.001166 0.017873 0.002734 -0.001444 0.003924
# 4 0.002591 0.003373 0.002734 0.046347 0.002112 -0.012619
# 5 -0.001676 -0.003373 -0.001444 0.002112 0.022385 0.000614
# 6 0.003790 0.000992 0.003924 -0.012619 0.000614 0.034160
#
#
# Mechanical properties :
#
#
# Convention : Reuss Voigt Hill
#
# Bulk Modulus (GPa) = 25.68202 36.11392 30.89797
# Shear Modulus (GPa) = 32.32324 40.41126 36.36725
#
# Velocity S-wave (km/s) = 3.76880 4.21402 3.99761
# Velocity P-wave (km/s) = 5.49763 6.28863 5.90639
#
# Compressibility (1/GPa) = 0.03893775
#
# Stress axis : x y z
#
# Youngs Moduli (GPa) = 81.04388 115.40112 55.95090
#
# Poissons Ratio (x) = 0.05078 0.03892
# Poissons Ratio (y) = 0.03566 -0.06523
# Poissons Ratio (z) = 0.05637 -0.13454
#
# Static dielectric constant tensor:
#      x y z
#    x 1.903090 -0.106800 0.019250 
#    y -0.106800 1.895250 -0.069740 
#    z 0.019250 -0.069740 1.838110 
# 
# From -- ./inp_files/556904.got.cif
#   From: 2010.05.17/outbox.cif.g08.bks.cpg/sg2_279_cif.got.tgz:556904.got - 2010.06.03 11:33:40.
