data_PCOD9059241
_publ_section_title
;
Structure prediction by ZEFSAII (Michael W. Deem and Ramdas Pophale) SiO2 
 PCOD9059241
Probable space group: P -1
;
_chemical_formula_sum "Si O2"
_cell_formula_units_Z 16
_cell_length_a 9.548437
_cell_length_b 11.671990
_cell_length_c 9.556100
_cell_angle_alpha 75.070232
_cell_angle_beta 135.927447
_cell_angle_gamma 92.707902
_cell_volume 700.567985
_symmetry_space_group_name_H-M "P -1"
_symmetry_group_IT_number 2
_symmetry_cell_setting 'triclinic'
loop_
_space_group_symop_operation_xyz
x,y,z
-x,-y,-z
loop_
_atom_site_type_symbol
_atom_site_label
_atom_site_fract_x
_atom_site_fract_y
_atom_site_fract_z
Si Si1 0.750132 0.309840 0.198056
Si Si2 0.479571 0.025411 0.259740
Si Si3 0.168059 0.519450 0.004692
Si Si4 0.707563 0.154239 0.952784
Si Si5 0.374538 0.636318 0.346387
Si Si6 0.649703 0.695238 0.972992
Si Si7 0.916720 0.252183 0.646301
Si Si8 0.150445 0.016190 0.272485
O O1 0.743688 0.200648 0.119643
O O2 0.838802 0.276226 0.425272
O O3 0.873547 0.407709 0.192767
O O4 0.504920 0.361886 0.024802
O O5 0.708457 0.969450 0.496405
O O6 0.309017 0.014675 0.259550
O O7 0.463486 0.168516 0.186303
O O8 0.401153 0.960851 0.091148
O O9 0.265590 0.614057 0.130770
O O10 0.302033 0.389110 0.102630
O O11 0.000000 0.500000 0.000000
O O12 0.562546 0.242037 0.705884
O O13 0.942294 0.116451 0.075182
O O14 0.500000 0.500000 0.500000
O O15 0.236797 0.672297 0.372632
O O16 0.865191 0.709325 0.189040
O O17 0.920191 0.111676 0.725095
#
# Coordination Sequence:
#
# PCOD9059241 Si02
#       8
#     2   2   2   2   2   2   2   2
#     4  11  28  46  68 108 148 187 236 300 362 433
#     4  11  23  40  74 106 141 192 242 298 354 423
#     4  11  25  49  73 103 138 190 245 297 352 433
#     4  11  24  47  69 101 149 190 243 288 358 423
#     4  11  24  44  74 105 142 186 246 301 345 429
#     4  12  24  45  74 100 151 189 239 295 372 417
#     4  12  23  46  72 105 146 192 236 294 370 417
#     4  11  23  41  72 107 143 189 244 296 346 432
#
# _framework density 22.838609999999999
#
# number of rings (size 3 to 8) (size 9 to 14) (size 15 to 20)
#    0.000    0.750    5.000    2.250    1.750    3.500 
#    4.500    0.000    0.000    0.000    0.000    0.000 
#    0.000    0.000    0.000    0.000    0.000    0.000 
#
# Total GULP energy -89214.967198 kJ/mol
# GULP energy per Si atom -5575.935450 kJ/mol
# Density = 2.278663 g / cm^3
# Si number density = 22.838610 Si / 1000 Ang^3
#
#
#
# Elastic Constant Matrix: (Units=GPa)
#
#
# Indices 1 2 3 4 5 6 
#
# 1 99.6861 34.3690 32.4635 -1.0647 -8.1126 2.2877
# 2 34.3690 89.7112 27.4209 -7.9824 -6.8543 1.9402
# 3 32.4635 27.4209 93.7361 4.8615 -12.6913 -8.8792
# 4 -1.0647 -7.9824 4.8615 36.7586 6.8968 1.5402
# 5 -8.1126 -6.8543 -12.6913 6.8968 32.7593 -0.3267
# 6 2.2877 1.9402 -8.8792 1.5402 -0.3267 30.2877
#
#
#
# Elastic Compliance Matrix: (Units=1/GPa)
#
#
# Indices 1 2 3 4 5 6 
#
# 1 0.012483 -0.003685 -0.003248 -0.000142 0.001076 -0.001640
# 2 -0.003685 0.013847 -0.003102 0.003371 0.000057 -0.001689
# 3 -0.003248 -0.003102 0.013997 -0.003720 0.004800 0.004788
# 4 -0.000142 0.003371 -0.003720 0.029876 -0.007090 -0.002891
# 5 0.001076 0.000057 0.004800 -0.007090 0.034177 0.002052
# 6 -0.001640 -0.001689 0.004788 -0.002891 0.002052 0.034822
#
#
# Mechanical properties :
#
#
# Convention : Reuss Voigt Hill
#
# Bulk Modulus (GPa) = 49.36096 52.40447 50.88272
# Shear Modulus (GPa) = 30.11632 32.55312 31.33472
#
# Velocity S-wave (km/s) = 3.63527 3.77948 3.70808
# Velocity P-wave (km/s) = 6.26739 6.48393 6.37658
#
# Compressibility (1/GPa) = 0.02025892
#
# Stress axis : x y z
#
# Youngs Moduli (GPa) = 80.10780 72.21579 71.44476
#
# Poissons Ratio (x) = 0.26609 0.23203
# Poissons Ratio (y) = 0.29517 0.22161
# Poissons Ratio (z) = 0.26017 0.22400
#
# Static dielectric constant tensor:
#      x y z
#    x 2.057840 0.231710 -0.152420 
#    y 0.231710 2.157710 -0.238650 
#    z -0.152420 -0.238650 2.048590 
# 
# From -- ./inp_files/187046.got.cif
#   From: 2010.05.17/outbox.cif.g08.bks.cpg/sg2_94_cif.got.tgz:187046.got - 2010.06.03 11:33:40.
