data_PCOD9059091
_publ_section_title
;
Structure prediction by ZEFSAII (Michael W. Deem and Ramdas Pophale) SiO2 
 PCOD9059091
Probable space group: P -1
;
_chemical_formula_sum "Si O2"
_cell_formula_units_Z 16
_cell_length_a 8.183405
_cell_length_b 11.996164
_cell_length_c 14.774411
_cell_angle_alpha 69.594881
_cell_angle_beta 99.844556
_cell_angle_gamma 148.451736
_cell_volume 687.316644
_symmetry_space_group_name_H-M "P -1"
_symmetry_group_IT_number 2
_symmetry_cell_setting 'triclinic'
loop_
_space_group_symop_operation_xyz
x,y,z
-x,-y,-z
loop_
_atom_site_type_symbol
_atom_site_label
_atom_site_fract_x
_atom_site_fract_y
_atom_site_fract_z
Si Si1 0.467808 0.797687 0.397782
Si Si2 0.263228 0.252559 0.665467
Si Si3 0.724355 0.113603 0.073513
Si Si4 0.192413 0.775592 0.752388
Si Si5 0.454597 0.233111 0.264750
Si Si6 0.784665 0.507965 0.386640
Si Si7 0.552088 0.391573 0.030886
Si Si8 0.437501 0.254675 0.859373
O O1 0.490620 0.694263 0.365858
O O2 0.431348 0.722045 0.515763
O O3 0.149128 0.681698 0.380639
O O4 0.768733 0.070525 0.331505
O O5 0.280128 0.402263 0.602502
O O6 0.283690 0.253571 0.776143
O O7 0.911728 0.993661 0.673623
O O8 0.716572 0.965955 0.121383
O O9 0.640390 0.111098 0.164953
O O10 0.500000 0.000000 0.000000
O O11 0.063746 0.383077 0.006997
O O12 0.388302 0.800365 0.707474
O O13 0.824632 0.505860 0.807909
O O14 0.677401 0.448020 0.289636
O O15 0.454979 0.274637 0.149136
O O16 0.500000 0.500000 0.000000
O O17 0.392655 0.245699 0.964898
#
# Coordination Sequence:
#
# PCOD9059091 Si02
#       8
#     2   2   2   2   2   2   2   2
#     4  11  25  50  73  99 141 178 231 285 352 412
#     4  12  25  46  73 103 138 181 233 282 346 408
#     4  11  23  40  66  96 132 185 231 275 340 401
#     4  11  24  44  67 103 137 180 229 283 342 415
#     4  12  26  43  70 105 139 179 233 282 343 409
#     4  11  27  49  71 104 136 181 228 291 347 409
#     4  11  25  40  61  98 140 179 231 280 334 408
#     4  11  24  42  68  97 139 188 225 280 343 403
#
# _framework density 23.278935000000001
#
# number of rings (size 3 to 8) (size 9 to 14) (size 15 to 20)
#    0.000    0.750    2.500    4.125    5.250    7.000 
#    2.250    0.000    0.000    0.000    0.000    0.000 
#    0.000    0.000    0.000    0.000    0.000    0.000 
#
# Total GULP energy -89486.679497 kJ/mol
# GULP energy per Si atom -5592.917469 kJ/mol
# Density = 2.322595 g / cm^3
# Si number density = 23.278935 Si / 1000 Ang^3
#
#
#
# Elastic Constant Matrix: (Units=GPa)
#
#
# Indices 1 2 3 4 5 6 
#
# 1 103.3521 19.2287 7.4140 4.6415 10.5992 -23.8421
# 2 19.2287 65.5222 8.7143 5.8722 0.0992 -4.1479
# 3 7.4140 8.7143 73.2108 -3.2606 6.0539 -0.1223
# 4 4.6415 5.8722 -3.2606 28.8765 -6.2244 2.6757
# 5 10.5992 0.0992 6.0539 -6.2244 32.2722 4.0720
# 6 -23.8421 -4.1479 -0.1223 2.6757 4.0720 36.8401
#
#
#
# Elastic Compliance Matrix: (Units=1/GPa)
#
#
# Indices 1 2 3 4 5 6 
#
# 1 0.013149 -0.002849 -0.000643 -0.003760 -0.006067 0.009131
# 2 -0.002849 0.016628 -0.001877 -0.003015 0.000634 0.000171
# 3 -0.000643 -0.001877 0.014192 0.001688 -0.002060 -0.000475
# 4 -0.003760 -0.003015 0.001688 0.038634 0.009211 -0.006592
# 5 -0.006067 0.000634 -0.002060 0.009211 0.036217 -0.008534
# 6 0.009131 0.000171 -0.000475 -0.006592 -0.008534 0.034493
#
#
# Mechanical properties :
#
#
# Convention : Reuss Voigt Hill
#
# Bulk Modulus (GPa) = 30.09242 34.75546 32.42394
# Shear Modulus (GPa) = 28.55036 33.37965 30.96501
#
# Velocity S-wave (km/s) = 3.50586 3.79079 3.65111
# Velocity P-wave (km/s) = 5.41692 5.84145 5.63319
#
# Compressibility (1/GPa) = 0.03323096
#
# Stress axis : x y z
#
# Youngs Moduli (GPa) = 76.05007 60.14020 70.46009
#
# Poissons Ratio (x) = 0.17135 0.04531
# Poissons Ratio (y) = 0.21668 0.13226
# Poissons Ratio (z) = 0.04891 0.11289
#
# Static dielectric constant tensor:
#      x y z
#    x 1.924250 0.027540 -0.013450 
#    y 0.027540 1.906610 -0.043930 
#    z -0.013450 -0.043930 1.908930 
# 
# From -- ./inp_files/46613.got.cif
#   From: 2010.05.17/outbox.cif.g08.bks.cpg/sg2_24_cif.got.tgz:46613.got - 2010.06.03 11:33:40.
