data_PCOD9059501
_publ_section_title
;
Structure prediction by ZEFSAII (Michael W. Deem and Ramdas Pophale) SiO2 
 PCOD9059501
Probable space group: P -1
;
_chemical_formula_sum "Si O2"
_cell_formula_units_Z 15
_cell_length_a 14.060612
_cell_length_b 14.948182
_cell_length_c 9.430379
_cell_angle_alpha 128.222718
_cell_angle_beta 74.883908
_cell_angle_gamma 147.082649
_cell_volume 673.277596
_symmetry_space_group_name_H-M "P -1"
_symmetry_group_IT_number 2
_symmetry_cell_setting 'triclinic'
loop_
_space_group_symop_operation_xyz
x,y,z
-x,-y,-z
loop_
_atom_site_type_symbol
_atom_site_label
_atom_site_fract_x
_atom_site_fract_y
_atom_site_fract_z
Si Si1 0.373189 0.257908 0.861618
Si Si2 0.885972 0.815073 0.674675
Si Si3 0.786041 0.506324 0.596885
Si Si4 0.391362 0.610866 0.844158
Si Si5 0.176062 0.978829 0.106536
Si Si6 0.000000 0.500000 0.000000
Si Si7 0.299210 0.013271 0.394505
Si Si8 0.732697 0.293400 0.146359
O O1 0.314973 0.122586 0.617381
O O2 0.500000 0.500000 0.000000
O O3 0.524532 0.343039 0.992814
O O4 0.144152 0.056695 0.825518
O O5 0.771104 0.618385 0.645728
O O6 0.789171 0.661940 0.416739
O O7 0.844129 0.905313 0.786117
O O8 0.832447 0.466796 0.410483
O O9 0.547296 0.230052 0.477365
O O10 0.974489 0.710048 0.840566
O O11 0.307032 0.652759 0.909344
O O12 0.599390 0.823324 0.865688
O O13 0.195673 0.965672 0.249570
O O14 0.156569 0.761232 0.256599
O O15 0.883505 0.361045 0.070861
O O16 0.500000 0.000000 0.000000
#
# Coordination Sequence:
#
# PCOD9059501 Si02
#       8
#     2   2   2   2   2   1   2   2
#     4  12  27  44  68 109 151 186 235 302 362 434
#     4  11  23  41  70 101 148 184 232 295 354 431
#     4  11  23  42  72 104 137 181 241 299 354 433
#     4  11  24  43  72 101 140 193 236 291 369 429
#     4  12  23  41  74 105 137 196 239 286 366 432
#     4  12  26  48  78  94 148 192 228 312 370 406
#     4  12  26  46  69 105 145 187 245 301 358 428
#     4  11  23  50  74 104 139 184 243 307 361 424
#
# _framework density 22.279073
#
# number of rings (size 3 to 8) (size 9 to 14) (size 15 to 20)
#    0.000    0.533    5.333    4.000    1.867    5.333 
#    2.400    2.667    0.000    0.000    0.000    0.000 
#    0.000    0.000    0.000    0.000    0.000    0.000 
#
# Total GULP energy -83735.949303 kJ/mol
# GULP energy per Si atom -5582.396620 kJ/mol
# Density = 2.222836 g / cm^3
# Si number density = 22.279073 Si / 1000 Ang^3
#
#
#
# Elastic Constant Matrix: (Units=GPa)
#
#
# Indices 1 2 3 4 5 6 
#
# 1 47.8021 -3.8548 27.7218 7.9076 11.7112 -11.5007
# 2 -3.8548 85.1690 23.2425 24.3014 3.0438 -9.9227
# 3 27.7218 23.2425 144.8778 24.5077 9.6075 -25.3424
# 4 7.9076 24.3014 24.5077 32.2346 -6.3448 2.2463
# 5 11.7112 3.0438 9.6075 -6.3448 42.6711 -2.9498
# 6 -11.5007 -9.9227 -25.3424 2.2463 -2.9498 27.6084
#
#
#
# Elastic Compliance Matrix: (Units=1/GPa)
#
#
# Indices 1 2 3 4 5 6 
#
# 1 0.031139 0.008478 -0.001279 -0.016119 -0.010218 0.015064
# 2 0.008478 0.018963 0.001150 -0.019281 -0.005952 0.012335
# 3 -0.001279 0.001150 0.010591 -0.009877 -0.002886 0.010097
# 4 -0.016119 -0.019281 -0.009877 0.061875 0.015419 -0.026098
# 5 -0.010218 -0.005952 -0.002886 0.015419 0.029110 -0.007190
# 6 0.015064 0.012335 0.010097 -0.026098 -0.007190 0.057553
#
#
# Mechanical properties :
#
#
# Convention : Reuss Voigt Hill
#
# Bulk Modulus (GPa) = 12.92159 41.34090 27.13124
# Shear Modulus (GPa) = 22.90100 35.88544 29.39322
#
# Velocity S-wave (km/s) = 3.20959 4.01774 3.63618
# Velocity P-wave (km/s) = 4.42128 6.33397 5.46200
#
# Compressibility (1/GPa) = 0.07738985
#
# Stress axis : x y z
#
# Youngs Moduli (GPa) = 32.11383 52.73544 94.41839
#
# Poissons Ratio (x) = -0.44709 0.12077
# Poissons Ratio (y) = -0.27226 -0.10854
# Poissons Ratio (z) = 0.04108 -0.06062
#
# Static dielectric constant tensor:
#      x y z
#    x 1.878500 0.074520 -0.000730 
#    y 0.074520 1.875560 -0.021490 
#    z -0.000730 -0.021490 1.814410 
# 
# From -- ./inp_files/315869.got.cif
#   From: 2010.05.17/outbox.cif.g08.bks.cpg/sg2_158_cif.got.tgz:315869.got - 2010.06.03 11:33:40.
