data_PCOD9059243
_publ_section_title
;
Structure prediction by ZEFSAII (Michael W. Deem and Ramdas Pophale) SiO2 
 PCOD9059243
Probable space group: P -1
;
_chemical_formula_sum "Si O2"
_cell_formula_units_Z 14
_cell_length_a 9.535795
_cell_length_b 10.985534
_cell_length_c 10.224858
_cell_angle_alpha 64.196021
_cell_angle_beta 116.111649
_cell_angle_gamma 148.729850
_cell_volume 495.211035
_symmetry_space_group_name_H-M "P -1"
_symmetry_group_IT_number 2
_symmetry_cell_setting 'triclinic'
loop_
_space_group_symop_operation_xyz
x,y,z
-x,-y,-z
loop_
_atom_site_type_symbol
_atom_site_label
_atom_site_fract_x
_atom_site_fract_y
_atom_site_fract_z
Si Si1 0.770530 0.283516 0.354096
Si Si2 0.706263 0.717480 0.042488
Si Si3 0.781239 0.830270 0.378161
Si Si4 0.912196 0.753499 0.873542
Si Si5 0.163977 0.398190 0.626893
Si Si6 0.738417 0.387454 0.790212
Si Si7 0.449208 0.091897 0.063762
O O1 0.880362 0.242557 0.513448
O O2 0.552957 0.096410 0.237512
O O3 0.706277 0.367218 0.380655
O O4 0.035963 0.503715 0.268320
O O5 0.831385 0.690003 0.202129
O O6 0.538161 0.738892 0.982656
O O7 0.651570 0.615859 0.917095
O O8 0.000000 0.000000 0.000000
O O9 0.527802 0.749737 0.330725
O O10 0.845621 0.601419 0.803092
O O11 0.940310 0.012008 0.237094
O O12 0.000000 0.000000 0.500000
O O13 0.137960 0.845244 0.013576
O O14 0.293744 0.378091 0.589813
O O15 0.633995 0.220458 0.946390
#
# Coordination Sequence:
#
# PCOD9059243 Si02
#       7
#     2   2   2   2   2   2   2
#     4  11  25  42  69  99 148 182 215 285 357 396
#     4  12  20  42  73 100 131 178 237 283 329 407
#     4  11  25  46  72 103 135 175 239 280 334 413
#     4  11  23  40  75 100 132 182 232 287 330 395
#     4  11  23  45  65 100 138 178 225 280 342 406
#     4  11  23  45  71 102 135 182 228 283 341 403
#     4  11  23  42  69 103 135 179 236 277 335 413
#
# _framework density 28.270775
#
# number of rings (size 3 to 8) (size 9 to 14) (size 15 to 20)
#    0.000    0.857    5.714    1.714    0.000    4.000 
#    0.000    5.714    0.000    0.000    0.000    0.000 
#    0.000    0.000    0.000    0.000    0.000    0.000 
#
# Total GULP energy -78320.947811 kJ/mol
# GULP energy per Si atom -5594.353415 kJ/mol
# Density = 2.820643 g / cm^3
# Si number density = 28.270775 Si / 1000 Ang^3
#
#
#
# Elastic Constant Matrix: (Units=GPa)
#
#
# Indices 1 2 3 4 5 6 
#
# 1 157.9294 23.9353 34.1631 -8.5030 4.5638 0.7754
# 2 23.9353 102.4162 47.7190 17.1689 12.8573 10.6375
# 3 34.1631 47.7190 196.4400 32.3631 30.0833 14.0249
# 4 -8.5030 17.1689 32.3631 67.5855 7.4458 7.7850
# 5 4.5638 12.8573 30.0833 7.4458 58.4465 -8.8542
# 6 0.7754 10.6375 14.0249 7.7850 -8.8542 29.7833
#
#
#
# Elastic Compliance Matrix: (Units=1/GPa)
#
#
# Indices 1 2 3 4 5 6 
#
# 1 0.006892 -0.001421 -0.001214 0.001720 0.000260 0.000528
# 2 -0.001421 0.011817 -0.001811 -0.001713 -0.001859 -0.003436
# 3 -0.001214 -0.001811 0.006804 -0.002273 -0.003154 -0.002869
# 4 0.001720 -0.001713 -0.002273 0.017040 -0.001241 -0.003186
# 5 0.000260 -0.001859 -0.003154 -0.001241 0.020580 0.008585
# 6 0.000528 -0.003436 -0.002869 -0.003186 0.008585 0.039525
#
#
# Mechanical properties :
#
#
# Convention : Reuss Voigt Hill
#
# Bulk Modulus (GPa) = 60.16637 74.26892 67.21765
# Shear Modulus (GPa) = 42.70122 54.56097 48.63110
#
# Velocity S-wave (km/s) = 3.89065 4.39788 4.15202
# Velocity P-wave (km/s) = 6.44292 7.21914 6.84205
#
# Compressibility (1/GPa) = 0.01662058
#
# Stress axis : x y z
#
# Youngs Moduli (GPa) = 145.08548 84.62051 146.96925
#
# Poissons Ratio (x) = 0.12023 0.17849
# Poissons Ratio (y) = 0.20614 0.26623
# Poissons Ratio (z) = 0.17620 0.15329
#
# Static dielectric constant tensor:
#      x y z
#    x 2.257320 -0.038920 -0.130890 
#    y -0.038920 2.375430 0.107270 
#    z -0.130890 0.107270 2.320560 
# 
# From -- ./inp_files/269862.got.cif
#   From: 2010.05.17/outbox.cif.g08.bks.cpg/sg2_135_cif.got.tgz:269862.got - 2010.06.03 11:33:40.
