data_PCOD9059850
_publ_section_title
;
Structure prediction by ZEFSAII (Michael W. Deem and Ramdas Pophale) SiO2 
 PCOD9059850
Probable space group: P -1
;
_chemical_formula_sum "Si O2"
_cell_formula_units_Z 14
_cell_length_a 10.902390
_cell_length_b 9.692446
_cell_length_c 9.026234
_cell_angle_alpha 82.964622
_cell_angle_beta 52.359607
_cell_angle_gamma 58.312377
_cell_volume 614.223265
_symmetry_space_group_name_H-M "P -1"
_symmetry_group_IT_number 2
_symmetry_cell_setting 'triclinic'
loop_
_space_group_symop_operation_xyz
x,y,z
-x,-y,-z
loop_
_atom_site_type_symbol
_atom_site_label
_atom_site_fract_x
_atom_site_fract_y
_atom_site_fract_z
Si Si1 0.432184 0.895301 0.362874
Si Si2 0.316910 0.255587 0.394355
Si Si3 0.053820 0.669711 0.185279
Si Si4 0.366021 0.441482 0.562022
Si Si5 0.328440 0.282394 0.033712
Si Si6 0.005946 0.027757 0.666332
Si Si7 0.960970 0.770629 0.904139
O O1 0.580861 0.720956 0.358819
O O2 0.224302 0.951519 0.552543
O O3 0.440586 0.055121 0.367408
O O4 0.465076 0.844757 0.171346
O O5 0.109974 0.332078 0.607639
O O6 0.387680 0.365500 0.392400
O O7 0.310962 0.261928 0.221788
O O8 0.234123 0.480282 0.050667
O O9 0.103744 0.776586 0.233936
O O10 0.973490 0.759645 0.073843
O O11 0.500000 0.500000 0.500000
O O12 0.154785 0.601799 0.724226
O O13 0.205823 0.236054 0.036884
O O14 0.945326 0.930688 0.824666
O O15 0.000000 0.000000 0.500000
#
# Coordination Sequence:
#
# PCOD9059850 Si02
#       7
#     2   2   2   2   2   2   2
#     4  11  24  46  66 100 135 177 226 276 334 403
#     4  11  25  43  69  99 136 179 226 278 336 394
#     4  11  23  42  70 100 130 181 225 271 333 402
#     4  12  24  43  68  99 139 178 223 278 335 402
#     4  12  24  44  73 100 133 176 233 279 330 393
#     4  11  26  46  69  99 142 176 219 280 342 397
#     4  12  23  44  70 101 137 176 226 277 333 402
#
# _framework density 22.793015
#
# number of rings (size 3 to 8) (size 9 to 14) (size 15 to 20)
#    0.000    0.571    4.286    4.714    2.000    1.143 
#    5.143    1.429    0.000    0.000    0.000    0.000 
#    0.000    0.000    0.000    0.000    0.000    0.000 
#
# Total GULP energy -78385.367697 kJ/mol
# GULP energy per Si atom -5598.954836 kJ/mol
# Density = 2.274114 g / cm^3
# Si number density = 22.793015 Si / 1000 Ang^3
#
#
#
# Elastic Constant Matrix: (Units=GPa)
#
#
# Indices 1 2 3 4 5 6 
#
# 1 59.8723 31.5387 8.4412 -3.8682 24.1231 25.5645
# 2 31.5387 101.5787 15.9017 10.2495 -2.1613 31.9378
# 3 8.4412 15.9017 85.5131 4.2006 22.5514 13.0538
# 4 -3.8682 10.2495 4.2006 42.7025 -5.4466 9.4276
# 5 24.1231 -2.1613 22.5514 -5.4466 42.8386 5.9084
# 6 25.5645 31.9378 13.0538 9.4276 5.9084 37.2524
#
#
#
# Elastic Compliance Matrix: (Units=1/GPa)
#
#
# Indices 1 2 3 4 5 6 
#
# 1 0.036630 -0.007307 0.005813 0.006103 -0.020634 -0.019182
# 2 -0.007307 0.015349 -0.002764 -0.001386 0.007268 -0.007978
# 3 0.005813 -0.002764 0.015301 -0.000567 -0.010833 -0.005120
# 4 0.006103 -0.001386 -0.000567 0.026721 0.001542 -0.009809
# 5 -0.020634 0.007268 -0.010833 0.001542 0.040552 0.004903
# 6 -0.019182 -0.007978 -0.005120 -0.009809 0.004903 0.050346
#
#
# Mechanical properties :
#
#
# Convention : Reuss Voigt Hill
#
# Bulk Modulus (GPa) = 17.01724 39.85858 28.43791
# Shear Modulus (GPa) = 23.47392 37.29753 30.38572
#
# Velocity S-wave (km/s) = 3.21265 4.04958 3.65515
# Velocity P-wave (km/s) = 4.60908 6.27620 5.50610
#
# Compressibility (1/GPa) = 0.05876394
#
# Stress axis : x y z
#
# Youngs Moduli (GPa) = 27.30010 65.15132 65.35716
#
# Poissons Ratio (x) = 0.47605 -0.37991
# Poissons Ratio (y) = 0.19948 0.18063
# Poissons Ratio (z) = -0.15869 0.18006
#
# Static dielectric constant tensor:
#      x y z
#    x 1.861590 -0.007780 -0.001480 
#    y -0.007780 1.832100 -0.017630 
#    z -0.001480 -0.017630 1.882790 
# 
# From -- ./inp_files/153268.got.cif
#   From: 2010.05.17/outbox.cif.g08.bks.cpg/sg2_77_cif.got.tgz:153268.got - 2010.06.03 11:33:40.
