data_PCOD9059426
_publ_section_title
;
Structure prediction by ZEFSAII (Michael W. Deem and Ramdas Pophale) SiO2 
 PCOD9059426
Probable space group: P -1
;
_chemical_formula_sum "Si O2"
_cell_formula_units_Z 12
_cell_length_a 12.447834
_cell_length_b 6.543545
_cell_length_c 11.162331
_cell_angle_alpha 79.690580
_cell_angle_beta 106.329494
_cell_angle_gamma 47.505596
_cell_volume 549.008264
_symmetry_space_group_name_H-M "P -1"
_symmetry_group_IT_number 2
_symmetry_cell_setting 'triclinic'
loop_
_space_group_symop_operation_xyz
x,y,z
-x,-y,-z
loop_
_atom_site_type_symbol
_atom_site_label
_atom_site_fract_x
_atom_site_fract_y
_atom_site_fract_z
Si Si1 0.464698 0.804490 0.320477
Si Si2 0.257203 0.258968 0.618537
Si Si3 0.303190 0.837397 0.865653
Si Si4 0.906922 0.255108 0.277244
Si Si5 0.834382 0.715119 0.014141
Si Si6 0.261170 0.921498 0.470391
O O1 0.586076 0.830255 0.378066
O O2 0.347206 0.912549 0.385498
O O3 0.588694 0.426028 0.380181
O O4 0.340731 0.032376 0.146415
O O5 0.142774 0.583014 0.625009
O O6 0.320001 0.010793 0.766404
O O7 0.180259 0.218601 0.496633
O O8 0.194952 0.811568 0.768785
O O9 0.500000 0.500000 0.000000
O O10 0.149590 0.510134 0.873067
O O11 0.810755 0.935882 0.077777
O O12 0.116466 0.966624 0.373309
O O13 0.000000 0.500000 0.000000
#
# Coordination Sequence:
#
# PCOD9059426 Si02
#       6
#     2   2   2   2   2   2
#     4  11  24  43  66  94 136 172 217 268 328 392
#     4  11  23  41  68  94 130 176 217 268 324 392
#     4  11  24  43  69  99 133 174 219 272 333 387
#     4  11  24  43  69  98 131 168 222 274 322 389
#     4  11  23  44  67  98 130 170 222 270 326 389
#     4  11  24  43  64  99 132 173 218 267 329 386
#
# _framework density 21.857595
#
# number of rings (size 3 to 8) (size 9 to 14) (size 15 to 20)
#    0.000    1.000    1.667    5.000    0.000    8.667 
#    6.000    0.000    0.000    0.000    0.000    0.000 
#    0.000    0.000    0.000    0.000    0.000    0.000 
#
# Total GULP energy -67109.981083 kJ/mol
# GULP energy per Si atom -5592.498424 kJ/mol
# Density = 2.180785 g / cm^3
# Si number density = 21.857595 Si / 1000 Ang^3
#
#
#
# Elastic Constant Matrix: (Units=GPa)
#
#
# Indices 1 2 3 4 5 6 
#
# 1 147.3607 42.1040 35.5594 4.1876 5.2122 -5.5515
# 2 42.1040 107.8487 17.2357 17.7907 5.4546 -5.2962
# 3 35.5594 17.2357 87.8725 -5.7722 2.5481 -3.7517
# 4 4.1876 17.7907 -5.7722 26.9759 2.0709 0.7588
# 5 5.2122 5.4546 2.5481 2.0709 42.1060 8.6072
# 6 -5.5515 -5.2962 -3.7517 0.7588 8.6072 30.5238
#
#
#
# Elastic Compliance Matrix: (Units=1/GPa)
#
#
# Indices 1 2 3 4 5 6 
#
# 1 0.008286 -0.002702 -0.002770 -0.000069 -0.000687 0.000893
# 2 -0.002702 0.012039 -0.001669 -0.007844 -0.001128 0.001905
# 3 -0.002770 -0.001669 0.013172 0.004373 -0.000636 0.000896
# 4 -0.000069 -0.007844 0.004373 0.043315 -0.001039 -0.001620
# 5 -0.000687 -0.001128 -0.000636 -0.001039 0.025624 -0.007598
# 6 0.000893 0.001905 0.000896 -0.001620 -0.007598 0.035547
#
#
# Mechanical properties :
#
#
# Convention : Reuss Voigt Hill
#
# Bulk Modulus (GPa) = 52.04207 59.20890 55.62549
# Shear Modulus (GPa) = 31.51183 36.46666 33.98924
#
# Velocity S-wave (km/s) = 3.80108 4.08901 3.94767
# Velocity P-wave (km/s) = 6.56700 7.03140 6.80316
#
# Compressibility (1/GPa) = 0.01921522
#
# Stress axis : x y z
#
# Youngs Moduli (GPa) = 120.67861 83.06671 75.91703
#
# Poissons Ratio (x) = 0.22448 0.21027
# Poissons Ratio (y) = 0.32612 0.12670
# Poissons Ratio (z) = 0.33425 0.13863
#
# Static dielectric constant tensor:
#      x y z
#    x 1.762290 -0.013850 0.004440 
#    y -0.013850 1.841750 -0.005580 
#    z 0.004440 -0.005580 1.777710 
# 
# From -- ./inp_files/410303.got.cif
#   From: 2010.05.17/outbox.cif.g08.bks.cpg/sg2_206_cif.got.tgz:410303.got - 2010.06.03 11:33:40.
