data_PCOD9059189
_publ_section_title
;
Structure prediction by ZEFSAII (Michael W. Deem and Ramdas Pophale) SiO2 
 PCOD9059189
Probable space group: P -1
;
_chemical_formula_sum "Si O2"
_cell_formula_units_Z 16
_cell_length_a 11.748049
_cell_length_b 13.049326
_cell_length_c 16.194526
_cell_angle_alpha 152.184496
_cell_angle_beta 106.961358
_cell_angle_gamma 54.315286
_cell_volume 758.685607
_symmetry_space_group_name_H-M "P -1"
_symmetry_group_IT_number 2
_symmetry_cell_setting 'triclinic'
loop_
_space_group_symop_operation_xyz
x,y,z
-x,-y,-z
loop_
_atom_site_type_symbol
_atom_site_label
_atom_site_fract_x
_atom_site_fract_y
_atom_site_fract_z
Si Si1 0.214105 0.362654 0.917339
Si Si2 0.028578 0.068746 0.841628
Si Si3 0.124866 0.621042 0.249944
Si Si4 0.113870 0.281868 0.148285
Si Si5 0.495278 0.705357 0.884999
Si Si6 0.359862 0.706799 0.544144
Si Si7 0.483839 0.685889 0.052797
Si Si8 0.104318 0.253286 0.419336
O O1 0.361043 0.351574 0.936950
O O2 0.307130 0.014325 0.715492
O O3 0.086800 0.580508 0.122541
O O4 0.104280 0.563875 0.956061
O O5 0.186882 0.842549 0.647988
O O6 0.097505 0.070686 0.945589
O O7 0.935469 0.956190 0.740084
O O8 0.096945 0.491649 0.225279
O O9 0.334758 0.372322 0.118537
O O10 0.000000 0.000000 0.500000
O O11 0.962767 0.540496 0.365143
O O12 0.301387 0.051770 0.069932
O O13 0.557308 0.515159 0.676977
O O14 0.480474 0.600896 0.896478
O O15 0.500000 0.500000 0.500000
O O16 0.301182 0.041365 0.287414
O O17 0.500000 0.500000 0.000000
O O18 0.000000 0.500000 0.500000
#
# Coordination Sequence:
#
# PCOD9059189 Si02
#       8
#     2   2   2   2   2   2   2   2
#     4  11  24  44  70 100 145 180 226 300 355 418
#     4  12  26  46  72 107 144 181 237 293 358 432
#     4  11  23  40  70 103 138 184 235 289 360 424
#     4  12  25  45  71 102 142 188 236 291 361 418
#     4  11  24  43  69 100 139 186 237 290 356 424
#     4  12  24  42  69 108 143 176 231 298 362 416
#     4  11  25  49  69  97 139 185 241 289 350 417
#     4  12  27  48  73 100 140 191 237 292 346 423
#
# _framework density 21.089105
#
# number of rings (size 3 to 8) (size 9 to 14) (size 15 to 20)
#    0.000    0.500    5.000    3.000    5.250    1.500 
#    2.250    1.250    0.000    0.000    0.000    0.000 
#    0.000    0.000    0.000    0.000    0.000    0.000 
#
# Total GULP energy -89216.437648 kJ/mol
# GULP energy per Si atom -5576.027353 kJ/mol
# Density = 2.104111 g / cm^3
# Si number density = 21.089105 Si / 1000 Ang^3
#
#
#
# Elastic Constant Matrix: (Units=GPa)
#
#
# Indices 1 2 3 4 5 6 
#
# 1 61.0423 32.1543 8.5123 -8.1201 -9.1717 10.3452
# 2 32.1543 141.2130 24.6684 -5.3542 -9.9840 3.7436
# 3 8.5123 24.6684 60.3391 -19.6817 -11.8254 1.6323
# 4 -8.1201 -5.3542 -19.6817 48.3823 9.2207 -11.8093
# 5 -9.1717 -9.9840 -11.8254 9.2207 29.5827 1.8341
# 6 10.3452 3.7436 1.6323 -11.8093 1.8341 39.5645
#
#
#
# Elastic Compliance Matrix: (Units=1/GPa)
#
#
# Indices 1 2 3 4 5 6 
#
# 1 0.020219 -0.004129 0.000237 0.000892 0.004994 -0.004871
# 2 -0.004129 0.008580 -0.003166 -0.001162 0.000711 0.000019
# 3 0.000237 -0.003166 0.021307 0.007752 0.005017 0.001440
# 4 0.000892 -0.001162 0.007752 0.026881 -0.005882 0.007853
# 5 0.004994 0.000711 0.005017 -0.005882 0.039752 -0.005179
# 6 -0.004871 0.000019 0.001440 0.007853 -0.005179 0.029072
#
#
# Mechanical properties :
#
#
# Convention : Reuss Voigt Hill
#
# Bulk Modulus (GPa) = 27.78500 43.69602 35.74051
# Shear Modulus (GPa) = 29.08291 36.65655 32.86973
#
# Velocity S-wave (km/s) = 3.71758 4.17367 3.95221
# Velocity P-wave (km/s) = 5.62413 6.63255 6.14905
#
# Compressibility (1/GPa) = 0.03599065
#
# Stress axis : x y z
#
# Youngs Moduli (GPa) = 49.45949 116.54388 46.93371
#
# Poissons Ratio (x) = 0.48123 -0.01114
# Poissons Ratio (y) = 0.20423 0.14857
# Poissons Ratio (z) = -0.01174 0.36893
#
# Static dielectric constant tensor:
#      x y z
#    x 1.741320 -0.027710 0.014070 
#    y -0.027710 1.799140 -0.013860 
#    z 0.014070 -0.013860 1.776130 
# 
# From -- ./inp_files/434347.got.cif
#   From: 2010.05.17/outbox.cif.g08.bks.cpg/sg2_218_cif.got.tgz:434347.got - 2010.06.03 11:33:40.
