data_PCOD9059336
_publ_section_title
;
Structure prediction by ZEFSAII (Michael W. Deem and Ramdas Pophale) SiO2 
 PCOD9059336
Probable space group: P -1
;
_chemical_formula_sum "Si O2"
_cell_formula_units_Z 12
_cell_length_a 21.392000
_cell_length_b 8.495219
_cell_length_c 4.925021
_cell_angle_alpha 85.469854
_cell_angle_beta 91.468074
_cell_angle_gamma 32.253503
_cell_volume 468.911808
_symmetry_space_group_name_H-M "P -1"
_symmetry_group_IT_number 2
_symmetry_cell_setting 'triclinic'
loop_
_space_group_symop_operation_xyz
x,y,z
-x,-y,-z
loop_
_atom_site_type_symbol
_atom_site_label
_atom_site_fract_x
_atom_site_fract_y
_atom_site_fract_z
Si Si1 0.068471 0.705798 0.928037
Si Si2 0.435850 0.819899 0.253497
Si Si3 0.345523 0.689626 0.274412
Si Si4 0.772191 0.624782 0.524281
Si Si5 0.610204 0.748795 0.755209
Si Si6 0.068838 0.276881 0.288165
O O1 0.135433 0.498325 0.232662
O O2 0.171490 0.508462 0.744340
O O3 0.970735 0.818301 0.737877
O O4 0.000000 0.000000 0.000000
O O5 0.386244 0.765449 0.124845
O O6 0.566534 0.518206 0.429616
O O7 0.349740 0.018647 0.485897
O O8 0.414914 0.040345 0.089435
O O9 0.367867 0.479991 0.134637
O O10 0.209687 0.989804 0.314632
O O11 0.730275 0.544132 0.640479
O O12 0.500000 0.000000 0.500000
O O13 0.000000 0.500000 0.500000
O O14 0.000000 0.500000 0.000000
#
# Coordination Sequence:
#
# PCOD9059336 Si02
#       6
#     2   2   2   2   2   2
#     4  12  24  42  68  96 136 187 225 277 343 408
#     4   8  18  35  65  96 130 170 221 289 345 400
#     4  10  17  37  66  93 131 176 223 279 350 403
#     4  10  22  42  65  98 138 170 229 289 339 405
#     4   8  17  35  64  98 129 169 223 279 340 411
#     4  12  27  45  67 100 140 181 238 285 339 419
#
# _framework density 25.591168
#
# number of rings (size 3 to 8) (size 9 to 14) (size 15 to 20)
#    1.000    1.000    0.000    4.500    0.000    1.333 
#    0.000    2.500    0.000    6.000    0.000    0.000 
#    0.000    0.000    0.000    0.000    0.000    0.000 
#
# Total GULP energy -66975.956184 kJ/mol
# GULP energy per Si atom -5581.329682 kJ/mol
# Density = 2.553292 g / cm^3
# Si number density = 25.591168 Si / 1000 Ang^3
#
#
#
# Elastic Constant Matrix: (Units=GPa)
#
#
# Indices 1 2 3 4 5 6 
#
# 1 139.5818 79.4508 36.9493 10.8814 44.6853 22.4217
# 2 79.4508 229.1009 74.5939 5.3739 14.9035 -15.4229
# 3 36.9493 74.5939 108.9878 18.6358 4.4189 -20.0531
# 4 10.8814 5.3739 18.6358 49.1760 -11.4768 11.6193
# 5 44.6853 14.9035 4.4189 -11.4768 36.4346 -4.7894
# 6 22.4217 -15.4229 -20.0531 11.6193 -4.7894 68.7727
#
#
#
# Elastic Compliance Matrix: (Units=1/GPa)
#
#
# Indices 1 2 3 4 5 6 
#
# 1 0.022551 -0.005347 -0.003461 -0.007361 -0.028726 -0.010318
# 2 -0.005347 0.007019 -0.003141 0.002231 0.005083 0.002379
# 3 -0.003461 -0.003141 0.014253 -0.004923 0.002989 0.005620
# 4 -0.007361 0.002231 -0.004923 0.028113 0.017294 -0.002081
# 5 -0.028726 0.005083 0.002989 0.017294 0.067412 0.013150
# 6 -0.010318 0.002379 0.005620 -0.002081 0.013150 0.021344
#
#
# Mechanical properties :
#
#
# Convention : Reuss Voigt Hill
#
# Bulk Modulus (GPa) = 50.18729 95.51760 72.85245
# Shear Modulus (GPa) = 26.14621 49.98844 38.06733
#
# Velocity S-wave (km/s) = 3.19985 4.42446 3.86102
# Velocity P-wave (km/s) = 5.77112 7.96911 6.95746
#
# Compressibility (1/GPa) = 0.01992536
#
# Stress axis : x y z
#
# Youngs Moduli (GPa) = 44.34314 142.46834 70.16046
#
# Poissons Ratio (x) = 0.76179 0.24281
# Poissons Ratio (y) = 0.23711 0.22039
# Poissons Ratio (z) = 0.15346 0.44752
#
# Static dielectric constant tensor:
#      x y z
#    x 2.875010 0.121410 0.111810 
#    y 0.121410 1.989440 0.003680 
#    z 0.111810 0.003680 1.966890 
# 
# From -- ./inp_files/122603.got.cif
#   From: 2010.05.17/outbox.cif.g08.bks.cpg/sg2_62_cif.got.tgz:122603.got - 2010.06.03 11:33:40.
