data_PCOD9059647
_publ_section_title
;
Structure prediction by ZEFSAII (Michael W. Deem and Ramdas Pophale) SiO2 
 PCOD9059647
Probable space group: P -1
;
_chemical_formula_sum "Si O2"
_cell_formula_units_Z 14
_cell_length_a 12.009952
_cell_length_b 14.115285
_cell_length_c 8.966481
_cell_angle_alpha 33.623117
_cell_angle_beta 42.151125
_cell_angle_gamma 53.263246
_cell_volume 564.089635
_symmetry_space_group_name_H-M "P -1"
_symmetry_group_IT_number 2
_symmetry_cell_setting 'triclinic'
loop_
_space_group_symop_operation_xyz
x,y,z
-x,-y,-z
loop_
_atom_site_type_symbol
_atom_site_label
_atom_site_fract_x
_atom_site_fract_y
_atom_site_fract_z
Si Si1 0.305334 0.219549 0.775701
Si Si2 0.843857 0.161415 0.529449
Si Si3 0.307484 0.726429 0.748888
Si Si4 0.144289 0.390323 0.429117
Si Si5 0.976025 0.131238 0.719233
Si Si6 0.629488 0.157523 0.141957
Si Si7 0.648828 0.448495 0.523142
O O1 0.506483 0.224579 0.555225
O O2 0.219860 0.268133 0.639211
O O3 0.267795 0.378409 0.714509
O O4 0.249816 0.027717 0.130952
O O5 0.837248 0.216123 0.291651
O O6 0.004718 0.131110 0.513703
O O7 0.762938 0.330640 0.462048
O O8 0.291254 0.806027 0.823934
O O9 0.287468 0.524883 0.058591
O O10 0.000000 0.500000 0.500000
O O11 0.064680 0.298309 0.484318
O O12 0.776013 0.114073 0.943472
O O13 0.000000 0.000000 0.000000
O O14 0.500000 0.000000 0.500000
O O15 0.576586 0.329780 0.888137
O O16 0.500000 0.500000 0.500000
#
# Coordination Sequence:
#
# PCOD9059647 Si02
#       7
#     2   2   2   2   2   2   2
#     4  12  24  44  76 101 141 187 229 289 354 405
#     4  11  25  45  70 105 141 179 236 289 349 412
#     4  12  24  42  72 107 134 178 244 287 341 416
#     4  12  24  46  69  95 143 188 227 285 346 422
#     4  11  23  46  68  95 139 186 222 280 355 410
#     4  11  25  42  69 103 139 176 236 290 337 414
#     4  11  23  42  65 103 145 175 222 288 354 401
#
# _framework density 24.818749
#
# number of rings (size 3 to 8) (size 9 to 14) (size 15 to 20)
#    0.000    0.571    5.714    3.429    2.000    0.571 
#    0.000    2.857    0.000    0.000    0.000    0.000 
#    0.000    0.000    0.000    0.000    0.000    0.000 
#
# Total GULP energy -78166.822579 kJ/mol
# GULP energy per Si atom -5583.344470 kJ/mol
# Density = 2.476226 g / cm^3
# Si number density = 24.818749 Si / 1000 Ang^3
#
#
#
# Elastic Constant Matrix: (Units=GPa)
#
#
# Indices 1 2 3 4 5 6 
#
# 1 145.8577 25.3015 23.4179 -5.3112 37.1519 32.9397
# 2 25.3015 96.8787 21.9520 -21.8924 -1.0546 20.6061
# 3 23.4179 21.9520 87.1936 -19.3319 5.9777 29.3434
# 4 -5.3112 -21.8924 -19.3319 28.1474 2.8139 -3.5329
# 5 37.1519 -1.0546 5.9777 2.8139 60.8845 -8.3491
# 6 32.9397 20.6061 29.3434 -3.5329 -8.3491 45.4406
#
#
#
# Elastic Compliance Matrix: (Units=1/GPa)
#
#
# Indices 1 2 3 4 5 6 
#
# 1 0.011343 -0.000700 0.001762 0.002359 -0.008648 -0.010448
# 2 -0.000700 0.013922 0.001073 0.010779 -0.000730 -0.005794
# 3 0.001762 0.001073 0.018526 0.012703 -0.005344 -0.013721
# 4 0.002359 0.010779 0.012703 0.052236 -0.006552 -0.011943
# 5 -0.008648 -0.000730 -0.005344 -0.006552 0.024441 0.014032
# 6 -0.010448 -0.005794 -0.013721 -0.011943 0.014032 0.042718
#
#
# Mechanical properties :
#
#
# Convention : Reuss Voigt Hill
#
# Bulk Modulus (GPa) = 20.80744 52.36365 36.58555
# Shear Modulus (GPa) = 28.58168 44.17841 36.38005
#
# Velocity S-wave (km/s) = 3.39723 4.22363 3.83277
# Velocity P-wave (km/s) = 4.87752 6.70296 5.86173
#
# Compressibility (1/GPa) = 0.04805973
#
# Stress axis : x y z
#
# Youngs Moduli (GPa) = 88.16052 71.82720 53.97922
#
# Poissons Ratio (x) = 0.05031 -0.09511
# Poissons Ratio (y) = 0.06175 -0.05791
# Poissons Ratio (z) = -0.15534 -0.07706
#
# Static dielectric constant tensor:
#      x y z
#    x 1.924180 0.168150 -0.050630 
#    y 0.168150 1.931880 0.135840 
#    z -0.050630 0.135840 1.923710 
# 
# From -- ./inp_files/158992.got.cif
#   From: 2010.05.17/outbox.cif.g08.bks.cpg/sg2_80_cif.got.tgz:158992.got - 2010.06.03 11:33:40.
