data_PCOD9059985
_publ_section_title
;
Structure prediction by ZEFSAII (Michael W. Deem and Ramdas Pophale) SiO2 
 PCOD9059985
Probable space group: P -1
;
_chemical_formula_sum "Si O2"
_cell_formula_units_Z 14
_cell_length_a 11.741246
_cell_length_b 19.021506
_cell_length_c 14.107164
_cell_angle_alpha 19.321810
_cell_angle_beta 31.416582
_cell_angle_gamma 31.443582
_cell_volume 522.084812
_symmetry_space_group_name_H-M "P -1"
_symmetry_group_IT_number 2
_symmetry_cell_setting 'triclinic'
loop_
_space_group_symop_operation_xyz
x,y,z
-x,-y,-z
loop_
_atom_site_type_symbol
_atom_site_label
_atom_site_fract_x
_atom_site_fract_y
_atom_site_fract_z
Si Si1 0.044644 0.656706 0.410724
Si Si2 0.717340 0.529802 0.250555
Si Si3 0.697686 0.971905 0.755031
Si Si4 0.568341 0.694460 0.763465
Si Si5 0.185090 0.204858 0.803940
Si Si6 0.456852 0.811936 0.904717
Si Si7 0.973663 0.064478 0.599809
O O1 0.842278 0.648377 0.634986
O O2 0.909919 0.720312 0.326557
O O3 0.204725 0.412532 0.587558
O O4 0.205457 0.812480 0.119562
O O5 0.500000 0.500000 0.500000
O O6 0.915253 0.308968 0.372529
O O7 0.798748 0.709029 0.024858
O O8 0.627577 0.654496 0.056834
O O9 0.833537 0.027659 0.497959
O O10 0.432211 0.034461 0.842391
O O11 0.746647 0.077706 0.682465
O O12 0.472767 0.709585 0.918273
O O13 0.501631 0.946386 0.447209
O O14 0.500000 0.500000 0.000000
O O15 0.010816 0.100764 0.114733
#
# Coordination Sequence:
#
# PCOD9059985 Si02
#       7
#     2   2   2   2   2   2   2
#     4  11  25  43  74 109 145 194 245 304 374 438
#     4  12  26  47  77 109 149 195 245 305 368 437
#     4  11  25  47  71 103 146 190 250 301 362 442
#     4  11  25  48  75 108 149 197 242 308 369 439
#     4  11  23  42  72 107 145 191 245 301 369 439
#     4  11  27  49  75 112 151 192 252 303 374 448
#     4  11  26  46  73 105 143 199 243 302 372 431
#
# _framework density 26.815566
#
# number of rings (size 3 to 8) (size 9 to 14) (size 15 to 20)
#    0.000    0.857    1.429    4.714    2.000   10.286 
#    2.571    0.714    0.000    0.000    0.000    0.000 
#    0.000    0.000    0.000    0.000    0.000    0.000 
#
# Total GULP energy -78523.929610 kJ/mol
# GULP energy per Si atom -5608.852115 kJ/mol
# Density = 2.675453 g / cm^3
# Si number density = 26.815566 Si / 1000 Ang^3
#
#
#
# Elastic Constant Matrix: (Units=GPa)
#
#
# Indices 1 2 3 4 5 6 
#
# 1 92.8778 26.3674 27.5528 -7.4886 -1.6959 2.5192
# 2 26.3674 80.2019 43.3391 1.8219 1.7899 21.7060
# 3 27.5528 43.3391 135.1248 0.7018 -8.9655 11.4432
# 4 -7.4886 1.8219 0.7018 56.1109 -1.0985 -11.8984
# 5 -1.6959 1.7899 -8.9655 -1.0985 48.9794 0.4378
# 6 2.5192 21.7060 11.4432 -11.8984 0.4378 31.0190
#
#
#
# Elastic Compliance Matrix: (Units=1/GPa)
#
#
# Indices 1 2 3 4 5 6 
#
# 1 0.012559 -0.004380 -0.001448 0.002601 0.000356 0.003572
# 2 -0.004380 0.020171 -0.004511 -0.004110 -0.001685 -0.013648
# 3 -0.001448 -0.004511 0.009285 -0.000180 0.001812 -0.000245
# 4 0.002601 -0.004110 -0.000180 0.020566 0.000574 0.010612
# 5 0.000356 -0.001685 0.001812 0.000574 0.020832 0.000407
# 6 0.003572 -0.013648 -0.000245 0.010612 0.000407 0.045654
#
#
# Mechanical properties :
#
#
# Convention : Reuss Voigt Hill
#
# Bulk Modulus (GPa) = 46.86973 55.85812 51.36393
# Shear Modulus (GPa) = 31.87608 41.28488 36.58048
#
# Velocity S-wave (km/s) = 3.45152 3.92801 3.69745
# Velocity P-wave (km/s) = 5.77931 6.43802 6.11754
#
# Compressibility (1/GPa) = 0.02133573
#
# Stress axis : x y z
#
# Youngs Moduli (GPa) = 79.62197 49.57662 107.70405
#
# Poissons Ratio (x) = 0.21715 0.15600
# Poissons Ratio (y) = 0.34875 0.48585
# Poissons Ratio (z) = 0.11533 0.22364
#
# Static dielectric constant tensor:
#      x y z
#    x 2.075890 0.008380 0.011360 
#    y 0.008380 2.130810 0.035160 
#    z 0.011360 0.035160 2.145190 
# 
# From -- ./inp_files/523992.got.cif
#   From: 2010.05.17/outbox.cif.g08.bks.cpg/sg2_262_cif.got.tgz:523992.got - 2010.06.03 11:33:40.
