data_PCOD9059186
_publ_section_title
;
Structure prediction by ZEFSAII (Michael W. Deem and Ramdas Pophale) SiO2 
 PCOD9059186
Probable space group: P -1
;
_chemical_formula_sum "Si O2"
_cell_formula_units_Z 14
_cell_length_a 14.630630
_cell_length_b 5.692343
_cell_length_c 18.913710
_cell_angle_alpha 68.854528
_cell_angle_beta 29.584679
_cell_angle_gamma 55.475413
_cell_volume 605.971793
_symmetry_space_group_name_H-M "P -1"
_symmetry_group_IT_number 2
_symmetry_cell_setting 'triclinic'
loop_
_space_group_symop_operation_xyz
x,y,z
-x,-y,-z
loop_
_atom_site_type_symbol
_atom_site_label
_atom_site_fract_x
_atom_site_fract_y
_atom_site_fract_z
Si Si1 0.943672 0.522545 0.825824
Si Si2 0.434983 0.034442 0.331887
Si Si3 0.523241 0.079396 0.846059
Si Si4 0.845398 0.174034 0.419256
Si Si5 0.911322 0.780802 0.086384
Si Si6 0.744475 0.439033 0.831075
Si Si7 0.779732 0.324757 0.606244
O O1 0.879292 0.383431 0.819953
O O2 0.030088 0.346504 0.859830
O O3 0.702122 0.816476 0.974358
O O4 0.110943 0.614295 0.679127
O O5 0.332658 0.909279 0.468298
O O6 0.236765 0.368632 0.405059
O O7 0.514833 0.895711 0.215063
O O8 0.648531 0.996291 0.227116
O O9 0.600760 0.311529 0.776125
O O10 0.700735 0.745523 0.791701
O O11 0.085297 0.857882 0.296039
O O12 0.748713 0.332554 0.542047
O O13 0.000000 0.500000 0.000000
O O14 0.000000 0.000000 0.000000
O O15 0.500000 0.500000 0.000000
O O16 0.000000 0.000000 0.500000
#
# Coordination Sequence:
#
# PCOD9059186 Si02
#       7
#     2   2   2   2   2   2   2
#     4  12  26  45  72 108 146 193 252 317 383 454
#     4  11  25  47  74 107 149 199 250 316 376 454
#     4  11  23  40  70 102 144 186 243 304 377 448
#     4  11  25  44  67 107 150 186 252 303 394 449
#     4  12  29  52  82 114 149 202 267 321 379 461
#     4  12  26  41  71 109 149 194 246 318 385 455
#     4  11  23  41  69 103 148 191 245 303 376 454
#
# _framework density 23.103386
#
# number of rings (size 3 to 8) (size 9 to 14) (size 15 to 20)
#    0.000    0.571    2.857    4.714   10.000    2.857 
#    0.000    2.857    0.000    0.000    0.000    0.000 
#    0.000    0.000    0.000    0.000    0.000    0.000 
#
# Total GULP energy -78127.300127 kJ/mol
# GULP energy per Si atom -5580.521438 kJ/mol
# Density = 2.305080 g / cm^3
# Si number density = 23.103386 Si / 1000 Ang^3
#
#
#
# Elastic Constant Matrix: (Units=GPa)
#
#
# Indices 1 2 3 4 5 6 
#
# 1 123.4688 33.0681 39.6964 -18.2346 -2.2306 -10.6248
# 2 33.0681 79.5945 31.3996 -28.3739 2.0147 -1.4132
# 3 39.6964 31.3996 133.6448 -30.3771 -11.6676 14.3712
# 4 -18.2346 -28.3739 -30.3771 54.9019 5.0417 1.3932
# 5 -2.2306 2.0147 -11.6676 5.0417 35.3415 -4.6569
# 6 -10.6248 -1.4132 14.3712 1.3932 -4.6569 30.5353
#
#
#
# Elastic Compliance Matrix: (Units=1/GPa)
#
#
# Indices 1 2 3 4 5 6 
#
# 1 0.010247 -0.003048 -0.002770 0.000126 0.000521 0.004802
# 2 -0.003048 0.017120 -0.001712 0.007149 -0.002781 -0.000213
# 3 -0.002770 -0.001712 0.010398 0.003909 0.002033 -0.005805
# 4 0.000126 0.007149 0.003909 0.024466 -0.003000 -0.003039
# 5 0.000521 -0.002781 0.002033 -0.003000 0.030089 0.003821
# 6 0.004802 -0.000213 -0.005805 -0.003039 0.003821 0.037863
#
#
# Mechanical properties :
#
#
# Convention : Reuss Voigt Hill
#
# Bulk Modulus (GPa) = 44.04090 60.55961 52.30025
# Shear Modulus (GPa) = 32.71983 39.65867 36.18925
#
# Velocity S-wave (km/s) = 3.76737 4.14765 3.96208
# Velocity P-wave (km/s) = 6.16669 7.01475 6.60434
#
# Compressibility (1/GPa) = 0.02270617
#
# Stress axis : x y z
#
# Youngs Moduli (GPa) = 97.58741 58.40963 96.17515
#
# Poissons Ratio (x) = 0.17800 0.26640
# Poissons Ratio (y) = 0.29740 0.16467
# Poissons Ratio (z) = 0.27031 0.10001
#
# Static dielectric constant tensor:
#      x y z
#    x 1.937900 0.033600 0.028540 
#    y 0.033600 1.822080 0.097890 
#    z 0.028540 0.097890 1.801450 
# 
# From -- ./inp_files/28262.got.cif
#   From: 2010.05.17/outbox.cif.g08.bks.cpg/sg2_15_cif.got.tgz:28262.got - 2010.06.03 11:33:40.
