data_PCOD9059887
_publ_section_title
;
Structure prediction by ZEFSAII (Michael W. Deem and Ramdas Pophale) SiO2 
 PCOD9059887
Probable space group: P -1
;
_chemical_formula_sum "Si O2"
_cell_formula_units_Z 12
_cell_length_a 9.628110
_cell_length_b 11.101027
_cell_length_c 11.015514
_cell_angle_alpha 100.019583
_cell_angle_beta 43.961815
_cell_angle_gamma 67.616153
_cell_volume 541.093981
_symmetry_space_group_name_H-M "P -1"
_symmetry_group_IT_number 2
_symmetry_cell_setting 'triclinic'
loop_
_space_group_symop_operation_xyz
x,y,z
-x,-y,-z
loop_
_atom_site_type_symbol
_atom_site_label
_atom_site_fract_x
_atom_site_fract_y
_atom_site_fract_z
Si Si1 0.215421 0.911329 0.020151
Si Si2 0.158564 0.155299 0.779907
Si Si3 0.411435 0.497981 0.921669
Si Si4 0.219463 0.468247 0.452057
Si Si5 0.331991 0.859142 0.220147
Si Si6 0.159624 0.213928 0.062106
O O1 0.321391 0.839243 0.079613
O O2 0.963184 0.928298 0.148833
O O3 0.510680 0.747341 0.727398
O O4 0.104234 0.099248 0.114370
O O5 0.113430 0.240676 0.952507
O O6 0.500000 0.000000 0.500000
O O7 0.932298 0.321003 0.857693
O O8 0.613567 0.488674 0.703300
O O9 0.486862 0.321262 0.846239
O O10 0.500000 0.500000 0.000000
O O11 0.000000 0.500000 0.500000
O O12 0.033363 0.604194 0.705846
O O13 0.495615 0.912893 0.147334
O O14 0.000000 0.000000 0.500000
#
# Coordination Sequence:
#
# PCOD9059887 Si02
#       6
#     2   2   2   2   2   2
#     4  11  24  46  71 104 146 191 241 296 365 435
#     4  11  26  48  74 107 148 192 238 307 373 425
#     4  11  23  45  72 101 143 190 243 290 357 438
#     4  11  23  42  70 107 144 187 243 300 356 429
#     4  12  24  42  71 106 141 191 244 295 358 432
#     4  12  26  44  72 107 145 192 244 299 369 430
#
# _framework density 22.177292999999999
#
# number of rings (size 3 to 8) (size 9 to 14) (size 15 to 20)
#    0.000    0.667    5.000    3.000    2.333    4.667 
#    0.000    3.333    0.000    0.000    0.000    0.000 
#    0.000    0.000    0.000    0.000    0.000    0.000 
#
# Total GULP energy -67140.910447 kJ/mol
# GULP energy per Si atom -5595.075871 kJ/mol
# Density = 2.212682 g / cm^3
# Si number density = 22.177293 Si / 1000 Ang^3
#
#
#
# Elastic Constant Matrix: (Units=GPa)
#
#
# Indices 1 2 3 4 5 6 
#
# 1 151.2014 21.3323 70.2431 2.9087 -2.3608 -0.2104
# 2 21.3323 47.1247 42.7804 16.2606 5.9778 -3.1612
# 3 70.2431 42.7804 156.1000 14.1580 -16.7126 -1.7465
# 4 2.9087 16.2606 14.1580 27.4327 3.9483 -2.7018
# 5 -2.3608 5.9778 -16.7126 3.9483 41.5788 -0.8439
# 6 -0.2104 -3.1612 -1.7465 -2.7018 -0.8439 39.8945
#
#
#
# Elastic Compliance Matrix: (Units=1/GPa)
#
#
# Indices 1 2 3 4 5 6 
#
# 1 0.008474 -0.000766 -0.003881 0.001712 -0.001133 -0.000094
# 2 -0.000766 0.035980 -0.008877 -0.015492 -0.007288 0.001255
# 3 -0.003881 -0.008877 0.011281 -0.000984 0.005680 -0.000176
# 4 0.001712 -0.015492 -0.000984 0.046495 -0.002449 0.001835
# 5 -0.001133 -0.007288 0.005680 -0.002449 0.027551 0.000082
# 6 -0.000094 0.001255 -0.000176 0.001835 0.000082 0.025283
#
#
# Mechanical properties :
#
#
# Convention : Reuss Voigt Hill
#
# Bulk Modulus (GPa) = 34.85978 69.23750 52.04864
# Shear Modulus (GPa) = 26.08593 36.45255 31.26924
#
# Velocity S-wave (km/s) = 3.43336 4.05864 3.75903
# Velocity P-wave (km/s) = 5.60982 7.29734 6.50851
#
# Compressibility (1/GPa) = 0.02868635
#
# Stress axis : x y z
#
# Youngs Moduli (GPa) = 118.00867 27.79329 88.64782
#
# Poissons Ratio (x) = 0.02130 0.34403
# Poissons Ratio (y) = 0.09044 0.78691
# Poissons Ratio (z) = 0.45797 0.24672
#
# Static dielectric constant tensor:
#      x y z
#    x 1.870530 0.020580 0.011430 
#    y 0.020580 1.862880 -0.000370 
#    z 0.011430 -0.000370 1.832890 
# 
# From -- ./inp_files/332526.got.cif
#   From: 2010.05.17/outbox.cif.g08.bks.cpg/sg2_167_cif.got.tgz:332526.got - 2010.06.03 11:33:40.
