data_PCOD9059289
_publ_section_title
;
Structure prediction by ZEFSAII (Michael W. Deem and Ramdas Pophale) SiO2 
 PCOD9059289
Probable space group: P -1
;
_chemical_formula_sum "Si O2"
_cell_formula_units_Z 16
_cell_length_a 8.976400
_cell_length_b 10.936912
_cell_length_c 18.597504
_cell_angle_alpha 131.705680
_cell_angle_beta 46.401479
_cell_angle_gamma 148.855613
_cell_volume 669.961056
_symmetry_space_group_name_H-M "P -1"
_symmetry_group_IT_number 2
_symmetry_cell_setting 'triclinic'
loop_
_space_group_symop_operation_xyz
x,y,z
-x,-y,-z
loop_
_atom_site_type_symbol
_atom_site_label
_atom_site_fract_x
_atom_site_fract_y
_atom_site_fract_z
Si Si1 0.192777 0.545807 0.746555
Si Si2 0.369033 0.789689 0.122570
Si Si3 0.150228 0.824390 0.786139
Si Si4 0.527991 0.490659 0.073220
Si Si5 0.397597 0.498077 0.453814
Si Si6 0.877445 0.949996 0.232174
Si Si7 0.295204 0.029376 0.550320
Si Si8 0.447819 0.105174 0.117940
O O1 0.256095 0.702605 0.720059
O O2 0.406388 0.516542 0.663598
O O3 0.833768 0.322292 0.782138
O O4 0.250977 0.666168 0.851428
O O5 0.277134 0.901221 0.156628
O O6 0.705128 0.993823 0.123633
O O7 0.376540 0.642960 0.008306
O O8 0.794411 0.642470 0.841532
O O9 0.230142 0.948206 0.732027
O O10 0.761288 0.735985 0.136146
O O11 0.500000 0.500000 0.000000
O O12 0.500000 0.500000 0.500000
O O13 0.524374 0.749573 0.481530
O O14 0.036236 0.243507 0.467839
O O15 0.770377 0.895601 0.328261
O O16 0.239383 0.135857 0.181235
O O17 0.500000 0.000000 0.500000
O O18 0.500000 0.000000 0.000000
#
# Coordination Sequence:
#
# PCOD9059289 Si02
#       8
#     2   2   2   2   2   2   2   2
#     4  11  24  44  70 103 145 188 256 302 380 461
#     4  11  23  41  64  96 145 194 254 300 366 457
#     4  11  24  39  67  99 147 200 247 309 375 450
#     4  12  23  40  62 105 144 201 253 307 368 462
#     4  12  29  55  87 118 157 206 259 325 402 490
#     4  12  26  43  72 105 151 193 250 314 389 445
#     4  12  30  56  85 122 159 199 262 336 405 464
#     4  11  24  40  66 100 143 195 237 306 373 449
#
# _framework density 23.881986999999999
#
# number of rings (size 3 to 8) (size 9 to 14) (size 15 to 20)
#    0.000    0.500    3.750    3.375    7.000    6.000 
#    0.000    0.000    0.000    0.000    0.000    0.000 
#    0.000    0.000    0.000    0.000    0.000    0.000 
#
# Total GULP energy -89285.311677 kJ/mol
# GULP energy per Si atom -5580.331980 kJ/mol
# Density = 2.382763 g / cm^3
# Si number density = 23.881987 Si / 1000 Ang^3
#
#
#
# Elastic Constant Matrix: (Units=GPa)
#
#
# Indices 1 2 3 4 5 6 
#
# 1 152.4592 58.2439 26.2486 4.0772 -7.2677 -7.5832
# 2 58.2439 97.9170 10.7991 -1.2174 0.6472 -2.7912
# 3 26.2486 10.7991 56.4780 -6.9701 7.5520 1.3056
# 4 4.0772 -1.2174 -6.9701 16.2437 0.6239 -1.9159
# 5 -7.2677 0.6472 7.5520 0.6239 50.7875 -1.8966
# 6 -7.5832 -2.7912 1.3056 -1.9159 -1.8966 43.1084
#
#
#
# Elastic Compliance Matrix: (Units=1/GPa)
#
#
# Indices 1 2 3 4 5 6 
#
# 1 0.009621 -0.005275 -0.004357 -0.004602 0.002200 0.001375
# 2 -0.005275 0.013350 0.000343 0.002510 -0.001007 -0.000007
# 3 -0.004357 0.000343 0.021505 0.010369 -0.003994 -0.001110
# 4 -0.004602 0.002510 0.010369 0.067695 -0.002992 0.001916
# 5 0.002200 -0.001007 -0.003994 -0.002992 0.020694 0.001220
# 6 0.001375 -0.000007 -0.001110 0.001916 0.001220 0.023611
#
#
# Mechanical properties :
#
#
# Convention : Reuss Voigt Hill
#
# Bulk Modulus (GPa) = 38.61079 55.27082 46.94081
# Shear Modulus (GPa) = 27.22059 36.13210 31.67635
#
# Velocity S-wave (km/s) = 3.37975 3.89388 3.64589
# Velocity P-wave (km/s) = 5.60649 6.58862 6.11730
#
# Compressibility (1/GPa) = 0.02589949
#
# Stress axis : x y z
#
# Youngs Moduli (GPa) = 103.94382 74.90596 46.50184
#
# Poissons Ratio (x) = 0.39511 0.20259
# Poissons Ratio (y) = 0.54827 -0.01597
# Poissons Ratio (z) = 0.45283 -0.02572
#
# Static dielectric constant tensor:
#      x y z
#    x 1.929400 -0.112920 0.054200 
#    y -0.112920 2.014140 -0.016540 
#    z 0.054200 -0.016540 2.020500 
# 
# From -- ./inp_files/559914.got.cif
#   From: 2010.05.17/outbox.cif.g08.bks.cpg/sg2_280_cif.got.tgz:559914.got - 2010.06.03 11:33:40.
