data_PCOD9059736
_publ_section_title
;
Structure prediction by ZEFSAII (Michael W. Deem and Ramdas Pophale) SiO2 
 PCOD9059736
Probable space group: P -1
;
_chemical_formula_sum "Si O2"
_cell_formula_units_Z 16
_cell_length_a 10.212745
_cell_length_b 11.892261
_cell_length_c 6.740656
_cell_angle_alpha 125.513773
_cell_angle_beta 93.573836
_cell_angle_gamma 92.461567
_cell_volume 661.917219
_symmetry_space_group_name_H-M "P -1"
_symmetry_group_IT_number 2
_symmetry_cell_setting 'triclinic'
loop_
_space_group_symop_operation_xyz
x,y,z
-x,-y,-z
loop_
_atom_site_type_symbol
_atom_site_label
_atom_site_fract_x
_atom_site_fract_y
_atom_site_fract_z
Si Si1 0.509294 0.789997 0.440633
Si Si2 0.190334 0.275591 0.105114
Si Si3 0.658031 0.082285 0.757350
Si Si4 0.347419 0.449375 0.632669
Si Si5 0.036041 0.745525 0.631915
Si Si6 0.689421 0.293435 0.322730
Si Si7 0.127065 0.428636 0.875430
Si Si8 0.864664 0.013592 0.382264
O O1 0.457706 0.838923 0.274857
O O2 0.569727 0.642940 0.311656
O O3 0.387443 0.769942 0.559876
O O4 0.608495 0.923835 0.647924
O O5 0.287393 0.337966 0.349014
O O6 0.045593 0.258535 0.177585
O O7 0.193549 0.379630 0.028526
O O8 0.207666 0.128912 0.855646
O O9 0.770612 0.077191 0.597742
O O10 0.702134 0.173300 0.042172
O O11 0.392507 0.586835 0.652945
O O12 0.235413 0.506393 0.822723
O O13 0.158751 0.651809 0.558255
O O14 0.098799 0.892455 0.709424
O O15 0.933288 0.696239 0.398708
O O16 0.000000 0.500000 0.000000
O O17 0.000000 0.000000 0.500000
#
# Coordination Sequence:
#
# PCOD9059736 Si02
#       8
#     2   2   2   2   2   2   2   2
#     4  11  26  49  66  98 136 180 234 281 334 398
#     4  11  24  42  65 101 140 175 220 280 339 407
#     4  11  27  46  72 100 136 179 227 285 345 395
#     4  11  27  43  72 102 134 183 230 274 340 407
#     4  11  24  40  65 105 135 177 223 273 343 408
#     4  12  25  45  71 101 134 179 230 282 337 404
#     4  11  23  42  67  97 144 177 213 278 344 404
#     4  12  23  42  71 102 137 178 224 278 344 405
#
# _framework density 24.172208000000001
#
# number of rings (size 3 to 8) (size 9 to 14) (size 15 to 20)
#    0.000    0.750    2.500    4.125    5.250    6.500 
#    0.000    0.000    0.000    0.000    0.000    0.000 
#    0.000    0.000    0.000    0.000    0.000    0.000 
#
# Total GULP energy -89534.700131 kJ/mol
# GULP energy per Si atom -5595.918758 kJ/mol
# Density = 2.411719 g / cm^3
# Si number density = 24.172208 Si / 1000 Ang^3
#
#
#
# Elastic Constant Matrix: (Units=GPa)
#
#
# Indices 1 2 3 4 5 6 
#
# 1 70.7283 11.0642 12.6713 -9.5069 -7.2257 -3.7526
# 2 11.0642 103.1650 -1.4118 -18.1111 -1.2074 -13.0429
# 3 12.6713 -1.4118 83.8350 -6.4839 -12.4825 -3.3488
# 4 -9.5069 -18.1111 -6.4839 30.7206 2.5079 -0.6172
# 5 -7.2257 -1.2074 -12.4825 2.5079 19.7224 -6.1051
# 6 -3.7526 -13.0429 -3.3488 -0.6172 -6.1051 32.8412
#
#
#
# Elastic Compliance Matrix: (Units=1/GPa)
#
#
# Indices 1 2 3 4 5 6 
#
# 1 0.015631 -0.000652 -0.001207 0.003823 0.005192 0.002441
# 2 -0.000652 0.011676 0.001344 0.006902 0.002063 0.005213
# 3 -0.001207 0.001344 0.013847 0.002665 0.009168 0.003562
# 4 0.003823 0.006902 0.002665 0.038457 -0.000094 0.004155
# 5 0.005192 0.002063 0.009168 -0.000094 0.062892 0.014037
# 6 0.002441 0.005213 0.003562 0.004155 0.014037 0.035850
#
#
# Mechanical properties :
#
#
# Convention : Reuss Voigt Hill
#
# Bulk Modulus (GPa) = 24.92312 33.59731 29.26021
# Shear Modulus (GPa) = 25.93936 32.35048 29.14492
#
# Velocity S-wave (km/s) = 3.27938 3.66229 3.47612
# Velocity P-wave (km/s) = 4.96711 5.64026 5.31435
#
# Compressibility (1/GPa) = 0.04012339
#
# Stress axis : x y z
#
# Youngs Moduli (GPa) = 63.97653 85.64235 72.21948
#
# Poissons Ratio (x) = 0.05587 0.08719
# Poissons Ratio (y) = 0.04174 -0.09709
# Poissons Ratio (z) = 0.07724 -0.11514
#
# Static dielectric constant tensor:
#      x y z
#    x 2.006920 -0.044110 0.008280 
#    y -0.044110 1.945150 0.038230 
#    z 0.008280 0.038230 1.885410 
# 
# From -- ./inp_files/72326.got.cif
#   From: 2010.05.17/outbox.cif.g08.bks.cpg/sg2_37_cif.got.tgz:72326.got - 2010.06.03 11:33:40.
