data_PCOD9059570
_publ_section_title
;
Structure prediction by ZEFSAII (Michael W. Deem and Ramdas Pophale) SiO2 
 PCOD9059570
Probable space group: P -1
;
_chemical_formula_sum "Si O2"
_cell_formula_units_Z 16
_cell_length_a 8.457968
_cell_length_b 12.385617
_cell_length_c 18.573908
_cell_angle_alpha 40.118889
_cell_angle_beta 99.552616
_cell_angle_gamma 132.216219
_cell_volume 635.677565
_symmetry_space_group_name_H-M "P -1"
_symmetry_group_IT_number 2
_symmetry_cell_setting 'triclinic'
loop_
_space_group_symop_operation_xyz
x,y,z
-x,-y,-z
loop_
_atom_site_type_symbol
_atom_site_label
_atom_site_fract_x
_atom_site_fract_y
_atom_site_fract_z
Si Si1 0.753375 0.381337 0.143796
Si Si2 0.151142 0.301440 0.652857
Si Si3 0.735226 0.427877 0.958791
Si Si4 0.562213 0.249758 0.890705
Si Si5 0.102978 0.091615 0.609664
Si Si6 0.848708 0.104564 0.467621
Si Si7 0.297518 0.733045 0.526090
Si Si8 0.990323 0.069948 0.043987
O O1 0.072954 0.568998 0.050610
O O2 0.536563 0.054105 0.333110
O O3 0.628038 0.323999 0.085646
O O4 0.798010 0.578298 0.100634
O O5 0.057741 0.183041 0.624537
O O6 0.528452 0.607507 0.527687
O O7 0.101166 0.441542 0.607736
O O8 0.991957 0.034024 0.833379
O O9 0.480913 0.213808 0.985846
O O10 0.954090 0.786578 0.783307
O O11 0.908782 0.629175 0.711878
O O12 0.357559 0.166382 0.861418
O O13 0.500000 0.000000 0.000000
O O14 0.939588 0.022717 0.561687
O O15 0.882757 0.295075 0.425524
O O16 0.503930 0.803292 0.560917
O O17 0.000000 0.000000 0.000000
#
# Coordination Sequence:
#
# PCOD9059570 Si02
#       8
#     2   2   2   2   2   2   2   2
#     4  11  23  47  67 100 140 182 223 273 350 405
#     4  11  24  42  67 101 137 175 234 275 349 402
#     4  11  23  41  72  98 136 179 228 278 336 409
#     4  12  24  43  66 102 130 178 233 273 336 408
#     4  11  23  43  68 101 134 181 227 289 335 407
#     4  11  25  43  70  96 141 174 234 279 345 399
#     4  11  25  44  69  99 135 185 226 285 338 408
#     4  12  27  44  69 100 141 177 221 289 339 404
#
# _framework density 25.169993999999999
#
# number of rings (size 3 to 8) (size 9 to 14) (size 15 to 20)
#    0.000    0.750    6.250    0.000    7.000    2.500 
#    2.250    1.250    0.000    0.000    0.000    0.000 
#    0.000    0.000    0.000    0.000    0.000    0.000 
#
# Total GULP energy -89631.095985 kJ/mol
# GULP energy per Si atom -5601.943499 kJ/mol
# Density = 2.511271 g / cm^3
# Si number density = 25.169994 Si / 1000 Ang^3
#
#
#
# Elastic Constant Matrix: (Units=GPa)
#
#
# Indices 1 2 3 4 5 6 
#
# 1 57.8251 36.2806 18.7974 4.3581 5.4196 -13.3456
# 2 36.2806 144.8562 38.0916 23.2709 21.0128 -27.8762
# 3 18.7974 38.0916 82.3476 17.2866 21.5786 -3.6882
# 4 4.3581 23.2709 17.2866 43.5399 -7.4861 8.3351
# 5 5.4196 21.0128 21.5786 -7.4861 29.4534 0.2664
# 6 -13.3456 -27.8762 -3.6882 8.3351 0.2664 60.9395
#
#
#
# Elastic Compliance Matrix: (Units=1/GPa)
#
#
# Indices 1 2 3 4 5 6 
#
# 1 0.021544 -0.004689 -0.003719 0.001869 0.002562 0.002081
# 2 -0.004689 0.012036 0.000350 -0.008981 -0.010315 0.005774
# 3 -0.003719 0.000350 0.019575 -0.010855 -0.016685 0.002088
# 4 0.001869 -0.008981 -0.010855 0.037812 0.023714 -0.009632
# 5 0.002562 -0.010315 -0.016685 0.023714 0.059169 -0.008670
# 6 0.002081 0.005774 0.002088 -0.009632 -0.008670 0.020988
#
#
# Mechanical properties :
#
#
# Convention : Reuss Voigt Hill
#
# Bulk Modulus (GPa) = 26.99912 52.37422 39.68667
# Shear Modulus (GPa) = 25.05171 39.57717 32.31444
#
# Velocity S-wave (km/s) = 3.15826 3.96965 3.58697
# Velocity P-wave (km/s) = 4.90403 6.47025 5.74080
#
# Compressibility (1/GPa) = 0.03703824
#
# Stress axis : x y z
#
# Youngs Moduli (GPa) = 46.41662 83.08328 51.08550
#
# Poissons Ratio (x) = 0.38960 0.18999
# Poissons Ratio (y) = 0.21766 -0.01787
# Poissons Ratio (z) = 0.17263 -0.02907
#
# Static dielectric constant tensor:
#      x y z
#    x 2.076800 0.029490 -0.018860 
#    y 0.029490 1.984060 -0.030210 
#    z -0.018860 -0.030210 1.932750 
# 
# From -- ./inp_files/216506.got.cif
#   From: 2010.05.17/outbox.cif.g08.bks.cpg/sg2_109_cif.got.tgz:216506.got - 2010.06.03 11:33:40.
