data_PCOD9059800
_publ_section_title
;
Structure prediction by ZEFSAII (Michael W. Deem and Ramdas Pophale) SiO2 
 PCOD9059800
Probable space group: P -1
;
_chemical_formula_sum "Si O2"
_cell_formula_units_Z 16
_cell_length_a 8.930811
_cell_length_b 9.062849
_cell_length_c 13.245343
_cell_angle_alpha 51.498198
_cell_angle_beta 60.574630
_cell_angle_gamma 84.481108
_cell_volume 695.318869
_symmetry_space_group_name_H-M "P -1"
_symmetry_group_IT_number 2
_symmetry_cell_setting 'triclinic'
loop_
_space_group_symop_operation_xyz
x,y,z
-x,-y,-z
loop_
_atom_site_type_symbol
_atom_site_label
_atom_site_fract_x
_atom_site_fract_y
_atom_site_fract_z
Si Si1 0.860047 0.606076 0.053585
Si Si2 0.775921 0.904897 0.813403
Si Si3 0.079086 0.631198 0.158499
Si Si4 0.477567 0.282044 0.325109
Si Si5 0.004419 0.298136 0.634697
Si Si6 0.881272 0.769125 0.638899
Si Si7 0.605433 0.712111 0.422706
Si Si8 0.570217 0.091891 0.174643
O O1 0.654507 0.467886 0.171628
O O2 0.919857 0.645060 0.132827
O O3 0.855811 0.810187 0.918458
O O4 0.000000 0.500000 0.000000
O O5 0.779890 0.756706 0.784947
O O6 0.578871 0.928160 0.854932
O O7 0.915304 0.122877 0.661823
O O8 0.025129 0.400167 0.306838
O O9 0.110933 0.743181 0.206414
O O10 0.258180 0.726297 0.992622
O O11 0.279272 0.299648 0.359760
O O12 0.476795 0.240600 0.462900
O O13 0.498572 0.136666 0.289722
O O14 0.198729 0.298579 0.607483
O O15 0.000000 0.500000 0.500000
O O16 0.000000 0.000000 0.500000
O O17 0.500000 0.500000 0.500000
O O18 0.614900 0.888473 0.266168
#
# Coordination Sequence:
#
# PCOD9059800 Si02
#       8
#     2   2   2   2   2   2   2   2
#     4  12  23  42  71 105 140 173 233 294 352 411
#     4  11  24  43  67  99 138 179 229 290 350 416
#     4  12  25  44  71 102 141 184 237 289 347 421
#     4  11  24  43  71 101 140 181 235 291 355 410
#     4  12  27  46  68 100 143 188 231 285 355 423
#     4  11  23  42  69 101 137 184 233 288 349 414
#     4  12  26  45  68 100 144 186 235 289 352 424
#     4  11  25  45  71 103 135 185 241 289 352 415
#
# _framework density 23.011026000000001
#
# number of rings (size 3 to 8) (size 9 to 14) (size 15 to 20)
#    0.000    0.500    2.500    5.625    0.000    9.500 
#    0.000    0.000    0.000    0.000    0.000    0.000 
#    0.000    0.000    0.000    0.000    0.000    0.000 
#
# Total GULP energy -89310.790336 kJ/mol
# GULP energy per Si atom -5581.924396 kJ/mol
# Density = 2.295865 g / cm^3
# Si number density = 23.011026 Si / 1000 Ang^3
#
#
#
# Elastic Constant Matrix: (Units=GPa)
#
#
# Indices 1 2 3 4 5 6 
#
# 1 129.3791 28.8616 49.6340 -22.8570 2.3375 11.4545
# 2 28.8616 69.2908 33.4559 4.0315 23.7729 9.9576
# 3 49.6340 33.4559 121.3511 -20.0470 21.3852 -9.3364
# 4 -22.8570 4.0315 -20.0470 43.5454 0.5325 4.8992
# 5 2.3375 23.7729 21.3852 0.5325 42.6299 0.7756
# 6 11.4545 9.9576 -9.3364 4.8992 0.7756 35.4961
#
#
#
# Elastic Compliance Matrix: (Units=1/GPa)
#
#
# Indices 1 2 3 4 5 6 
#
# 1 0.011138 -0.003689 -0.003626 0.004959 0.003281 -0.004269
# 2 -0.003689 0.022519 -0.004192 -0.005233 -0.010091 -0.005287
# 3 -0.003626 -0.004192 0.012591 0.003741 -0.003921 0.005227
# 4 0.004959 -0.005233 0.003741 0.028110 0.000474 -0.003038
# 5 0.003281 -0.010091 -0.003921 0.000474 0.030866 0.000001
# 6 -0.004269 -0.005287 0.005227 -0.003038 0.000001 0.032827
#
#
# Mechanical properties :
#
#
# Convention : Reuss Voigt Hill
#
# Bulk Modulus (GPa) = 43.04341 60.43601 51.73971
# Shear Modulus (GPa) = 29.61894 38.20559 33.91226
#
# Velocity S-wave (km/s) = 3.59160 4.07912 3.84310
# Velocity P-wave (km/s) = 5.99546 6.96467 6.49816
#
# Compressibility (1/GPa) = 0.02323236
#
# Stress axis : x y z
#
# Youngs Moduli (GPa) = 89.78268 44.40651 79.42417
#
# Poissons Ratio (x) = 0.16383 0.28799
# Poissons Ratio (y) = 0.33124 0.33298
# Poissons Ratio (z) = 0.32555 0.18617
#
# Static dielectric constant tensor:
#      x y z
#    x 1.863870 -0.026970 -0.003950 
#    y -0.026970 1.898330 0.060560 
#    z -0.003950 0.060560 1.889810 
# 
# From -- ./inp_files/494221.got.cif
#   From: 2010.05.17/outbox.cif.g08.bks.cpg/sg2_248_cif.got.tgz:494221.got - 2010.06.03 11:33:40.
