data_PCOD9059774
_publ_section_title
;
Structure prediction by ZEFSAII (Michael W. Deem and Ramdas Pophale) SiO2 
 PCOD9059774
Probable space group: P -1
;
_chemical_formula_sum "Si O2"
_cell_formula_units_Z 14
_cell_length_a 15.616907
_cell_length_b 27.477617
_cell_length_c 16.033139
_cell_angle_alpha 160.433700
_cell_angle_beta 18.294020
_cell_angle_gamma 158.850071
_cell_volume 674.318031
_symmetry_space_group_name_H-M "P -1"
_symmetry_group_IT_number 2
_symmetry_cell_setting 'triclinic'
loop_
_space_group_symop_operation_xyz
x,y,z
-x,-y,-z
loop_
_atom_site_type_symbol
_atom_site_label
_atom_site_fract_x
_atom_site_fract_y
_atom_site_fract_z
Si Si1 0.225527 0.947185 0.760345
Si Si2 0.693572 0.542930 0.473336
Si Si3 0.807165 0.817582 0.383300
Si Si4 0.931608 0.308370 0.381859
Si Si5 0.644962 0.679119 0.130303
Si Si6 0.357407 0.750654 0.178682
Si Si7 0.758354 0.362757 0.278666
O O1 0.059157 0.839471 0.815015
O O2 0.348339 0.838461 0.415109
O O3 0.492854 0.105831 0.791151
O O4 0.000000 0.000000 0.000000
O O5 0.500000 0.500000 0.500000
O O6 0.699322 0.406335 0.309329
O O7 0.023014 0.641768 0.299349
O O8 0.558095 0.647621 0.822869
O O9 0.704731 0.776328 0.316306
O O10 0.526967 0.755916 0.603364
O O11 0.000000 0.000000 0.500000
O O12 0.000311 0.715912 0.066776
O O13 0.593660 0.288519 0.654473
O O14 0.113619 0.471907 0.522682
O O15 0.064547 0.304182 0.161707
O O16 0.500000 0.500000 0.000000
#
# Coordination Sequence:
#
# PCOD9059774 Si02
#       7
#     2   2   2   2   2   2   2
#     4  11  24  42  69 102 145 173 220 285 345 415
#     4  12  26  46  69 100 140 182 239 280 325 421
#     4  12  27  48  69  98 141 178 227 285 352 407
#     4  12  24  40  75 102 132 176 229 277 348 396
#     4  12  24  44  70 104 132 169 231 299 326 405
#     4  11  23  42  68  95 140 181 218 276 348 385
#     4  12  23  45  76  95 130 186 228 275 349 408
#
# _framework density 20.761717000000001
#
# number of rings (size 3 to 8) (size 9 to 14) (size 15 to 20)
#    0.000    0.286    5.714    3.000    6.000    0.000 
#    7.714    0.000    0.000    0.000    0.000    0.000 
#    0.000    0.000    0.000    0.000    0.000    0.000 
#
# Total GULP energy -78288.144251 kJ/mol
# GULP energy per Si atom -5592.010304 kJ/mol
# Density = 2.071446 g / cm^3
# Si number density = 20.761717 Si / 1000 Ang^3
#
#
#
# Elastic Constant Matrix: (Units=GPa)
#
#
# Indices 1 2 3 4 5 6 
#
# 1 89.0517 20.4234 1.2410 19.9164 -8.8509 3.0719
# 2 20.4234 109.2476 1.2368 9.1598 0.1509 3.1105
# 3 1.2410 1.2368 55.7184 -11.5920 -15.0837 -1.2034
# 4 19.9164 9.1598 -11.5920 30.6604 -0.1447 -5.0738
# 5 -8.8509 0.1509 -15.0837 -0.1447 30.4220 -1.3758
# 6 3.0719 3.1105 -1.2034 -5.0738 -1.3758 26.9858
#
#
#
# Elastic Compliance Matrix: (Units=1/GPa)
#
#
# Indices 1 2 3 4 5 6 
#
# 1 0.014281 -0.001741 -0.001525 -0.009844 0.003217 -0.003180
# 2 -0.001741 0.009737 -0.001020 -0.002414 -0.001139 -0.001482
# 3 -0.001525 -0.001020 0.023440 0.010867 0.011414 0.003962
# 4 -0.009844 -0.002414 0.010867 0.045613 0.003233 0.010624
# 5 0.003217 -0.001139 0.011414 0.003233 0.039618 0.002902
# 6 -0.003180 -0.001482 0.003962 0.010624 0.002902 0.039911
#
#
# Mechanical properties :
#
#
# Convention : Reuss Voigt Hill
#
# Bulk Modulus (GPa) = 25.71655 33.31333 29.51494
# Shear Modulus (GPa) = 25.75514 33.02142 29.38828
#
# Velocity S-wave (km/s) = 3.52591 3.99243 3.76640
# Velocity P-wave (km/s) = 5.38419 6.11008 5.75858
#
# Compressibility (1/GPa) = 0.03888547
#
# Stress axis : x y z
#
# Youngs Moduli (GPa) = 70.02279 102.70416 42.66129
#
# Poissons Ratio (x) = 0.17881 0.06508
# Poissons Ratio (y) = 0.12191 0.04351
# Poissons Ratio (z) = 0.10681 0.10475
#
# Static dielectric constant tensor:
#      x y z
#    x 1.780220 0.013600 -0.036120 
#    y 0.013600 1.768360 -0.022890 
#    z -0.036120 -0.022890 1.749300 
# 
# From -- ./inp_files/453888.got.cif
#   From: 2010.05.17/outbox.cif.g08.bks.cpg/sg2_227_cif.got.tgz:453888.got - 2010.06.03 11:33:40.
