data_PCOD9059374
_publ_section_title
;
Structure prediction by ZEFSAII (Michael W. Deem and Ramdas Pophale) SiO2 
 PCOD9059374
Probable space group: P -1
;
_chemical_formula_sum "Si O2"
_cell_formula_units_Z 16
_cell_length_a 14.102711
_cell_length_b 8.582727
_cell_length_c 8.901085
_cell_angle_alpha 72.094149
_cell_angle_beta 52.943845
_cell_angle_gamma 65.836751
_cell_volume 781.729912
_symmetry_space_group_name_H-M "P -1"
_symmetry_group_IT_number 2
_symmetry_cell_setting 'triclinic'
loop_
_space_group_symop_operation_xyz
x,y,z
-x,-y,-z
loop_
_atom_site_type_symbol
_atom_site_label
_atom_site_fract_x
_atom_site_fract_y
_atom_site_fract_z
Si Si1 0.301711 0.928413 0.481389
Si Si2 0.213974 0.469330 0.048505
Si Si3 0.115925 0.195353 0.061919
Si Si4 0.868413 0.476628 0.576558
Si Si5 0.443433 0.349047 0.640929
Si Si6 0.858497 0.092966 0.651335
Si Si7 0.260384 0.257954 0.615144
Si Si8 0.101817 0.824795 0.897153
O O1 0.442332 0.810334 0.371571
O O2 0.230714 0.927374 0.392818
O O3 0.223757 0.857126 0.701387
O O4 0.297599 0.112935 0.495552
O O5 0.137282 0.344640 0.099210
O O6 0.226966 0.444943 0.220580
O O7 0.340662 0.413740 0.849408
O O8 0.140781 0.668102 0.023073
O O9 0.971537 0.232537 0.151339
O O10 0.166297 0.012354 0.149687
O O11 0.185551 0.199459 0.837617
O O12 0.859466 0.285338 0.624372
O O13 0.827793 0.576810 0.431739
O O14 0.000000 0.500000 0.500000
O O15 0.500000 0.500000 0.500000
O O16 0.374383 0.299183 0.577601
O O17 0.000000 0.000000 0.500000
O O18 0.000000 0.000000 0.000000
#
# Coordination Sequence:
#
# PCOD9059374 Si02
#       8
#     2   2   2   2   2   2   2   2
#     4  12  24  43  70  99 141 180 231 280 341 410
#     4  11  25  43  69 100 142 182 231 281 345 412
#     4  11  23  41  67 104 139 177 225 285 354 409
#     4  12  26  44  68 105 143 178 227 291 353 409
#     4  11  24  47  70  99 137 190 237 278 335 415
#     4  12  25  42  67 105 141 179 225 288 352 410
#     4  11  25  45  71 101 138 181 232 287 341 410
#     4  12  22  38  69 104 139 176 225 284 350 408
#
# _framework density 20.467428000000002
#
# number of rings (size 3 to 8) (size 9 to 14) (size 15 to 20)
#    0.000    0.500    3.750    5.250    1.750    0.000 
#    0.000    9.375    0.000    0.000    0.000    0.000 
#    0.000    0.000    0.000    0.000    0.000    0.000 
#
# Total GULP energy -89497.460963 kJ/mol
# GULP energy per Si atom -5593.591310 kJ/mol
# Density = 2.042084 g / cm^3
# Si number density = 20.467428 Si / 1000 Ang^3
#
#
#
# Elastic Constant Matrix: (Units=GPa)
#
#
# Indices 1 2 3 4 5 6 
#
# 1 157.9852 59.0503 53.3415 -3.3691 2.9989 1.3367
# 2 59.0503 140.1942 64.6271 -7.2586 5.5668 2.7486
# 3 53.3415 64.6271 96.9085 -13.5018 12.8738 6.7609
# 4 -3.3691 -7.2586 -13.5018 44.5645 -3.6897 3.5025
# 5 2.9989 5.5668 12.8738 -3.6897 35.4630 -4.4812
# 6 1.3367 2.7486 6.7609 3.5025 -4.4812 39.5953
#
#
#
# Elastic Compliance Matrix: (Units=1/GPa)
#
#
# Indices 1 2 3 4 5 6 
#
# 1 0.008189 -0.001929 -0.003482 -0.000726 0.000876 0.000615
# 2 -0.001929 0.010805 -0.006324 -0.000276 0.000798 0.000510
# 3 -0.003482 -0.006324 0.017946 0.003981 -0.005250 -0.003454
# 4 -0.000726 -0.000276 0.003981 0.023821 0.000803 -0.002652
# 5 0.000876 0.000798 -0.005250 0.000803 0.030518 0.004194
# 6 0.000615 0.000510 -0.003454 -0.002652 0.004194 0.026498
#
#
# Mechanical properties :
#
#
# Convention : Reuss Voigt Hill
#
# Bulk Modulus (GPa) = 74.23516 83.23618 78.73567
# Shear Modulus (GPa) = 34.30890 38.46251 36.38571
#
# Velocity S-wave (km/s) = 4.09867 4.33968 4.22090
# Velocity P-wave (km/s) = 7.66469 8.11581 7.89347
#
# Compressibility (1/GPa) = 0.01347071
#
# Stress axis : x y z
#
# Youngs Moduli (GPa) = 122.11842 92.55387 55.72356
#
# Poissons Ratio (x) = 0.17850 0.19401
# Poissons Ratio (y) = 0.23552 0.35239
# Poissons Ratio (z) = 0.42518 0.58530
#
# Static dielectric constant tensor:
#      x y z
#    x 1.720430 0.032800 0.011760 
#    y 0.032800 1.804490 -0.004340 
#    z 0.011760 -0.004340 1.746820 
# 
# From -- ./inp_files/189920.got.cif
#   From: 2010.05.17/outbox.cif.g08.bks.cpg/sg2_95_cif.got.tgz:189920.got - 2010.06.03 11:33:40.
