data_PCOD9059433
_publ_section_title
;
Structure prediction by ZEFSAII (Michael W. Deem and Ramdas Pophale) SiO2 
 PCOD9059433
Probable space group: P -1
;
_chemical_formula_sum "Si O2"
_cell_formula_units_Z 16
_cell_length_a 29.052546
_cell_length_b 9.848538
_cell_length_c 9.615144
_cell_angle_alpha 105.200173
_cell_angle_beta 41.590218
_cell_angle_gamma 139.757284
_cell_volume 818.901297
_symmetry_space_group_name_H-M "P -1"
_symmetry_group_IT_number 2
_symmetry_cell_setting 'triclinic'
loop_
_space_group_symop_operation_xyz
x,y,z
-x,-y,-z
loop_
_atom_site_type_symbol
_atom_site_label
_atom_site_fract_x
_atom_site_fract_y
_atom_site_fract_z
Si Si1 0.030776 0.629893 0.821289
Si Si2 0.605094 0.587668 0.194322
Si Si3 0.939559 0.282926 0.693447
Si Si4 0.423675 0.778383 0.891944
Si Si5 0.642528 0.693153 0.807981
Si Si6 0.930762 0.749191 0.174297
Si Si7 0.914386 0.729463 0.530508
Si Si8 0.624358 0.339783 0.713132
O O1 0.930681 0.365776 0.868980
O O2 0.204482 0.945539 0.467112
O O3 0.000000 0.500000 0.000000
O O4 0.977811 0.692753 0.977636
O O5 0.500000 0.500000 0.500000
O O6 0.557730 0.338692 0.256086
O O7 0.604151 0.618234 0.038857
O O8 0.779600 0.925999 0.927927
O O9 0.000000 0.500000 0.500000
O O10 0.054712 0.364062 0.490470
O O11 0.530456 0.106850 0.735098
O O12 0.257776 0.533693 0.165627
O O13 0.447430 0.782619 0.003111
O O14 0.670999 0.586040 0.655346
O O15 0.500000 0.500000 0.000000
O O16 0.970441 0.820671 0.267711
O O17 0.757017 0.469128 0.475148
O O18 0.000000 0.000000 0.000000
O O19 0.000000 0.000000 0.500000
#
# Coordination Sequence:
#
# PCOD9059433 Si02
#       8
#     2   2   2   2   2   2   2   2
#     4  12  26  43  67 103 134 178 231 278 336 404
#     4  11  25  44  65  97 136 179 220 276 343 406
#     4  12  26  44  68  97 138 182 226 279 342 404
#     4   9  20  39  64  92 126 168 219 266 330 395
#     4  11  25  43  67  96 136 174 224 281 336 402
#     4  11  23  41  68  97 131 170 225 280 331 395
#     4  11  23  42  69  95 131 176 221 276 338 398
#     4   9  20  38  64  92 125 170 214 270 331 389
#
# _framework density 19.538373
#
# number of rings (size 3 to 8) (size 9 to 14) (size 15 to 20)
#    0.000    1.250    5.000    0.000    7.000    1.000 
#    0.000    0.000    0.000    2.250    0.000    0.000 
#    0.000    0.000    0.000    0.000    0.000    0.000 
#
# Total GULP energy -89176.648484 kJ/mol
# GULP energy per Si atom -5573.540530 kJ/mol
# Density = 1.949390 g / cm^3
# Si number density = 19.538373 Si / 1000 Ang^3
#
#
#
# Elastic Constant Matrix: (Units=GPa)
#
#
# Indices 1 2 3 4 5 6 
#
# 1 105.6363 48.5638 24.9380 10.0446 -5.9008 -2.1228
# 2 48.5638 148.5099 32.1095 13.4369 -13.5977 7.6947
# 3 24.9380 32.1095 68.3099 12.1067 -8.6755 1.2195
# 4 10.0446 13.4369 12.1067 35.9848 -3.7430 -6.2550
# 5 -5.9008 -13.5977 -8.6755 -3.7430 28.6293 0.1131
# 6 -2.1228 7.6947 1.2195 -6.2550 0.1131 40.8611
#
#
#
# Elastic Compliance Matrix: (Units=1/GPa)
#
#
# Indices 1 2 3 4 5 6 
#
# 1 0.011679 -0.003232 -0.002596 -0.000986 -0.000048 0.001142
# 2 -0.003232 0.008779 -0.002281 -0.001689 0.002599 -0.002019
# 3 -0.002596 -0.002281 0.017838 -0.004244 0.003236 -0.000896
# 4 -0.000986 -0.001689 -0.004244 0.031205 0.001768 0.005165
# 5 -0.000048 0.002599 0.003236 0.001768 0.037367 -0.000421
# 6 0.001142 -0.002019 -0.000896 0.005165 -0.000421 0.025731
#
#
# Mechanical properties :
#
#
# Convention : Reuss Voigt Hill
#
# Bulk Modulus (GPa) = 45.29459 59.29765 52.29612
# Shear Modulus (GPa) = 32.01454 35.55136 33.78295
#
# Velocity S-wave (km/s) = 4.05229 4.27026 4.16270
# Velocity P-wave (km/s) = 6.71769 7.39789 7.06598
#
# Compressibility (1/GPa) = 0.02207769
#
# Stress axis : x y z
#
# Youngs Moduli (GPa) = 85.62146 113.90595 56.05887
#
# Poissons Ratio (x) = 0.36817 0.14554
# Poissons Ratio (y) = 0.27675 0.12788
# Poissons Ratio (z) = 0.22229 0.25984
#
# Static dielectric constant tensor:
#      x y z
#    x 1.671320 0.035900 -0.030100 
#    y 0.035900 1.830350 -0.097410 
#    z -0.030100 -0.097410 1.713030 
# 
# From -- ./inp_files/206401.got.cif
#   From: 2010.05.17/outbox.cif.g08.bks.cpg/sg2_104_cif.got.tgz:206401.got - 2010.06.03 11:33:40.
