data_PCOD9059577
_publ_section_title
;
Structure prediction by ZEFSAII (Michael W. Deem and Ramdas Pophale) SiO2 
 PCOD9059577
Probable space group: P -1
;
_chemical_formula_sum "Si O2"
_cell_formula_units_Z 16
_cell_length_a 5.404467
_cell_length_b 11.067305
_cell_length_c 12.386638
_cell_angle_alpha 74.264434
_cell_angle_beta 83.762684
_cell_angle_gamma 63.064602
_cell_volume 635.667672
_symmetry_space_group_name_H-M "P -1"
_symmetry_group_IT_number 2
_symmetry_cell_setting 'triclinic'
loop_
_space_group_symop_operation_xyz
x,y,z
-x,-y,-z
loop_
_atom_site_type_symbol
_atom_site_label
_atom_site_fract_x
_atom_site_fract_y
_atom_site_fract_z
Si Si1 0.295937 0.268069 0.079800
Si Si2 0.408915 0.406282 0.841407
Si Si3 0.355649 0.278209 0.504051
Si Si4 0.020400 0.846566 0.540832
Si Si5 0.194133 0.010055 0.896521
Si Si6 0.782407 0.566091 0.748345
Si Si7 0.053023 0.109785 0.225842
Si Si8 0.421421 0.184267 0.751866
O O1 0.512482 0.118168 0.061569
O O2 0.342297 0.304203 0.191794
O O3 0.035491 0.231692 0.114637
O O4 0.324348 0.378248 0.972078
O O5 0.609866 0.479462 0.804608
O O6 0.551120 0.260982 0.803027
O O7 0.107507 0.490324 0.780310
O O8 0.239807 0.169753 0.491365
O O9 0.244558 0.392777 0.386624
O O10 0.280042 0.281762 0.632440
O O11 0.680635 0.243828 0.503984
O O12 0.040212 0.815972 0.674094
O O13 0.000000 0.000000 0.500000
O O14 0.117824 0.965853 0.796207
O O15 0.210647 0.153840 0.844143
O O16 0.000000 0.000000 0.000000
O O17 0.355135 0.972543 0.257581
#
# Coordination Sequence:
#
# PCOD9059577 Si02
#       8
#     2   2   2   2   2   2   2   2
#     4  11  25  46  74 106 140 183 243 305 361 422
#     4  12  29  48  73 101 142 194 251 298 342 421
#     4  12  26  46  72 105 149 187 237 297 349 434
#     4  12  23  41  73 110 145 181 230 289 372 423
#     4  11  24  43  76 108 148 183 231 293 379 438
#     4  12  28  49  73 104 138 197 252 293 348 405
#     4  11  23  41  73 108 143 182 228 299 377 434
#     4  11  27  45  69 110 144 189 235 290 371 435
#
# _framework density 25.170387000000002
#
# number of rings (size 3 to 8) (size 9 to 14) (size 15 to 20)
#    0.000    0.500    2.500    4.875    8.750    3.000 
#    0.000    0.000    0.000    0.000    0.000    0.000 
#    0.000    0.000    0.000    0.000    0.000    0.000 
#
# Total GULP energy -89403.292919 kJ/mol
# GULP energy per Si atom -5587.705807 kJ/mol
# Density = 2.511310 g / cm^3
# Si number density = 25.170387 Si / 1000 Ang^3
#
#
#
# Elastic Constant Matrix: (Units=GPa)
#
#
# Indices 1 2 3 4 5 6 
#
# 1 89.7621 23.5538 16.4961 -9.6038 -15.3788 19.5813
# 2 23.5538 69.7066 22.1338 -1.9042 -19.0482 17.4517
# 3 16.4961 22.1338 151.3373 -17.4058 -8.9280 4.0894
# 4 -9.6038 -1.9042 -17.4058 41.7297 9.9153 0.1776
# 5 -15.3788 -19.0482 -8.9280 9.9153 36.2421 -5.0079
# 6 19.5813 17.4517 4.0894 0.1776 -5.0079 47.2003
#
#
#
# Elastic Compliance Matrix: (Units=1/GPa)
#
#
# Indices 1 2 3 4 5 6 
#
# 1 0.013596 -0.002376 -0.000593 0.002028 0.003215 -0.004377
# 2 -0.002376 0.019426 -0.002236 -0.002632 0.008670 -0.005073
# 3 -0.000593 -0.002236 0.007300 0.002892 -0.000366 0.000391
# 4 0.002028 -0.002632 0.002892 0.027282 -0.007414 -0.001008
# 5 0.003215 0.008670 -0.000366 -0.007414 0.035350 -0.000729
# 6 -0.004377 -0.005073 0.000391 -0.001008 -0.000729 0.024771
#
#
# Mechanical properties :
#
#
# Convention : Reuss Voigt Hill
#
# Bulk Modulus (GPa) = 33.43295 48.35262 40.89278
# Shear Modulus (GPa) = 33.75957 41.60922 37.68439
#
# Velocity S-wave (km/s) = 3.66627 4.07025 3.87353
# Velocity P-wave (km/s) = 5.58870 6.42970 6.02389
#
# Compressibility (1/GPa) = 0.02991062
#
# Stress axis : x y z
#
# Youngs Moduli (GPa) = 73.55336 51.47690 136.98782
#
# Poissons Ratio (x) = 0.12230 0.08128
# Poissons Ratio (y) = 0.17476 0.30635
# Poissons Ratio (z) = 0.04364 0.11512
#
# Static dielectric constant tensor:
#      x y z
#    x 2.054340 -0.067850 -0.052510 
#    y -0.067850 2.046300 -0.041580 
#    z -0.052510 -0.041580 2.056140 
# 
# From -- ./inp_files/94727.got.cif
#   From: 2010.05.17/outbox.cif.g08.bks.cpg/sg2_48_cif.got.tgz:94727.got - 2010.06.03 11:33:40.
