data_PCOD9059963
_publ_section_title
;
Structure prediction by ZEFSAII (Michael W. Deem and Ramdas Pophale) SiO2 
 PCOD9059963
Probable space group: P -1
;
_chemical_formula_sum "Si O2"
_cell_formula_units_Z 14
_cell_length_a 24.301937
_cell_length_b 8.999880
_cell_length_c 17.807679
_cell_angle_alpha 32.734572
_cell_angle_beta 160.347562
_cell_angle_gamma 147.319907
_cell_volume 681.554894
_symmetry_space_group_name_H-M "P -1"
_symmetry_group_IT_number 2
_symmetry_cell_setting 'triclinic'
loop_
_space_group_symop_operation_xyz
x,y,z
-x,-y,-z
loop_
_atom_site_type_symbol
_atom_site_label
_atom_site_fract_x
_atom_site_fract_y
_atom_site_fract_z
Si Si1 0.793669 0.593082 0.987503
Si Si2 0.997314 0.118213 0.109740
Si Si3 0.528633 0.870846 0.171554
Si Si4 0.076809 0.320726 0.436038
Si Si5 0.826284 0.611400 0.637094
Si Si6 0.657038 0.781421 0.589503
Si Si7 0.372255 0.694710 0.752180
O O1 0.650303 0.317533 0.946907
O O2 0.721034 0.782700 0.755843
O O3 0.930462 0.476114 0.168575
O O4 0.892774 0.797971 0.092607
O O5 0.042561 0.163780 0.236236
O O6 0.177363 0.199187 0.259810
O O7 0.880459 0.323857 0.847592
O O8 0.644780 0.650970 0.410914
O O9 0.614665 0.132962 0.226310
O O10 0.500000 0.000000 0.000000
O O11 0.165272 0.329709 0.465629
O O12 0.195431 0.490856 0.582337
O O13 0.000000 0.000000 0.500000
O O14 0.500000 0.500000 0.500000
O O15 0.588329 0.049769 0.366433
O O16 0.500000 0.500000 0.000000
#
# Coordination Sequence:
#
# PCOD9059963 Si02
#       7
#     2   2   2   2   2   2   2
#     4  12  23  44  71 101 133 187 240 282 344 412
#     4  11  23  42  72 100 136 175 229 297 341 412
#     4  12  26  46  66  99 145 184 227 289 351 414
#     4  12  25  42  71  99 136 187 237 287 343 416
#     4  11  23  44  66  99 139 176 225 288 354 405
#     4  12  22  43  73 102 138 179 231 290 339 413
#     4  12  25  45  68 103 139 183 232 285 347 416
#
# _framework density 20.541264999999999
#
# number of rings (size 3 to 8) (size 9 to 14) (size 15 to 20)
#    0.000    0.286    5.714    3.857    0.000    1.714 
#    0.000    8.571    0.000    0.000    0.000    0.000 
#    0.000    0.000    0.000    0.000    0.000    0.000 
#
# Total GULP energy -78201.672009 kJ/mol
# GULP energy per Si atom -5585.833715 kJ/mol
# Density = 2.049451 g / cm^3
# Si number density = 20.541265 Si / 1000 Ang^3
#
#
#
# Elastic Constant Matrix: (Units=GPa)
#
#
# Indices 1 2 3 4 5 6 
#
# 1 84.2090 34.1299 19.3355 15.9606 -11.0841 -18.8067
# 2 34.1299 130.0756 29.5061 12.8219 -5.9158 -19.2697
# 3 19.3355 29.5061 115.4003 -9.5627 2.0286 5.4179
# 4 15.9606 12.8219 -9.5627 40.0826 -2.7078 -6.4187
# 5 -11.0841 -5.9158 2.0286 -2.7078 44.4089 0.1179
# 6 -18.8067 -19.2697 5.4179 -6.4187 0.1179 22.3574
#
#
#
# Elastic Compliance Matrix: (Units=1/GPa)
#
#
# Indices 1 2 3 4 5 6 
#
# 1 0.017703 -0.001104 -0.003813 -0.005191 0.004094 0.013352
# 2 -0.001104 0.010070 -0.002955 -0.002160 0.001048 0.007841
# 3 -0.003813 -0.002955 0.010740 0.003754 -0.001588 -0.007271
# 4 -0.005191 -0.002160 0.003754 0.028782 -0.000003 0.001125
# 5 0.004094 0.001048 -0.001588 -0.000003 0.023739 0.004606
# 6 0.013352 0.007841 -0.007271 0.001125 0.004606 0.064778
#
#
# Mechanical properties :
#
#
# Convention : Reuss Voigt Hill
#
# Bulk Modulus (GPa) = 43.92016 55.06978 49.49497
# Shear Modulus (GPa) = 27.91007 37.81735 32.86371
#
# Velocity S-wave (km/s) = 3.69010 4.29539 4.00420
# Velocity P-wave (km/s) = 6.29155 7.17413 6.74728
#
# Compressibility (1/GPa) = 0.02276859
#
# Stress axis : x y z
#
# Youngs Moduli (GPa) = 56.48830 99.30342 93.10702
#
# Poissons Ratio (x) = 0.10966 0.35499
# Poissons Ratio (y) = 0.06238 0.27516
# Poissons Ratio (z) = 0.21538 0.29347
#
# Static dielectric constant tensor:
#      x y z
#    x 2.112820 -0.437650 -0.321510 
#    y -0.437650 2.141250 0.357410 
#    z -0.321510 0.357410 2.042690 
# 
# From -- ./inp_files/157330.got.cif
#   From: 2010.05.17/outbox.cif.g08.bks.cpg/sg2_79_cif.got.tgz:157330.got - 2010.06.03 11:33:40.
