data_PCOD9059354
_publ_section_title
;
Structure prediction by ZEFSAII (Michael W. Deem and Ramdas Pophale) SiO2 
 PCOD9059354
Probable space group: P -1
;
_chemical_formula_sum "Si O2"
_cell_formula_units_Z 16
_cell_length_a 11.306684
_cell_length_b 22.042702
_cell_length_c 18.275412
_cell_angle_alpha 158.580960
_cell_angle_beta 150.179194
_cell_angle_gamma 38.680439
_cell_volume 817.954360
_symmetry_space_group_name_H-M "P -1"
_symmetry_group_IT_number 2
_symmetry_cell_setting 'triclinic'
loop_
_space_group_symop_operation_xyz
x,y,z
-x,-y,-z
loop_
_atom_site_type_symbol
_atom_site_label
_atom_site_fract_x
_atom_site_fract_y
_atom_site_fract_z
Si Si1 0.108229 0.808550 0.707467
Si Si2 0.344362 0.609071 0.490332
Si Si3 0.366340 0.806017 0.457889
Si Si4 0.431246 0.807955 0.024526
Si Si5 0.127312 0.378756 0.984184
Si Si6 0.328675 0.192647 0.228989
Si Si7 0.615668 0.604249 0.248337
Si Si8 0.894781 0.373300 0.237845
O O1 0.176128 0.691605 0.547605
O O2 0.254148 0.775130 0.822247
O O3 0.825294 0.758165 0.513362
O O4 0.203794 0.999998 0.951207
O O5 0.500000 0.500000 0.500000
O O6 0.508641 0.753613 0.693923
O O7 0.203845 0.483829 0.215782
O O8 0.508402 0.771890 0.570481
O O9 0.433235 0.681294 0.290602
O O10 0.082424 0.774013 0.283189
O O11 0.453516 0.998376 0.700055
O O12 0.277701 0.771375 0.974424
O O13 0.637336 0.688564 0.996510
O O14 0.000000 0.500000 0.000000
O O15 0.116564 0.304931 0.242608
O O16 0.747291 0.473092 0.216711
O O17 0.500000 0.500000 0.000000
O O18 0.000000 0.500000 0.500000
#
# Coordination Sequence:
#
# PCOD9059354 Si02
#       8
#     2   2   2   2   2   2   2   2
#     4  11  23  42  65  94 131 166 209 264 317 374
#     4  12  23  41  63  93 129 165 213 258 311 374
#     4  11  23  42  65  94 131 166 209 264 317 374
#     4  11  23  41  66  97 124 168 217 257 314 377
#     4  12  23  41  63  93 129 165 213 258 311 374
#     4  11  23  41  66  97 124 168 217 257 314 377
#     4  12  25  43  65  97 130 163 207 264 325 371
#     4  12  21  41  69  93 122 162 219 260 304 381
#
# _framework density 19.560994000000001
#
# number of rings (size 3 to 8) (size 9 to 14) (size 15 to 20)
#    0.000    0.500    5.000    4.500    0.000    2.000 
#    0.000    5.000    0.000    0.000    0.000    0.000 
#    0.000    0.000    0.000    0.000    0.000    0.000 
#
# Total GULP energy -89494.549444 kJ/mol
# GULP energy per Si atom -5593.409340 kJ/mol
# Density = 1.951647 g / cm^3
# Si number density = 19.560994 Si / 1000 Ang^3
#
#
#
# Elastic Constant Matrix: (Units=GPa)
#
#
# Indices 1 2 3 4 5 6 
#
# 1 45.4104 -5.5132 -5.1517 -6.6172 7.6168 7.9139
# 2 -5.5132 78.4453 17.9600 -8.4151 -11.7416 17.0047
# 3 -5.1517 17.9600 81.2750 -14.2806 10.7755 21.3882
# 4 -6.6172 -8.4151 -14.2806 29.7956 3.5268 0.4990
# 5 7.6168 -11.7416 10.7755 3.5268 46.6241 2.6779
# 6 7.9139 17.0047 21.3882 0.4990 2.6779 38.5595
#
#
#
# Elastic Compliance Matrix: (Units=1/GPa)
#
#
# Indices 1 2 3 4 5 6 
#
# 1 0.027387 0.003038 0.006383 0.010812 -0.005413 -0.010266
# 2 0.003038 0.015840 -0.001150 0.004263 0.003855 -0.007294
# 3 0.006383 -0.001150 0.018469 0.010812 -0.005800 -0.010785
# 4 0.010812 0.004263 0.010812 0.043216 -0.005872 -0.010248
# 5 -0.005413 0.003855 -0.005800 -0.005872 0.025032 0.000965
# 6 -0.010266 -0.007294 -0.010785 -0.010248 0.000965 0.037305
#
#
# Mechanical properties :
#
#
# Convention : Reuss Voigt Hill
#
# Bulk Modulus (GPa) = 12.78135 24.41345 18.59740
# Shear Modulus (GPa) = 28.28269 36.18488 32.23378
#
# Velocity S-wave (km/s) = 3.80659 4.30565 4.06379
# Velocity P-wave (km/s) = 5.08610 6.10131 5.61669
#
# Compressibility (1/GPa) = 0.07823902
#
# Stress axis : x y z
#
# Youngs Moduli (GPa) = 36.51382 63.13107 54.14355
#
# Poissons Ratio (x) = -0.19181 -0.34562
# Poissons Ratio (y) = -0.11094 0.06229
# Poissons Ratio (z) = -0.23308 0.07262
#
# Static dielectric constant tensor:
#      x y z
#    x 1.667940 0.007290 0.035690 
#    y 0.007290 1.633210 0.024780 
#    z 0.035690 0.024780 1.680930 
# 
# From -- ./inp_files/207708.got.cif
#   From: 2010.05.17/outbox.cif.g08.bks.cpg/sg2_104_cif.got.tgz:207708.got - 2010.06.03 11:33:40.
