data_PCOD9059915
_publ_section_title
;
Structure prediction by ZEFSAII (Michael W. Deem and Ramdas Pophale) SiO2 
 PCOD9059915
Probable space group: P -1
;
_chemical_formula_sum "Si O2"
_cell_formula_units_Z 10
_cell_length_a 9.642157
_cell_length_b 8.736011
_cell_length_c 9.811358
_cell_angle_alpha 73.781890
_cell_angle_beta 136.858122
_cell_angle_gamma 78.882213
_cell_volume 432.456971
_symmetry_space_group_name_H-M "P -1"
_symmetry_group_IT_number 2
_symmetry_cell_setting 'triclinic'
loop_
_space_group_symop_operation_xyz
x,y,z
-x,-y,-z
loop_
_atom_site_type_symbol
_atom_site_label
_atom_site_fract_x
_atom_site_fract_y
_atom_site_fract_z
Si Si1 0.199530 0.548018 0.148884
Si Si2 0.616515 0.102018 0.623518
Si Si3 0.218710 0.080435 0.729174
Si Si4 0.757584 0.316040 0.151399
Si Si5 0.976803 0.863699 0.153641
O O1 0.443533 0.336389 0.425237
O O2 0.100587 0.702340 0.163051
O O3 0.250435 0.611647 0.026362
O O4 0.000000 0.500000 0.000000
O O5 0.873070 0.041665 0.749263
O O6 0.500000 0.000000 0.500000
O O7 0.695090 0.031651 0.852210
O O8 0.038313 0.211008 0.695168
O O9 0.040942 0.224006 0.440259
O O10 0.244018 0.875786 0.791943
O O11 0.500000 0.000000 0.000000
O O12 0.500000 0.500000 0.000000
#
# Coordination Sequence:
#
# PCOD9059915 Si02
#       5
#     2   2   2   2   2
#     4  12  26  45  75 107 143 190 241 298 361 425
#     4  11  23  42  71 102 144 180 236 299 358 413
#     4  11  28  48  75 104 149 195 241 297 372 430
#     4  11  27  51  73 106 151 190 242 303 363 437
#     4  11  25  45  71 106 140 188 245 295 351 435
#
# _framework density 23.123684999999998
#
# number of rings (size 3 to 8) (size 9 to 14) (size 15 to 20)
#    0.000    0.800    2.000    4.200    5.600    5.600 
#    0.000    0.000    0.000    0.000    0.000    0.000 
#    0.000    0.000    0.000    0.000    0.000    0.000 
#
# Total GULP energy -55822.558406 kJ/mol
# GULP energy per Si atom -5582.255841 kJ/mol
# Density = 2.307105 g / cm^3
# Si number density = 23.123685 Si / 1000 Ang^3
#
#
#
# Elastic Constant Matrix: (Units=GPa)
#
#
# Indices 1 2 3 4 5 6 
#
# 1 64.3134 62.9185 13.4308 5.5653 -3.9024 -20.2419
# 2 62.9185 116.4403 63.1917 -5.8929 6.1380 -10.0658
# 3 13.4308 63.1917 145.7422 -9.9095 3.9590 -5.0943
# 4 5.5653 -5.8929 -9.9095 50.6742 14.6800 15.9992
# 5 -3.9024 6.1380 3.9590 14.6800 46.2861 13.9951
# 6 -20.2419 -10.0658 -5.0943 15.9992 13.9951 38.9786
#
#
#
# Elastic Compliance Matrix: (Units=1/GPa)
#
#
# Indices 1 2 3 4 5 6 
#
# 1 0.062064 -0.037886 0.010155 -0.020640 0.006937 0.029755
# 2 -0.037886 0.034733 -0.011066 0.012618 -0.006299 -0.015069
# 3 0.010155 -0.011066 0.010729 -0.001874 0.000688 0.004341
# 4 -0.020640 0.012618 -0.001874 0.030902 -0.007728 -0.017614
# 5 0.006937 -0.006299 0.000688 -0.007728 0.026736 -0.004362
# 6 0.029755 -0.015069 0.004341 -0.017614 -0.004362 0.046579
#
#
# Mechanical properties :
#
#
# Convention : Reuss Voigt Hill
#
# Bulk Modulus (GPa) = 33.40686 67.28644 50.34665
# Shear Modulus (GPa) = 16.70481 39.65146 28.17813
#
# Velocity S-wave (km/s) = 2.69069 4.14545 3.49461
# Velocity P-wave (km/s) = 4.91238 7.21628 6.17277
#
# Compressibility (1/GPa) = 0.02993397
#
# Stress axis : x y z
#
# Youngs Moduli (GPa) = 16.11228 28.79080 93.20269
#
# Poissons Ratio (x) = 1.09077 -0.94652
# Poissons Ratio (y) = 0.61043 1.03139
# Poissons Ratio (z) = -0.16363 0.31860
#
# Static dielectric constant tensor:
#      x y z
#    x 1.929070 -0.042320 0.083010 
#    y -0.042320 1.877790 -0.059950 
#    z 0.083010 -0.059950 1.960450 
# 
# From -- ./inp_files/153598.got.cif
#   From: 2010.05.17/outbox.cif.g08.bks.cpg/sg2_77_cif.got.tgz:153598.got - 2010.06.03 11:33:40.
