data_PCOD9059180
_publ_section_title
;
Structure prediction by ZEFSAII (Michael W. Deem and Ramdas Pophale) SiO2 
 PCOD9059180
Probable space group: P -1
;
_chemical_formula_sum "Si O2"
_cell_formula_units_Z 14
_cell_length_a 8.644111
_cell_length_b 18.993159
_cell_length_c 12.252111
_cell_angle_alpha 161.433490
_cell_angle_beta 102.349351
_cell_angle_gamma 76.296161
_cell_volume 621.879645
_symmetry_space_group_name_H-M "P -1"
_symmetry_group_IT_number 2
_symmetry_cell_setting 'triclinic'
loop_
_space_group_symop_operation_xyz
x,y,z
-x,-y,-z
loop_
_atom_site_type_symbol
_atom_site_label
_atom_site_fract_x
_atom_site_fract_y
_atom_site_fract_z
Si Si1 0.386119 0.976337 0.795925
Si Si2 0.044095 0.646007 0.027389
Si Si3 0.098165 0.923923 0.012435
Si Si4 0.302127 0.318096 0.669688
Si Si5 0.267724 0.552930 0.239566
Si Si6 0.576355 0.373444 0.429990
Si Si7 0.075122 0.098274 0.825117
O O1 0.529981 0.805423 0.522151
O O2 0.282377 0.816070 0.613360
O O3 0.265788 0.082760 0.842013
O O4 0.466015 0.179314 0.159720
O O5 0.908363 0.499172 0.832431
O O6 0.217488 0.509279 0.859563
O O7 0.998250 0.728167 0.020278
O O8 0.040417 0.858047 0.419181
O O9 0.994516 0.849718 0.988527
O O10 0.182434 0.130632 0.374654
O O11 0.246166 0.740205 0.738764
O O12 0.000000 0.000000 0.000000
O O13 0.310059 0.428642 0.950889
O O14 0.393650 0.477181 0.241869
O O15 0.500000 0.500000 0.500000
#
# Coordination Sequence:
#
# PCOD9059180 Si02
#       7
#     2   2   2   2   2   2   2
#     4  11  24  42  68  98 134 173 229 275 339 404
#     4  11  23  40  69  98 137 172 223 281 337 388
#     4  11  24  45  72 100 134 182 228 273 334 412
#     4  11  23  42  68 103 129 179 231 275 334 399
#     4  12  22  43  69  96 133 181 227 277 329 408
#     4  11  26  46  65  98 137 178 221 284 351 394
#     4  11  23  43  65 102 138 172 221 280 340 397
#
# _framework density 22.512395999999999
#
# number of rings (size 3 to 8) (size 9 to 14) (size 15 to 20)
#    0.000    0.857    2.857    4.714    0.000    2.286 
#    2.571    7.143    0.000    0.000    0.000    0.000 
#    0.000    0.000    0.000    0.000    0.000    0.000 
#
# Total GULP energy -78341.943618 kJ/mol
# GULP energy per Si atom -5595.853116 kJ/mol
# Density = 2.246116 g / cm^3
# Si number density = 22.512396 Si / 1000 Ang^3
#
#
#
# Elastic Constant Matrix: (Units=GPa)
#
#
# Indices 1 2 3 4 5 6 
#
# 1 115.2604 68.9150 38.4070 0.8927 -0.0453 -17.5077
# 2 68.9150 165.0430 32.8952 -7.5102 -19.8667 -35.1242
# 3 38.4070 32.8952 70.1143 -10.1547 11.3178 -10.9353
# 4 0.8927 -7.5102 -10.1547 31.7139 -13.0111 5.9214
# 5 -0.0453 -19.8667 11.3178 -13.0111 34.7801 4.5585
# 6 -17.5077 -35.1242 -10.9353 5.9214 4.5585 38.6986
#
#
#
# Elastic Compliance Matrix: (Units=1/GPa)
#
#
# Indices 1 2 3 4 5 6 
#
# 1 0.013568 -0.004965 -0.005085 -0.004690 -0.003086 0.001276
# 2 -0.004965 0.010841 -0.002164 0.004176 0.007741 0.005431
# 3 -0.005085 -0.002164 0.019851 0.002852 -0.006861 0.001717
# 4 -0.004690 0.004176 0.002852 0.042083 0.017992 -0.006085
# 5 -0.003086 0.007741 -0.006861 0.017992 0.042669 -0.004088
# 6 0.001276 0.005431 0.001717 -0.006085 -0.004088 0.033245
#
#
# Mechanical properties :
#
#
# Convention : Reuss Voigt Hill
#
# Bulk Modulus (GPa) = 50.42326 70.09468 60.25897
# Shear Modulus (GPa) = 25.86684 35.05189 30.45936
#
# Velocity S-wave (km/s) = 3.39337 3.95017 3.68231
# Velocity P-wave (km/s) = 6.14817 7.21171 6.70107
#
# Compressibility (1/GPa) = 0.01983212
#
# Stress axis : x y z
#
# Youngs Moduli (GPa) = 73.70219 92.23958 50.37425
#
# Poissons Ratio (x) = 0.45800 0.25615
# Poissons Ratio (y) = 0.36595 0.10902
# Poissons Ratio (z) = 0.37477 0.19962
#
# Static dielectric constant tensor:
#      x y z
#    x 1.848990 0.008940 0.014400 
#    y 0.008940 1.870010 0.013520 
#    z 0.014400 0.013520 1.851400 
# 
# From -- ./inp_files/208762.got.cif
#   From: 2010.05.17/outbox.cif.g08.bks.cpg/sg2_105_cif.got.tgz:208762.got - 2010.06.03 11:33:40.
