data_PCOD9059507
_publ_section_title
;
Structure prediction by ZEFSAII (Michael W. Deem and Ramdas Pophale) SiO2 
 PCOD9059507
Probable space group: P -1
;
_chemical_formula_sum "Si O2"
_cell_formula_units_Z 12
_cell_length_a 9.413687
_cell_length_b 9.945510
_cell_length_c 10.594545
_cell_angle_alpha 139.572521
_cell_angle_beta 68.535522
_cell_angle_gamma 102.679609
_cell_volume 595.749791
_symmetry_space_group_name_H-M "P -1"
_symmetry_group_IT_number 2
_symmetry_cell_setting 'triclinic'
loop_
_space_group_symop_operation_xyz
x,y,z
-x,-y,-z
loop_
_atom_site_type_symbol
_atom_site_label
_atom_site_fract_x
_atom_site_fract_y
_atom_site_fract_z
Si Si1 0.078658 0.234330 0.859134
Si Si2 0.907008 0.643815 0.532342
Si Si3 0.361999 0.641310 0.582614
Si Si4 0.123153 0.680192 0.248701
Si Si5 0.136174 0.934640 0.007471
Si Si6 0.350481 0.877768 0.492000
O O1 0.992325 0.204758 0.734025
O O2 0.940211 0.232713 0.002114
O O3 0.211130 0.047700 0.701578
O O4 0.151874 0.451258 0.011204
O O5 0.767819 0.511620 0.462009
O O6 0.000000 0.500000 0.500000
O O7 0.019222 0.668073 0.397592
O O8 0.849462 0.866597 0.767982
O O9 0.500000 0.500000 0.500000
O O10 0.381078 0.715064 0.483223
O O11 0.293304 0.847530 0.828198
O O12 0.277121 0.771619 0.316300
O O13 0.000000 0.000000 0.000000
O O14 0.500000 0.000000 0.500000
#
# Coordination Sequence:
#
# PCOD9059507 Si02
#       6
#     2   2   2   2   2   2
#     4  11  23  41  73 101 131 177 238 283 329 418
#     4  12  21  41  75  97 131 177 233 283 327 410
#     4  12  28  44  67 105 144 174 225 291 347 396
#     4  11  23  41  70 105 129 178 234 283 338 401
#     4  12  21  41  73 100 126 179 233 275 333 408
#     4  12  27  44  67  98 146 181 218 285 353 408
#
# _framework density 20.142686000000001
#
# number of rings (size 3 to 8) (size 9 to 14) (size 15 to 20)
#    0.000    0.333    8.333    0.500    2.333    1.333 
#    0.000    0.000    0.000    0.000    0.000    0.000 
#    0.000    0.000    0.000    0.000    0.000    0.000 
#
# Total GULP energy -66920.025487 kJ/mol
# GULP energy per Si atom -5576.668791 kJ/mol
# Density = 2.009684 g / cm^3
# Si number density = 20.142686 Si / 1000 Ang^3
#
#
#
# Elastic Constant Matrix: (Units=GPa)
#
#
# Indices 1 2 3 4 5 6 
#
# 1 139.2955 59.7995 41.5110 -8.3981 5.3553 -10.7131
# 2 59.7995 90.3376 20.1204 -12.9931 4.7232 -6.1680
# 3 41.5110 20.1204 89.0292 9.3906 12.0689 -5.5885
# 4 -8.3981 -12.9931 9.3906 42.3685 0.7918 2.5868
# 5 5.3553 4.7232 12.0689 0.7918 30.4098 11.6660
# 6 -10.7131 -6.1680 -5.5885 2.5868 11.6660 46.3733
#
#
#
# Elastic Compliance Matrix: (Units=1/GPa)
#
#
# Indices 1 2 3 4 5 6 
#
# 1 0.011189 -0.006322 -0.003828 0.001053 0.000037 0.001215
# 2 -0.006322 0.016127 -0.000866 0.003867 -0.001426 0.000723
# 3 -0.003828 -0.000866 0.014612 -0.004305 -0.005824 0.002467
# 4 0.001053 0.003867 -0.004305 0.026023 0.000786 -0.001410
# 5 0.000037 -0.001426 -0.005824 0.000786 0.039564 -0.010880
# 6 0.001215 0.000723 0.002467 -0.001410 -0.010880 0.025054
#
#
# Mechanical properties :
#
#
# Convention : Reuss Voigt Hill
#
# Bulk Modulus (GPa) = 50.26312 62.39159 56.32735
# Shear Modulus (GPa) = 31.01104 36.97908 33.99506
#
# Velocity S-wave (km/s) = 3.92799 4.28934 4.11263
# Velocity P-wave (km/s) = 6.75128 7.45475 7.11172
#
# Compressibility (1/GPa) = 0.01989530
#
# Stress axis : x y z
#
# Youngs Moduli (GPa) = 89.37189 62.00628 68.43917
#
# Poissons Ratio (x) = 0.39199 0.26201
# Poissons Ratio (y) = 0.56498 0.05930
# Poissons Ratio (z) = 0.34214 0.05372
#
# Static dielectric constant tensor:
#      x y z
#    x 1.689340 -0.031750 0.078790 
#    y -0.031750 1.752170 0.024900 
#    z 0.078790 0.024900 1.831210 
# 
# From -- ./inp_files/158234.got.cif
#   From: 2010.05.17/outbox.cif.g08.bks.cpg/sg2_80_cif.got.tgz:158234.got - 2010.06.03 11:33:40.
