data_PCOD9059619
_publ_section_title
;
Structure prediction by ZEFSAII (Michael W. Deem and Ramdas Pophale) SiO2 
 PCOD9059619
Probable space group: P -1
;
_chemical_formula_sum "Si O2"
_cell_formula_units_Z 16
_cell_length_a 17.646411
_cell_length_b 5.383200
_cell_length_c 14.796210
_cell_angle_alpha 113.045433
_cell_angle_beta 30.591326
_cell_angle_gamma 110.577187
_cell_volume 657.901701
_symmetry_space_group_name_H-M "P -1"
_symmetry_group_IT_number 2
_symmetry_cell_setting 'triclinic'
loop_
_space_group_symop_operation_xyz
x,y,z
-x,-y,-z
loop_
_atom_site_type_symbol
_atom_site_label
_atom_site_fract_x
_atom_site_fract_y
_atom_site_fract_z
Si Si1 0.469898 0.657793 0.278371
Si Si2 0.394241 0.760451 0.039942
Si Si3 0.980697 0.995766 0.253745
Si Si4 0.289679 0.989095 0.997037
Si Si5 0.152610 0.434541 0.535214
Si Si6 0.828903 0.565242 0.682739
Si Si7 0.094464 0.233256 0.884074
Si Si8 0.571977 0.701169 0.379547
O O1 0.295645 0.582557 0.456215
O O2 0.540719 0.597669 0.294846
O O3 0.507532 0.488700 0.125331
O O4 0.554651 0.939404 0.202529
O O5 0.275416 0.695456 0.229730
O O6 0.314790 0.802575 0.030912
O O7 0.500000 0.000000 0.000000
O O8 0.919600 0.818743 0.374724
O O9 0.883305 0.887330 0.255005
O O10 0.958707 0.316425 0.325791
O O11 0.155338 0.923015 0.056627
O O12 0.221081 0.240938 0.158474
O O13 0.195437 0.329188 0.377351
O O14 0.000000 0.500000 0.500000
O O15 0.251432 0.282086 0.779446
O O16 0.000000 0.500000 0.000000
O O17 0.000000 0.000000 0.000000
O O18 0.500000 0.500000 0.500000
O O19 0.500000 0.000000 0.500000
#
# Coordination Sequence:
#
# PCOD9059619 Si02
#       8
#     2   2   2   2   2   2   2   2
#     4  11  27  44  72 103 142 187 237 292 358 422
#     4  11  25  42  69 100 141 183 238 289 351 420
#     4  12  27  45  71 105 138 183 235 291 354 418
#     4  11  25  42  70  99 142 183 239 286 350 416
#     4  12  26  44  70 101 143 183 235 287 347 418
#     4  11  23  42  63 101 136 185 231 287 344 413
#     4  12  26  47  76 104 143 184 238 298 363 431
#     4  12  27  49  76 108 147 190 242 300 364 433
#
# _framework density 24.319742000000002
#
# number of rings (size 3 to 8) (size 9 to 14) (size 15 to 20)
#    0.000    0.500    1.250    6.000   10.500    3.000 
#    0.000    0.000    0.000    0.000    0.000    0.000 
#    0.000    0.000    0.000    0.000    0.000    0.000 
#
# Total GULP energy -89431.359372 kJ/mol
# GULP energy per Si atom -5589.459961 kJ/mol
# Density = 2.426439 g / cm^3
# Si number density = 24.319742 Si / 1000 Ang^3
#
#
#
# Elastic Constant Matrix: (Units=GPa)
#
#
# Indices 1 2 3 4 5 6 
#
# 1 115.5314 10.5287 7.4800 -5.1037 -5.9434 1.7521
# 2 10.5287 100.7796 41.8389 -8.9367 6.7202 -22.7804
# 3 7.4800 41.8389 62.8329 -16.6520 -10.7504 -6.5728
# 4 -5.1037 -8.9367 -16.6520 46.8897 -2.4945 11.5696
# 5 -5.9434 6.7202 -10.7504 -2.4945 57.1103 -4.7191
# 6 1.7521 -22.7804 -6.5728 11.5696 -4.7191 43.1248
#
#
#
# Elastic Compliance Matrix: (Units=1/GPa)
#
#
# Indices 1 2 3 4 5 6 
#
# 1 0.008879 -0.001200 0.000092 0.001113 0.001035 -0.001166
# 2 -0.001200 0.016486 -0.011526 -0.003114 -0.003757 0.007425
# 3 0.000092 -0.011526 0.026548 0.008476 0.006435 -0.003616
# 4 0.001113 -0.003114 0.008476 0.025735 0.002622 -0.007015
# 5 0.001035 -0.003757 0.006435 0.002622 0.019417 0.000375
# 6 -0.001166 0.007425 -0.003616 -0.007015 0.000375 0.028530
#
#
# Mechanical properties :
#
#
# Convention : Reuss Voigt Hill
#
# Bulk Modulus (GPa) = 37.52959 44.31545 40.92252
# Shear Modulus (GPa) = 31.30022 44.04471 37.67246
#
# Velocity S-wave (km/s) = 3.59141 4.26028 3.94007
# Velocity P-wave (km/s) = 5.71514 6.51625 6.12880
#
# Compressibility (1/GPa) = 0.02664564
#
# Stress axis : x y z
#
# Youngs Moduli (GPa) = 112.62386 60.65877 37.66758
#
# Poissons Ratio (x) = 0.07276 -0.00346
# Poissons Ratio (y) = 0.13510 0.43415
# Poissons Ratio (z) = -0.01034 0.69914
#
# Static dielectric constant tensor:
#      x y z
#    x 1.954320 0.026020 -0.055020 
#    y 0.026020 1.916300 0.003020 
#    z -0.055020 0.003020 1.968040 
# 
# From -- ./inp_files/78046.got.cif
#   From: 2010.05.17/outbox.cif.g08.bks.cpg/sg2_40_cif.got.tgz:78046.got - 2010.06.03 11:33:40.
