data_PCOD9059344
_publ_section_title
;
Structure prediction by ZEFSAII (Michael W. Deem and Ramdas Pophale) SiO2 
 PCOD9059344
Probable space group: P -1
;
_chemical_formula_sum "Si O2"
_cell_formula_units_Z 8
_cell_length_a 11.542006
_cell_length_b 7.405405
_cell_length_c 5.084298
_cell_angle_alpha 62.817282
_cell_angle_beta 123.157600
_cell_angle_gamma 111.578197
_cell_volume 319.546301
_symmetry_space_group_name_H-M "P -1"
_symmetry_group_IT_number 2
_symmetry_cell_setting 'triclinic'
loop_
_space_group_symop_operation_xyz
x,y,z
-x,-y,-z
loop_
_atom_site_type_symbol
_atom_site_label
_atom_site_fract_x
_atom_site_fract_y
_atom_site_fract_z
Si Si1 0.772789 0.983573 0.238244
Si Si2 0.919854 0.398486 0.219404
Si Si3 0.356616 0.879756 0.510630
Si Si4 0.656732 0.520579 0.558045
O O1 0.732378 0.741926 0.399801
O O2 0.662101 0.064169 0.249558
O O3 0.907680 0.150554 0.377448
O O4 0.755250 0.033684 0.876037
O O5 0.765268 0.456139 0.948744
O O6 0.000000 0.500000 0.500000
O O7 0.000000 0.500000 0.000000
O O8 0.350558 0.644209 0.577417
O O9 0.500000 0.000000 0.500000
O O10 0.500000 0.500000 0.500000
#
# Coordination Sequence:
#
# PCOD9059344 Si02
#       4
#     2   2   2   2
#     4  11  25  44  71 102 143 184 234 290 351 415
#     4  11  26  49  69 100 146 189 232 289 351 419
#     4  11  23  41  66 105 149 173 222 296 356 403
#     4  11  25  45  76 110 136 186 240 290 352 421
#
# _framework density 25.035492999999999
#
# number of rings (size 3 to 8) (size 9 to 14) (size 15 to 20)
#    0.000    1.000    2.500    3.750    3.500    9.000 
#    0.000    0.000    0.000    0.000    0.000    0.000 
#    0.000    0.000    0.000    0.000    0.000    0.000 
#
# Total GULP energy -44724.784211 kJ/mol
# GULP energy per Si atom -5590.598026 kJ/mol
# Density = 2.497851 g / cm^3
# Si number density = 25.035493 Si / 1000 Ang^3
#
#
#
# Elastic Constant Matrix: (Units=GPa)
#
#
# Indices 1 2 3 4 5 6 
#
# 1 77.8313 34.8245 51.1854 -2.0505 4.2799 -0.6149
# 2 34.8245 223.7932 69.7033 -49.5641 12.7911 -5.5998
# 3 51.1854 69.7033 109.7564 -27.5372 -16.9045 -4.6478
# 4 -2.0505 -49.5641 -27.5372 80.7805 -1.0534 8.9882
# 5 4.2799 12.7911 -16.9045 -1.0534 41.1782 -10.0250
# 6 -0.6149 -5.5998 -4.6478 8.9882 -10.0250 38.0319
#
#
#
# Elastic Compliance Matrix: (Units=1/GPa)
#
#
# Indices 1 2 3 4 5 6 
#
# 1 0.021025 0.000125 -0.012025 -0.003325 -0.007827 -0.002389
# 2 0.000125 0.006554 -0.004221 0.002671 -0.004015 -0.001238
# 3 -0.012025 -0.004221 0.020354 0.003761 0.011972 0.003938
# 4 -0.003325 0.002671 0.003761 0.015522 0.000811 -0.002655
# 5 -0.007827 -0.004015 0.011972 0.000811 0.033570 0.009403
# 6 -0.002389 -0.001238 0.003938 -0.002655 0.009403 0.029660
#
#
# Mechanical properties :
#
#
# Convention : Reuss Voigt Hill
#
# Bulk Modulus (GPa) = 63.73575 80.31191 72.02383
# Shear Modulus (GPa) = 30.45870 49.04264 39.75067
#
# Velocity S-wave (km/s) = 3.49179 4.43078 3.98901
# Velocity P-wave (km/s) = 6.46299 7.63705 7.07442
#
# Compressibility (1/GPa) = 0.01568978
#
# Stress axis : x y z
#
# Youngs Moduli (GPa) = 47.56309 152.58699 49.13015
#
# Poissons Ratio (x) = -0.01906 0.59080
# Poissons Ratio (y) = -0.00594 0.20738
# Poissons Ratio (z) = 0.57196 0.64407
#
# Static dielectric constant tensor:
#      x y z
#    x 2.069550 0.023920 0.049020 
#    y 0.023920 1.989510 -0.033450 
#    z 0.049020 -0.033450 2.000290 
# 
# From -- ./inp_files/16179.got.cif
#   From: 2010.05.17/outbox.cif.g08.bks.cpg/sg2_9_cif.got.tgz:16179.got - 2010.06.03 11:33:40.
