data_PCOD9059833
_publ_section_title
;
Structure prediction by ZEFSAII (Michael W. Deem and Ramdas Pophale) SiO2 
 PCOD9059833
Probable space group: P -1
;
_chemical_formula_sum "Si O2"
_cell_formula_units_Z 16
_cell_length_a 15.833326
_cell_length_b 6.669268
_cell_length_c 9.131557
_cell_angle_alpha 49.004918
_cell_angle_beta 84.742868
_cell_angle_gamma 95.595976
_cell_volume 708.614866
_symmetry_space_group_name_H-M "P -1"
_symmetry_group_IT_number 2
_symmetry_cell_setting 'triclinic'
loop_
_space_group_symop_operation_xyz
x,y,z
-x,-y,-z
loop_
_atom_site_type_symbol
_atom_site_label
_atom_site_fract_x
_atom_site_fract_y
_atom_site_fract_z
Si Si1 0.851569 0.379901 0.038743
Si Si2 0.326060 0.897948 0.927588
Si Si3 0.468738 0.766570 0.742208
Si Si4 0.945692 0.895053 0.202329
Si Si5 0.620686 0.479240 0.398306
Si Si6 0.927375 0.988677 0.639032
Si Si7 0.805578 0.370241 0.385574
Si Si8 0.570739 0.042227 0.839141
O O1 0.898781 0.676421 0.839193
O O2 0.769984 0.266381 0.003671
O O3 0.816945 0.405653 0.193837
O O4 0.909832 0.154294 0.139996
O O5 0.391891 0.791334 0.856462
O O6 0.339688 0.209452 0.725541
O O7 0.345300 0.902909 0.096824
O O8 0.428561 0.532187 0.744967
O O9 0.500000 0.000000 0.500000
O O10 0.548538 0.809242 0.827121
O O11 0.866143 0.641224 0.314722
O O12 0.019226 0.833505 0.326870
O O13 0.000000 0.000000 0.000000
O O14 0.703740 0.337733 0.445910
O O15 0.565003 0.312257 0.617323
O O16 0.846071 0.115344 0.547195
O O17 0.000000 0.000000 0.500000
O O18 0.500000 0.000000 0.000000
#
# Coordination Sequence:
#
# PCOD9059833 Si02
#       8
#     2   2   2   2   2   2   2   2
#     4  12  25  45  68 102 141 179 228 286 349 402
#     4  11  23  42  69  95 140 179 218 283 343 398
#     4   9  20  41  66  97 133 173 222 269 332 409
#     4  12  24  45  72  98 135 181 228 282 345 410
#     4  11  23  42  70  96 137 183 223 274 346 407
#     4  12  26  45  72 100 136 182 229 287 345 406
#     4  12  25  44  69 102 136 182 232 280 346 411
#     4   9  22  41  64 102 134 169 225 274 329 406
#
# _framework density 22.579260000000001
#
# number of rings (size 3 to 8) (size 9 to 14) (size 15 to 20)
#    0.000    1.000    5.000    1.500    0.000    9.000 
#    0.000    2.500    0.000    0.000    0.000    0.000 
#    0.000    0.000    0.000    0.000    0.000    0.000 
#
# Total GULP energy -89336.884055 kJ/mol
# GULP energy per Si atom -5583.555253 kJ/mol
# Density = 2.252787 g / cm^3
# Si number density = 22.579260 Si / 1000 Ang^3
#
#
#
# Elastic Constant Matrix: (Units=GPa)
#
#
# Indices 1 2 3 4 5 6 
#
# 1 94.9396 37.5507 25.4201 6.5408 13.3427 25.8493
# 2 37.5507 89.9822 34.3525 2.2984 5.1289 21.3908
# 3 25.4201 34.3525 68.9407 26.6361 14.8030 6.6697
# 4 6.5408 2.2984 26.6361 45.3220 1.2141 5.0328
# 5 13.3427 5.1289 14.8030 1.2141 32.1671 3.9199
# 6 25.8493 21.3908 6.6697 5.0328 3.9199 51.6121
#
#
#
# Elastic Compliance Matrix: (Units=1/GPa)
#
#
# Indices 1 2 3 4 5 6 
#
# 1 0.014552 -0.003805 -0.002171 0.000042 -0.003805 -0.005146
# 2 -0.003805 0.017213 -0.009760 0.005848 0.003692 -0.004818
# 3 -0.002171 -0.009760 0.028166 -0.015892 -0.010372 0.003830
# 4 0.000042 0.005848 -0.015892 0.031381 0.005652 -0.003881
# 5 -0.003805 0.003692 -0.010372 0.005652 0.036836 -0.001633
# 6 -0.005146 -0.004818 0.003830 -0.003881 -0.001633 0.023957
#
#
# Mechanical properties :
#
#
# Convention : Reuss Voigt Hill
#
# Bulk Modulus (GPa) = 35.13929 49.83435 42.48682
# Shear Modulus (GPa) = 25.89822 36.25618 31.07720
#
# Velocity S-wave (km/s) = 3.39040 4.01150 3.71396
# Velocity P-wave (km/s) = 5.56083 6.60113 6.10319
#
# Compressibility (1/GPa) = 0.02845817
#
# Stress axis : x y z
#
# Youngs Moduli (GPa) = 68.71839 58.09668 35.50380
#
# Poissons Ratio (x) = 0.22104 0.07709
# Poissons Ratio (y) = 0.26145 0.34652
# Poissons Ratio (z) = 0.14922 0.56704
#
# Static dielectric constant tensor:
#      x y z
#    x 1.884840 0.031210 -0.004450 
#    y 0.031210 1.865700 -0.021290 
#    z -0.004450 -0.021290 1.857040 
# 
# From -- ./inp_files/106111.got.cif
#   From: 2010.05.17/outbox.cif.g08.bks.cpg/sg2_54_cif.got.tgz:106111.got - 2010.06.03 11:33:40.
