data_PCOD9059880
_publ_section_title
;
Structure prediction by ZEFSAII (Michael W. Deem and Ramdas Pophale) SiO2 
 PCOD9059880
Probable space group: P -1
;
_chemical_formula_sum "Si O2"
_cell_formula_units_Z 16
_cell_length_a 9.170564
_cell_length_b 12.622876
_cell_length_c 13.346077
_cell_angle_alpha 101.885223
_cell_angle_beta 70.114766
_cell_angle_gamma 149.617390
_cell_volume 722.257484
_symmetry_space_group_name_H-M "P -1"
_symmetry_group_IT_number 2
_symmetry_cell_setting 'triclinic'
loop_
_space_group_symop_operation_xyz
x,y,z
-x,-y,-z
loop_
_atom_site_type_symbol
_atom_site_label
_atom_site_fract_x
_atom_site_fract_y
_atom_site_fract_z
Si Si1 0.098720 0.561984 0.604083
Si Si2 0.269661 0.911014 0.884528
Si Si3 0.718248 0.771779 0.779649
Si Si4 0.777884 0.945699 0.602505
Si Si5 0.765482 0.882407 0.118661
Si Si6 0.078832 0.424528 0.932093
Si Si7 0.226930 0.423427 0.226757
Si Si8 0.117911 0.770041 0.279801
O O1 0.463832 0.780485 0.582455
O O2 0.000000 0.500000 0.500000
O O3 0.947445 0.579900 0.686703
O O4 0.948616 0.367788 0.655811
O O5 0.978988 0.741740 0.848165
O O6 0.404964 0.113201 0.882703
O O7 0.529450 0.996617 0.788931
O O8 0.142148 0.786360 0.992553
O O9 0.684279 0.827847 0.703517
O O10 0.443264 0.626619 0.894714
O O11 0.716160 0.643546 0.727374
O O12 0.041697 0.987367 0.799265
O O13 0.959566 0.163577 0.635478
O O14 0.000000 0.000000 0.500000
O O15 0.536620 0.649715 0.149692
O O16 0.000000 0.000000 0.000000
O O17 0.026184 0.356231 0.816084
O O18 0.000000 0.500000 0.000000
#
# Coordination Sequence:
#
# PCOD9059880 Si02
#       8
#     2   2   2   2   2   2   2   2
#     4  12  28  49  80 106 141 198 255 320 383 444
#     4  11  23  42  70 105 144 194 236 294 357 449
#     4  11  27  45  70 108 150 192 249 311 364 446
#     4  12  30  51  76 109 148 195 256 318 386 442
#     4  11  24  39  69 103 146 193 239 290 368 432
#     4  12  25  44  75 107 154 201 243 300 373 451
#     4  11  24  48  70 105 152 188 251 305 364 446
#     4  12  26  48  74 109 149 190 248 305 373 449
#
# _framework density 22.152764999999999
#
# number of rings (size 3 to 8) (size 9 to 14) (size 15 to 20)
#    0.000    0.500    3.750    3.375    8.750    3.000 
#    0.000    0.000    0.000    0.000    0.000    0.000 
#    0.000    0.000    0.000    0.000    0.000    0.000 
#
# Total GULP energy -89416.401257 kJ/mol
# GULP energy per Si atom -5588.525079 kJ/mol
# Density = 2.210234 g / cm^3
# Si number density = 22.152765 Si / 1000 Ang^3
#
#
#
# Elastic Constant Matrix: (Units=GPa)
#
#
# Indices 1 2 3 4 5 6 
#
# 1 103.2451 29.8690 30.7233 18.8844 -4.3344 -20.0237
# 2 29.8690 91.4323 19.1326 5.0339 7.0541 -5.8257
# 3 30.7233 19.1326 78.1305 16.5586 2.5543 -2.8533
# 4 18.8844 5.0339 16.5586 31.5006 3.2600 -8.0044
# 5 -4.3344 7.0541 2.5543 3.2600 52.5480 0.0090
# 6 -20.0237 -5.8257 -2.8533 -8.0044 0.0090 37.1267
#
#
#
# Elastic Compliance Matrix: (Units=1/GPa)
#
#
# Indices 1 2 3 4 5 6 
#
# 1 0.013687 -0.003293 -0.003452 -0.004652 0.002026 0.005596
# 2 -0.003293 0.012524 -0.001970 0.001289 -0.001937 0.000316
# 3 -0.003452 -0.001970 0.015956 -0.006563 -0.000388 -0.002359
# 4 -0.004652 0.001289 -0.006563 0.039507 -0.002690 0.005707
# 5 0.002026 -0.001937 -0.000388 -0.002690 0.019643 0.000174
# 6 0.005596 0.000316 -0.002359 0.005707 0.000174 0.031052
#
#
# Mechanical properties :
#
#
# Convention : Reuss Voigt Hill
#
# Bulk Modulus (GPa) = 40.42450 48.02863 44.22656
# Shear Modulus (GPa) = 31.63692 37.10726 34.37209
#
# Velocity S-wave (km/s) = 3.78315 4.09719 3.94330
# Velocity P-wave (km/s) = 6.11316 6.64156 6.38283
#
# Compressibility (1/GPa) = 0.02473748
#
# Stress axis : x y z
#
# Youngs Moduli (GPa) = 73.06359 79.84934 62.67105
#
# Poissons Ratio (x) = 0.26290 0.21632
# Poissons Ratio (y) = 0.24056 0.12349
# Poissons Ratio (z) = 0.25219 0.15733
#
# Static dielectric constant tensor:
#      x y z
#    x 1.809950 0.070710 -0.072210 
#    y 0.070710 1.821510 0.038050 
#    z -0.072210 0.038050 1.802150 
# 
# From -- ./inp_files/117192.got.cif
#   From: 2010.05.17/outbox.cif.g08.bks.cpg/sg2_59_cif.got.tgz:117192.got - 2010.06.03 11:33:40.
