data_PCOD9059781
_publ_section_title
;
Structure prediction by ZEFSAII (Michael W. Deem and Ramdas Pophale) SiO2 
 PCOD9059781
Probable space group: P -1
;
_chemical_formula_sum "Si O2"
_cell_formula_units_Z 16
_cell_length_a 16.777586
_cell_length_b 15.920291
_cell_length_c 15.798100
_cell_angle_alpha 135.316810
_cell_angle_beta 153.493660
_cell_angle_gamma 26.577748
_cell_volume 753.602073
_symmetry_space_group_name_H-M "P -1"
_symmetry_group_IT_number 2
_symmetry_cell_setting 'triclinic'
loop_
_space_group_symop_operation_xyz
x,y,z
-x,-y,-z
loop_
_atom_site_type_symbol
_atom_site_label
_atom_site_fract_x
_atom_site_fract_y
_atom_site_fract_z
Si Si1 0.342389 0.313562 0.149594
Si Si2 0.546907 0.577228 0.531230
Si Si3 0.693953 0.715664 0.524718
Si Si4 0.391848 0.982806 0.262190
Si Si5 0.146099 0.150521 0.705866
Si Si6 0.692094 0.302975 0.796833
Si Si7 0.597618 0.295098 0.219763
Si Si8 0.643185 0.767664 0.166580
O O1 0.522123 0.266965 0.369132
O O2 0.364540 0.388469 0.143025
O O3 0.529802 0.094253 0.138263
O O4 0.000000 0.500000 0.000000
O O5 0.500000 0.500000 0.500000
O O6 0.340237 0.684626 0.327383
O O7 0.908955 0.359095 0.688276
O O8 0.623604 0.867096 0.626864
O O9 0.490937 0.710978 0.352412
O O10 0.055654 0.481557 0.710049
O O11 0.604853 0.807352 0.411727
O O12 0.516128 0.885375 0.218017
O O13 0.043382 0.119171 0.032426
O O14 0.237710 0.187140 0.743127
O O15 0.914844 0.168185 0.472824
O O16 0.527203 0.520212 0.816439
O O17 0.604520 0.176250 0.081183
#
# Coordination Sequence:
#
# PCOD9059781 Si02
#       8
#     2   2   2   2   2   2   2   2
#     4  12  27  42  69 100 139 185 239 282 340 409
#     4  11  23  42  68  96 135 185 230 281 335 406
#     4  11  24  50  69 102 142 173 237 291 342 418
#     4  11  27  43  75 103 134 186 226 291 355 410
#     4  11  26  45  65 100 139 187 229 286 340 409
#     4  11  23  45  72  98 142 183 228 284 347 404
#     4  11  24  45  67  98 143 183 225 292 337 411
#     4  12  25  43  72 101 140 178 229 284 356 412
#
# _framework density 21.231363999999999
#
# number of rings (size 3 to 8) (size 9 to 14) (size 15 to 20)
#    0.000    0.750    6.250    1.875    5.250    2.000 
#    0.000    0.625    0.000    0.000    0.000    0.000 
#    0.000    0.000    0.000    0.000    0.000    0.000 
#
# Total GULP energy -89371.696143 kJ/mol
# GULP energy per Si atom -5585.731009 kJ/mol
# Density = 2.118304 g / cm^3
# Si number density = 21.231364 Si / 1000 Ang^3
#
#
#
# Elastic Constant Matrix: (Units=GPa)
#
#
# Indices 1 2 3 4 5 6 
#
# 1 234.8731 125.9127 27.2413 75.1897 -0.8265 86.3775
# 2 125.9127 147.4258 27.9235 43.0311 3.2187 44.3183
# 3 27.2413 27.9235 68.6870 16.9023 7.2189 6.8333
# 4 75.1897 43.0311 16.9023 60.0757 -4.4998 23.0509
# 5 -0.8265 3.2187 7.2189 -4.4998 33.9123 -2.8995
# 6 86.3775 44.3183 6.8333 23.0509 -2.8995 100.6876
#
#
#
# Elastic Compliance Matrix: (Units=1/GPa)
#
#
# Indices 1 2 3 4 5 6 
#
# 1 0.013004 -0.006588 0.000552 -0.009418 -0.000952 -0.006165
# 2 -0.006588 0.012987 -0.002465 -0.000506 -0.000919 0.000192
# 3 0.000552 -0.002465 0.016704 -0.004021 -0.003817 0.000289
# 4 -0.009418 -0.000506 -0.004021 0.029535 0.004760 0.001951
# 5 -0.000952 -0.000919 -0.003817 0.004760 0.031106 0.001286
# 6 -0.006165 0.000192 0.000289 0.001951 0.001286 0.014707
#
#
# Mechanical properties :
#
#
# Convention : Reuss Voigt Hill
#
# Bulk Modulus (GPa) = 38.92158 90.34899 64.63529
# Shear Modulus (GPa) = 34.81668 56.92900 45.87284
#
# Velocity S-wave (km/s) = 4.05392 5.18381 4.65329
# Velocity P-wave (km/s) = 6.34699 8.85867 7.70585
#
# Compressibility (1/GPa) = 0.02569269
#
# Stress axis : x y z
#
# Youngs Moduli (GPa) = 76.89711 77.00296 59.86575
#
# Poissons Ratio (x) = 0.50731 -0.03303
# Poissons Ratio (y) = 0.50661 0.14755
# Poissons Ratio (z) = -0.04242 0.18979
#
# Static dielectric constant tensor:
#      x y z
#    x 1.712560 0.005830 0.008990 
#    y 0.005830 1.786320 0.025560 
#    z 0.008990 0.025560 1.840110 
# 
# From -- ./inp_files/534384.got.cif
#   From: 2010.05.17/outbox.cif.g08.bks.cpg/sg2_268_cif.got.tgz:534384.got - 2010.06.03 11:33:40.
