data_PCOD9059669
_publ_section_title
;
Structure prediction by ZEFSAII (Michael W. Deem and Ramdas Pophale) SiO2 
 PCOD9059669
Probable space group: P -1
;
_chemical_formula_sum "Si O2"
_cell_formula_units_Z 16
_cell_length_a 18.431757
_cell_length_b 9.410499
_cell_length_c 6.824113
_cell_angle_alpha 131.193593
_cell_angle_beta 55.432450
_cell_angle_gamma 115.572617
_cell_volume 730.226355
_symmetry_space_group_name_H-M "P -1"
_symmetry_group_IT_number 2
_symmetry_cell_setting 'triclinic'
loop_
_space_group_symop_operation_xyz
x,y,z
-x,-y,-z
loop_
_atom_site_type_symbol
_atom_site_label
_atom_site_fract_x
_atom_site_fract_y
_atom_site_fract_z
Si Si1 0.447202 0.681935 0.792527
Si Si2 0.727867 0.902523 0.060826
Si Si3 0.268617 0.439636 0.962900
Si Si4 0.188242 0.723496 0.623356
Si Si5 0.040665 0.703653 0.556054
Si Si6 0.141385 0.509011 0.891973
Si Si7 0.448386 0.026577 0.805350
Si Si8 0.075196 0.149935 0.430137
O O1 0.500000 0.500000 0.500000
O O2 0.353131 0.584420 0.918404
O O3 0.438498 0.826290 0.755286
O O4 0.497168 0.815000 0.001503
O O5 0.711625 0.743678 0.109642
O O6 0.646671 0.901862 0.035816
O O7 0.736800 0.105102 0.338503
O O8 0.822660 0.893270 0.796656
O O9 0.213324 0.409211 0.819724
O O10 0.208576 0.549795 0.300250
O O11 0.099821 0.791133 0.722249
O O12 0.179808 0.639939 0.776106
O O13 0.000000 0.500000 0.500000
O O14 0.961487 0.811688 0.694765
O O15 0.098213 0.654004 0.234261
O O16 0.079290 0.339976 0.731245
O O17 0.500000 0.000000 0.500000
O O18 0.000000 0.000000 0.500000
#
# Coordination Sequence:
#
# PCOD9059669 Si02
#       8
#     2   2   2   2   2   2   2   2
#     4  11  26  46  78 111 144 188 232 298 368 439
#     4  12  26  45  71 103 143 187 235 296 354 426
#     4  11  25  45  69 106 140 183 237 292 358 429
#     4  11  24  45  68  96 138 189 238 293 356 413
#     4  11  23  42  66  91 131 186 241 295 356 412
#     4  11  23  45  67  94 142 186 237 300 354 418
#     4  11  26  50  76 111 149 186 240 293 365 443
#     4  12  26  41  65 104 137 190 244 292 355 415
#
# _framework density 21.911014000000002
#
# number of rings (size 3 to 8) (size 9 to 14) (size 15 to 20)
#    0.000    0.750    2.500    4.125    5.250    5.500 
#    0.000    0.000    0.000    0.000    0.000    0.000 
#    0.000    0.000    0.000    0.000    0.000    0.000 
#
# Total GULP energy -89457.412905 kJ/mol
# GULP energy per Si atom -5591.088307 kJ/mol
# Density = 2.186114 g / cm^3
# Si number density = 21.911014 Si / 1000 Ang^3
#
#
#
# Elastic Constant Matrix: (Units=GPa)
#
#
# Indices 1 2 3 4 5 6 
#
# 1 140.6011 69.8439 19.7126 -21.9178 7.2895 -23.7449
# 2 69.8439 187.7956 39.4406 -11.7511 13.7210 -10.7729
# 3 19.7126 39.4406 66.9882 -16.3713 1.7873 -20.8590
# 4 -21.9178 -11.7511 -16.3713 35.5632 4.4199 0.2710
# 5 7.2895 13.7210 1.7873 4.4199 35.5995 -0.5240
# 6 -23.7449 -10.7729 -20.8590 0.2710 -0.5240 37.0457
#
#
#
# Elastic Compliance Matrix: (Units=1/GPa)
#
#
# Indices 1 2 3 4 5 6 
#
# 1 0.011040 -0.003750 0.003152 0.007175 -0.001751 0.007683
# 2 -0.003750 0.007541 -0.004574 -0.001687 -0.001741 -0.002798
# 3 0.003152 -0.004574 0.023913 0.011494 -0.001303 0.014052
# 4 0.007175 -0.001687 0.011494 0.037937 -0.005956 0.010218
# 5 -0.001751 -0.001741 -0.001303 -0.005956 0.029897 -0.001896
# 6 0.007683 -0.002798 0.014052 0.010218 -0.001896 0.038915
#
#
# Mechanical properties :
#
#
# Convention : Reuss Voigt Hill
#
# Bulk Modulus (GPa) = 31.10418 72.59769 51.85093
# Shear Modulus (GPa) = 29.35916 39.40086 34.38001
#
# Velocity S-wave (km/s) = 3.66447 4.24514 3.96545
# Velocity P-wave (km/s) = 5.66842 7.56527 6.68447
#
# Compressibility (1/GPa) = 0.03215002
#
# Stress axis : x y z
#
# Youngs Moduli (GPa) = 90.57789 132.60128 41.81850
#
# Poissons Ratio (x) = 0.49730 -0.13181
# Poissons Ratio (y) = 0.33970 0.19127
# Poissons Ratio (z) = -0.28550 0.60650
#
# Static dielectric constant tensor:
#      x y z
#    x 1.803490 0.017360 -0.127250 
#    y 0.017360 1.765720 0.025820 
#    z -0.127250 0.025820 1.799890 
# 
# From -- ./inp_files/106201.got.cif
#   From: 2010.05.17/outbox.cif.g08.bks.cpg/sg2_54_cif.got.tgz:106201.got - 2010.06.03 11:33:40.
