data_PCOD9059747
_publ_section_title
;
Structure prediction by ZEFSAII (Michael W. Deem and Ramdas Pophale) SiO2 
 PCOD9059747
Probable space group: P -1
;
_chemical_formula_sum "Si O2"
_cell_formula_units_Z 16
_cell_length_a 8.140792
_cell_length_b 13.126146
_cell_length_c 13.640247
_cell_angle_alpha 63.844884
_cell_angle_beta 100.841824
_cell_angle_gamma 48.902425
_cell_volume 697.812081
_symmetry_space_group_name_H-M "P -1"
_symmetry_group_IT_number 2
_symmetry_cell_setting 'triclinic'
loop_
_space_group_symop_operation_xyz
x,y,z
-x,-y,-z
loop_
_atom_site_type_symbol
_atom_site_label
_atom_site_fract_x
_atom_site_fract_y
_atom_site_fract_z
Si Si1 0.103808 0.311413 0.103909
Si Si2 0.783980 0.518853 0.500955
Si Si3 0.207093 0.061833 0.731199
Si Si4 0.061932 0.810135 0.971500
Si Si5 0.847531 0.837155 0.625889
Si Si6 0.571288 0.091913 0.968292
Si Si7 0.650631 0.561755 0.257784
Si Si8 0.182429 0.923718 0.364618
O O1 0.033478 0.302507 0.207361
O O2 0.942538 0.319984 0.003777
O O3 0.471723 0.090808 0.220415
O O4 0.000000 0.500000 0.000000
O O5 0.579022 0.600854 0.348151
O O6 0.541472 0.691156 0.483716
O O7 0.000000 0.500000 0.500000
O O8 0.006560 0.285854 0.641987
O O9 0.007267 0.083475 0.642118
O O10 0.302554 0.952184 0.891990
O O11 0.383869 0.665694 0.114311
O O12 0.947244 0.939112 0.805995
O O13 0.817227 0.971263 0.961653
O O14 0.049201 0.683326 0.622656
O O15 0.500000 0.000000 0.500000
O O16 0.862185 0.960498 0.603323
O O17 0.300756 0.334324 0.811054
O O18 0.500000 0.000000 0.000000
#
# Coordination Sequence:
#
# PCOD9059747 Si02
#       8
#     2   2   2   2   2   2   2   2
#     4  11  25  44  66  96 139 172 219 278 333 392
#     4  12  24  45  69  98 136 180 217 275 339 389
#     4  12  24  42  68 101 133 173 224 275 330 396
#     4  11  23  42  68 101 131 174 220 276 333 391
#     4  11  26  47  67  96 131 181 222 267 336 403
#     4  12  22  40  68 103 131 167 225 270 325 394
#     4  12  24  43  72  96 133 177 222 273 331 399
#     4  11  24  44  70  97 138 172 222 276 332 394
#
# _framework density 22.928809999999999
#
# number of rings (size 3 to 8) (size 9 to 14) (size 15 to 20)
#    0.000    0.500    3.750    6.000    1.750    1.000 
#    2.250    1.250    0.000    0.000    0.000    0.000 
#    0.000    0.000    0.000    0.000    0.000    0.000 
#
# Total GULP energy -89599.397382 kJ/mol
# GULP energy per Si atom -5599.962336 kJ/mol
# Density = 2.287662 g / cm^3
# Si number density = 22.928810 Si / 1000 Ang^3
#
#
#
# Elastic Constant Matrix: (Units=GPa)
#
#
# Indices 1 2 3 4 5 6 
#
# 1 84.5092 18.3662 7.4726 -11.4159 8.2814 29.5267
# 2 18.3662 88.0666 5.9638 -19.6790 -5.7818 18.8970
# 3 7.4726 5.9638 66.7626 -18.4884 -2.5124 6.6043
# 4 -11.4159 -19.6790 -18.4884 40.6256 3.6044 -6.7114
# 5 8.2814 -5.7818 -2.5124 3.6044 38.4632 0.7026
# 6 29.5267 18.8970 6.6043 -6.7114 0.7026 33.9567
#
#
#
# Elastic Compliance Matrix: (Units=1/GPa)
#
#
# Indices 1 2 3 4 5 6 
#
# 1 0.017773 -0.000160 0.000138 0.002885 -0.003843 -0.014742
# 2 -0.000160 0.014264 0.001182 0.006109 0.001809 -0.006859
# 3 0.000138 0.001182 0.017359 0.008034 0.000576 -0.002578
# 4 0.002885 0.006109 0.008034 0.032053 -0.002162 -0.001091
# 5 -0.003843 0.001809 0.000576 -0.002162 0.027316 0.001230
# 6 -0.014742 -0.006859 -0.002578 -0.001091 0.001230 0.046345
#
#
# Mechanical properties :
#
#
# Convention : Reuss Voigt Hill
#
# Bulk Modulus (GPa) = 19.33700 33.66040 26.49870
# Shear Modulus (GPa) = 29.40684 36.44481 32.92583
#
# Velocity S-wave (km/s) = 3.58513 3.99115 3.79357
# Velocity P-wave (km/s) = 5.05859 5.99594 5.54710
#
# Compressibility (1/GPa) = 0.05171433
#
# Stress axis : x y z
#
# Youngs Moduli (GPa) = 56.26632 70.10717 57.60691
#
# Poissons Ratio (x) = 0.01123 -0.00793
# Poissons Ratio (y) = 0.00901 -0.06809
# Poissons Ratio (z) = -0.00774 -0.08286
#
# Static dielectric constant tensor:
#      x y z
#    x 1.856770 0.010550 0.005020 
#    y 0.010550 1.847390 0.004560 
#    z 0.005020 0.004560 1.872400 
# 
# From -- ./inp_files/190854.got.cif
#   From: 2010.05.17/outbox.cif.g08.bks.cpg/sg2_96_cif.got.tgz:190854.got - 2010.06.03 11:33:40.
