data_PCOD9059281
_publ_section_title
;
Structure prediction by ZEFSAII (Michael W. Deem and Ramdas Pophale) SiO2 
 PCOD9059281
Probable space group: P -1
;
_chemical_formula_sum "Si O2"
_cell_formula_units_Z 14
_cell_length_a 9.310128
_cell_length_b 5.542920
_cell_length_c 21.716084
_cell_angle_alpha 87.540690
_cell_angle_beta 143.760959
_cell_angle_gamma 86.911492
_cell_volume 654.406079
_symmetry_space_group_name_H-M "P -1"
_symmetry_group_IT_number 2
_symmetry_cell_setting 'triclinic'
loop_
_space_group_symop_operation_xyz
x,y,z
-x,-y,-z
loop_
_atom_site_type_symbol
_atom_site_label
_atom_site_fract_x
_atom_site_fract_y
_atom_site_fract_z
Si Si1 0.289727 0.662500 0.220640
Si Si2 0.755950 0.502751 0.457327
Si Si3 0.421405 0.965424 0.544424
Si Si4 0.157350 0.571470 0.962503
Si Si5 0.941818 0.945212 0.781986
Si Si6 0.713071 0.105613 0.899860
Si Si7 0.540151 0.140378 0.075784
O O1 0.532143 0.506429 0.331413
O O2 0.372117 0.862180 0.200086
O O3 0.088584 0.546000 0.114027
O O4 0.133716 0.778194 0.224091
O O5 0.696892 0.765579 0.471340
O O6 0.000000 0.500000 0.500000
O O7 0.738563 0.256472 0.495112
O O8 0.500000 0.000000 0.500000
O O9 0.685077 0.882054 0.670002
O O10 0.054211 0.803152 0.882914
O O11 0.290655 0.640237 0.068769
O O12 0.368925 0.395541 0.003683
O O13 0.167302 0.885239 0.814232
O O14 0.568914 0.957094 0.898436
O O15 0.000000 0.000000 0.000000
O O16 0.500000 0.000000 0.000000
#
# Coordination Sequence:
#
# PCOD9059281 Si02
#       7
#     2   2   2   2   2   2   2
#     4  11  23  41  64  90 127 172 214 264 332 392
#     4  11  25  48  75 102 135 178 228 291 350 411
#     4  11  25  48  75 102 135 178 228 291 350 411
#     4  12  20  38  62  84 128 170 208 252 326 374
#     4  11  23  41  64  90 127 172 214 264 332 392
#     4  12  23  37  57  91 129 169 218 261 311 392
#     4  12  23  37  57  91 129 169 218 261 311 392
#
# _framework density 21.393445
#
# number of rings (size 3 to 8) (size 9 to 14) (size 15 to 20)
#    0.000    0.571    7.143    1.714    0.000    1.143 
#    2.571    0.000    0.000    0.000    0.000    0.000 
#    0.000    0.000    0.000    0.000    0.000    0.000 
#
# Total GULP energy -77981.922695 kJ/mol
# GULP energy per Si atom -5570.137335 kJ/mol
# Density = 2.134475 g / cm^3
# Si number density = 21.393445 Si / 1000 Ang^3
#
#
#
# Elastic Constant Matrix: (Units=GPa)
#
#
# Indices 1 2 3 4 5 6 
#
# 1 168.2502 49.3765 36.8014 -11.8547 17.1180 13.1668
# 2 49.3765 87.6978 22.0987 -6.5670 16.7413 -3.4445
# 3 36.8014 22.0987 55.4631 -11.1472 14.5711 0.4521
# 4 -11.8547 -6.5670 -11.1472 19.1686 -0.5869 4.2415
# 5 17.1180 16.7413 14.5711 -0.5869 37.9348 -4.9361
# 6 13.1668 -3.4445 0.4521 4.2415 -4.9361 40.6034
#
#
#
# Elastic Compliance Matrix: (Units=1/GPa)
#
#
# Indices 1 2 3 4 5 6 
#
# 1 0.008266 -0.003528 -0.003130 0.002795 -0.001371 -0.003404
# 2 -0.003528 0.014865 -0.002405 0.000983 -0.003786 0.001869
# 3 -0.003130 -0.002405 0.025451 0.012179 -0.007327 -0.001635
# 4 0.002795 0.000983 0.012179 0.062959 -0.006482 -0.008323
# 5 -0.001371 -0.003786 -0.007327 -0.006482 0.031985 0.004770
# 6 -0.003404 0.001869 -0.001635 -0.008323 0.004770 0.027358
#
#
# Mechanical properties :
#
#
# Convention : Reuss Voigt Hill
#
# Bulk Modulus (GPa) = 32.83367 58.66271 45.74819
# Shear Modulus (GPa) = 25.10517 33.08364 29.09440
#
# Velocity S-wave (km/s) = 3.42935 3.93674 3.69178
# Velocity P-wave (km/s) = 5.57328 6.93861 6.29308
#
# Compressibility (1/GPa) = 0.03045655
#
# Stress axis : x y z
#
# Youngs Moduli (GPa) = 120.97431 67.27204 39.29169
#
# Poissons Ratio (x) = 0.23735 0.12297
# Poissons Ratio (y) = 0.42683 0.09449
# Poissons Ratio (z) = 0.37860 0.16178
#
# Static dielectric constant tensor:
#      x y z
#    x 1.880960 0.034210 -0.042200 
#    y 0.034210 1.919730 0.052490 
#    z -0.042200 0.052490 1.718290 
# 
# From -- ./inp_files/45710.got.cif
#   From: 2010.05.17/outbox.cif.g08.bks.cpg/sg2_23_cif.got.tgz:45710.got - 2010.06.03 11:33:40.
