data_PCOD9059593
_publ_section_title
;
Structure prediction by ZEFSAII (Michael W. Deem and Ramdas Pophale) SiO2 
 PCOD9059593
Probable space group: P -1
;
_chemical_formula_sum "Si O2"
_cell_formula_units_Z 16
_cell_length_a 15.003355
_cell_length_b 9.650840
_cell_length_c 16.017026
_cell_angle_alpha 39.455877
_cell_angle_beta 36.488639
_cell_angle_gamma 38.720087
_cell_volume 794.580836
_symmetry_space_group_name_H-M "P -1"
_symmetry_group_IT_number 2
_symmetry_cell_setting 'triclinic'
loop_
_space_group_symop_operation_xyz
x,y,z
-x,-y,-z
loop_
_atom_site_type_symbol
_atom_site_label
_atom_site_fract_x
_atom_site_fract_y
_atom_site_fract_z
Si Si1 0.893047 0.407663 0.408145
Si Si2 0.551147 0.501993 0.056252
Si Si3 0.782748 0.033259 0.576453
Si Si4 0.080651 0.712809 0.057918
Si Si5 0.478350 0.026330 0.907223
Si Si6 0.839065 0.478146 0.101014
Si Si7 0.550937 0.715279 0.602138
Si Si8 0.619317 0.307898 0.432184
O O1 0.744715 0.559151 0.511685
O O2 0.050842 0.205826 0.429043
O O3 0.956861 0.590374 0.231231
O O4 0.828660 0.255013 0.465118
O O5 0.501230 0.364004 0.233410
O O6 0.500000 0.500000 0.000000
O O7 0.749601 0.405679 0.961933
O O8 0.464889 0.785736 0.004283
O O9 0.643707 0.034914 0.743775
O O10 0.688945 0.060749 0.545878
O O11 0.132887 0.641911 0.955352
O O12 0.000000 0.000000 0.000000
O O13 0.316732 0.264249 0.899574
O O14 0.500000 0.000000 0.000000
O O15 0.787018 0.331143 0.275135
O O16 0.000000 0.500000 0.000000
O O17 0.465356 0.665531 0.606283
O O18 0.500000 0.000000 0.500000
O O19 0.500000 0.500000 0.500000
#
# Coordination Sequence:
#
# PCOD9059593 Si02
#       8
#     2   2   2   2   2   2   2   2
#     4  11  23  44  72 106 141 182 244 297 362 422
#     4  12  28  49  73 104 143 201 245 296 372 433
#     4  11  23  41  74 104 138 187 237 305 356 426
#     4  12  26  48  69 104 149 189 239 303 361 439
#     4  12  22  46  73 100 145 184 246 303 358 431
#     4  12  26  42  71 109 140 186 242 296 365 428
#     4  12  27  47  72 103 146 195 239 294 363 441
#     4  12  23  44  70 102 144 183 240 293 365 430
#
# _framework density 20.136403999999999
#
# number of rings (size 3 to 8) (size 9 to 14) (size 15 to 20)
#    0.000    0.250    6.250    2.250    3.500    3.000 
#    0.000    1.250    0.000    0.000    0.000    0.000 
#    0.000    0.000    0.000    0.000    0.000    0.000 
#
# Total GULP energy -89299.832182 kJ/mol
# GULP energy per Si atom -5581.239511 kJ/mol
# Density = 2.009057 g / cm^3
# Si number density = 20.136404 Si / 1000 Ang^3
#
#
#
# Elastic Constant Matrix: (Units=GPa)
#
#
# Indices 1 2 3 4 5 6 
#
# 1 119.1973 41.2962 51.4226 19.5282 22.1699 4.9112
# 2 41.2962 138.7641 42.8533 -2.5482 -2.7510 0.6836
# 3 51.4226 42.8533 160.3330 13.6811 1.3465 8.8934
# 4 19.5282 -2.5482 13.6811 36.5149 -3.2474 -9.2372
# 5 22.1699 -2.7510 1.3465 -3.2474 32.1838 4.9907
# 6 4.9112 0.6836 8.8934 -9.2372 4.9907 41.5802
#
#
#
# Elastic Compliance Matrix: (Units=1/GPa)
#
#
# Indices 1 2 3 4 5 6 
#
# 1 0.014231 -0.003760 -0.002680 -0.008215 -0.010593 -0.001599
# 2 -0.003760 0.008958 -0.001604 0.003828 0.003646 0.001053
# 3 -0.002680 -0.001604 0.007787 -0.001953 0.001486 -0.001935
# 4 -0.008215 0.003828 -0.001953 0.035606 0.008385 0.008229
# 5 -0.010593 0.003646 0.001486 0.008385 0.039780 -0.002039
# 6 -0.001599 0.001053 -0.001935 0.008229 -0.002039 0.026708
#
#
# Mechanical properties :
#
#
# Convention : Reuss Voigt Hill
#
# Bulk Modulus (GPa) = 67.17464 76.60430 71.88947
# Shear Modulus (GPa) = 32.44194 40.90392 36.67293
#
# Velocity S-wave (km/s) = 4.01822 4.51193 4.27221
# Velocity P-wave (km/s) = 7.41352 8.07890 7.75335
#
# Compressibility (1/GPa) = 0.01488657
#
# Stress axis : x y z
#
# Youngs Moduli (GPa) = 70.27110 111.62891 128.42099
#
# Poissons Ratio (x) = 0.41975 0.34422
# Poissons Ratio (y) = 0.26424 0.20598
# Poissons Ratio (z) = 0.18835 0.17905
#
# Static dielectric constant tensor:
#      x y z
#    x 1.731910 0.005660 0.016410 
#    y 0.005660 1.698120 -0.060370 
#    z 0.016410 -0.060370 1.657800 
# 
# From -- ./inp_files/529282.got.cif
#   From: 2010.05.17/outbox.cif.g08.bks.cpg/sg2_265_cif.got.tgz:529282.got - 2010.06.03 11:33:40.
