data_PCOD9059775
_publ_section_title
;
Structure prediction by ZEFSAII (Michael W. Deem and Ramdas Pophale) SiO2 
 PCOD9059775
Probable space group: P -1
;
_chemical_formula_sum "Si O2"
_cell_formula_units_Z 14
_cell_length_a 8.535387
_cell_length_b 12.484349
_cell_length_c 9.228892
_cell_angle_alpha 142.036914
_cell_angle_beta 93.319114
_cell_angle_gamma 95.405697
_cell_volume 588.070266
_symmetry_space_group_name_H-M "P -1"
_symmetry_group_IT_number 2
_symmetry_cell_setting 'triclinic'
loop_
_space_group_symop_operation_xyz
x,y,z
-x,-y,-z
loop_
_atom_site_type_symbol
_atom_site_label
_atom_site_fract_x
_atom_site_fract_y
_atom_site_fract_z
Si Si1 0.348475 0.365844 0.920010
Si Si2 0.877440 0.853456 0.547839
Si Si3 0.301358 0.303726 0.345632
Si Si4 0.180670 0.784190 0.113432
Si Si5 0.909588 0.522605 0.666453
Si Si6 0.535942 0.288378 0.120084
Si Si7 0.823091 0.320610 0.686958
O O1 0.272619 0.220022 0.643464
O O2 0.500000 0.500000 0.000000
O O3 0.413311 0.281601 0.972906
O O4 0.218724 0.485905 0.073451
O O5 0.814000 0.804235 0.654177
O O6 0.017308 0.758738 0.404545
O O7 0.917935 0.064261 0.751426
O O8 0.196789 0.343305 0.246327
O O9 0.440545 0.223771 0.193774
O O10 0.383089 0.499583 0.625015
O O11 0.247153 0.780209 0.276144
O O12 0.324568 0.803665 0.026487
O O13 0.052999 0.600021 0.870603
O O14 0.796661 0.341798 0.533991
O O15 0.000000 0.500000 0.500000
#
# Coordination Sequence:
#
# PCOD9059775 Si02
#       7
#     2   2   2   2   2   2   2
#     4  12  22  42  70  95 121 175 224 261 311 382
#     4  12  26  43  63  99 137 166 211 272 330 378
#     4  11  23  42  68  96 126 170 222 266 317 386
#     4  12  26  43  63  99 137 166 211 272 330 378
#     4  12  22  42  70  95 121 175 224 261 311 382
#     4  11  23  42  68  96 126 170 222 266 317 386
#     4  12  24  44  72  92 126 174 226 264 307 386
#
# _framework density 23.806677000000001
#
# number of rings (size 3 to 8) (size 9 to 14) (size 15 to 20)
#    0.000    0.286    7.143    3.000    0.000    1.714 
#    0.000    0.000    0.000    0.000    0.000    0.000 
#    0.000    0.000    0.000    0.000    0.000    0.000 
#
# Total GULP energy -78026.957258 kJ/mol
# GULP energy per Si atom -5573.354090 kJ/mol
# Density = 2.375249 g / cm^3
# Si number density = 23.806677 Si / 1000 Ang^3
#
#
#
# Elastic Constant Matrix: (Units=GPa)
#
#
# Indices 1 2 3 4 5 6 
#
# 1 85.4972 9.0289 34.8985 -13.8660 -35.2603 1.9237
# 2 9.0289 52.1080 15.0759 -10.5326 -8.2973 -5.0384
# 3 34.8985 15.0759 48.1590 -5.6592 -19.4903 -2.6189
# 4 -13.8660 -10.5326 -5.6592 30.6742 3.6751 -16.5423
# 5 -35.2603 -8.2973 -19.4903 3.6751 29.8070 -12.8478
# 6 1.9237 -5.0384 -2.6189 -16.5423 -12.8478 38.9396
#
#
#
# Elastic Compliance Matrix: (Units=1/GPa)
#
#
# Indices 1 2 3 4 5 6 
#
# 1 0.041926 0.013848 -0.004043 0.034024 0.061327 0.034137
# 2 0.013848 0.029687 -0.003205 0.024859 0.029500 0.023235
# 3 -0.004043 -0.003205 0.035099 0.007743 0.021759 0.012614
# 4 0.034024 0.024859 0.007743 0.081703 0.067622 0.059077
# 5 0.061327 0.029500 0.021759 0.067622 0.155693 0.082347
# 6 0.034137 0.023235 0.012614 0.059077 0.082347 0.080116
#
#
# Mechanical properties :
#
#
# Convention : Reuss Voigt Hill
#
# Bulk Modulus (GPa) = 8.33933 33.75232 21.04583
# Shear Modulus (GPa) = 11.08660 28.33488 19.71074
#
# Velocity S-wave (km/s) = 2.16033 3.45368 2.88053
# Velocity P-wave (km/s) = 3.11982 5.48747 4.46350
#
# Compressibility (1/GPa) = 0.11991376
#
# Stress axis : x y z
#
# Youngs Moduli (GPa) = 23.85138 33.68433 28.49063
#
# Poissons Ratio (x) = -0.46647 0.11519
# Poissons Ratio (y) = -0.33030 0.09131
# Poissons Ratio (z) = 0.09643 0.10796
#
# Static dielectric constant tensor:
#      x y z
#    x 1.985190 0.041500 0.008120 
#    y 0.041500 1.935610 -0.030870 
#    z 0.008120 -0.030870 1.929570 
# 
# From -- ./inp_files/191111.got.cif
#   From: 2010.05.17/outbox.cif.g08.bks.cpg/sg2_96_cif.got.tgz:191111.got - 2010.06.03 11:33:40.
