data_PCOD9059625
_publ_section_title
;
Structure prediction by ZEFSAII (Michael W. Deem and Ramdas Pophale) SiO2 
 PCOD9059625
Probable space group: P -1
;
_chemical_formula_sum "Si O2"
_cell_formula_units_Z 14
_cell_length_a 6.764646
_cell_length_b 18.299522
_cell_length_c 14.394530
_cell_angle_alpha 26.067418
_cell_angle_beta 128.460991
_cell_angle_gamma 135.099192
_cell_volume 552.129045
_symmetry_space_group_name_H-M "P -1"
_symmetry_group_IT_number 2
_symmetry_cell_setting 'triclinic'
loop_
_space_group_symop_operation_xyz
x,y,z
-x,-y,-z
loop_
_atom_site_type_symbol
_atom_site_label
_atom_site_fract_x
_atom_site_fract_y
_atom_site_fract_z
Si Si1 0.808980 0.808777 0.213873
Si Si2 0.792513 0.346959 0.523477
Si Si3 0.241740 0.474435 0.017927
Si Si4 0.783295 0.287212 0.797691
Si Si5 0.244257 0.117614 0.521221
Si Si6 0.970037 0.989842 0.779723
Si Si7 0.313419 0.788150 0.824921
O O1 0.481470 0.745178 0.179576
O O2 0.916459 0.669004 0.365014
O O3 0.910534 0.830753 0.325652
O O4 0.000000 0.000000 0.000000
O O5 0.693256 0.316610 0.634558
O O6 0.553429 0.192485 0.571243
O O7 0.908441 0.547911 0.282267
O O8 0.230516 0.308239 0.271503
O O9 0.927014 0.371308 0.000885
O O10 0.500000 0.500000 0.000000
O O11 0.280922 0.664257 0.862635
O O12 0.836683 0.107662 0.021064
O O13 0.244367 0.967258 0.616747
O O14 0.024390 0.025412 0.645787
O O15 0.644527 0.869522 0.846032
#
# Coordination Sequence:
#
# PCOD9059625 Si02
#       7
#     2   2   2   2   2   2   2
#     4  12  22  41  64  95 140 190 233 276 337 396
#     4  11  23  42  63  99 136 186 233 283 338 398
#     4  11  27  52  74 105 138 172 225 293 357 425
#     4  11  24  41  65  94 147 186 232 284 331 399
#     4  12  25  46  72 103 140 180 232 288 347 413
#     4  12  24  42  67 102 137 182 235 282 334 409
#     4  11  26  47  76 103 135 180 226 285 357 419
#
# _framework density 25.356392
#
# number of rings (size 3 to 8) (size 9 to 14) (size 15 to 20)
#    0.000    0.571    4.286    3.857    0.000    3.429 
#    2.571    0.000    0.000    0.000    0.000    0.000 
#    0.000    0.000    0.000    0.000    0.000    0.000 
#
# Total GULP energy -78148.674931 kJ/mol
# GULP energy per Si atom -5582.048209 kJ/mol
# Density = 2.529868 g / cm^3
# Si number density = 25.356392 Si / 1000 Ang^3
#
#
#
# Elastic Constant Matrix: (Units=GPa)
#
#
# Indices 1 2 3 4 5 6 
#
# 1 179.6299 41.8902 42.5865 -9.5103 -6.5610 20.1556
# 2 41.8902 106.9114 26.7975 -20.6634 -12.4581 1.9199
# 3 42.5865 26.7975 73.8764 -12.1246 4.9586 -17.1788
# 4 -9.5103 -20.6634 -12.1246 27.7523 1.0405 -0.4102
# 5 -6.5610 -12.4581 4.9586 1.0405 47.2549 -11.0828
# 6 20.1556 1.9199 -17.1788 -0.4102 -11.0828 46.8318
#
#
#
# Elastic Compliance Matrix: (Units=1/GPa)
#
#
# Indices 1 2 3 4 5 6 
#
# 1 0.007748 -0.001861 -0.005165 -0.001061 -0.000064 -0.005177
# 2 -0.001861 0.012499 -0.002388 0.007509 0.003176 0.000230
# 3 -0.005165 -0.002388 0.020637 0.005662 -0.001382 0.009614
# 4 -0.001061 0.007509 0.005662 0.043741 0.000939 0.002831
# 5 -0.000064 0.003176 -0.001382 0.000939 0.023265 0.004904
# 6 -0.005177 0.000230 0.009614 0.002831 0.004904 0.028284
#
#
# Mechanical properties :
#
#
# Convention : Reuss Voigt Hill
#
# Bulk Modulus (GPa) = 45.34026 64.77402 55.05714
# Shear Modulus (GPa) = 30.79701 40.97736 35.88719
#
# Velocity S-wave (km/s) = 3.48884 4.02438 3.76614
# Velocity P-wave (km/s) = 5.84375 6.86987 6.37748
#
# Compressibility (1/GPa) = 0.02205545
#
# Stress axis : x y z
#
# Youngs Moduli (GPa) = 129.06733 80.00930 48.45552
#
# Poissons Ratio (x) = 0.14887 0.25028
# Poissons Ratio (y) = 0.24015 0.11573
# Poissons Ratio (z) = 0.66666 0.19109
#
# Static dielectric constant tensor:
#      x y z
#    x 2.010550 0.038650 -0.080020 
#    y 0.038650 2.122430 -0.091360 
#    z -0.080020 -0.091360 2.267330 
# 
# From -- ./inp_files/289131.got.cif
#   From: 2010.05.17/outbox.cif.g08.bks.cpg/sg2_145_cif.got.tgz:289131.got - 2010.06.03 11:33:40.
