data_PCOD9059909
_publ_section_title
;
Structure prediction by ZEFSAII (Michael W. Deem and Ramdas Pophale) SiO2 
 PCOD9059909
Probable space group: P -1
;
_chemical_formula_sum "Si O2"
_cell_formula_units_Z 16
_cell_length_a 9.027149
_cell_length_b 14.473060
_cell_length_c 5.826312
_cell_angle_alpha 63.550384
_cell_angle_beta 75.460328
_cell_angle_gamma 79.080698
_cell_volume 657.054773
_symmetry_space_group_name_H-M "P -1"
_symmetry_group_IT_number 2
_symmetry_cell_setting 'triclinic'
loop_
_space_group_symop_operation_xyz
x,y,z
-x,-y,-z
loop_
_atom_site_type_symbol
_atom_site_label
_atom_site_fract_x
_atom_site_fract_y
_atom_site_fract_z
Si Si1 0.468652 0.622408 0.835819
Si Si2 0.843810 0.371551 0.249528
Si Si3 0.229526 0.899900 0.327431
Si Si4 0.936228 0.570197 0.241695
Si Si5 0.706762 0.741011 0.351984
Si Si6 0.652464 0.180134 0.127648
Si Si7 0.069807 0.174909 0.499855
Si Si8 0.641649 0.888219 0.850040
O O1 0.336317 0.637070 0.676655
O O2 0.617956 0.676918 0.641212
O O3 0.399038 0.696509 0.984448
O O4 0.500000 0.500000 0.000000
O O5 0.869196 0.486741 0.194402
O O6 0.954599 0.280938 0.423662
O O7 0.920285 0.372604 0.967558
O O8 0.263106 0.845420 0.629264
O O9 0.043677 0.914613 0.371735
O O10 0.321358 0.000730 0.199740
O O11 0.267258 0.850968 0.111827
O O12 0.800839 0.653959 0.264664
O O13 0.000000 0.500000 0.500000
O O14 0.826670 0.814610 0.329866
O O15 0.596623 0.815374 0.156624
O O16 0.498756 0.118267 0.262263
O O17 0.198194 0.161729 0.266538
#
# Coordination Sequence:
#
# PCOD9059909 Si02
#       8
#     2   2   2   2   2   2   2   2
#     4  12  28  49  76 114 156 208 263 321 394 472
#     4  11  25  45  70 106 151 201 261 318 391 469
#     4  12  30  52  85 116 155 212 267 325 398 466
#     4  11  23  42  71 101 146 201 256 313 391 460
#     4  12  27  47  74 114 154 210 257 330 390 469
#     4  12  28  54  80 117 159 207 264 330 389 471
#     4  12  26  47  76 111 159 197 260 330 392 469
#     4  12  28  51  79 111 159 204 264 325 398 463
#
# _framework density 24.351089999999999
#
# number of rings (size 3 to 8) (size 9 to 14) (size 15 to 20)
#    0.000    0.250    5.000    2.625    8.750    2.000 
#    0.000    0.000    0.000    0.000    0.000    0.000 
#    0.000    0.000    0.000    0.000    0.000    0.000 
#
# Total GULP energy -89377.384849 kJ/mol
# GULP energy per Si atom -5586.086553 kJ/mol
# Density = 2.429567 g / cm^3
# Si number density = 24.351090 Si / 1000 Ang^3
#
#
#
# Elastic Constant Matrix: (Units=GPa)
#
#
# Indices 1 2 3 4 5 6 
#
# 1 111.2708 2.7052 13.2507 14.8148 -8.6063 21.0170
# 2 2.7052 107.0182 26.2774 24.1901 -5.0873 8.9612
# 3 13.2507 26.2774 77.7816 7.5031 2.4788 -5.2855
# 4 14.8148 24.1901 7.5031 33.1346 0.9505 -3.4419
# 5 -8.6063 -5.0873 2.4788 0.9505 33.2819 -3.8302
# 6 21.0170 8.9612 -5.2855 -3.4419 -3.8302 37.5297
#
#
#
# Elastic Compliance Matrix: (Units=1/GPa)
#
#
# Indices 1 2 3 4 5 6 
#
# 1 0.012153 0.003081 -0.003011 -0.007960 0.003101 -0.008379
# 2 0.003081 0.013522 -0.004554 -0.010954 0.002789 -0.006315
# 3 -0.003011 -0.004554 0.015130 0.001810 -0.002094 0.004857
# 4 -0.007960 -0.010954 0.001810 0.042562 -0.003836 0.010840
# 5 0.003101 0.002789 -0.002094 -0.003836 0.031560 0.000172
# 6 -0.008379 -0.006315 0.004857 0.010840 0.000172 0.034542
#
#
# Mechanical properties :
#
#
# Convention : Reuss Voigt Hill
#
# Bulk Modulus (GPa) = 31.41198 42.28191 36.84695
# Shear Modulus (GPa) = 29.57685 37.71172 33.64428
#
# Velocity S-wave (km/s) = 3.48889 3.93958 3.72107
# Velocity P-wave (km/s) = 5.39976 6.17210 5.79881
#
# Compressibility (1/GPa) = 0.03183499
#
# Stress axis : x y z
#
# Youngs Moduli (GPa) = 82.28334 73.95367 66.09221
#
# Poissons Ratio (x) = -0.22782 0.19903
# Poissons Ratio (y) = -0.25348 0.30101
# Poissons Ratio (z) = 0.24779 0.33681
#
# Static dielectric constant tensor:
#      x y z
#    x 1.923740 -0.010070 -0.015850 
#    y -0.010070 2.026590 0.058780 
#    z -0.015850 0.058780 1.981260 
# 
# From -- ./inp_files/37248.got.cif
#   From: 2010.05.17/outbox.cif.g08.bks.cpg/sg2_19_cif.got.tgz:37248.got - 2010.06.03 11:33:40.
