data_PCOD9059172
_publ_section_title
;
Structure prediction by ZEFSAII (Michael W. Deem and Ramdas Pophale) SiO2 
 PCOD9059172
Probable space group: P -1
;
_chemical_formula_sum "Si O2"
_cell_formula_units_Z 12
_cell_length_a 11.380621
_cell_length_b 15.971974
_cell_length_c 5.832573
_cell_angle_alpha 143.373389
_cell_angle_beta 108.939280
_cell_angle_gamma 49.120402
_cell_volume 428.300252
_symmetry_space_group_name_H-M "P -1"
_symmetry_group_IT_number 2
_symmetry_cell_setting 'triclinic'
loop_
_space_group_symop_operation_xyz
x,y,z
-x,-y,-z
loop_
_atom_site_type_symbol
_atom_site_label
_atom_site_fract_x
_atom_site_fract_y
_atom_site_fract_z
Si Si1 0.023754 0.672565 0.656300
Si Si2 0.850198 0.094815 0.380033
Si Si3 0.405208 0.867393 0.030915
Si Si4 0.521728 0.307305 0.870118
Si Si5 0.330279 0.107666 0.896918
Si Si6 0.843209 0.396232 0.910098
O O1 0.101410 0.580178 0.249643
O O2 0.117868 0.570541 0.738056
O O3 0.835396 0.747665 0.730674
O O4 0.980551 0.873708 0.065057
O O5 0.703687 0.240548 0.800512
O O6 0.924982 0.175797 0.497247
O O7 0.720639 0.119446 0.177323
O O8 0.503547 0.678604 0.842695
O O9 0.552273 0.854275 0.002185
O O10 0.280201 0.073561 0.548483
O O11 0.553666 0.113721 0.426049
O O12 0.361126 0.473124 0.977337
#
# Coordination Sequence:
#
# PCOD9059172 Si02
#       6
#     2   2   2   2   2   2
#     4  11  25  42  64  95 132 174 205 259 322 387
#     4  11  23  40  69  90 126 174 216 258 309 389
#     4   9  19  41  72  91 120 166 231 260 304 370
#     4   9  22  39  64  97 122 167 212 271 311 369
#     4   8  19  44  68  92 119 172 222 260 306 384
#     4  12  26  41  64  99 136 163 207 265 330 375
#
# _framework density 28.017728000000002
#
# number of rings (size 3 to 8) (size 9 to 14) (size 15 to 20)
#    1.000    1.000    0.000    2.500    4.667    3.333 
#    3.000    1.667    0.000    0.000    0.000    0.000 
#    0.000    0.000    0.000    0.000    0.000    0.000 
#
# Total GULP energy -67072.211095 kJ/mol
# GULP energy per Si atom -5589.350925 kJ/mol
# Density = 2.795396 g / cm^3
# Si number density = 28.017728 Si / 1000 Ang^3
#
#
#
# Elastic Constant Matrix: (Units=GPa)
#
#
# Indices 1 2 3 4 5 6 
#
# 1 148.7003 45.0994 40.3646 -18.2744 -22.6650 20.8893
# 2 45.0994 180.5826 32.8406 -20.0645 -2.6560 -4.9851
# 3 40.3646 32.8406 86.3182 -12.1094 -11.8862 1.1620
# 4 -18.2744 -20.0645 -12.1094 51.2408 5.5670 -0.0327
# 5 -22.6650 -2.6560 -11.8862 5.5670 41.6338 0.8502
# 6 20.8893 -4.9851 1.1620 -0.0327 0.8502 32.4836
#
#
#
# Elastic Compliance Matrix: (Units=1/GPa)
#
#
# Indices 1 2 3 4 5 6 
#
# 1 0.009902 -0.001867 -0.003007 0.001615 0.004333 -0.006658
# 2 -0.001867 0.006521 -0.001588 0.001657 -0.001322 0.002294
# 3 -0.003007 -0.001588 0.014062 0.001405 0.002065 0.001134
# 4 0.001615 0.001657 0.001405 0.021228 -0.001437 -0.000775
# 5 0.004333 -0.001322 0.002065 -0.001437 0.027152 -0.003775
# 6 -0.006658 0.002294 0.001134 -0.000775 -0.003775 0.035476
#
#
# Mechanical properties :
#
#
# Convention : Reuss Voigt Hill
#
# Bulk Modulus (GPa) = 56.94927 72.46781 64.70854
# Shear Modulus (GPa) = 37.56066 44.89141 41.22603
#
# Velocity S-wave (km/s) = 3.66540 4.00715 3.84008
# Velocity P-wave (km/s) = 6.18739 6.87974 6.54273
#
# Compressibility (1/GPa) = 0.01755949
#
# Stress axis : x y z
#
# Youngs Moduli (GPa) = 100.99446 153.35756 71.11435
#
# Poissons Ratio (x) = 0.28626 0.21386
# Poissons Ratio (y) = 0.18852 0.11296
# Poissons Ratio (z) = 0.30372 0.24360
#
# Static dielectric constant tensor:
#      x y z
#    x 2.120220 0.062660 -0.066840 
#    y 0.062660 2.294650 -0.119970 
#    z -0.066840 -0.119970 2.346950 
# 
# From -- ./inp_files/76886.got.cif
#   From: 2010.05.17/outbox.cif.g08.bks.cpg/sg2_39_cif.got.tgz:76886.got - 2010.06.03 11:33:40.
