data_PCOD9059417
_publ_section_title
;
Structure prediction by ZEFSAII (Michael W. Deem and Ramdas Pophale) SiO2 
 PCOD9059417
Probable space group: P -1
;
_chemical_formula_sum "Si O2"
_cell_formula_units_Z 14
_cell_length_a 12.838725
_cell_length_b 15.493793
_cell_length_c 21.813305
_cell_angle_alpha 18.771841
_cell_angle_beta 151.652491
_cell_angle_gamma 141.766642
_cell_volume 629.762733
_symmetry_space_group_name_H-M "P -1"
_symmetry_group_IT_number 2
_symmetry_cell_setting 'triclinic'
loop_
_space_group_symop_operation_xyz
x,y,z
-x,-y,-z
loop_
_atom_site_type_symbol
_atom_site_label
_atom_site_fract_x
_atom_site_fract_y
_atom_site_fract_z
Si Si1 0.108469 0.695470 0.683904
Si Si2 0.308512 0.318468 0.161063
Si Si3 0.917088 0.861043 0.993658
Si Si4 0.351864 0.762705 0.204434
Si Si5 0.578224 0.962915 0.435993
Si Si6 0.333860 0.847079 0.885903
Si Si7 0.826317 0.335964 0.950814
O O1 0.302520 0.819330 0.676059
O O2 0.191452 0.519301 0.906880
O O3 0.065275 0.466774 0.768254
O O4 0.870883 0.946798 0.399582
O O5 0.491926 0.059540 0.395067
O O6 0.402458 0.530780 0.107447
O O7 0.091879 0.252812 0.124185
O O8 0.653885 0.018569 0.733770
O O9 0.093493 0.863528 0.029147
O O10 0.000000 0.000000 0.000000
O O11 0.500000 0.500000 0.500000
O O12 0.328318 0.676243 0.180301
O O13 0.465457 0.011341 0.101661
O O14 0.754852 0.655228 0.724211
O O15 0.224476 0.843733 0.898753
#
# Coordination Sequence:
#
# PCOD9059417 Si02
#       7
#     2   2   2   2   2   2   2
#     4  11  23  43  69 102 134 176 229 288 327 395
#     4  11  23  45  68  99 134 176 232 273 335 394
#     4  11  23  41  68 104 134 174 231 283 331 395
#     4  12  24  45  71  97 134 180 223 279 335 400
#     4  11  25  42  71 100 136 176 227 287 330 398
#     4  12  26  42  69 102 134 182 223 276 343 403
#     4  12  25  47  66  99 143 177 223 277 340 408
#
# _framework density 22.230595000000001
#
# number of rings (size 3 to 8) (size 9 to 14) (size 15 to 20)
#    0.000    0.571    5.714    3.857    6.000    0.571 
#    0.000    0.714    0.000    0.000    0.000    0.000 
#    0.000    0.000    0.000    0.000    0.000    0.000 
#
# Total GULP energy -78399.117969 kJ/mol
# GULP energy per Si atom -5599.936998 kJ/mol
# Density = 2.218000 g / cm^3
# Si number density = 22.230595 Si / 1000 Ang^3
#
#
#
# Elastic Constant Matrix: (Units=GPa)
#
#
# Indices 1 2 3 4 5 6 
#
# 1 82.5014 64.5302 9.6256 -0.5576 9.3748 10.1881
# 2 64.5302 180.5053 26.4875 -1.3121 3.5654 8.6211
# 3 9.6256 26.4875 76.2918 1.3467 22.3436 5.5539
# 4 -0.5576 -1.3121 1.3467 31.2190 2.3052 3.5359
# 5 9.3748 3.5654 22.3436 2.3052 33.8944 0.9721
# 6 10.1881 8.6211 5.5539 3.5359 0.9721 59.6647
#
#
#
# Elastic Compliance Matrix: (Units=1/GPa)
#
#
# Indices 1 2 3 4 5 6 
#
# 1 0.017817 -0.006402 0.001692 0.000623 -0.005349 -0.002225
# 2 -0.006402 0.008189 -0.002862 0.000134 0.002783 0.000123
# 3 0.001692 -0.002862 0.017376 0.000165 -0.011595 -0.001314
# 4 0.000623 0.000134 0.000165 0.032451 -0.002444 -0.002024
# 5 -0.005349 0.002783 -0.011595 -0.002444 0.038468 0.001109
# 6 -0.002225 0.000123 -0.001314 -0.002024 0.001109 0.017347
#
#
# Mechanical properties :
#
#
# Convention : Reuss Voigt Hill
#
# Bulk Modulus (GPa) = 35.41115 60.06502 47.73808
# Shear Modulus (GPa) = 32.00942 40.86596 36.43769
#
# Velocity S-wave (km/s) = 3.79869 4.29216 4.05295
# Velocity P-wave (km/s) = 5.93327 7.18619 6.58957
#
# Compressibility (1/GPa) = 0.02823970
#
# Stress axis : x y z
#
# Youngs Moduli (GPa) = 56.12487 122.12118 57.54984
#
# Poissons Ratio (x) = 0.78176 -0.09737
# Poissons Ratio (y) = 0.35928 0.16469
# Poissons Ratio (z) = -0.09496 0.34947
#
# Static dielectric constant tensor:
#      x y z
#    x 1.839490 -0.056890 -0.025690 
#    y -0.056890 1.804340 0.000660 
#    z -0.025690 0.000660 1.893190 
# 
# From -- ./inp_files/154795.got.cif
#   From: 2010.05.17/outbox.cif.g08.bks.cpg/sg2_78_cif.got.tgz:154795.got - 2010.06.03 11:33:40.
