data_PCOD9059290
_publ_section_title
;
Structure prediction by ZEFSAII (Michael W. Deem and Ramdas Pophale) SiO2 
 PCOD9059290
Probable space group: P -1
;
_chemical_formula_sum "Si O2"
_cell_formula_units_Z 14
_cell_length_a 9.883441
_cell_length_b 13.335378
_cell_length_c 6.834474
_cell_angle_alpha 109.235275
_cell_angle_beta 125.879005
_cell_angle_gamma 91.041972
_cell_volume 662.319099
_symmetry_space_group_name_H-M "P -1"
_symmetry_group_IT_number 2
_symmetry_cell_setting 'triclinic'
loop_
_space_group_symop_operation_xyz
x,y,z
-x,-y,-z
loop_
_atom_site_type_symbol
_atom_site_label
_atom_site_fract_x
_atom_site_fract_y
_atom_site_fract_z
Si Si1 0.306859 0.260787 0.671639
Si Si2 0.421876 0.612864 0.292860
Si Si3 0.754989 0.116583 0.290152
Si Si4 0.720593 0.642442 0.875061
Si Si5 0.456627 0.059509 0.695115
Si Si6 0.117253 0.729821 0.160044
Si Si7 0.975369 0.116091 0.127631
O O1 0.460900 0.361553 0.786162
O O2 0.369522 0.152382 0.620059
O O3 0.132482 0.225574 0.375019
O O4 0.268704 0.280590 0.876465
O O5 0.569430 0.661061 0.615769
O O6 0.343720 0.484287 0.190405
O O7 0.261777 0.667879 0.183965
O O8 0.830553 0.226361 0.547859
O O9 0.897939 0.085616 0.258990
O O10 0.664874 0.026718 0.315482
O O11 0.616722 0.120691 0.008533
O O12 0.913318 0.662985 0.959465
O O13 0.500000 0.000000 0.500000
O O14 0.128574 0.833847 0.091255
O O15 0.000000 0.000000 0.000000
#
# Coordination Sequence:
#
# PCOD9059290 Si02
#       7
#     2   2   2   2   2   2   2
#     4  12  23  43  67  95 140 178 223 286 344 400
#     4  11  25  46  72  99 135 179 231 290 346 407
#     4  11  23  41  64  97 134 179 228 273 340 410
#     4  11  25  46  71 102 133 179 234 288 347 404
#     4  11  24  41  66  99 136 181 231 279 340 413
#     4  12  24  45  70 100 141 179 228 284 348 406
#     4  12  26  40  66 101 141 179 225 279 336 411
#
# _framework density 21.137846
#
# number of rings (size 3 to 8) (size 9 to 14) (size 15 to 20)
#    0.000    0.571    2.857    6.000    2.000    3.429 
#    0.000    0.714    0.000    0.000    0.000    0.000 
#    0.000    0.000    0.000    0.000    0.000    0.000 
#
# Total GULP energy -78117.666399 kJ/mol
# GULP energy per Si atom -5579.833314 kJ/mol
# Density = 2.108974 g / cm^3
# Si number density = 21.137846 Si / 1000 Ang^3
#
#
#
# Elastic Constant Matrix: (Units=GPa)
#
#
# Indices 1 2 3 4 5 6 
#
# 1 130.4917 39.1733 28.2751 -1.0739 -2.1245 19.8382
# 2 39.1733 103.5498 15.1416 -5.2358 3.4588 22.5897
# 3 28.2751 15.1416 99.9251 -3.2103 4.2817 -5.2256
# 4 -1.0739 -5.2358 -3.2103 31.0987 4.9115 7.2848
# 5 -2.1245 3.4588 4.2817 4.9115 36.9847 5.9625
# 6 19.8382 22.5897 -5.2256 7.2848 5.9625 51.8443
#
#
#
# Elastic Compliance Matrix: (Units=1/GPa)
#
#
# Indices 1 2 3 4 5 6 
#
# 1 0.009461 -0.002627 -0.002495 0.000066 0.001539 -0.002914
# 2 -0.002627 0.012029 -0.001194 0.003034 -0.000784 -0.004693
# 3 -0.002495 -0.001194 0.011132 0.000510 -0.001829 0.002736
# 4 0.000066 0.003034 0.000510 0.034694 -0.004026 -0.005708
# 5 0.001539 -0.000784 -0.001829 -0.004026 0.028452 -0.003138
# 6 -0.002914 -0.004693 0.002736 -0.005708 -0.003138 0.023887
#
#
# Mechanical properties :
#
#
# Convention : Reuss Voigt Hill
#
# Bulk Modulus (GPa) = 50.02358 55.46075 52.74217
# Shear Modulus (GPa) = 35.98398 40.74397 38.36397
#
# Velocity S-wave (km/s) = 4.13043 4.39513 4.26484
# Velocity P-wave (km/s) = 6.81645 7.21463 7.01837
#
# Compressibility (1/GPa) = 0.01999057
#
# Stress axis : x y z
#
# Youngs Moduli (GPa) = 105.69615 83.13407 89.82875
#
# Poissons Ratio (x) = 0.21837 0.22415
# Poissons Ratio (y) = 0.27764 0.10723
# Poissons Ratio (z) = 0.26374 0.09924
#
# Static dielectric constant tensor:
#      x y z
#    x 1.575480 0.053410 -0.115010 
#    y 0.053410 1.740980 0.011620 
#    z -0.115010 0.011620 1.642800 
# 
# From -- ./inp_files/40097.got.cif
#   From: 2010.05.17/outbox.cif.g08.bks.cpg/sg2_21_cif.got.tgz:40097.got - 2010.06.03 11:33:40.
