data_PCOD9059338
_publ_section_title
;
Structure prediction by ZEFSAII (Michael W. Deem and Ramdas Pophale) SiO2 
 PCOD9059338
Probable space group: P -1
;
_chemical_formula_sum "Si O2"
_cell_formula_units_Z 16
_cell_length_a 15.828244
_cell_length_b 15.703395
_cell_length_c 16.428422
_cell_angle_alpha 38.034741
_cell_angle_beta 18.428085
_cell_angle_gamma 36.582371
_cell_volume 762.045337
_symmetry_space_group_name_H-M "P -1"
_symmetry_group_IT_number 2
_symmetry_cell_setting 'triclinic'
loop_
_space_group_symop_operation_xyz
x,y,z
-x,-y,-z
loop_
_atom_site_type_symbol
_atom_site_label
_atom_site_fract_x
_atom_site_fract_y
_atom_site_fract_z
Si Si1 0.944436 0.102659 0.769328
Si Si2 0.672558 0.073277 0.727492
Si Si3 0.640276 0.402326 0.078538
Si Si4 0.253217 0.930220 0.756368
Si Si5 0.870007 0.565173 0.877527
Si Si6 0.542444 0.416748 0.610632
Si Si7 0.661522 0.874966 0.747310
Si Si8 0.179047 0.606760 0.265637
O O1 0.994391 0.233866 0.675852
O O2 0.071265 0.120583 0.552945
O O3 0.615818 0.119595 0.054505
O O4 0.118953 0.966961 0.762067
O O5 0.601578 0.244761 0.671358
O O6 0.597391 0.019387 0.750030
O O7 0.000000 0.000000 0.500000
O O8 0.500000 0.000000 0.000000
O O9 0.621246 0.242989 0.231463
O O10 0.372921 0.543345 0.213711
O O11 0.844414 0.451562 0.916456
O O12 0.699203 0.390248 0.937208
O O13 0.500000 0.000000 0.500000
O O14 0.000000 0.000000 0.000000
O O15 0.734612 0.728641 0.844079
O O16 0.186447 0.554787 0.617645
O O17 0.707359 0.541773 0.125782
O O18 0.500000 0.500000 0.500000
O O19 0.000000 0.500000 0.500000
#
# Coordination Sequence:
#
# PCOD9059338 Si02
#       8
#     2   2   2   2   2   2   2   2
#     4  12  25  42  68  98 137 174 229 287 330 394
#     4  12  23  44  72 100 134 184 226 273 354 421
#     4  11  26  41  69 100 138 185 231 280 347 405
#     4  12  26  46  65  94 138 189 226 277 342 405
#     4  12  25  45  73 105 140 179 232 291 347 414
#     4  12  27  47  73 105 144 181 228 294 357 423
#     4  12  24  43  71 105 132 173 235 288 333 411
#     4  11  23  41  66 100 134 183 231 281 329 407
#
# _framework density 20.996124999999999
#
# number of rings (size 3 to 8) (size 9 to 14) (size 15 to 20)
#    0.000    0.250    5.000    4.125    3.500    2.000 
#    0.000    0.000    0.000    0.000    0.000    0.000 
#    0.000    0.000    0.000    0.000    0.000    0.000 
#
# Total GULP energy -89325.839599 kJ/mol
# GULP energy per Si atom -5582.864975 kJ/mol
# Density = 2.094834 g / cm^3
# Si number density = 20.996125 Si / 1000 Ang^3
#
#
#
# Elastic Constant Matrix: (Units=GPa)
#
#
# Indices 1 2 3 4 5 6 
#
# 1 68.4334 24.9694 3.9690 -18.5455 -6.1786 -2.5591
# 2 24.9694 95.3762 17.4827 -28.8391 3.6295 4.8450
# 3 3.9690 17.4827 86.9339 -8.6545 -4.6238 -7.9277
# 4 -18.5455 -28.8391 -8.6545 31.1672 6.0406 1.8059
# 5 -6.1786 3.6295 -4.6238 6.0406 41.9987 -5.0569
# 6 -2.5591 4.8450 -7.9277 1.8059 -5.0569 47.8440
#
#
#
# Elastic Compliance Matrix: (Units=1/GPa)
#
#
# Indices 1 2 3 4 5 6 
#
# 1 0.017895 -0.002504 0.000705 0.008085 0.001911 0.001224
# 2 -0.002504 0.016033 -0.002257 0.013743 -0.004354 -0.003110
# 3 0.000705 -0.002257 0.012370 0.001280 0.001772 0.002455
# 4 0.008085 0.013743 0.001280 0.051666 -0.007711 -0.003512
# 5 0.001911 -0.004354 0.001772 -0.007711 0.026242 0.003901
# 6 0.001224 -0.003110 0.002455 -0.003512 0.003901 0.022233
#
#
# Mechanical properties :
#
#
# Convention : Reuss Voigt Hill
#
# Bulk Modulus (GPa) = 26.18789 38.17619 32.18204
# Shear Modulus (GPa) = 29.88986 37.82348 33.85667
#
# Velocity S-wave (km/s) = 3.77714 4.24895 4.01998
# Velocity P-wave (km/s) = 5.61446 6.50334 6.07518
#
# Compressibility (1/GPa) = 0.03818558
#
# Stress axis : x y z
#
# Youngs Moduli (GPa) = 55.88132 62.37048 80.83885
#
# Poissons Ratio (x) = 0.15619 -0.05698
# Poissons Ratio (y) = 0.13994 0.18246
# Poissons Ratio (z) = -0.03939 0.14077
#
# Static dielectric constant tensor:
#      x y z
#    x 1.142790 -0.165560 -0.312010 
#    y -0.165560 1.763260 0.039660 
#    z -0.312010 0.039660 1.759860 
# 
# From -- ./inp_files/494704.got.cif
#   From: 2010.05.17/outbox.cif.g08.bks.cpg/sg2_248_cif.got.tgz:494704.got - 2010.06.03 11:33:40.
