data_PCOD9059891
_publ_section_title
;
Structure prediction by ZEFSAII (Michael W. Deem and Ramdas Pophale) SiO2 
 PCOD9059891
Probable space group: P -1
;
_chemical_formula_sum "Si O2"
_cell_formula_units_Z 16
_cell_length_a 24.567079
_cell_length_b 11.633731
_cell_length_c 9.298454
_cell_angle_alpha 27.563677
_cell_angle_beta 36.076452
_cell_angle_gamma 28.950995
_cell_volume 588.965873
_symmetry_space_group_name_H-M "P -1"
_symmetry_group_IT_number 2
_symmetry_cell_setting 'triclinic'
loop_
_space_group_symop_operation_xyz
x,y,z
-x,-y,-z
loop_
_atom_site_type_symbol
_atom_site_label
_atom_site_fract_x
_atom_site_fract_y
_atom_site_fract_z
Si Si1 0.834804 0.745375 0.599530
Si Si2 0.747457 0.906895 0.304863
Si Si3 0.047059 0.090576 0.167949
Si Si4 0.386342 0.646401 0.493541
Si Si5 0.638866 0.745231 0.499337
Si Si6 0.955784 0.785607 0.530603
Si Si7 0.748681 0.440059 0.299901
Si Si8 0.530745 0.486912 0.116618
O O1 0.820125 0.692180 0.523826
O O2 0.719074 0.078977 0.503659
O O3 0.934280 0.766716 0.426736
O O4 0.826223 0.533348 0.964511
O O5 0.729364 0.790800 0.323253
O O6 0.612088 0.134344 0.381267
O O7 0.822052 0.033300 0.967379
O O8 0.029752 0.912095 0.275717
O O9 0.008885 0.541491 0.119783
O O10 0.000000 0.000000 0.500000
O O11 0.500000 0.500000 0.500000
O O12 0.348662 0.437262 0.749739
O O13 0.419170 0.714734 0.192838
O O14 0.688595 0.584843 0.417942
O O15 0.500000 0.000000 0.500000
O O16 0.622481 0.557968 0.860745
O O17 0.830320 0.071204 0.537923
O O18 0.500000 0.500000 0.000000
#
# Coordination Sequence:
#
# PCOD9059891 Si02
#       8
#     2   2   2   2   2   2   2   2
#     4  11  26  48  79 117 165 217 271 336 411 506
#     4  12  30  47  76 121 158 216 279 337 411 496
#     4  12  30  54  86 122 164 209 279 353 417 485
#     4  11  23  42  70 112 163 216 275 331 406 494
#     4  12  26  46  75 115 165 213 269 338 410 489
#     4  11  27  55  83 119 159 214 272 339 422 480
#     4  11  25  46  80 112 163 223 273 329 418 495
#     4  12  24  46  69 110 162 212 271 335 408 486
#
# _framework density 27.166259
#
# number of rings (size 3 to 8) (size 9 to 14) (size 15 to 20)
#    0.000    0.500    5.000    1.125    7.000    1.500 
#    0.000    0.000    0.000    0.000    0.000    0.000 
#    0.000    0.000    0.000    0.000    0.000    0.000 
#
# Total GULP energy -89229.922454 kJ/mol
# GULP energy per Si atom -5576.870153 kJ/mol
# Density = 2.710443 g / cm^3
# Si number density = 27.166259 Si / 1000 Ang^3
#
#
#
# Elastic Constant Matrix: (Units=GPa)
#
#
# Indices 1 2 3 4 5 6 
#
# 1 209.0825 46.2851 29.5275 -7.3113 -40.0175 14.6901
# 2 46.2851 88.1994 4.3178 -1.9937 -0.2535 13.3538
# 3 29.5275 4.3178 95.7967 8.7302 -19.9598 13.1037
# 4 -7.3113 -1.9937 8.7302 35.7543 0.2562 2.3826
# 5 -40.0175 -0.2535 -19.9598 0.2562 54.7079 7.3017
# 6 14.6901 13.3538 13.1037 2.3826 7.3017 48.5156
#
#
#
# Elastic Compliance Matrix: (Units=1/GPa)
#
#
# Indices 1 2 3 4 5 6 
#
# 1 0.006691 -0.003162 -0.000816 0.001472 0.004806 -0.001731
# 2 -0.003162 0.013367 0.000330 0.000201 -0.001791 -0.002551
# 3 -0.000816 0.000330 0.012374 -0.002955 0.004428 -0.003707
# 4 0.001472 0.000201 -0.002955 0.029078 0.000015 -0.001133
# 5 0.004806 -0.001791 0.004428 0.000015 0.024175 -0.005797
# 6 -0.001731 -0.002551 -0.003707 -0.001133 -0.005797 0.023768
#
#
# Mechanical properties :
#
#
# Convention : Reuss Voigt Hill
#
# Bulk Modulus (GPa) = 39.78465 61.48216 50.63340
# Shear Modulus (GPa) = 39.95898 48.65879 44.30889
#
# Velocity S-wave (km/s) = 3.83940 4.23679 4.04298
# Velocity P-wave (km/s) = 5.85929 6.82750 6.36184
#
# Compressibility (1/GPa) = 0.02513532
#
# Stress axis : x y z
#
# Youngs Moduli (GPa) = 149.45472 74.81177 80.81222
#
# Poissons Ratio (x) = 0.23657 0.06593
# Poissons Ratio (y) = 0.47260 -0.02663
# Poissons Ratio (z) = 0.12193 -0.02466
#
# Static dielectric constant tensor:
#      x y z
#    x 2.273450 0.069640 0.021000 
#    y 0.069640 2.399780 -0.168770 
#    z 0.021000 -0.168770 2.341370 
# 
# From -- ./inp_files/353321.got.cif
#   From: 2010.05.17/outbox.cif.g08.bks.cpg/sg2_177_cif.got.tgz:353321.got - 2010.06.03 11:33:40.
