data_PCOD9059740
_publ_section_title
;
Structure prediction by ZEFSAII (Michael W. Deem and Ramdas Pophale) SiO2 
 PCOD9059740
Probable space group: P -1
;
_chemical_formula_sum "Si O2"
_cell_formula_units_Z 16
_cell_length_a 19.996439
_cell_length_b 7.872771
_cell_length_c 17.380941
_cell_angle_alpha 133.766202
_cell_angle_beta 21.096900
_cell_angle_gamma 133.112363
_cell_volume 703.589775
_symmetry_space_group_name_H-M "P -1"
_symmetry_group_IT_number 2
_symmetry_cell_setting 'triclinic'
loop_
_space_group_symop_operation_xyz
x,y,z
-x,-y,-z
loop_
_atom_site_type_symbol
_atom_site_label
_atom_site_fract_x
_atom_site_fract_y
_atom_site_fract_z
Si Si1 0.451081 0.537060 0.652105
Si Si2 0.273101 0.302855 0.234938
Si Si3 0.198212 0.211151 0.579507
Si Si4 0.194670 0.846683 0.088595
Si Si5 0.922486 0.393365 0.710329
Si Si6 0.316661 0.758960 0.228850
Si Si7 0.287068 0.034586 0.720795
Si Si8 0.956929 0.076834 0.195908
O O1 0.500000 0.500000 0.500000
O O2 0.639607 0.570428 0.511159
O O3 0.305713 0.315410 0.768104
O O4 0.357242 0.774587 0.838393
O O5 0.296568 0.570855 0.261841
O O6 0.115536 0.280471 0.462182
O O7 0.208830 0.126088 0.177304
O O8 0.471972 0.238207 0.027068
O O9 0.006485 0.260782 0.762682
O O10 0.277251 0.011159 0.381000
O O11 0.140307 0.097333 0.689196
O O12 0.208005 0.732260 0.122276
O O13 0.826360 0.341693 0.715270
O O14 0.972520 0.669697 0.762178
O O15 0.500000 0.000000 0.500000
O O16 0.191643 0.902660 0.706679
O O17 0.138114 0.984832 0.934190
#
# Coordination Sequence:
#
# PCOD9059740 Si02
#       8
#     2   2   2   2   2   2   2   2
#     4  12  27  49  69 104 138 175 235 292 345 411
#     4  11  23  42  67  98 139 184 227 275 341 407
#     4  12  25  44  73 101 141 185 227 283 345 408
#     4  12  27  43  69 101 141 184 229 285 349 401
#     4  12  24  43  66 102 143 181 228 284 338 412
#     4  11  24  42  68 102 139 183 230 276 336 416
#     4  11  27  49  73 101 137 181 233 290 352 405
#     4  11  25  46  71 103 139 180 235 284 340 420
#
# _framework density 22.740525000000002
#
# number of rings (size 3 to 8) (size 9 to 14) (size 15 to 20)
#    0.000    0.500    6.250    1.500    3.500    3.000 
#    0.000    0.000    0.000    0.000    0.000    0.000 
#    0.000    0.000    0.000    0.000    0.000    0.000 
#
# Total GULP energy -89594.034733 kJ/mol
# GULP energy per Si atom -5599.627171 kJ/mol
# Density = 2.268877 g / cm^3
# Si number density = 22.740525 Si / 1000 Ang^3
#
#
#
# Elastic Constant Matrix: (Units=GPa)
#
#
# Indices 1 2 3 4 5 6 
#
# 1 63.2299 6.0076 33.2226 3.9069 -3.4114 21.2202
# 2 6.0076 60.0077 -8.3069 -9.1701 5.0907 20.8304
# 3 33.2226 -8.3069 117.7527 1.4370 2.1876 11.8120
# 4 3.9069 -9.1701 1.4370 27.7833 8.9772 -2.0534
# 5 -3.4114 5.0907 2.1876 8.9772 40.1536 -7.6351
# 6 21.2202 20.8304 11.8120 -2.0534 -7.6351 37.8866
#
#
#
# Elastic Compliance Matrix: (Units=1/GPa)
#
#
# Indices 1 2 3 4 5 6 
#
# 1 0.022570 0.000209 -0.005203 -0.003964 0.000939 -0.011160
# 2 0.000209 0.024847 0.003342 0.009561 -0.008497 -0.016014
# 3 -0.005203 0.003342 0.010473 0.001859 -0.002339 -0.002559
# 4 -0.003964 0.009561 0.001859 0.043219 -0.012015 -0.003695
# 5 0.000939 -0.008497 -0.002339 -0.012015 0.030861 0.010443
# 6 -0.011160 -0.016014 -0.002559 -0.003695 0.010443 0.044152
#
#
# Mechanical properties :
#
#
# Convention : Reuss Voigt Hill
#
# Bulk Modulus (GPa) = 18.31999 33.64855 25.98427
# Shear Modulus (GPa) = 25.30085 35.16916 30.23500
#
# Velocity S-wave (km/s) = 3.33917 3.93688 3.65028
# Velocity P-wave (km/s) = 4.78960 5.95770 5.40530
#
# Compressibility (1/GPa) = 0.05458518
#
# Stress axis : x y z
#
# Youngs Moduli (GPa) = 44.30669 40.24646 95.47950
#
# Poissons Ratio (x) = -0.00840 0.49676
# Poissons Ratio (y) = -0.00925 -0.31905
# Poissons Ratio (z) = 0.23052 -0.13448
#
# Static dielectric constant tensor:
#      x y z
#    x 1.804230 0.001080 -0.015960 
#    y 0.001080 1.844940 -0.007050 
#    z -0.015960 -0.007050 1.834430 
# 
# From -- ./inp_files/338185.got.cif
#   From: 2010.05.17/outbox.cif.g08.bks.cpg/sg2_170_cif.got.tgz:338185.got - 2010.06.03 11:33:40.
