data_PCOD9059471
_publ_section_title
;
Structure prediction by ZEFSAII (Michael W. Deem and Ramdas Pophale) SiO2 
 PCOD9059471
Probable space group: P -1
;
_chemical_formula_sum "Si O2"
_cell_formula_units_Z 14
_cell_length_a 9.325127
_cell_length_b 24.159496
_cell_length_c 9.400281
_cell_angle_alpha 154.079356
_cell_angle_beta 45.357663
_cell_angle_gamma 141.261650
_cell_volume 579.291851
_symmetry_space_group_name_H-M "P -1"
_symmetry_group_IT_number 2
_symmetry_cell_setting 'triclinic'
loop_
_space_group_symop_operation_xyz
x,y,z
-x,-y,-z
loop_
_atom_site_type_symbol
_atom_site_label
_atom_site_fract_x
_atom_site_fract_y
_atom_site_fract_z
Si Si1 0.613953 0.179148 0.695508
Si Si2 0.909744 0.961412 0.315020
Si Si3 0.388075 0.550067 0.816960
Si Si4 0.236232 0.403073 0.116575
Si Si5 0.273318 0.204874 0.422505
Si Si6 0.719314 0.278540 0.176328
Si Si7 0.944157 0.766048 0.629741
O O1 0.350214 0.068030 0.591199
O O2 0.804111 0.151015 0.421213
O O3 0.655766 0.327743 0.936948
O O4 0.665100 0.207468 0.893253
O O5 0.920196 0.819923 0.925327
O O6 0.000000 0.000000 0.500000
O O7 0.080620 0.083071 0.369930
O O8 0.500000 0.500000 0.500000
O O9 0.579980 0.612068 0.948483
O O10 0.165134 0.406395 0.691489
O O11 0.270479 0.564094 0.477796
O O12 0.967508 0.304416 0.111243
O O13 0.276808 0.350919 0.814389
O O14 0.512404 0.201763 0.253878
O O15 0.210240 0.195847 0.280314
#
# Coordination Sequence:
#
# PCOD9059471 Si02
#       7
#     2   2   2   2   2   2   2
#     4  12  25  47  71 105 141 188 233 289 358 415
#     4  12  28  49  69  99 146 187 235 293 354 419
#     4  12  22  45  72 102 152 182 220 298 354 411
#     4  11  23  41  69 105 143 176 235 283 348 416
#     4  12  24  44  74 102 139 188 237 290 342 420
#     4  11  23  42  72 106 140 182 233 289 350 413
#     4  12  26  46  73 105 137 189 240 285 355 416
#
# _framework density 24.167439999999999
#
# number of rings (size 3 to 8) (size 9 to 14) (size 15 to 20)
#    0.000    0.286    7.143    2.143    0.000    2.286 
#    5.143    0.000    0.000    0.000    0.000    0.000 
#    0.000    0.000    0.000    0.000    0.000    0.000 
#
# Total GULP energy -78437.748527 kJ/mol
# GULP energy per Si atom -5602.696323 kJ/mol
# Density = 2.411243 g / cm^3
# Si number density = 24.167440 Si / 1000 Ang^3
#
#
#
# Elastic Constant Matrix: (Units=GPa)
#
#
# Indices 1 2 3 4 5 6 
#
# 1 77.3010 44.9989 46.4369 0.7663 18.1526 13.1766
# 2 44.9989 169.0182 26.6443 0.4398 10.0547 36.3632
# 3 46.4369 26.6443 89.9494 -14.8617 19.4320 10.7580
# 4 0.7663 0.4398 -14.8617 45.7000 -0.1750 -12.0773
# 5 18.1526 10.0547 19.4320 -0.1750 41.8498 -1.2387
# 6 13.1766 36.3632 10.7580 -12.0773 -1.2387 53.4011
#
#
#
# Elastic Compliance Matrix: (Units=1/GPa)
#
#
# Indices 1 2 3 4 5 6 
#
# 1 0.022531 -0.003706 -0.010049 -0.004169 -0.004294 -0.002054
# 2 -0.003706 0.007967 0.000017 -0.001283 -0.000462 -0.004815
# 3 -0.010049 0.000017 0.018171 0.006086 -0.004054 0.000090
# 4 -0.004169 -0.001283 0.006086 0.025651 -0.000410 0.006468
# 5 -0.004294 -0.000462 -0.004054 -0.000410 0.027831 0.002744
# 6 -0.002054 -0.004815 0.000090 0.006468 0.002744 0.024020
#
#
# Mechanical properties :
#
#
# Convention : Reuss Voigt Hill
#
# Bulk Modulus (GPa) = 47.18703 63.60320 55.39512
# Shear Modulus (GPa) = 31.11154 42.73609 36.92382
#
# Velocity S-wave (km/s) = 3.59183 4.20972 3.91299
# Velocity P-wave (km/s) = 6.06376 7.07134 6.58684
#
# Compressibility (1/GPa) = 0.02119226
#
# Stress axis : x y z
#
# Youngs Moduli (GPa) = 44.38397 125.51202 55.03291
#
# Poissons Ratio (x) = 0.46516 0.55304
# Poissons Ratio (y) = 0.16449 -0.00094
# Poissons Ratio (z) = 0.44603 -0.00214
#
# Static dielectric constant tensor:
#      x y z
#    x 2.225340 0.102440 -0.058270 
#    y 0.102440 1.962610 0.071700 
#    z -0.058270 0.071700 1.992210 
# 
# From -- ./inp_files/185509.got.cif
#   From: 2010.05.17/outbox.cif.g08.bks.cpg/sg2_93_cif.got.tgz:185509.got - 2010.06.03 11:33:40.
