data_PCOD9059523
_publ_section_title
;
Structure prediction by ZEFSAII (Michael W. Deem and Ramdas Pophale) SiO2 
 PCOD9059523
Probable space group: P -1
;
_chemical_formula_sum "Si O2"
_cell_formula_units_Z 16
_cell_length_a 6.464952
_cell_length_b 11.169851
_cell_length_c 10.331087
_cell_angle_alpha 71.331712
_cell_angle_beta 87.753105
_cell_angle_gamma 79.515155
_cell_volume 694.837159
_symmetry_space_group_name_H-M "P -1"
_symmetry_group_IT_number 2
_symmetry_cell_setting 'triclinic'
loop_
_space_group_symop_operation_xyz
x,y,z
-x,-y,-z
loop_
_atom_site_type_symbol
_atom_site_label
_atom_site_fract_x
_atom_site_fract_y
_atom_site_fract_z
Si Si1 0.262500 0.368921 0.543674
Si Si2 0.800615 0.088343 0.408873
Si Si3 0.527623 0.895451 0.807553
Si Si4 0.834751 0.364304 0.677359
Si Si5 0.406877 0.677975 0.041384
Si Si6 0.635862 0.154458 0.660377
Si Si7 0.817611 0.472828 0.107077
Si Si8 0.109166 0.278025 0.312476
O O1 0.291644 0.507686 0.437021
O O2 0.450513 0.275578 0.641575
O O3 0.204854 0.290431 0.446278
O O4 0.069970 0.385150 0.640943
O O5 0.668612 0.056473 0.301054
O O6 0.642214 0.118777 0.521565
O O7 0.918715 0.201762 0.328392
O O8 0.000000 0.000000 0.500000
O O9 0.703324 0.789204 0.764624
O O10 0.623415 0.024682 0.782925
O O11 0.445085 0.820590 0.955133
O O12 0.744920 0.345215 0.828748
O O13 0.830367 0.225447 0.659147
O O14 0.634827 0.593013 0.095347
O O15 0.308910 0.624113 0.933153
O O16 0.970242 0.416028 0.238508
O O17 0.000000 0.500000 0.000000
#
# Coordination Sequence:
#
# PCOD9059523 Si02
#       8
#     2   2   2   2   2   2   2   2
#     4  11  25  46  68  99 133 175 234 282 333 395
#     4  12  23  40  69 104 135 170 222 284 341 391
#     4  12  25  43  69 106 140 171 225 285 335 405
#     4  11  27  45  66  94 139 184 226 275 331 405
#     4  11  26  44  65 103 138 178 227 271 336 409
#     4  12  25  42  69  98 138 181 224 276 338 401
#     4  11  23  41  70  99 134 174 221 282 340 392
#     4  12  22  40  71 104 131 169 221 289 344 383
#
# _framework density 23.026976999999999
#
# number of rings (size 3 to 8) (size 9 to 14) (size 15 to 20)
#    0.000    0.500    6.250    2.250    3.500    3.500 
#    0.000    0.625    0.000    0.000    0.000    0.000 
#    0.000    0.000    0.000    0.000    0.000    0.000 
#
# Total GULP energy -89243.029934 kJ/mol
# GULP energy per Si atom -5577.689371 kJ/mol
# Density = 2.297457 g / cm^3
# Si number density = 23.026977 Si / 1000 Ang^3
#
#
#
# Elastic Constant Matrix: (Units=GPa)
#
#
# Indices 1 2 3 4 5 6 
#
# 1 76.9583 37.7365 53.7650 -19.6150 -8.2890 -11.4782
# 2 37.7365 86.4637 40.9551 -15.0985 -3.9894 -2.9622
# 3 53.7650 40.9551 110.5286 -14.1932 -17.6182 -16.9945
# 4 -19.6150 -15.0985 -14.1932 26.0262 -0.5970 1.1261
# 5 -8.2890 -3.9894 -17.6182 -0.5970 41.1514 -5.8896
# 6 -11.4782 -2.9622 -16.9945 1.1261 -5.8896 41.3866
#
#
#
# Elastic Compliance Matrix: (Units=1/GPa)
#
#
# Indices 1 2 3 4 5 6 
#
# 1 0.024329 -0.004741 -0.007901 0.011181 0.001664 0.003096
# 2 -0.004741 0.015859 -0.003571 0.003736 -0.001166 -0.001913
# 3 -0.007901 -0.003571 0.015928 0.000577 0.005587 0.004873
# 4 0.011181 0.003736 0.000577 0.049301 0.003982 0.002831
# 5 0.001664 -0.001166 0.005587 0.003982 0.027908 0.006535
# 6 0.003096 -0.001913 0.004873 0.002831 0.006535 0.027738
#
#
# Mechanical properties :
#
#
# Convention : Reuss Voigt Hill
#
# Bulk Modulus (GPa) = 42.20869 59.87373 51.04121
# Shear Modulus (GPa) = 24.82810 31.14579 27.98694
#
# Velocity S-wave (km/s) = 3.28719 3.68173 3.49004
# Velocity P-wave (km/s) = 5.72515 6.64316 6.20116
#
# Compressibility (1/GPa) = 0.02369180
#
# Stress axis : x y z
#
# Youngs Moduli (GPa) = 41.10267 63.05611 62.78331
#
# Poissons Ratio (x) = 0.29892 0.49605
# Poissons Ratio (y) = 0.19485 0.22417
# Poissons Ratio (z) = 0.32475 0.22515
#
# Static dielectric constant tensor:
#      x y z
#    x 1.875360 -0.004920 0.019360 
#    y -0.004920 1.925750 -0.005290 
#    z 0.019360 -0.005290 1.810190 
# 
# From -- ./inp_files/69385.got.cif
#   From: 2010.05.17/outbox.cif.g08.bks.cpg/sg2_35_cif.got.tgz:69385.got - 2010.06.03 11:33:40.
