data_PCOD9059886
_publ_section_title
;
Structure prediction by ZEFSAII (Michael W. Deem and Ramdas Pophale) SiO2 
 PCOD9059886
Probable space group: P -1
;
_chemical_formula_sum "Si O2"
_cell_formula_units_Z 15
_cell_length_a 9.731349
_cell_length_b 15.320283
_cell_length_c 11.545645
_cell_angle_alpha 30.202214
_cell_angle_beta 136.751904
_cell_angle_gamma 140.707828
_cell_volume 538.701511
_symmetry_space_group_name_H-M "P -1"
_symmetry_group_IT_number 2
_symmetry_cell_setting 'triclinic'
loop_
_space_group_symop_operation_xyz
x,y,z
-x,-y,-z
loop_
_atom_site_type_symbol
_atom_site_label
_atom_site_fract_x
_atom_site_fract_y
_atom_site_fract_z
Si Si1 0.322152 0.650346 0.833308
Si Si2 0.785236 0.820213 0.844544
Si Si3 0.196541 0.893235 0.640488
Si Si4 0.000000 0.000000 0.000000
Si Si5 0.325521 0.229538 0.775774
Si Si6 0.567336 0.100661 0.805082
Si Si7 0.968437 0.454694 0.667426
Si Si8 0.731433 0.574179 0.720032
O O1 0.522266 0.713404 0.794151
O O2 0.343968 0.832122 0.714556
O O3 0.089729 0.590983 0.692329
O O4 0.341365 0.492459 0.113952
O O5 0.887521 0.968429 0.635139
O O6 0.838191 0.936352 0.863000
O O7 0.904091 0.681713 0.079554
O O8 0.992750 0.692556 0.770832
O O9 0.349777 0.026516 0.681105
O O10 0.849346 0.775157 0.228872
O O11 0.578849 0.367526 0.805017
O O12 0.295493 0.292286 0.555118
O O13 0.284173 0.005607 0.032581
O O14 0.707291 0.321511 0.662712
O O15 0.500000 0.000000 0.000000
O O16 0.000000 0.500000 0.500000
#
# Coordination Sequence:
#
# PCOD9059886 Si02
#       8
#     2   2   2   1   2   2   2   2
#     4  12  26  45  73 107 144 191 243 308 358 432
#     4  12  26  46  73 102 145 192 242 298 366 436
#     4  12  25  46  74 105 142 191 252 290 364 441
#     4  12  20  46  72 104 134 188 242 298 344 436
#     4  11  24  43  71 107 143 187 245 289 368 427
#     4  12  26  47  69 104 146 191 234 302 366 438
#     4  12  29  48  70 106 148 187 245 303 372 427
#     4  11  23  42  70 107 139 182 243 300 352 423
#
# _framework density 27.844733000000002
#
# number of rings (size 3 to 8) (size 9 to 14) (size 15 to 20)
#    0.000    0.267    5.333    2.800    3.733    2.133 
#    0.000    2.667    0.000    0.000    0.000    0.000 
#    0.000    0.000    0.000    0.000    0.000    0.000 
#
# Total GULP energy -83574.725859 kJ/mol
# GULP energy per Si atom -5571.648391 kJ/mol
# Density = 2.778136 g / cm^3
# Si number density = 27.844733 Si / 1000 Ang^3
#
#
#
# Elastic Constant Matrix: (Units=GPa)
#
#
# Indices 1 2 3 4 5 6 
#
# 1 37.9183 26.7159 0.5544 2.0293 -15.7311 4.2158
# 2 26.7159 215.8403 38.4861 29.4054 -30.2083 13.8674
# 3 0.5544 38.4861 150.0824 20.4529 -31.3213 -3.5353
# 4 2.0293 29.4054 20.4529 48.9416 -1.4020 -19.3147
# 5 -15.7311 -30.2083 -31.3213 -1.4020 39.0018 2.6374
# 6 4.2158 13.8674 -3.5353 -19.3147 2.6374 47.0687
#
#
#
# Elastic Compliance Matrix: (Units=1/GPa)
#
#
# Indices 1 2 3 4 5 6 
#
# 1 0.035090 -0.002121 0.004074 -0.003164 0.015966 -0.004405
# 2 -0.002121 0.006480 -0.000180 -0.005235 0.004109 -0.004111
# 3 0.004074 -0.000180 0.009071 -0.004354 0.008761 -0.001908
# 4 -0.003164 -0.005235 -0.004354 0.031099 -0.008707 0.014748
# 5 0.015966 0.004109 0.008761 -0.008707 0.042522 -0.007938
# 6 -0.004405 -0.004111 -0.001908 0.014748 -0.007938 0.029205
#
#
# Mechanical properties :
#
#
# Convention : Reuss Voigt Hill
#
# Bulk Modulus (GPa) = 18.45460 59.48376 38.96918
# Shear Modulus (GPa) = 29.76485 49.54140 39.65312
#
# Velocity S-wave (km/s) = 3.27304 4.22263 3.77779
# Velocity P-wave (km/s) = 4.57447 6.72185 5.74930
#
# Compressibility (1/GPa) = 0.05418702
#
# Stress axis : x y z
#
# Youngs Moduli (GPa) = 28.49790 154.31941 110.24432
#
# Poissons Ratio (x) = 0.32732 -0.44911
# Poissons Ratio (y) = 0.06045 0.01982
# Poissons Ratio (z) = -0.11609 0.02774
#
# Static dielectric constant tensor:
#      x y z
#    x 1.755340 0.090990 -0.091090 
#    y 0.090990 2.159510 -0.053730 
#    z -0.091090 -0.053730 2.195390 
# 
# From -- ./inp_files/437211.got.cif
#   From: 2010.05.17/outbox.cif.g08.bks.cpg/sg2_219_cif.got.tgz:437211.got - 2010.06.03 11:33:40.
