data_PCOD9059216
_publ_section_title
;
Structure prediction by ZEFSAII (Michael W. Deem and Ramdas Pophale) SiO2 
 PCOD9059216
Probable space group: P -1
;
_chemical_formula_sum "Si O2"
_cell_formula_units_Z 16
_cell_length_a 9.155487
_cell_length_b 11.689107
_cell_length_c 14.912456
_cell_angle_alpha 52.962978
_cell_angle_beta 141.441573
_cell_angle_gamma 108.337563
_cell_volume 753.817376
_symmetry_space_group_name_H-M "P -1"
_symmetry_group_IT_number 2
_symmetry_cell_setting 'triclinic'
loop_
_space_group_symop_operation_xyz
x,y,z
-x,-y,-z
loop_
_atom_site_type_symbol
_atom_site_label
_atom_site_fract_x
_atom_site_fract_y
_atom_site_fract_z
Si Si1 0.915583 0.049134 0.538432
Si Si2 0.379070 0.876915 0.226608
Si Si3 0.474516 0.681808 0.676738
Si Si4 0.209989 0.241103 0.363093
Si Si5 0.653888 0.865486 0.196248
Si Si6 0.097482 0.232318 0.924145
Si Si7 0.029027 0.625480 0.387531
Si Si8 0.716080 0.513882 0.029221
O O1 0.674730 0.188374 0.385082
O O2 0.138673 0.092033 0.668554
O O3 0.877864 0.901978 0.632986
O O4 0.000000 0.000000 0.500000
O O5 0.574097 0.815883 0.430216
O O6 0.503916 0.809519 0.224819
O O7 0.141943 0.820402 0.147594
O O8 0.299249 0.062021 0.091585
O O9 0.675265 0.716358 0.692598
O O10 0.268784 0.663020 0.518392
O O11 0.596711 0.532627 0.864144
O O12 0.969797 0.373962 0.220522
O O13 0.782405 0.752688 0.235206
O O14 0.500000 0.000000 0.000000
O O15 0.210699 0.331800 0.996249
O O16 0.995076 0.361037 0.736516
O O17 0.000000 0.500000 0.500000
O O18 0.500000 0.500000 0.000000
#
# Coordination Sequence:
#
# PCOD9059216 Si02
#       8
#     2   2   2   2   2   2   2   2
#     4  11  23  40  71  99 135 179 229 285 342 409
#     4  11  24  44  73  98 141 176 239 285 348 407
#     4  11  25  46  64 100 139 178 234 280 346 420
#     4  12  25  44  71 100 138 187 229 290 350 415
#     4  11  24  40  66 102 135 176 236 280 337 416
#     4  11  25  46  70 103 139 185 224 291 352 411
#     4  11  24  42  68  98 140 178 224 283 350 411
#     4  12  28  44  70 102 142 182 237 286 354 415
#
# _framework density 21.225301000000002
#
# number of rings (size 3 to 8) (size 9 to 14) (size 15 to 20)
#    0.000    0.750    3.750    3.000    5.250    3.500 
#    0.000    0.000    0.000    0.000    0.000    0.000 
#    0.000    0.000    0.000    0.000    0.000    0.000 
#
# Total GULP energy -89142.448982 kJ/mol
# GULP energy per Si atom -5571.403061 kJ/mol
# Density = 2.117699 g / cm^3
# Si number density = 21.225301 Si / 1000 Ang^3
#
#
#
# Elastic Constant Matrix: (Units=GPa)
#
#
# Indices 1 2 3 4 5 6 
#
# 1 103.5506 -3.1158 36.3811 17.5783 2.6769 25.4780
# 2 -3.1158 22.4888 -0.5890 -30.7599 19.4054 1.7074
# 3 36.3811 -0.5890 121.3027 -12.2626 5.2481 4.7631
# 4 17.5783 -30.7599 -12.2626 -25.2011 -1.1693 -30.6953
# 5 2.6769 19.4054 5.2481 -1.1693 40.8728 1.4909
# 6 25.4780 1.7074 4.7631 -30.6953 1.4909 14.8880
#
#
#
# Elastic Compliance Matrix: (Units=1/GPa)
#
#
# Indices 1 2 3 4 5 6 
#
# 1 0.013385 0.016849 -0.002570 0.005318 -0.007947 -0.012256
# 2 0.016849 0.066472 -0.002271 -0.007714 -0.030821 -0.048549
# 3 -0.002570 -0.002271 0.008896 -0.001580 0.000112 -0.001457
# 4 0.005318 -0.007714 -0.001580 -0.004583 0.004026 -0.017562
# 5 -0.007947 -0.030821 0.000112 0.004026 0.038936 0.021501
# 6 -0.012256 -0.048549 -0.001457 -0.017562 0.021501 0.055814
#
#
# Mechanical properties :
#
#
# Convention : Reuss Voigt Hill
#
# Bulk Modulus (GPa) = 8.86758 34.74387 21.80573
# Shear Modulus (GPa) = 25.97484 20.42298 23.19891
#
# Velocity S-wave (km/s) = 3.50203 3.10530 3.30962
# Velocity P-wave (km/s) = 4.53202 5.40942 4.99004
#
# Compressibility (1/GPa) = 0.11277033
#
# Stress axis : x y z
#
# Youngs Moduli (GPa) = 74.70919 15.04395 112.40726
#
# Poissons Ratio (x) = -0.25348 0.28889
# Poissons Ratio (y) = -1.25879 0.25524
# Poissons Ratio (z) = 0.19200 0.03416
#
# Static dielectric constant tensor:
#      x y z
#    x 1.767700 -0.025310 0.015820 
#    y -0.025310 1.747920 -0.029770 
#    z 0.015820 -0.029770 1.779080 
# 
# From -- ./inp_files/205188.got.cif
#   From: 2010.05.17/outbox.cif.g08.bks.cpg/sg2_103_cif.got.tgz:205188.got - 2010.06.03 11:33:40.
