data_PCOD9059525
_publ_section_title
;
Structure prediction by ZEFSAII (Michael W. Deem and Ramdas Pophale) SiO2 
 PCOD9059525
Probable space group: P -1
;
_chemical_formula_sum "Si O2"
_cell_formula_units_Z 14
_cell_length_a 8.167111
_cell_length_b 8.660755
_cell_length_c 21.175881
_cell_angle_alpha 52.827995
_cell_angle_beta 148.760927
_cell_angle_gamma 122.837406
_cell_volume 617.776744
_symmetry_space_group_name_H-M "P -1"
_symmetry_group_IT_number 2
_symmetry_cell_setting 'triclinic'
loop_
_space_group_symop_operation_xyz
x,y,z
-x,-y,-z
loop_
_atom_site_type_symbol
_atom_site_label
_atom_site_fract_x
_atom_site_fract_y
_atom_site_fract_z
Si Si1 0.873579 0.564471 0.286538
Si Si2 0.341187 0.022342 0.849065
Si Si3 0.792363 0.134026 0.354789
Si Si4 0.227355 0.148157 0.367935
Si Si5 0.295255 0.338682 0.930206
Si Si6 0.697206 0.496591 0.447033
Si Si7 0.353786 0.869770 0.209434
O O1 0.693234 0.755871 0.196324
O O2 0.751230 0.345906 0.317984
O O3 0.855654 0.566117 0.204567
O O4 0.198208 0.576509 0.431132
O O5 0.523863 0.051247 0.836229
O O6 0.993951 0.930098 0.742047
O O7 0.506665 0.844888 0.980659
O O8 0.007226 0.151662 0.357131
O O9 0.441447 0.043287 0.244355
O O10 0.000000 0.000000 0.500000
O O11 0.410043 0.353050 0.365074
O O12 0.500000 0.000000 0.500000
O O13 0.990843 0.231243 0.889107
O O14 0.500000 0.500000 0.000000
O O15 0.575095 0.708974 0.350102
O O16 0.000000 0.500000 0.500000
#
# Coordination Sequence:
#
# PCOD9059525 Si02
#       7
#     2   2   2   2   2   2   2
#     4  12  25  44  69 104 142 177 236 285 352 414
#     4  11  24  47  69 101 141 188 232 282 350 422
#     4  11  24  40  66 108 142 171 230 291 355 416
#     4  11  23  41  70  99 139 184 227 289 358 410
#     4  12  27  49  70  97 142 192 240 285 338 419
#     4  12  22  42  71 106 142 178 227 295 359 413
#     4  11  23  44  73  97 138 187 228 291 353 411
#
# _framework density 22.661909000000001
#
# number of rings (size 3 to 8) (size 9 to 14) (size 15 to 20)
#    0.000    0.571    4.286    5.143    2.000    1.143 
#    0.000    2.857    0.000    0.000    0.000    0.000 
#    0.000    0.000    0.000    0.000    0.000    0.000 
#
# Total GULP energy -78120.627414 kJ/mol
# GULP energy per Si atom -5580.044815 kJ/mol
# Density = 2.261033 g / cm^3
# Si number density = 22.661909 Si / 1000 Ang^3
#
#
#
# Elastic Constant Matrix: (Units=GPa)
#
#
# Indices 1 2 3 4 5 6 
#
# 1 39.8683 27.9028 33.1730 11.2067 1.3693 1.7788
# 2 27.9028 172.5000 40.3807 6.8639 9.0288 -10.5876
# 3 33.1730 40.3807 108.4776 -16.1055 2.3581 0.5540
# 4 11.2067 6.8639 -16.1055 55.8835 4.2471 14.0427
# 5 1.3693 9.0288 2.3581 4.2471 34.3176 -3.5070
# 6 1.7788 -10.5876 0.5540 14.0427 -3.5070 36.8299
#
#
#
# Elastic Compliance Matrix: (Units=1/GPa)
#
#
# Indices 1 2 3 4 5 6 
#
# 1 0.041961 -0.003046 -0.013636 -0.012696 0.001873 0.002322
# 2 -0.003046 0.006999 -0.001862 -0.001348 -0.001160 0.002591
# 3 -0.013636 -0.001862 0.015371 0.008362 -0.001408 -0.003430
# 4 -0.012696 -0.001348 0.008362 0.025864 -0.003950 -0.010138
# 5 0.001873 -0.001160 -0.001408 -0.003950 0.030364 0.003995
# 6 0.002322 0.002591 -0.003430 -0.010138 0.003995 0.032082
#
#
# Mechanical properties :
#
#
# Convention : Reuss Voigt Hill
#
# Bulk Modulus (GPa) = 36.70536 58.19544 47.45040
# Shear Modulus (GPa) = 25.14979 40.03215 32.59097
#
# Velocity S-wave (km/s) = 3.33495 4.20753 3.79639
# Velocity P-wave (km/s) = 5.57327 7.02424 6.34040
#
# Compressibility (1/GPa) = 0.02724398
#
# Stress axis : x y z
#
# Youngs Moduli (GPa) = 23.83177 142.87568 65.05690
#
# Poissons Ratio (x) = 0.43516 0.88709
# Poissons Ratio (y) = 0.07258 0.12115
# Poissons Ratio (z) = 0.32496 0.26607
#
# Static dielectric constant tensor:
#      x y z
#    x 1.886130 -0.017440 -0.034470 
#    y -0.017440 1.928760 0.028860 
#    z -0.034470 0.028860 1.889390 
# 
# From -- ./inp_files/180816.got.cif
#   From: 2010.05.17/outbox.cif.g08.bks.cpg/sg2_91_cif.got.tgz:180816.got - 2010.06.03 11:33:40.
