data_PCOD9059250
_publ_section_title
;
Structure prediction by ZEFSAII (Michael W. Deem and Ramdas Pophale) SiO2 
 PCOD9059250
Probable space group: P -1
;
_chemical_formula_sum "Si O2"
_cell_formula_units_Z 16
_cell_length_a 7.137093
_cell_length_b 13.504365
_cell_length_c 11.907033
_cell_angle_alpha 125.397327
_cell_angle_beta 87.048266
_cell_angle_gamma 125.304592
_cell_volume 690.776476
_symmetry_space_group_name_H-M "P -1"
_symmetry_group_IT_number 2
_symmetry_cell_setting 'triclinic'
loop_
_space_group_symop_operation_xyz
x,y,z
-x,-y,-z
loop_
_atom_site_type_symbol
_atom_site_label
_atom_site_fract_x
_atom_site_fract_y
_atom_site_fract_z
Si Si1 0.648808 0.688453 0.600911
Si Si2 0.253921 0.059537 0.678415
Si Si3 0.216880 0.841258 0.223625
Si Si4 0.885652 0.991612 0.117106
Si Si5 0.658874 0.161671 0.024619
Si Si6 0.581230 0.811921 0.469450
Si Si7 0.051688 0.709433 0.372337
Si Si8 0.185771 0.578615 0.653291
O O1 0.500000 0.500000 0.500000
O O2 0.619460 0.721933 0.496903
O O3 0.474151 0.710458 0.686593
O O4 0.930179 0.813723 0.727749
O O5 0.126613 0.874978 0.525832
O O6 0.537893 0.138228 0.749080
O O7 0.119733 0.064813 0.792007
O O8 0.279755 0.152412 0.628783
O O9 0.019533 0.708833 0.238137
O O10 0.302948 0.013061 0.369773
O O11 0.191419 0.823980 0.078473
O O12 0.584757 0.867858 0.027544
O O13 0.000000 0.000000 0.000000
O O14 0.847612 0.320769 0.199699
O O15 0.500000 0.000000 0.000000
O O16 0.291836 0.724002 0.396895
O O17 0.845884 0.554167 0.354720
O O18 0.000000 0.500000 0.500000
#
# Coordination Sequence:
#
# PCOD9059250 Si02
#       8
#     2   2   2   2   2   2   2   2
#     4  12  25  38  60  88 126 163 199 249 301 354
#     4   8  17  34  63  88 116 156 200 249 299 358
#     4   8  17  34  61  93 117 148 202 253 302 351
#     4  11  23  41  57  87 125 160 200 247 300 359
#     4  11  24  39  64  89 117 162 206 248 304 364
#     4   9  17  36  60  93 119 153 201 248 300 356
#     4   9  17  34  61  91 123 147 198 263 294 348
#     4  12  24  38  60  89 120 161 204 250 299 358
#
# _framework density 23.162341999999999
#
# number of rings (size 3 to 8) (size 9 to 14) (size 15 to 20)
#    0.000    2.000    2.500    3.000    5.250    1.000 
#    0.000    0.000    0.000    0.750    0.000    0.000 
#    0.000    0.000    0.000    0.000    0.000    0.000 
#
# Total GULP energy -89151.229054 kJ/mol
# GULP energy per Si atom -5571.951816 kJ/mol
# Density = 2.310962 g / cm^3
# Si number density = 23.162342 Si / 1000 Ang^3
#
#
#
# Elastic Constant Matrix: (Units=GPa)
#
#
# Indices 1 2 3 4 5 6 
#
# 1 60.4563 12.7407 9.7436 -15.2941 0.2545 6.6401
# 2 12.7407 179.7921 67.9106 -51.4256 -19.5881 -11.5691
# 3 9.7436 67.9106 134.2477 -36.1795 -12.9635 -2.5869
# 4 -15.2941 -51.4256 -36.1795 50.6582 17.4124 -6.7864
# 5 0.2545 -19.5881 -12.9635 17.4124 25.4737 -4.0674
# 6 6.6401 -11.5691 -2.5869 -6.7864 -4.0674 39.6924
#
#
#
# Elastic Compliance Matrix: (Units=1/GPa)
#
#
# Indices 1 2 3 4 5 6 
#
# 1 0.018653 -0.000037 0.000017 0.007166 -0.005498 -0.002468
# 2 -0.000037 0.008982 -0.002312 0.007573 0.001175 0.003889
# 3 0.000017 -0.002312 0.009945 0.004832 0.000110 0.000809
# 4 0.007166 0.007573 0.004832 0.040154 -0.018227 0.006321
# 5 -0.005498 0.001175 0.000110 -0.018227 0.053307 0.003616
# 6 -0.002468 0.003889 0.000809 0.006321 0.003616 0.028244
#
#
# Mechanical properties :
#
#
# Convention : Reuss Voigt Hill
#
# Bulk Modulus (GPa) = 30.37780 61.69845 46.03812
# Shear Modulus (GPa) = 28.58441 42.10494 35.34468
#
# Velocity S-wave (km/s) = 3.51677 4.26821 3.91058
# Velocity P-wave (km/s) = 5.44370 7.14041 6.34899
#
# Compressibility (1/GPa) = 0.03291877
#
# Stress axis : x y z
#
# Youngs Moduli (GPa) = 53.61123 111.33197 100.54824
#
# Poissons Ratio (x) = 0.00407 -0.00175
# Poissons Ratio (y) = 0.00196 0.23244
# Poissons Ratio (z) = -0.00093 0.25736
#
# Static dielectric constant tensor:
#      x y z
#    x 1.935230 -0.000680 -0.018520 
#    y -0.000680 1.925580 -0.073480 
#    z -0.018520 -0.073480 1.903340 
# 
# From -- ./inp_files/396228.got.cif
#   From: 2010.05.17/outbox.cif.g08.bks.cpg/sg2_199_cif.got.tgz:396228.got - 2010.06.03 11:33:40.
