data_PCOD9059551
_publ_section_title
;
Structure prediction by ZEFSAII (Michael W. Deem and Ramdas Pophale) SiO2 
 PCOD9059551
Probable space group: P -1
;
_chemical_formula_sum "Si O2"
_cell_formula_units_Z 14
_cell_length_a 14.961613
_cell_length_b 10.868190
_cell_length_c 8.047952
_cell_angle_alpha 56.828336
_cell_angle_beta 67.484863
_cell_angle_gamma 32.970982
_cell_volume 587.743425
_symmetry_space_group_name_H-M "P -1"
_symmetry_group_IT_number 2
_symmetry_cell_setting 'triclinic'
loop_
_space_group_symop_operation_xyz
x,y,z
-x,-y,-z
loop_
_atom_site_type_symbol
_atom_site_label
_atom_site_fract_x
_atom_site_fract_y
_atom_site_fract_z
Si Si1 0.289076 0.650165 0.205712
Si Si2 0.934024 0.851175 0.181127
Si Si3 0.638061 0.268624 0.321946
Si Si4 0.820106 0.288103 0.390890
Si Si5 0.406959 0.991987 0.342141
Si Si6 0.112636 0.489638 0.001962
Si Si7 0.723968 0.640317 0.560042
O O1 0.457665 0.533832 0.182048
O O2 0.254258 0.645085 0.422860
O O3 0.333045 0.439683 0.244001
O O4 0.127989 0.923755 0.038749
O O5 0.078216 0.639673 0.374116
O O6 0.763452 0.046600 0.260244
O O7 0.010576 0.664131 0.112098
O O8 0.719937 0.308289 0.319536
O O9 0.608910 0.164596 0.539836
O O10 0.853146 0.409727 0.208177
O O11 0.000000 0.000000 0.500000
O O12 0.318273 0.167009 0.441930
O O13 0.598813 0.804046 0.371232
O O14 0.295302 0.200532 0.126282
O O15 0.000000 0.500000 0.000000
#
# Coordination Sequence:
#
# PCOD9059551 Si02
#       7
#     2   2   2   2   2   2   2
#     4  11  23  42  67 107 142 182 233 289 342 417
#     4  11  23  41  72 102 138 184 233 292 343 410
#     4  11  25  42  69 100 144 184 236 283 344 416
#     4  12  24  43  71 100 138 190 226 286 352 415
#     4   9  21  42  65  98 140 179 226 294 341 409
#     4  11  25  44  72 106 142 178 235 290 357 421
#     4   9  20  39  67  93 135 178 232 279 344 397
#
# _framework density 23.819917
#
# number of rings (size 3 to 8) (size 9 to 14) (size 15 to 20)
#    0.000    1.429    1.429    3.000    4.000    3.429 
#    2.571    2.857    0.000    0.000    0.000    0.000 
#    0.000    0.000    0.000    0.000    0.000    0.000 
#
# Total GULP energy -77987.404480 kJ/mol
# GULP energy per Si atom -5570.528891 kJ/mol
# Density = 2.376570 g / cm^3
# Si number density = 23.819917 Si / 1000 Ang^3
#
#
#
# Elastic Constant Matrix: (Units=GPa)
#
#
# Indices 1 2 3 4 5 6 
#
# 1 160.1592 50.4882 66.9785 -17.6352 -4.9174 -22.8462
# 2 50.4882 147.7089 60.8136 -27.4257 19.2706 -24.9440
# 3 66.9785 60.8136 145.2391 -26.5056 -1.7713 -12.5709
# 4 -17.6352 -27.4257 -26.5056 56.2373 -5.1820 9.2320
# 5 -4.9174 19.2706 -1.7713 -5.1820 25.6698 -15.3629
# 6 -22.8462 -24.9440 -12.5709 9.2320 -15.3629 32.7025
#
#
#
# Elastic Compliance Matrix: (Units=1/GPa)
#
#
# Indices 1 2 3 4 5 6 
#
# 1 0.009262 -0.001668 -0.002791 0.000220 0.007387 0.007534
# 2 -0.001668 0.010133 -0.003030 0.002101 -0.006726 0.001647
# 3 -0.002791 -0.003030 0.009979 0.002587 0.003143 0.000321
# 4 0.000220 0.002101 0.002587 0.020619 0.001347 -0.002438
# 5 0.007387 -0.006726 0.003143 0.001347 0.064580 0.031197
# 6 0.007534 0.001647 0.000321 -0.002438 0.031197 0.052565
#
#
# Mechanical properties :
#
#
# Convention : Reuss Voigt Hill
#
# Bulk Modulus (GPa) = 69.45460 89.96308 79.70884
# Shear Modulus (GPa) = 26.75005 41.24372 33.99688
#
# Velocity S-wave (km/s) = 3.35477 4.16562 3.78199
# Velocity P-wave (km/s) = 6.65038 7.80939 7.25307
#
# Compressibility (1/GPa) = 0.01439789
#
# Stress axis : x y z
#
# Youngs Moduli (GPa) = 107.96403 98.68584 100.20718
#
# Poissons Ratio (x) = 0.16456 0.27967
# Poissons Ratio (y) = 0.18003 0.30363
# Poissons Ratio (z) = 0.30132 0.29902
#
# Static dielectric constant tensor:
#      x y z
#    x 2.051500 0.047920 0.017520 
#    y 0.047920 1.976740 0.041380 
#    z 0.017520 0.041380 1.971290 
# 
# From -- ./inp_files/306463.got.cif
#   From: 2010.05.17/outbox.cif.g08.bks.cpg/sg2_154_cif.got.tgz:306463.got - 2010.06.03 11:33:40.
