data_PCOD9059394
_publ_section_title
;
Structure prediction by ZEFSAII (Michael W. Deem and Ramdas Pophale) SiO2 
 PCOD9059394
Probable space group: P -1
;
_chemical_formula_sum "Si O2"
_cell_formula_units_Z 16
_cell_length_a 15.517920
_cell_length_b 15.281619
_cell_length_c 9.565541
_cell_angle_alpha 142.353336
_cell_angle_beta 38.691721
_cell_angle_gamma 139.839781
_cell_volume 800.075273
_symmetry_space_group_name_H-M "P -1"
_symmetry_group_IT_number 2
_symmetry_cell_setting 'triclinic'
loop_
_space_group_symop_operation_xyz
x,y,z
-x,-y,-z
loop_
_atom_site_type_symbol
_atom_site_label
_atom_site_fract_x
_atom_site_fract_y
_atom_site_fract_z
Si Si1 0.617808 0.477216 0.979510
Si Si2 0.472585 0.833538 0.755748
Si Si3 0.904576 0.845853 0.846263
Si Si4 0.937022 0.846464 0.478625
Si Si5 0.084753 0.469261 0.486388
Si Si6 0.431077 0.250308 0.746990
Si Si7 0.642119 0.634718 0.423277
Si Si8 0.121582 0.644381 0.946402
O O1 0.750162 0.497579 0.733386
O O2 0.509917 0.301238 0.862165
O O3 0.533570 0.590096 0.184988
O O4 0.683814 0.542374 0.128194
O O5 0.515635 0.848963 0.554432
O O6 0.583014 0.762915 0.600378
O O7 0.299920 0.710673 0.835008
O O8 0.500000 0.000000 0.000000
O O9 0.906609 0.871770 0.710413
O O10 0.965484 0.708406 0.622517
O O11 0.741971 0.805923 0.069491
O O12 0.000000 0.000000 0.000000
O O13 0.783790 0.720294 0.449606
O O14 0.000000 0.000000 0.500000
O O15 0.066622 0.780837 0.221184
O O16 0.095585 0.585350 0.745236
O O17 0.000000 0.500000 0.500000
O O18 0.500000 0.500000 0.500000
O O19 0.000000 0.500000 0.000000
#
# Coordination Sequence:
#
# PCOD9059394 Si02
#       8
#     2   2   2   2   2   2   2   2
#     4   9  18  36  64  91 121 165 222 269 319 388
#     4  11  24  41  67  98 136 182 221 280 351 402
#     4  11  26  43  68  98 137 178 224 276 340 412
#     4  12  27  44  69 101 142 180 225 283 347 414
#     4  11  23  41  67  98 130 173 223 280 337 398
#     4   9  19  38  66  90 125 172 223 265 327 400
#     4  11  23  41  70  95 127 177 239 275 326 409
#     4  12  24  43  70 102 140 177 229 287 345 400
#
# _framework density 19.998118999999999
#
# number of rings (size 3 to 8) (size 9 to 14) (size 15 to 20)
#    0.000    1.250    2.500    3.000   10.500    0.000 
#    0.000    0.000    0.000    3.000    0.000    0.000 
#    0.000    0.000    0.000    0.000    0.000    0.000 
#
# Total GULP energy -89186.864471 kJ/mol
# GULP energy per Si atom -5574.179029 kJ/mol
# Density = 1.995260 g / cm^3
# Si number density = 19.998119 Si / 1000 Ang^3
#
#
#
# Elastic Constant Matrix: (Units=GPa)
#
#
# Indices 1 2 3 4 5 6 
#
# 1 91.3697 28.3539 30.4834 -4.7095 23.2939 23.5485
# 2 28.3539 81.6267 28.7483 -2.0362 15.7989 9.0015
# 3 30.4834 28.7483 129.2786 -5.5504 29.6353 10.0309
# 4 -4.7095 -2.0362 -5.5504 29.1145 5.9924 1.7453
# 5 23.2939 15.7989 29.6353 5.9924 45.6931 6.2491
# 6 23.5485 9.0015 10.0309 1.7453 6.2491 36.8180
#
#
#
# Elastic Compliance Matrix: (Units=1/GPa)
#
#
# Indices 1 2 3 4 5 6 
#
# 1 0.016105 -0.003092 -0.000932 0.003932 -0.005892 -0.008477
# 2 -0.003092 0.014517 -0.001915 0.000643 -0.002189 -0.000709
# 3 -0.000932 -0.001915 0.009819 0.002764 -0.005483 -0.000811
# 4 0.003932 0.000643 0.002764 0.037515 -0.008423 -0.003774
# 5 -0.005892 -0.002189 -0.005483 -0.008423 0.030159 0.001078
# 6 -0.008477 -0.000709 -0.000811 -0.003774 0.001078 0.032972
#
#
# Mechanical properties :
#
#
# Convention : Reuss Voigt Hill
#
# Bulk Modulus (GPa) = 35.01155 53.04958 44.03057
# Shear Modulus (GPa) = 30.77150 36.63776 33.70463
#
# Velocity S-wave (km/s) = 3.92691 4.28490 4.10980
# Velocity P-wave (km/s) = 6.17302 7.14600 6.67726
#
# Compressibility (1/GPa) = 0.02856200
#
# Stress axis : x y z
#
# Youngs Moduli (GPa) = 62.09308 68.88360 101.83958
#
# Poissons Ratio (x) = 0.21302 0.09496
# Poissons Ratio (y) = 0.19202 0.19500
# Poissons Ratio (z) = 0.05790 0.13190
#
# Static dielectric constant tensor:
#      x y z
#    x 1.719740 0.023590 0.006200 
#    y 0.023590 1.910160 -0.039440 
#    z 0.006200 -0.039440 1.717670 
# 
# From -- ./inp_files/316033.got.cif
#   From: 2010.05.17/outbox.cif.g08.bks.cpg/sg2_159_cif.got.tgz:316033.got - 2010.06.03 11:33:40.
