data_PCOD9059356
_publ_section_title
;
Structure prediction by ZEFSAII (Michael W. Deem and Ramdas Pophale) SiO2 
 PCOD9059356
Probable space group: P -1
;
_chemical_formula_sum "Si O2"
_cell_formula_units_Z 16
_cell_length_a 11.077524
_cell_length_b 24.631631
_cell_length_c 6.107729
_cell_angle_alpha 118.386345
_cell_angle_beta 113.850091
_cell_angle_gamma 28.171967
_cell_volume 691.765246
_symmetry_space_group_name_H-M "P -1"
_symmetry_group_IT_number 2
_symmetry_cell_setting 'triclinic'
loop_
_space_group_symop_operation_xyz
x,y,z
-x,-y,-z
loop_
_atom_site_type_symbol
_atom_site_label
_atom_site_fract_x
_atom_site_fract_y
_atom_site_fract_z
Si Si1 0.649472 0.485392 0.800596
Si Si2 0.339709 0.867765 0.142895
Si Si3 0.392517 0.631495 0.480710
Si Si4 0.289432 0.303489 0.303574
Si Si5 0.971702 0.114876 0.188957
Si Si6 0.819471 0.736667 0.485598
Si Si7 0.373953 0.049796 0.249658
Si Si8 0.256818 0.442437 0.689133
O O1 0.423344 0.588854 0.660474
O O2 0.648127 0.416808 0.768879
O O3 0.927379 0.380219 0.687900
O O4 0.619955 0.556029 0.066680
O O5 0.565858 0.804375 0.335304
O O6 0.108109 0.009574 0.241150
O O7 0.478653 0.806975 0.891317
O O8 0.215043 0.849759 0.038166
O O9 0.650066 0.566837 0.492700
O O10 0.178775 0.769739 0.578654
O O11 0.173220 0.291280 0.315863
O O12 0.356192 0.333303 0.571490
O O13 0.046316 0.432277 0.251705
O O14 0.201601 0.057906 0.131272
O O15 0.782169 0.824242 0.617694
O O16 0.500000 0.000000 0.500000
O O17 0.500000 0.000000 0.000000
#
# Coordination Sequence:
#
# PCOD9059356 Si02
#       8
#     2   2   2   2   2   2   2   2
#     4  11  24  40  68  99 137 181 244 300 374 436
#     4  11  24  46  70 102 147 184 246 302 368 448
#     4  11  23  45  63 100 140 180 244 300 371 447
#     4  11  24  40  67 103 137 188 244 301 370 449
#     4  11  24  47  72 104 143 194 239 308 374 444
#     4  12  24  43  73 103 141 190 248 309 371 444
#     4  12  27  53  79 110 150 202 256 306 373 454
#     4  11  23  41  66  97 141 189 237 306 371 443
#
# _framework density 23.129234
#
# number of rings (size 3 to 8) (size 9 to 14) (size 15 to 20)
#    0.000    0.750    6.250    1.125    1.750    0.500 
#    4.500    1.875    0.000    0.000    0.000    0.000 
#    0.000    0.000    0.000    0.000    0.000    0.000 
#
# Total GULP energy -89140.604764 kJ/mol
# GULP energy per Si atom -5571.287798 kJ/mol
# Density = 2.307659 g / cm^3
# Si number density = 23.129234 Si / 1000 Ang^3
#
#
#
# Elastic Constant Matrix: (Units=GPa)
#
#
# Indices 1 2 3 4 5 6 
#
# 1 111.6127 4.7792 10.8878 0.9589 17.9405 -1.7488
# 2 4.7792 76.4209 24.9369 18.0654 1.1392 5.4893
# 3 10.8878 24.9369 70.4537 15.4891 12.6163 12.1873
# 4 0.9589 18.0654 15.4891 27.7358 -0.9565 18.1760
# 5 17.9405 1.1392 12.6163 -0.9565 35.6401 7.3432
# 6 -1.7488 5.4893 12.1873 18.1760 7.3432 42.9863
#
#
#
# Elastic Compliance Matrix: (Units=1/GPa)
#
#
# Indices 1 2 3 4 5 6 
#
# 1 0.009913 -0.000154 -0.000574 -0.001487 -0.005257 0.002113
# 2 -0.000154 0.016788 -0.004116 -0.011060 -0.000062 0.003704
# 3 -0.000574 -0.004116 0.018616 -0.007586 -0.006270 -0.000497
# 4 -0.001487 -0.011060 -0.007586 0.064789 0.010830 -0.025743
# 5 -0.005257 -0.000062 -0.006270 0.010830 0.035071 -0.008999
# 6 0.002113 0.003704 -0.000497 -0.025743 -0.008999 0.035439
#
#
# Mechanical properties :
#
#
# Convention : Reuss Voigt Hill
#
# Bulk Modulus (GPa) = 28.06899 37.74391 32.90645
# Shear Modulus (GPa) = 24.73027 35.79799 30.26413
#
# Velocity S-wave (km/s) = 3.27344 3.93840 3.62122
# Velocity P-wave (km/s) = 5.14289 6.08567 5.63404
#
# Compressibility (1/GPa) = 0.03562650
#
# Stress axis : x y z
#
# Youngs Moduli (GPa) = 100.87681 59.56780 53.71737
#
# Poissons Ratio (x) = 0.00919 0.03086
# Poissons Ratio (y) = 0.01557 0.22112
# Poissons Ratio (z) = 0.05795 0.24520
#
# Static dielectric constant tensor:
#      x y z
#    x 1.899740 -0.000700 -0.016860 
#    y -0.000700 1.911140 -0.058460 
#    z -0.016860 -0.058460 2.026880 
# 
# From -- ./inp_files/85172.got.cif
#   From: 2010.05.17/outbox.cif.g08.bks.cpg/sg2_43_cif.got.tgz:85172.got - 2010.06.03 11:33:40.
