data_PCOD9059306
_publ_section_title
;
Structure prediction by ZEFSAII (Michael W. Deem and Ramdas Pophale) SiO2 
 PCOD9059306
Probable space group: P -1
;
_chemical_formula_sum "Si O2"
_cell_formula_units_Z 16
_cell_length_a 5.616545
_cell_length_b 11.521577
_cell_length_c 13.208372
_cell_angle_alpha 76.733352
_cell_angle_beta 72.968450
_cell_angle_gamma 63.655809
_cell_volume 727.416490
_symmetry_space_group_name_H-M "P -1"
_symmetry_group_IT_number 2
_symmetry_cell_setting 'triclinic'
loop_
_space_group_symop_operation_xyz
x,y,z
-x,-y,-z
loop_
_atom_site_type_symbol
_atom_site_label
_atom_site_fract_x
_atom_site_fract_y
_atom_site_fract_z
Si Si1 0.534680 0.898404 0.927058
Si Si2 0.203334 0.375512 0.936995
Si Si3 0.533409 0.085226 0.571163
Si Si4 0.192063 0.667288 0.177632
Si Si5 0.050546 0.106015 0.299010
Si Si6 0.695589 0.309975 0.443379
Si Si7 0.851455 0.949864 0.215757
Si Si8 0.188354 0.564187 0.415578
O O1 0.737227 0.899610 0.812204
O O2 0.253130 0.961915 0.888370
O O3 0.659577 0.754082 0.985182
O O4 0.500000 0.000000 0.000000
O O5 0.478331 0.395270 0.866108
O O6 0.009962 0.347781 0.881217
O O7 0.000000 0.500000 0.000000
O O8 0.537574 0.217153 0.500670
O O9 0.331160 0.110512 0.687397
O O10 0.500000 0.000000 0.500000
O O11 0.813739 0.995064 0.608216
O O12 0.129522 0.606527 0.299514
O O13 0.112427 0.821581 0.177703
O O14 0.908599 0.244699 0.341275
O O15 0.856726 0.053269 0.276446
O O16 0.493628 0.453567 0.407612
O O17 0.830770 0.318760 0.531390
O O18 0.000000 0.500000 0.500000
#
# Coordination Sequence:
#
# PCOD9059306 Si02
#       8
#     2   2   2   2   2   2   2   2
#     4  11  25  47  73 104 144 189 253 313 382 442
#     4  12  30  52  78 109 148 200 255 325 379 452
#     4  11  23  41  65 106 148 187 232 303 371 446
#     4  12  28  49  79 108 151 195 259 305 389 456
#     4  11  25  39  70 105 141 189 243 310 369 454
#     4  11  25  43  67 104 146 191 249 297 377 456
#     4  11  24  42  74 108 144 193 243 307 380 453
#     4  11  28  45  73 101 150 203 244 307 373 462
#
# _framework density 21.995653000000001
#
# number of rings (size 3 to 8) (size 9 to 14) (size 15 to 20)
#    0.000    0.750    2.500    3.000   14.000    2.000 
#    0.000    0.000    0.000    0.000    0.000    0.000 
#    0.000    0.000    0.000    0.000    0.000    0.000 
#
# Total GULP energy -89339.946119 kJ/mol
# GULP energy per Si atom -5583.746632 kJ/mol
# Density = 2.194559 g / cm^3
# Si number density = 21.995653 Si / 1000 Ang^3
#
#
#
# Elastic Constant Matrix: (Units=GPa)
#
#
# Indices 1 2 3 4 5 6 
#
# 1 59.3975 14.6300 41.9367 6.3826 2.0885 -4.4934
# 2 14.6300 120.4358 58.2685 17.5862 3.5549 -9.3573
# 3 41.9367 58.2685 146.2261 -0.3853 13.4430 -7.5275
# 4 6.3826 17.5862 -0.3853 47.0728 -3.9431 -4.3880
# 5 2.0885 3.5549 13.4430 -3.9431 47.6566 4.1810
# 6 -4.4934 -9.3573 -7.5275 -4.3880 4.1810 37.3673
#
#
#
# Elastic Compliance Matrix: (Units=1/GPa)
#
#
# Indices 1 2 3 4 5 6 
#
# 1 0.021682 0.001144 -0.006669 -0.003278 0.000477 0.001112
# 2 0.001144 0.011181 -0.004714 -0.004234 -0.000036 0.001494
# 3 -0.006669 -0.004714 0.010886 0.002636 -0.002277 0.000775
# 4 -0.003278 -0.004234 0.002636 0.023575 0.001520 0.001675
# 5 0.000477 -0.000036 -0.002277 0.001520 0.021969 -0.002690
# 6 0.001112 0.001494 0.000775 0.001675 -0.002690 0.027923
#
#
# Mechanical properties :
#
#
# Convention : Reuss Voigt Hill
#
# Bulk Modulus (GPa) = 42.97466 61.74775 52.36121
# Shear Modulus (GPa) = 34.37549 40.50095 37.43822
#
# Velocity S-wave (km/s) = 3.95755 4.29571 4.13010
# Velocity P-wave (km/s) = 6.36107 7.26208 6.82646
#
# Compressibility (1/GPa) = 0.02326952
#
# Stress axis : x y z
#
# Youngs Moduli (GPa) = 46.12023 89.44141 91.85992
#
# Poissons Ratio (x) = -0.10231 0.61266
# Poissons Ratio (y) = -0.05276 0.43305
# Poissons Ratio (z) = 0.30760 0.42165
#
# Static dielectric constant tensor:
#      x y z
#    x 2.112820 -0.116670 -0.053520 
#    y -0.116670 1.825720 -0.006490 
#    z -0.053520 -0.006490 1.774160 
# 
# From -- ./inp_files/364269.got.cif
#   From: 2010.05.17/outbox.cif.g08.bks.cpg/sg2_183_cif.got.tgz:364269.got - 2010.06.03 11:33:40.
