data_PCOD9059414
_publ_section_title
;
Structure prediction by ZEFSAII (Michael W. Deem and Ramdas Pophale) SiO2 
 PCOD9059414
Probable space group: P -1
;
_chemical_formula_sum "Si O2"
_cell_formula_units_Z 14
_cell_length_a 14.192613
_cell_length_b 8.648745
_cell_length_c 11.663345
_cell_angle_alpha 114.164086
_cell_angle_beta 125.365252
_cell_angle_gamma 34.060828
_cell_volume 646.119859
_symmetry_space_group_name_H-M "P -1"
_symmetry_group_IT_number 2
_symmetry_cell_setting 'triclinic'
loop_
_space_group_symop_operation_xyz
x,y,z
-x,-y,-z
loop_
_atom_site_type_symbol
_atom_site_label
_atom_site_fract_x
_atom_site_fract_y
_atom_site_fract_z
Si Si1 0.077583 0.247641 0.549648
Si Si2 0.189203 0.688515 0.729808
Si Si3 0.858555 0.313885 0.034643
Si Si4 0.554859 0.084887 0.783781
Si Si5 0.756380 0.993276 0.096211
Si Si6 0.067922 0.433326 0.220315
Si Si7 0.472585 0.852408 0.806912
O O1 0.000000 0.500000 0.500000
O O2 0.002571 0.166165 0.411615
O O3 0.983504 0.400174 0.652277
O O4 0.305480 0.971318 0.644085
O O5 0.200947 0.643080 0.861236
O O6 0.219942 0.850832 0.785355
O O7 0.355589 0.388550 0.694368
O O8 0.968170 0.366025 0.128722
O O9 0.673151 0.534743 0.888258
O O10 0.000000 0.000000 0.000000
O O11 0.709875 0.848799 0.729547
O O12 0.519131 0.971502 0.810722
O O13 0.647340 0.124322 0.939505
O O14 0.640081 0.011835 0.109779
O O15 0.961379 0.670324 0.121383
#
# Coordination Sequence:
#
# PCOD9059414 Si02
#       7
#     2   2   2   2   2   2   2
#     4  11  23  48  69  96 134 190 224 266 342 412
#     4  12  25  43  73  97 140 178 227 277 333 412
#     4  12  25  43  70 105 133 176 228 288 335 398
#     4  12  22  40  68 104 131 177 225 279 338 396
#     4  11  23  41  68 103 133 177 228 278 342 396
#     4  11  25  40  69  99 140 172 228 280 338 402
#     4  11  24  42  70  94 137 182 220 275 338 402
#
# _framework density 21.667807
#
# number of rings (size 3 to 8) (size 9 to 14) (size 15 to 20)
#    0.000    0.571    5.714    3.000    4.000    2.857 
#    0.000    0.714    3.143    0.000    0.000    0.000 
#    0.000    0.000    0.000    0.000    0.000    0.000 
#
# Total GULP energy -78197.102253 kJ/mol
# GULP energy per Si atom -5585.507304 kJ/mol
# Density = 2.161849 g / cm^3
# Si number density = 21.667807 Si / 1000 Ang^3
#
#
#
# Elastic Constant Matrix: (Units=GPa)
#
#
# Indices 1 2 3 4 5 6 
#
# 1 82.9513 35.9817 21.0531 5.2484 10.5698 0.7082
# 2 35.9817 139.1673 32.7195 -12.3792 12.0878 -6.6360
# 3 21.0531 32.7195 103.8463 -17.0066 19.3676 1.8444
# 4 5.2484 -12.3792 -17.0066 29.4583 0.1746 3.8054
# 5 10.5698 12.0878 19.3676 0.1746 22.4002 1.2692
# 6 0.7082 -6.6360 1.8444 3.8054 1.2692 24.4815
#
#
#
# Elastic Compliance Matrix: (Units=1/GPa)
#
#
# Indices 1 2 3 4 5 6 
#
# 1 0.014894 -0.003550 -0.002183 -0.005357 -0.003170 -0.000232
# 2 -0.003550 0.008991 -0.001147 0.003477 -0.002337 0.002207
# 3 -0.002183 -0.001147 0.013692 0.008132 -0.010138 -0.002018
# 4 -0.005357 0.003477 0.008132 0.041829 -0.006384 -0.005686
# 5 -0.003170 -0.002337 -0.010138 -0.006384 0.056311 -0.001705
# 6 -0.000232 0.002207 -0.002018 -0.005686 -0.001705 0.042576
#
#
# Mechanical properties :
#
#
# Convention : Reuss Voigt Hill
#
# Bulk Modulus (GPa) = 41.98673 56.16372 49.07522
# Shear Modulus (GPa) = 25.00103 31.01538 28.00820
#
# Velocity S-wave (km/s) = 3.40050 3.78749 3.59920
# Velocity P-wave (km/s) = 5.90232 6.71591 6.32222
#
# Compressibility (1/GPa) = 0.02381705
#
# Stress axis : x y z
#
# Youngs Moduli (GPa) = 67.14144 111.22766 73.03528
#
# Poissons Ratio (x) = 0.39484 0.15944
# Poissons Ratio (y) = 0.23834 0.08377
# Poissons Ratio (z) = 0.14657 0.12757
#
# Static dielectric constant tensor:
#      x y z
#    x 1.825090 -0.003020 -0.002470 
#    y -0.003020 1.788880 -0.060590 
#    z -0.002470 -0.060590 1.849580 
# 
# From -- ./inp_files/187132.got.cif
#   From: 2010.05.17/outbox.cif.g08.bks.cpg/sg2_94_cif.got.tgz:187132.got - 2010.06.03 11:33:40.
