data_PCOD9059734
_publ_section_title
;
Structure prediction by ZEFSAII (Michael W. Deem and Ramdas Pophale) SiO2 
 PCOD9059734
Probable space group: P -1
;
_chemical_formula_sum "Si O2"
_cell_formula_units_Z 16
_cell_length_a 9.002540
_cell_length_b 5.962732
_cell_length_c 19.552785
_cell_angle_alpha 78.112976
_cell_angle_beta 102.099447
_cell_angle_gamma 129.549142
_cell_volume 787.667691
_symmetry_space_group_name_H-M "P -1"
_symmetry_group_IT_number 2
_symmetry_cell_setting 'triclinic'
loop_
_space_group_symop_operation_xyz
x,y,z
-x,-y,-z
loop_
_atom_site_type_symbol
_atom_site_label
_atom_site_fract_x
_atom_site_fract_y
_atom_site_fract_z
Si Si1 0.042462 0.711608 0.051253
Si Si2 0.297716 0.304190 0.952670
Si Si3 0.219442 0.428829 0.667199
Si Si4 0.338046 0.867997 0.189277
Si Si5 0.120715 0.597882 0.327408
Si Si6 0.431690 0.108104 0.427712
Si Si7 0.446232 0.417422 0.810149
Si Si8 0.906019 0.909705 0.570986
O O1 0.182495 0.756252 0.121263
O O2 0.834488 0.592530 0.068542
O O3 0.000000 0.500000 0.000000
O O4 0.164700 0.018862 0.004161
O O5 0.339971 0.273211 0.881010
O O6 0.500000 0.500000 0.000000
O O7 0.391450 0.667159 0.619006
O O8 0.306435 0.340424 0.737634
O O9 0.096923 0.506518 0.690607
O O10 0.056666 0.184494 0.615869
O O11 0.224183 0.706538 0.257940
O O12 0.448885 0.729662 0.189303
O O13 0.441979 0.223159 0.188815
O O14 0.104447 0.339237 0.376810
O O15 0.267391 0.860911 0.376610
O O16 0.312985 0.201130 0.446285
O O17 0.500000 0.000000 0.500000
O O18 0.000000 0.000000 0.500000
#
# Coordination Sequence:
#
# PCOD9059734 Si02
#       8
#     2   2   2   2   2   2   2   2
#     4  11  26  44  74 106 145 190 237 298 355 423
#     4  11  24  46  72 104 146 188 240 292 358 423
#     4  11  25  44  68  99 136 184 236 289 359 420
#     4  12  27  47  74 106 145 187 243 292 358 425
#     4  11  25  44  69  96 141 180 235 296 355 425
#     4  11  23  42  67  97 137 178 233 290 355 426
#     4  12  27  46  76 105 142 194 239 293 357 429
#     4  11  25  42  67 103 137 182 237 296 357 426
#
# _framework density 20.313134999999999
#
# number of rings (size 3 to 8) (size 9 to 14) (size 15 to 20)
#    0.000    0.750    2.500    3.750    7.000    8.000 
#    0.000    0.000    0.000    0.000    0.000    0.000 
#    0.000    0.000    0.000    0.000    0.000    0.000 
#
# Total GULP energy -89144.150338 kJ/mol
# GULP energy per Si atom -5571.509396 kJ/mol
# Density = 2.026690 g / cm^3
# Si number density = 20.313135 Si / 1000 Ang^3
#
#
#
# Elastic Constant Matrix: (Units=GPa)
#
#
# Indices 1 2 3 4 5 6 
#
# 1 203.5051 47.5130 80.2145 -8.1927 2.3733 5.0385
# 2 47.5130 70.1067 12.9167 -0.5927 -0.5822 12.2087
# 3 80.2145 12.9167 177.8191 -7.5442 1.6099 5.9698
# 4 -8.1927 -0.5927 -7.5442 37.1324 6.8023 -0.2006
# 5 2.3733 -0.5822 1.6099 6.8023 46.4641 -2.1808
# 6 5.0385 12.2087 5.9698 -0.2006 -2.1808 30.8101
#
#
#
# Elastic Compliance Matrix: (Units=1/GPa)
#
#
# Indices 1 2 3 4 5 6 
#
# 1 0.007110 -0.004484 -0.002874 0.000995 -0.000412 0.001148
# 2 -0.004484 0.018299 0.000891 -0.000589 0.000200 -0.006680
# 3 -0.002874 0.000891 0.006935 0.000830 -0.000262 -0.001240
# 4 0.000995 -0.000589 0.000830 0.028079 -0.004207 -0.000205
# 5 -0.000412 0.000200 -0.000262 -0.004207 0.022245 0.001586
# 6 0.001148 -0.006680 -0.001240 -0.000205 0.001586 0.035267
#
#
# Mechanical properties :
#
#
# Convention : Reuss Voigt Hill
#
# Bulk Modulus (GPa) = 51.52264 81.41325 66.46794
# Shear Modulus (GPa) = 36.40614 43.60044 40.00329
#
# Velocity S-wave (km/s) = 4.23809 4.63797 4.44253
# Velocity P-wave (km/s) = 7.02622 8.29742 7.68814
#
# Compressibility (1/GPa) = 0.01940894
#
# Stress axis : x y z
#
# Youngs Moduli (GPa) = 140.64346 54.64842 144.20033
#
# Poissons Ratio (x) = 0.24505 0.41448
# Poissons Ratio (y) = 0.63067 -0.12849
# Poissons Ratio (z) = 0.40425 -0.04869
#
# Static dielectric constant tensor:
#      x y z
#    x 1.813870 -0.073200 -0.018310 
#    y -0.073200 1.742490 0.003590 
#    z -0.018310 0.003590 1.644150 
# 
# From -- ./inp_files/10602.got.cif
#   From: 2010.05.17/outbox.cif.g08.bks.cpg/sg2_6_cif.got.tgz:10602.got - 2010.06.03 11:33:40.
