data_PCOD9059629
_publ_section_title
;
Structure prediction by ZEFSAII (Michael W. Deem and Ramdas Pophale) SiO2 
 PCOD9059629
Probable space group: P -1
;
_chemical_formula_sum "Si O2"
_cell_formula_units_Z 12
_cell_length_a 10.090780
_cell_length_b 9.938552
_cell_length_c 7.377987
_cell_angle_alpha 136.871648
_cell_angle_beta 118.070621
_cell_angle_gamma 66.980607
_cell_volume 444.941150
_symmetry_space_group_name_H-M "P -1"
_symmetry_group_IT_number 2
_symmetry_cell_setting 'triclinic'
loop_
_space_group_symop_operation_xyz
x,y,z
-x,-y,-z
loop_
_atom_site_type_symbol
_atom_site_label
_atom_site_fract_x
_atom_site_fract_y
_atom_site_fract_z
Si Si1 0.831522 0.683624 0.412335
Si Si2 0.267792 0.029395 0.845245
Si Si3 0.122044 0.420890 0.244685
Si Si4 0.291578 0.943998 0.167461
Si Si5 0.435119 0.772667 0.411962
Si Si6 0.625489 0.608683 0.872128
O O1 0.828393 0.602362 0.536251
O O2 0.840329 0.917722 0.685253
O O3 0.969713 0.558021 0.283855
O O4 0.695755 0.667308 0.167249
O O5 0.306647 0.891671 0.566173
O O6 0.127352 0.196914 0.942361
O O7 0.260449 0.904968 0.901363
O O8 0.399981 0.187844 0.057994
O O9 0.755018 0.495435 0.722757
O O10 0.425552 0.093612 0.386033
O O11 0.354786 0.765424 0.156733
O O12 0.482420 0.559357 0.316176
#
# Coordination Sequence:
#
# PCOD9059629 Si02
#       6
#     2   2   2   2   2   2
#     4  10  17  38  58  81 111 143 184 221 278 327
#     4   9  20  39  55  82 109 146 182 225 275 316
#     4   8  19  35  61  80 106 147 181 227 273 319
#     4  10  21  38  56  79 116 151 172 229 277 318
#     4  11  22  37  55  85 113 142 188 221 272 329
#     4  10  21  34  60  85 105 147 184 226 271 319
#
# _framework density 26.969856
#
# number of rings (size 3 to 8) (size 9 to 14) (size 15 to 20)
#    1.000    1.333    1.667    1.000    0.000    2.667 
#    0.000    3.333    0.000    6.000    0.000    0.000 
#    0.000    0.000    0.000    0.000    0.000    0.000 
#
# Total GULP energy -66952.699225 kJ/mol
# GULP energy per Si atom -5579.391602 kJ/mol
# Density = 2.690847 g / cm^3
# Si number density = 26.969856 Si / 1000 Ang^3
#
#
#
# Elastic Constant Matrix: (Units=GPa)
#
#
# Indices 1 2 3 4 5 6 
#
# 1 94.3331 24.7806 35.2277 12.9085 -50.6269 -18.6402
# 2 24.7806 108.7116 37.5882 -3.4314 -13.8104 14.3133
# 3 35.2277 37.5882 77.1304 0.3316 -30.9090 2.6975
# 4 12.9085 -3.4314 0.3316 35.1255 -1.4124 1.6103
# 5 -50.6269 -13.8104 -30.9090 -1.4124 42.5741 12.2819
# 6 -18.6402 14.3133 2.6975 1.6103 12.2819 38.1171
#
#
#
# Elastic Compliance Matrix: (Units=1/GPa)
#
#
# Indices 1 2 3 4 5 6 
#
# 1 0.035458 -0.005009 0.001901 -0.012263 0.039532 0.006866
# 2 -0.005009 0.012477 -0.005191 0.003208 -0.003947 -0.005631
# 3 0.001901 -0.005191 0.021871 -0.000501 0.017693 -0.004349
# 4 -0.012263 0.003208 -0.000501 0.033060 -0.011398 -0.004890
# 5 0.039532 -0.003947 0.017693 -0.011398 0.083681 -0.006919
# 6 0.006866 -0.005631 -0.004349 -0.004890 -0.006919 0.034451
#
#
# Mechanical properties :
#
#
# Convention : Reuss Voigt Hill
#
# Bulk Modulus (GPa) = 18.79445 52.81868 35.80657
# Shear Modulus (GPa) = 19.58248 35.33526 27.45887
#
# Velocity S-wave (km/s) = 2.69752 3.62356 3.19428
# Velocity P-wave (km/s) = 4.08485 6.09375 5.18747
#
# Compressibility (1/GPa) = 0.05320720
#
# Stress axis : x y z
#
# Youngs Moduli (GPa) = 28.20275 80.15059 45.72240
#
# Poissons Ratio (x) = 0.40146 -0.08692
# Poissons Ratio (y) = 0.14126 0.23735
# Poissons Ratio (z) = -0.05361 0.41607
#
# Static dielectric constant tensor:
#      x y z
#    x 2.158860 -0.045990 0.024530 
#    y -0.045990 2.117370 -0.004750 
#    z 0.024530 -0.004750 2.136020 
# 
# From -- ./inp_files/241564.got.cif
#   From: 2010.05.17/outbox.cif.g08.bks.cpg/sg2_121_cif.got.tgz:241564.got - 2010.06.03 11:33:40.
