data_PCOD9059672
_publ_section_title
;
Structure prediction by ZEFSAII (Michael W. Deem and Ramdas Pophale) SiO2 
 PCOD9059672
Probable space group: P -1
;
_chemical_formula_sum "Si O2"
_cell_formula_units_Z 14
_cell_length_a 16.518454
_cell_length_b 9.020789
_cell_length_c 6.603580
_cell_angle_alpha 127.879229
_cell_angle_beta 63.104991
_cell_angle_gamma 123.291285
_cell_volume 639.218729
_symmetry_space_group_name_H-M "P -1"
_symmetry_group_IT_number 2
_symmetry_cell_setting 'triclinic'
loop_
_space_group_symop_operation_xyz
x,y,z
-x,-y,-z
loop_
_atom_site_type_symbol
_atom_site_label
_atom_site_fract_x
_atom_site_fract_y
_atom_site_fract_z
Si Si1 0.967685 0.047438 0.357540
Si Si2 0.855108 0.660356 0.792948
Si Si3 0.744453 0.724056 0.298648
Si Si4 0.447655 0.257247 0.321173
Si Si5 0.079035 0.586170 0.161083
Si Si6 0.437978 0.965995 0.743819
Si Si7 0.239178 0.612179 0.709975
O O1 0.949227 0.254525 0.550286
O O2 0.067956 0.113779 0.166349
O O3 0.857748 0.880387 0.318441
O O4 0.000000 0.000000 0.500000
O O5 0.906633 0.573127 0.833732
O O6 0.827660 0.517367 0.506430
O O7 0.752127 0.648707 0.998639
O O8 0.660369 0.807316 0.509252
O O9 0.728385 0.545663 0.330825
O O10 0.500000 0.500000 0.500000
O O11 0.513090 0.152534 0.267870
O O12 0.438569 0.167173 0.027711
O O13 0.179070 0.684320 0.003232
O O14 0.000000 0.500000 0.000000
O O15 0.327818 0.807785 0.695823
O O16 0.500000 0.000000 0.500000
#
# Coordination Sequence:
#
# PCOD9059672 Si02
#       7
#     2   2   2   2   2   2   2
#     4  12  22  42  64  98 139 175 229 282 346 408
#     4  11  24  42  68  97 138 186 225 282 351 418
#     4  11  24  42  68  99 136 182 228 290 347 413
#     4  11  25  49  74 100 143 182 231 299 356 415
#     4  11  23  42  66  94 135 185 228 282 343 415
#     4  11  27  46  74 107 136 183 240 292 356 425
#     4  11  23  44  67  98 139 178 231 286 349 417
#
# _framework density 21.901736
#
# number of rings (size 3 to 8) (size 9 to 14) (size 15 to 20)
#    0.000    0.857    4.286    2.571    2.000    4.000 
#    2.571    0.000    0.000    0.000    0.000    0.000 
#    0.000    0.000    0.000    0.000    0.000    0.000 
#
# Total GULP energy -78125.984885 kJ/mol
# GULP energy per Si atom -5580.427492 kJ/mol
# Density = 2.185189 g / cm^3
# Si number density = 21.901736 Si / 1000 Ang^3
#
#
#
# Elastic Constant Matrix: (Units=GPa)
#
#
# Indices 1 2 3 4 5 6 
#
# 1 53.2776 15.3954 12.5589 -3.2513 -10.0988 15.0393
# 2 15.3954 117.3353 46.6448 -11.4130 4.3449 28.0247
# 3 12.5589 46.6448 111.6927 -8.7299 -9.6976 16.5156
# 4 -3.2513 -11.4130 -8.7299 46.1659 -0.4565 -5.3287
# 5 -10.0988 4.3449 -9.6976 -0.4565 35.2951 1.4122
# 6 15.0393 28.0247 16.5156 -5.3287 1.4122 33.4830
#
#
#
# Elastic Compliance Matrix: (Units=1/GPa)
#
#
# Indices 1 2 3 4 5 6 
#
# 1 0.023208 -0.000858 -0.000148 0.000324 0.007105 -0.009881
# 2 -0.000858 0.012267 -0.004024 0.001311 -0.002541 -0.007582
# 3 -0.000148 -0.004024 0.011364 0.000929 0.003674 -0.002178
# 4 0.000324 0.001311 0.000929 0.022401 0.000402 0.001847
# 5 0.007105 -0.002541 0.003674 0.000402 0.031859 -0.004157
# 6 -0.009881 -0.007582 -0.002178 0.001847 -0.004157 0.042194
#
#
# Mechanical properties :
#
#
# Convention : Reuss Voigt Hill
#
# Bulk Modulus (GPa) = 27.18837 47.94487 37.56662
# Shear Modulus (GPa) = 30.19116 36.83591 33.51353
#
# Velocity S-wave (km/s) = 3.71682 4.10551 3.91599
# Velocity P-wave (km/s) = 5.55522 6.66424 6.13484
#
# Compressibility (1/GPa) = 0.03678043
#
# Stress axis : x y z
#
# Youngs Moduli (GPa) = 43.08820 81.51929 87.99882
#
# Poissons Ratio (x) = 0.06992 0.01303
# Poissons Ratio (y) = 0.03696 0.35407
# Poissons Ratio (z) = 0.00638 0.32800
#
# Static dielectric constant tensor:
#      x y z
#    x 1.827000 0.003170 -0.038560 
#    y 0.003170 1.815220 0.045310 
#    z -0.038560 0.045310 1.927990 
# 
# From -- ./inp_files/107513.got.cif
#   From: 2010.05.17/outbox.cif.g08.bks.cpg/sg2_54_cif.got.tgz:107513.got - 2010.06.03 11:33:40.
