data_PCOD9059224
_publ_section_title
;
Structure prediction by ZEFSAII (Michael W. Deem and Ramdas Pophale) SiO2 
 PCOD9059224
Probable space group: P -1
;
_chemical_formula_sum "Si O2"
_cell_formula_units_Z 16
_cell_length_a 8.738146
_cell_length_b 12.921359
_cell_length_c 9.391230
_cell_angle_alpha 53.643154
_cell_angle_beta 76.297840
_cell_angle_gamma 102.352289
_cell_volume 739.683528
_symmetry_space_group_name_H-M "P -1"
_symmetry_group_IT_number 2
_symmetry_cell_setting 'triclinic'
loop_
_space_group_symop_operation_xyz
x,y,z
-x,-y,-z
loop_
_atom_site_type_symbol
_atom_site_label
_atom_site_fract_x
_atom_site_fract_y
_atom_site_fract_z
Si Si1 0.693233 0.935194 0.142209
Si Si2 0.821611 0.732248 0.427395
Si Si3 0.533070 0.238727 0.930531
Si Si4 0.905653 0.281452 0.813436
Si Si5 0.553634 0.012750 0.639903
Si Si6 0.072711 0.400856 0.986178
Si Si7 0.469178 0.496813 0.838423
Si Si8 0.031007 0.863960 0.560242
O O1 0.794503 0.845131 0.240239
O O2 0.591054 0.873296 0.068175
O O3 0.543709 0.913187 0.309739
O O4 0.820422 0.106023 0.970602
O O5 0.632538 0.623021 0.620418
O O6 0.928411 0.663304 0.373862
O O7 0.936580 0.809741 0.475560
O O8 0.739392 0.309168 0.785013
O O9 0.464675 0.352902 0.890845
O O10 0.517750 0.146282 0.149583
O O11 0.975009 0.342644 0.905131
O O12 0.763116 0.090017 0.541882
O O13 0.500000 0.000000 0.500000
O O14 0.042561 0.263560 0.203102
O O15 0.283049 0.494004 0.848815
O O16 0.000000 0.500000 0.000000
O O17 0.500000 0.500000 0.000000
O O18 0.000000 0.000000 0.500000
#
# Coordination Sequence:
#
# PCOD9059224 Si02
#       8
#     2   2   2   2   2   2   2   2
#     4  11  24  44  71 106 141 181 234 296 354 415
#     4  12  26  44  72 102 140 191 234 292 351 429
#     4  11  24  46  73 100 147 184 228 301 351 418
#     4  11  24  46  71 106 141 179 241 288 357 416
#     4  11  23  40  72 105 136 181 235 291 354 417
#     4  12  27  47  72 102 145 189 233 300 354 426
#     4  12  27  48  68  99 145 188 239 288 358 423
#     4  12  24  44  70 105 138 184 243 293 354 417
#
# _framework density 21.630872
#
# number of rings (size 3 to 8) (size 9 to 14) (size 15 to 20)
#    0.000    0.500    1.250    8.625    3.500    2.500 
#    0.000    0.000    0.000    0.000    0.000    0.000 
#    0.000    0.000    0.000    0.000    0.000    0.000 
#
# Total GULP energy -89616.862413 kJ/mol
# GULP energy per Si atom -5601.053901 kJ/mol
# Density = 2.158164 g / cm^3
# Si number density = 21.630872 Si / 1000 Ang^3
#
#
#
# Elastic Constant Matrix: (Units=GPa)
#
#
# Indices 1 2 3 4 5 6 
#
# 1 139.5286 73.6336 43.9104 9.7024 -34.7168 15.7104
# 2 73.6336 151.0241 42.4081 19.4636 1.4333 3.5172
# 3 43.9104 42.4081 89.6412 3.7208 -20.8311 -3.2334
# 4 9.7024 19.4636 3.7208 26.7035 2.5439 -7.0924
# 5 -34.7168 1.4333 -20.8311 2.5439 47.0851 2.7166
# 6 15.7104 3.5172 -3.2334 -7.0924 2.7166 29.6936
#
#
#
# Elastic Compliance Matrix: (Units=1/GPa)
#
#
# Indices 1 2 3 4 5 6 
#
# 1 0.015319 -0.006191 -0.002104 -0.004416 0.011351 -0.009694
# 2 -0.006191 0.011257 -0.003524 -0.004591 -0.006278 0.001036
# 3 -0.002104 -0.003524 0.015049 0.001586 0.004950 0.003095
# 4 -0.004416 -0.004591 0.001586 0.046639 -0.005784 0.014722
# 5 0.011351 -0.006278 0.004950 -0.005784 0.032826 -0.009107
# 6 -0.009694 0.001036 0.003095 0.014722 -0.009107 0.043370
#
#
# Mechanical properties :
#
#
# Convention : Reuss Voigt Hill
#
# Bulk Modulus (GPa) = 55.59292 77.78868 66.69080
# Shear Modulus (GPa) = 25.76079 35.37922 30.57001
#
# Velocity S-wave (km/s) = 3.45472 4.04863 3.76341
# Velocity P-wave (km/s) = 6.45523 7.60889 7.05568
#
# Compressibility (1/GPa) = 0.01798790
#
# Stress axis : x y z
#
# Youngs Moduli (GPa) = 65.27784 88.83704 66.44903
#
# Poissons Ratio (x) = 0.55000 0.13979
# Poissons Ratio (y) = 0.40414 0.23414
# Poissons Ratio (z) = 0.13733 0.31303
#
# Static dielectric constant tensor:
#      x y z
#    x 1.727270 0.028230 -0.028660 
#    y 0.028230 1.696120 -0.012830 
#    z -0.028660 -0.012830 1.806150 
# 
# From -- ./inp_files/185813.got.cif
#   From: 2010.05.17/outbox.cif.g08.bks.cpg/sg2_93_cif.got.tgz:185813.got - 2010.06.03 11:33:40.
