data_PCOD9059844
_publ_section_title
;
Structure prediction by ZEFSAII (Michael W. Deem and Ramdas Pophale) SiO2 
 PCOD9059844
Probable space group: P -1
;
_chemical_formula_sum "Si O2"
_cell_formula_units_Z 12
_cell_length_a 14.849313
_cell_length_b 9.170791
_cell_length_c 8.254135
_cell_angle_alpha 31.161500
_cell_angle_beta 109.747646
_cell_angle_gamma 111.156422
_cell_volume 541.454489
_symmetry_space_group_name_H-M "P -1"
_symmetry_group_IT_number 2
_symmetry_cell_setting 'triclinic'
loop_
_space_group_symop_operation_xyz
x,y,z
-x,-y,-z
loop_
_atom_site_type_symbol
_atom_site_label
_atom_site_fract_x
_atom_site_fract_y
_atom_site_fract_z
Si Si1 0.238895 0.511178 0.662356
Si Si2 0.270318 0.716860 0.928400
Si Si3 0.841738 0.007163 0.688931
Si Si4 0.216863 0.174110 0.636897
Si Si5 0.573661 0.279889 0.252804
Si Si6 0.982887 0.213666 0.150073
O O1 0.161058 0.727332 0.442689
O O2 0.226914 0.357098 0.630830
O O3 0.344565 0.683696 0.592562
O O4 0.230058 0.259193 0.030954
O O5 0.196371 0.851515 0.631944
O O6 0.363417 0.695459 0.897099
O O7 0.294725 0.968490 0.835679
O O8 0.223349 0.417760 0.266631
O O9 0.937942 0.858743 0.864120
O O10 0.123492 0.925962 0.839740
O O11 0.500000 0.000000 0.500000
O O12 0.500000 0.500000 0.000000
O O13 0.000000 0.000000 0.500000
O O14 0.000000 0.500000 0.000000
#
# Coordination Sequence:
#
# PCOD9059844 Si02
#       6
#     2   2   2   2   2   2
#     4  11  25  44  68  99 139 170 220 279 345 379
#     4  11  23  42  69  99 129 179 224 264 339 397
#     4  11  23  43  66  97 132 187 226 263 318 400
#     4  12  25  42  67 103 138 173 218 285 329 376
#     4  11  23  44  70  96 126 173 224 268 327 419
#     4  12  25  39  66 101 134 177 238 264 309 392
#
# _framework density 22.162526
#
# number of rings (size 3 to 8) (size 9 to 14) (size 15 to 20)
#    0.000    0.667    1.667    8.000    2.333    1.333 
#    0.000    5.000    0.000    0.000    0.000    0.000 
#    0.000    0.000    0.000    0.000    0.000    0.000 
#
# Total GULP energy -66845.570694 kJ/mol
# GULP energy per Si atom -5570.464224 kJ/mol
# Density = 2.211208 g / cm^3
# Si number density = 22.162526 Si / 1000 Ang^3
#
#
#
# Elastic Constant Matrix: (Units=GPa)
#
#
# Indices 1 2 3 4 5 6 
#
# 1 172.2090 82.3359 58.6079 -28.3615 7.4793 -18.7895
# 2 82.3359 156.0225 48.4863 -44.3172 -2.0676 -26.4607
# 3 58.6079 48.4863 155.9898 -45.6516 -8.0070 -3.4896
# 4 -28.3615 -44.3172 -45.6516 47.8597 -9.8877 8.5949
# 5 7.4793 -2.0676 -8.0070 -9.8877 42.2350 -19.4382
# 6 -18.7895 -26.4607 -3.4896 8.5949 -19.4382 30.5504
#
#
#
# Elastic Compliance Matrix: (Units=1/GPa)
#
#
# Indices 1 2 3 4 5 6 
#
# 1 0.008529 -0.004242 -0.002564 -0.001881 -0.002563 0.000176
# 2 -0.004242 0.013742 0.001489 0.011459 0.010267 0.012773
# 3 -0.002564 0.001489 0.010347 0.010629 0.005674 0.001514
# 4 -0.001881 0.011459 0.010629 0.042440 0.016889 0.008788
# 5 -0.002563 0.010267 0.005674 0.016889 0.044038 0.031232
# 6 0.000176 0.012773 0.001514 0.008788 0.031232 0.061477
#
#
# Mechanical properties :
#
#
# Convention : Reuss Voigt Hill
#
# Bulk Modulus (GPa) = 45.48995 95.89792 70.69393
# Shear Modulus (GPa) = 25.18450 43.78177 34.48314
#
# Velocity S-wave (km/s) = 3.37464 4.44947 3.94880
# Velocity P-wave (km/s) = 5.97950 8.35232 7.26346
#
# Compressibility (1/GPa) = 0.02198288
#
# Stress axis : x y z
#
# Youngs Moduli (GPa) = 117.25390 72.76722 96.64644
#
# Poissons Ratio (x) = 0.30870 0.24778
# Poissons Ratio (y) = 0.49742 -0.14386
# Poissons Ratio (z) = 0.30061 -0.10831
#
# Static dielectric constant tensor:
#      x y z
#    x 2.323690 -0.024170 0.034970 
#    y -0.024170 1.855990 0.004890 
#    z 0.034970 0.004890 1.797660 
# 
# From -- ./inp_files/293732.got.cif
#   From: 2010.05.17/outbox.cif.g08.bks.cpg/sg2_147_cif.got.tgz:293732.got - 2010.06.03 11:33:40.
