data_PCOD9059587
_publ_section_title
;
Structure prediction by ZEFSAII (Michael W. Deem and Ramdas Pophale) SiO2 
 PCOD9059587
Probable space group: P -1
;
_chemical_formula_sum "Si O2"
_cell_formula_units_Z 16
_cell_length_a 9.539543
_cell_length_b 15.608878
_cell_length_c 8.922913
_cell_angle_alpha 105.966990
_cell_angle_beta 78.036586
_cell_angle_gamma 147.077991
_cell_volume 693.540966
_symmetry_space_group_name_H-M "P -1"
_symmetry_group_IT_number 2
_symmetry_cell_setting 'triclinic'
loop_
_space_group_symop_operation_xyz
x,y,z
-x,-y,-z
loop_
_atom_site_type_symbol
_atom_site_label
_atom_site_fract_x
_atom_site_fract_y
_atom_site_fract_z
Si Si1 0.725437 0.086151 0.834987
Si Si2 0.208989 0.886616 0.505158
Si Si3 0.790607 0.262536 0.143099
Si Si4 0.041124 0.111247 0.953791
Si Si5 0.537420 0.555648 0.848775
Si Si6 0.031823 0.986606 0.655658
Si Si7 0.428925 0.658530 0.722913
Si Si8 0.198879 0.447267 0.391746
O O1 0.850985 0.139429 0.671539
O O2 0.813984 0.052694 0.908888
O O3 0.418930 0.909982 0.808951
O O4 0.808739 0.220915 0.960575
O O5 0.181350 0.970893 0.620247
O O6 0.004022 0.717993 0.550967
O O7 0.500000 0.000000 0.500000
O O8 0.679913 0.304530 0.176045
O O9 0.046496 0.399602 0.253785
O O10 0.188406 0.255029 0.095684
O O11 0.175625 0.138784 0.790027
O O12 0.000000 0.000000 0.000000
O O13 0.378374 0.552996 0.803488
O O14 0.568105 0.493282 0.692074
O O15 0.500000 0.500000 0.000000
O O16 0.736921 0.824687 0.703399
O O17 0.000000 0.000000 0.500000
O O18 0.300912 0.571315 0.548077
#
# Coordination Sequence:
#
# PCOD9059587 Si02
#       8
#     2   2   2   2   2   2   2   2
#     4  11  23  41  74 100 144 183 236 296 363 419
#     4  12  25  45  70 109 142 187 239 293 371 436
#     4  11  23  46  69 105 142 189 234 297 359 427
#     4  12  22  44  72 105 137 181 246 302 352 423
#     4  12  28  47  71 106 146 195 244 298 372 428
#     4  12  25  42  73 106 141 181 244 305 358 418
#     4  12  26  47  70 107 147 192 246 298 357 437
#     4  12  26  45  72 102 148 190 238 297 364 438
#
# _framework density 23.070012999999999
#
# number of rings (size 3 to 8) (size 9 to 14) (size 15 to 20)
#    0.000    0.250    7.500    0.750    3.500    1.000 
#    0.000    3.750    0.000    0.000    0.000    0.000 
#    0.000    0.000    0.000    0.000    0.000    0.000 
#
# Total GULP energy -89392.657844 kJ/mol
# GULP energy per Si atom -5587.041115 kJ/mol
# Density = 2.301750 g / cm^3
# Si number density = 23.070013 Si / 1000 Ang^3
#
#
#
# Elastic Constant Matrix: (Units=GPa)
#
#
# Indices 1 2 3 4 5 6 
#
# 1 150.0467 21.5782 37.4903 6.7096 -19.3696 -11.8469
# 2 21.5782 47.3154 6.9510 -7.0050 1.1575 -5.1821
# 3 37.4903 6.9510 117.6105 12.3264 -11.6582 -10.0158
# 4 6.7096 -7.0050 12.3264 45.2064 -5.8504 5.7080
# 5 -19.3696 1.1575 -11.6582 -5.8504 48.7971 3.5722
# 6 -11.8469 -5.1821 -10.0158 5.7080 3.5722 20.4316
#
#
#
# Elastic Compliance Matrix: (Units=1/GPa)
#
#
# Indices 1 2 3 4 5 6 
#
# 1 0.008221 -0.003421 -0.001778 -0.001308 0.002547 0.002948
# 2 -0.003421 0.023714 -0.000630 0.003737 -0.001843 0.003000
# 3 -0.001778 -0.000630 0.009880 -0.002941 0.001002 0.004299
# 4 -0.001308 0.003737 -0.002941 0.025092 0.002333 -0.008670
# 5 0.002547 -0.001843 0.001002 0.002333 0.022290 -0.003048
# 6 0.002948 0.003000 0.004299 -0.008670 -0.003048 0.056477
#
#
# Mechanical properties :
#
#
# Convention : Reuss Voigt Hill
#
# Bulk Modulus (GPa) = 33.15844 49.66796 41.41320
# Shear Modulus (GPa) = 29.87137 39.48390 34.67763
#
# Velocity S-wave (km/s) = 3.60226 4.14149 3.88125
# Velocity P-wave (km/s) = 5.63079 6.66673 6.17054
#
# Compressibility (1/GPa) = 0.03015824
#
# Stress axis : x y z
#
# Youngs Moduli (GPa) = 121.64315 42.16847 101.21193
#
# Poissons Ratio (x) = 0.14426 0.17993
# Poissons Ratio (y) = 0.41615 0.06374
# Poissons Ratio (z) = 0.21625 0.02656
#
# Static dielectric constant tensor:
#      x y z
#    x 1.838250 0.035380 -0.038080 
#    y 0.035380 1.897000 0.013800 
#    z -0.038080 0.013800 1.818730 
# 
# From -- ./inp_files/208325.got.cif
#   From: 2010.05.17/outbox.cif.g08.bks.cpg/sg2_105_cif.got.tgz:208325.got - 2010.06.03 11:33:40.
