data_PCOD9059037
_publ_section_title
;
Structure prediction by ZEFSAII (Michael W. Deem and Ramdas Pophale) SiO2 
 PCOD9059037
Probable space group: P -1
;
_chemical_formula_sum "Si O2"
_cell_formula_units_Z 14
_cell_length_a 19.815950
_cell_length_b 17.008333
_cell_length_c 7.372179
_cell_angle_alpha 53.292664
_cell_angle_beta 43.209931
_cell_angle_gamma 22.018860
_cell_volume 607.673817
_symmetry_space_group_name_H-M "P -1"
_symmetry_group_IT_number 2
_symmetry_cell_setting 'triclinic'
loop_
_space_group_symop_operation_xyz
x,y,z
-x,-y,-z
loop_
_atom_site_type_symbol
_atom_site_label
_atom_site_fract_x
_atom_site_fract_y
_atom_site_fract_z
Si Si1 0.796367 0.292517 0.855956
Si Si2 0.575536 0.524158 0.577416
Si Si3 0.167865 0.359303 0.534951
Si Si4 0.666280 0.090626 0.332708
Si Si5 0.965867 0.078734 0.261986
Si Si6 0.654518 0.988538 0.130141
Si Si7 0.052567 0.252183 0.452606
O O1 0.687769 0.409012 0.712925
O O2 0.870268 0.330364 0.734149
O O3 0.618478 0.383467 0.179244
O O4 0.015303 0.031909 0.752233
O O5 0.501159 0.702931 0.490681
O O6 0.752970 0.336263 0.339881
O O7 0.210555 0.222896 0.755065
O O8 0.000000 0.500000 0.500000
O O9 0.060227 0.541698 0.614462
O O10 0.420456 0.165013 0.258021
O O11 0.595666 0.109125 0.252511
O O12 0.784418 0.903283 0.480623
O O13 0.833687 0.028757 0.034009
O O14 0.000000 0.000000 0.500000
O O15 0.813596 0.889593 0.799099
#
# Coordination Sequence:
#
# PCOD9059037 Si02
#       7
#     2   2   2   2   2   2   2
#     4   9  19  35  58  90 131 174 225 270 318 391
#     4   9  18  36  61  91 132 181 219 269 327 376
#     4  11  25  50  73 101 132 171 226 276 338 421
#     4  11  23  40  64 101 134 173 230 271 323 408
#     4   9  18  35  61  90 133 181 223 270 322 383
#     4  11  25  47  73  98 138 175 214 283 343 395
#     4  12  25  43  68 101 134 176 223 279 340 398
#
# _framework density 23.038675999999999
#
# number of rings (size 3 to 8) (size 9 to 14) (size 15 to 20)
#    0.000    1.714    1.429    3.857    0.000    5.143 
#    5.143    1.429    0.000    0.000    0.000    0.000 
#    0.000    0.000    0.000    0.000    0.000    0.000 
#
# Total GULP energy -78186.674662 kJ/mol
# GULP energy per Si atom -5584.762476 kJ/mol
# Density = 2.298624 g / cm^3
# Si number density = 23.038676 Si / 1000 Ang^3
#
#
#
# Elastic Constant Matrix: (Units=GPa)
#
#
# Indices 1 2 3 4 5 6 
#
# 1 104.2618 40.3179 14.4277 2.5517 -9.2295 -6.4672
# 2 40.3179 123.0900 23.1411 5.2164 -1.3638 5.0631
# 3 14.4277 23.1411 46.0453 -2.0669 -5.6942 -6.5009
# 4 2.5517 5.2164 -2.0669 28.2408 -2.1260 4.8431
# 5 -9.2295 -1.3638 -5.6942 -2.1260 21.8258 -4.6567
# 6 -6.4672 5.0631 -6.5009 4.8431 -4.6567 50.7507
#
#
#
# Elastic Compliance Matrix: (Units=1/GPa)
#
#
# Indices 1 2 3 4 5 6 
#
# 1 0.011730 -0.003688 -0.000917 -0.000459 0.004924 0.002241
# 2 -0.003688 0.010368 -0.004793 -0.001765 -0.002805 -0.002207
# 3 -0.000917 -0.004793 0.026009 0.002714 0.007237 0.004098
# 4 -0.000459 -0.001765 0.002714 0.036699 0.003397 -0.002725
# 5 0.004924 -0.002805 0.007237 0.003397 0.051269 0.006214
# 6 0.002241 -0.002207 0.004098 -0.002725 0.006214 0.021565
#
#
# Mechanical properties :
#
#
# Convention : Reuss Voigt Hill
#
# Bulk Modulus (GPa) = 34.11664 47.68562 40.90113
# Shear Modulus (GPa) = 26.85182 33.19747 30.02464
#
# Velocity S-wave (km/s) = 3.41766 3.80010 3.61394
# Velocity P-wave (km/s) = 5.51493 6.32434 5.93345
#
# Compressibility (1/GPa) = 0.02931121
#
# Stress axis : x y z
#
# Youngs Moduli (GPa) = 85.24817 96.45375 38.44798
#
# Poissons Ratio (x) = 0.35572 0.03527
# Poissons Ratio (y) = 0.31439 0.18427
# Poissons Ratio (z) = 0.07821 0.46227
#
# Static dielectric constant tensor:
#      x y z
#    x 1.890740 0.012610 0.004160 
#    y 0.012610 1.961000 0.015860 
#    z 0.004160 0.015860 1.827000 
# 
# From -- ./inp_files/348304.got.cif
#   From: 2010.05.17/outbox.cif.g08.bks.cpg/sg2_175_cif.got.tgz:348304.got - 2010.06.03 11:33:40.
