data_PCOD9059098
_publ_section_title
;
Structure prediction by ZEFSAII (Michael W. Deem and Ramdas Pophale) SiO2 
 PCOD9059098
Probable space group: P -1
;
_chemical_formula_sum "Si O2"
_cell_formula_units_Z 16
_cell_length_a 12.198754
_cell_length_b 11.798044
_cell_length_c 9.477344
_cell_angle_alpha 120.041568
_cell_angle_beta 53.632388
_cell_angle_gamma 84.547117
_cell_volume 786.299940
_symmetry_space_group_name_H-M "P -1"
_symmetry_group_IT_number 2
_symmetry_cell_setting 'triclinic'
loop_
_space_group_symop_operation_xyz
x,y,z
-x,-y,-z
loop_
_atom_site_type_symbol
_atom_site_label
_atom_site_fract_x
_atom_site_fract_y
_atom_site_fract_z
Si Si1 0.975767 0.304149 0.975381
Si Si2 0.651916 0.293352 0.624408
Si Si3 0.939592 0.485346 0.842660
Si Si4 0.658135 0.327066 0.318070
Si Si5 0.645469 0.087653 0.978426
Si Si6 0.140688 0.972891 0.485397
Si Si7 0.722965 0.760153 0.716150
Si Si8 0.671057 0.577209 0.882363
O O1 0.905936 0.432278 0.982532
O O2 0.821860 0.326698 0.188347
O O3 0.078606 0.134907 0.715440
O O4 0.079464 0.348418 0.019291
O O5 0.646255 0.272840 0.449367
O O6 0.804538 0.158327 0.516916
O O7 0.645018 0.454142 0.746039
O O8 0.491914 0.316644 0.833760
O O9 0.822387 0.487671 0.817533
O O10 0.126161 0.358371 0.572742
O O11 0.500000 0.500000 0.500000
O O12 0.681984 0.196547 0.107871
O O13 0.705085 0.080658 0.768306
O O14 0.735260 0.905403 0.841687
O O15 0.451097 0.164958 0.182696
O O16 0.000000 0.000000 0.500000
O O17 0.711878 0.669456 0.799966
#
# Coordination Sequence:
#
# PCOD9059098 Si02
#       8
#     2   2   2   2   2   2   2   2
#     4  11  24  41  65  97 135 174 225 274 331 399
#     4  11  26  42  70 100 133 175 227 278 331 403
#     4  11  23  40  66  99 132 178 220 276 336 397
#     4  12  25  44  68 101 137 176 223 280 334 392
#     4  11  24  43  69  97 133 182 222 271 339 396
#     4  12  23  46  71  96 135 179 223 279 335 394
#     4  11  23  42  67  96 133 176 226 271 330 404
#     4  11  23  43  66  97 134 172 225 275 336 398
#
# _framework density 20.348468
#
# number of rings (size 3 to 8) (size 9 to 14) (size 15 to 20)
#    0.000    0.750    3.750    4.125    1.750    2.500 
#    0.000    1.250    0.000    0.000    0.000    0.000 
#    0.000    0.000    0.000    0.000    0.000    0.000 
#
# Total GULP energy -89429.873334 kJ/mol
# GULP energy per Si atom -5589.367083 kJ/mol
# Density = 2.030215 g / cm^3
# Si number density = 20.348468 Si / 1000 Ang^3
#
#
#
# Elastic Constant Matrix: (Units=GPa)
#
#
# Indices 1 2 3 4 5 6 
#
# 1 21.5354 -10.7404 11.3887 3.2663 -9.7656 -5.3255
# 2 -10.7404 90.8672 12.5008 -5.1692 5.3468 -6.2155
# 3 11.3887 12.5008 81.9805 5.3191 2.0338 -1.1575
# 4 3.2663 -5.1692 5.3191 26.0764 6.6982 3.2552
# 5 -9.7656 5.3468 2.0338 6.6982 20.7092 -0.1527
# 6 -5.3255 -6.2155 -1.1575 3.2552 -0.1527 30.6186
#
#
#
# Elastic Compliance Matrix: (Units=1/GPa)
#
#
# Indices 1 2 3 4 5 6 
#
# 1 0.087163 0.009471 -0.013098 -0.020766 0.046800 0.019029
# 2 0.009471 0.012864 -0.003330 0.001262 0.001093 0.004004
# 3 -0.013098 -0.003330 0.014657 0.000038 -0.006786 -0.002438
# 4 -0.020766 0.001262 0.000038 0.048961 -0.026022 -0.008689
# 5 0.046800 0.001093 -0.006786 -0.026022 0.079241 0.011267
# 6 0.019029 0.004004 -0.002438 -0.008689 0.011267 0.037670
#
#
# Mechanical properties :
#
#
# Convention : Reuss Voigt Hill
#
# Bulk Modulus (GPa) = 9.92358 24.52015 17.22187
# Shear Modulus (GPa) = 15.24116 27.56309 21.40213
#
# Velocity S-wave (km/s) = 2.73977 3.68442 3.24664
# Velocity P-wave (km/s) = 3.85952 5.49329 4.74721
#
# Compressibility (1/GPa) = 0.10077004
#
# Stress axis : x y z
#
# Youngs Moduli (GPa) = 11.47280 77.73646 68.22797
#
# Poissons Ratio (x) = -0.73623 0.89364
# Poissons Ratio (y) = -0.10866 0.22718
# Poissons Ratio (z) = 0.15027 0.25884
#
# Static dielectric constant tensor:
#      x y z
#    x 1.714230 0.004470 -0.010860 
#    y 0.004470 1.731100 0.014870 
#    z -0.010860 0.014870 1.715050 
# 
# From -- ./inp_files/262918.got.cif
#   From: 2010.05.17/outbox.cif.g08.bks.cpg/sg2_132_cif.got.tgz:262918.got - 2010.06.03 11:33:40.
