data_PCOD9059197
_publ_section_title
;
Structure prediction by ZEFSAII (Michael W. Deem and Ramdas Pophale) SiO2 
 PCOD9059197
Probable space group: P -1
;
_chemical_formula_sum "Si O2"
_cell_formula_units_Z 15
_cell_length_a 10.711335
_cell_length_b 6.499581
_cell_length_c 15.712363
_cell_angle_alpha 63.914649
_cell_angle_beta 137.496151
_cell_angle_gamma 108.921956
_cell_volume 663.788454
_symmetry_space_group_name_H-M "P -1"
_symmetry_group_IT_number 2
_symmetry_cell_setting 'triclinic'
loop_
_space_group_symop_operation_xyz
x,y,z
-x,-y,-z
loop_
_atom_site_type_symbol
_atom_site_label
_atom_site_fract_x
_atom_site_fract_y
_atom_site_fract_z
Si Si1 0.091700 0.250982 0.489255
Si Si2 0.500000 0.000000 0.500000
Si Si3 0.486936 0.733992 0.843957
Si Si4 0.523568 0.822507 0.361749
Si Si5 0.742214 0.562582 0.769239
Si Si6 0.696018 0.095683 0.108487
Si Si7 0.206191 0.379853 0.712495
Si Si8 0.154960 0.462974 0.976959
O O1 0.260415 0.242852 0.511283
O O2 0.177326 0.339641 0.605121
O O3 0.939506 0.439130 0.358246
O O4 0.000000 0.000000 0.500000
O O5 0.547273 0.136329 0.587026
O O6 0.350158 0.209904 0.357585
O O7 0.358321 0.795278 0.847856
O O8 0.402833 0.499337 0.806276
O O9 0.472808 0.939352 0.732398
O O10 0.702784 0.689321 0.980069
O O11 0.408148 0.636757 0.285515
O O12 0.937356 0.464402 0.848847
O O13 0.794211 0.599046 0.888653
O O14 0.783913 0.277759 0.057706
O O15 0.821000 0.871607 0.218956
O O16 0.500000 0.000000 0.000000
#
# Coordination Sequence:
#
# PCOD9059197 Si02
#       8
#     2   1   2   2   2   2   2   2
#     4  11  23  42  70 107 141 184 236 295 368 433
#     4  12  28  50  74 100 142 202 252 304 356 424
#     4  12  23  46  75 104 148 187 234 306 371 439
#     4  12  25  47  77 101 149 192 250 300 364 436
#     4  11  27  52  73 105 142 200 243 308 356 430
#     4  12  24  42  70 110 142 186 232 294 372 438
#     4  11  23  40  70 111 143 188 225 289 386 428
#     4  11  25  48  75 107 150 187 251 293 365 449
#
# _framework density 22.597563000000001
#
# number of rings (size 3 to 8) (size 9 to 14) (size 15 to 20)
#    0.000    0.533    5.333    2.400    0.000    3.733 
#    2.400    1.333    0.000    0.000    0.000    0.000 
#    0.000    0.000    0.000    0.000    0.000    0.000 
#
# Total GULP energy -83571.362001 kJ/mol
# GULP energy per Si atom -5571.424133 kJ/mol
# Density = 2.254613 g / cm^3
# Si number density = 22.597563 Si / 1000 Ang^3
#
#
#
# Elastic Constant Matrix: (Units=GPa)
#
#
# Indices 1 2 3 4 5 6 
#
# 1 44.7082 39.1322 34.2395 -6.9650 27.0444 -4.0260
# 2 39.1322 77.7737 39.4416 -3.1920 14.1998 -15.0380
# 3 34.2395 39.4416 110.1633 -22.6557 8.3405 -1.0548
# 4 -6.9650 -3.1920 -22.6557 53.9514 -6.9859 4.4374
# 5 27.0444 14.1998 8.3405 -6.9859 38.0444 -0.2087
# 6 -4.0260 -15.0380 -1.0548 4.4374 -0.2087 31.3570
#
#
#
# Elastic Compliance Matrix: (Units=1/GPa)
#
#
# Indices 1 2 3 4 5 6 
#
# 1 0.085660 -0.028267 -0.013357 -0.002168 -0.047829 -0.003019
# 2 -0.028267 0.028566 -0.002617 -0.002676 0.009571 0.010425
# 3 -0.013357 -0.002617 0.014663 0.005614 0.008270 -0.003216
# 4 -0.002168 -0.002676 0.005614 0.021492 0.005231 -0.004379
# 5 -0.047829 0.009571 0.008270 0.005231 0.055851 -0.001641
# 6 -0.003019 0.010425 -0.003216 -0.004379 -0.001641 0.037003
#
#
# Mechanical properties :
#
#
# Convention : Reuss Voigt Hill
#
# Bulk Modulus (GPa) = 24.74765 50.91910 37.83338
# Shear Modulus (GPa) = 14.48490 32.65936 23.57213
#
# Velocity S-wave (km/s) = 2.53453 3.80578 3.23325
# Velocity P-wave (km/s) = 4.42045 6.47255 5.54230
#
# Compressibility (1/GPa) = 0.04040787
#
# Stress axis : x y z
#
# Youngs Moduli (GPa) = 11.67400 35.00672 68.19678
#
# Poissons Ratio (x) = 0.98953 0.91091
# Poissons Ratio (y) = 0.32999 0.17848
# Poissons Ratio (z) = 0.15593 0.09162
#
# Static dielectric constant tensor:
#      x y z
#    x 1.898030 -0.039760 -0.011130 
#    y -0.039760 1.816030 -0.000860 
#    z -0.011130 -0.000860 1.941920 
# 
# From -- ./inp_files/564051.got.cif
#   From: 2010.05.17/outbox.cif.g08.bks.cpg/sg2_283_cif.got.tgz:564051.got - 2010.06.03 11:33:40.
