data_PCOD9059777
_publ_section_title
;
Structure prediction by ZEFSAII (Michael W. Deem and Ramdas Pophale) SiO2 
 PCOD9059777
Probable space group: P -1
;
_chemical_formula_sum "Si O2"
_cell_formula_units_Z 10
_cell_length_a 6.990972
_cell_length_b 14.033690
_cell_length_c 12.884837
_cell_angle_alpha 30.587199
_cell_angle_beta 131.399332
_cell_angle_gamma 127.216300
_cell_volume 480.415194
_symmetry_space_group_name_H-M "P -1"
_symmetry_group_IT_number 2
_symmetry_cell_setting 'triclinic'
loop_
_space_group_symop_operation_xyz
x,y,z
-x,-y,-z
loop_
_atom_site_type_symbol
_atom_site_label
_atom_site_fract_x
_atom_site_fract_y
_atom_site_fract_z
Si Si1 0.706420 0.775057 0.869649
Si Si2 0.965173 0.289807 0.642244
Si Si3 0.161230 0.636638 0.703107
Si Si4 0.930780 0.961526 0.391725
Si Si5 0.634134 0.937032 0.922785
O O1 0.423753 0.712365 0.783299
O O2 0.851457 0.931752 0.702116
O O3 0.681571 0.848791 0.908601
O O4 0.856722 0.588286 0.092366
O O5 0.000000 0.500000 0.500000
O O6 0.837543 0.299113 0.475722
O O7 0.787408 0.143555 0.785399
O O8 0.235179 0.196921 0.824337
O O9 0.937472 0.739427 0.581288
O O10 0.662601 0.038188 0.195785
O O11 0.000000 0.000000 0.500000
#
# Coordination Sequence:
#
# PCOD9059777 Si02
#       5
#     2   2   2   2   2
#     4  11  23  44  68  95 128 168 219 262 316 382
#     4  11  23  43  68  92 132 173 208 262 324 377
#     4  11  23  42  68  96 130 170 211 264 321 376
#     4  12  24  41  68  99 127 165 216 272 316 369
#     4  11  24  43  68  95 127 171 217 259 320 384
#
# _framework density 20.815328000000001
#
# number of rings (size 3 to 8) (size 9 to 14) (size 15 to 20)
#    0.000    0.800    6.000    1.800    0.000    3.200 
#    0.000    2.000    0.000    0.000    0.000    0.000 
#    0.000    0.000    0.000    0.000    0.000    0.000 
#
# Total GULP energy -55914.443743 kJ/mol
# GULP energy per Si atom -5591.444374 kJ/mol
# Density = 2.076795 g / cm^3
# Si number density = 20.815328 Si / 1000 Ang^3
#
#
#
# Elastic Constant Matrix: (Units=GPa)
#
#
# Indices 1 2 3 4 5 6 
#
# 1 20.6164 3.5186 -1.5681 -13.6138 6.2377 -0.4753
# 2 3.5186 75.1131 16.6889 -20.4562 -9.8304 8.2178
# 3 -1.5681 16.6889 123.7004 -23.1028 -2.8559 6.3601
# 4 -13.6138 -20.4562 -23.1028 50.0598 -1.3845 2.9760
# 5 6.2377 -9.8304 -2.8559 -1.3845 28.0034 4.2793
# 6 -0.4753 8.2178 6.3601 2.9760 4.2793 24.0781
#
#
#
# Elastic Compliance Matrix: (Units=1/GPa)
#
#
# Indices 1 2 3 4 5 6 
#
# 1 0.065658 -0.000612 0.004150 0.019119 -0.013541 0.000452
# 2 -0.000612 0.017370 -0.000357 0.007468 0.007814 -0.008158
# 3 0.004150 -0.000357 0.009388 0.005516 0.000650 -0.003073
# 4 0.019119 0.007468 0.005516 0.031282 0.001662 -0.007790
# 5 -0.013541 0.007814 0.000650 0.001662 0.043300 -0.011007
# 6 0.000452 -0.008158 -0.003073 -0.007790 -0.011007 0.048056
#
#
# Mechanical properties :
#
#
# Convention : Reuss Voigt Hill
#
# Bulk Modulus (GPa) = 10.12378 28.52318 19.32348
# Shear Modulus (GPa) = 20.69385 33.81428 27.25407
#
# Velocity S-wave (km/s) = 3.15646 4.03487 3.62239
# Velocity P-wave (km/s) = 4.26128 5.95312 5.17678
#
# Compressibility (1/GPa) = 0.09877736
#
# Stress axis : x y z
#
# Youngs Moduli (GPa) = 15.23050 57.57002 106.51868
#
# Poissons Ratio (x) = 0.03526 -0.44204
# Poissons Ratio (y) = 0.00933 0.03799
# Poissons Ratio (z) = -0.06320 0.02053
#
# Static dielectric constant tensor:
#      x y z
#    x 1.712370 -0.001180 0.019760 
#    y -0.001180 1.748830 -0.010370 
#    z 0.019760 -0.010370 1.779550 
# 
# From -- ./inp_files/93954.got.cif
#   From: 2010.05.17/outbox.cif.g08.bks.cpg/sg2_47_cif.got.tgz:93954.got - 2010.06.03 11:33:40.
