data_PCOD9059569
_publ_section_title
;
Structure prediction by ZEFSAII (Michael W. Deem and Ramdas Pophale) SiO2 
 PCOD9059569
Probable space group: P -1
;
_chemical_formula_sum "Si O2"
_cell_formula_units_Z 14
_cell_length_a 24.618719
_cell_length_b 18.029179
_cell_length_c 9.091165
_cell_angle_alpha 28.307644
_cell_angle_beta 149.495727
_cell_angle_gamma 157.538853
_cell_volume 704.977103
_symmetry_space_group_name_H-M "P -1"
_symmetry_group_IT_number 2
_symmetry_cell_setting 'triclinic'
loop_
_space_group_symop_operation_xyz
x,y,z
-x,-y,-z
loop_
_atom_site_type_symbol
_atom_site_label
_atom_site_fract_x
_atom_site_fract_y
_atom_site_fract_z
Si Si1 0.930696 0.063555 0.122780
Si Si2 0.923384 0.327044 0.866580
Si Si3 0.355377 0.403848 0.744382
Si Si4 0.625192 0.054138 0.804598
Si Si5 0.188189 0.485502 0.411400
Si Si6 0.123686 0.353618 0.812467
Si Si7 0.433928 0.582791 0.285705
O O1 0.758819 0.854043 0.077408
O O2 0.956652 0.254113 0.931066
O O3 0.000000 0.000000 0.500000
O O4 0.008175 0.139775 0.012127
O O5 0.761496 0.122424 0.909228
O O6 0.917262 0.504961 0.511037
O O7 0.047737 0.416962 0.121004
O O8 0.271778 0.456131 0.546422
O O9 0.395633 0.499356 0.508294
O O10 0.500000 0.500000 0.000000
O O11 0.700918 0.267691 0.703845
O O12 0.500000 0.000000 0.500000
O O13 0.548420 0.841029 0.090863
O O14 0.134332 0.340711 0.684991
O O15 0.283914 0.483335 0.028350
O O16 0.500000 0.500000 0.500000
#
# Coordination Sequence:
#
# PCOD9059569 Si02
#       7
#     2   2   2   2   2   2   2
#     4  12  24  45  68  98 132 183 219 274 342 393
#     4  11  23  44  70  98 138 169 231 276 325 405
#     4  12  28  43  65 102 142 169 223 287 330 392
#     4  11  23  41  72  98 130 181 220 273 340 392
#     4  11  24  45  67 101 137 171 228 281 325 400
#     4  11  23  42  71  97 129 181 226 269 334 401
#     4  12  24  43  69 101 135 178 224 272 338 401
#
# _framework density 19.858799999999999
#
# number of rings (size 3 to 8) (size 9 to 14) (size 15 to 20)
#    0.000    0.571    5.714    3.857    2.000    3.429 
#    0.000    0.000    0.000    0.000    0.000    0.000 
#    0.000    0.000    0.000    0.000    0.000    0.000 
#
# Total GULP energy -78310.719557 kJ/mol
# GULP energy per Si atom -5593.622825 kJ/mol
# Density = 1.981360 g / cm^3
# Si number density = 19.858800 Si / 1000 Ang^3
#
#
#
# Elastic Constant Matrix: (Units=GPa)
#
#
# Indices 1 2 3 4 5 6 
#
# 1 159.9237 39.0496 68.9207 -4.0094 -15.0754 7.3962
# 2 39.0496 124.7839 54.1644 18.9970 -27.3143 10.2321
# 3 68.9207 54.1644 131.2454 27.6136 -16.8503 14.3082
# 4 -4.0094 18.9970 27.6136 50.9574 9.8546 -7.2125
# 5 -15.0754 -27.3143 -16.8503 9.8546 37.2159 -8.0531
# 6 7.3962 10.2321 14.3082 -7.2125 -8.0531 35.1751
#
#
#
# Elastic Compliance Matrix: (Units=1/GPa)
#
#
# Indices 1 2 3 4 5 6 
#
# 1 0.008828 -0.001438 -0.005210 0.004389 -0.000692 0.001423
# 2 -0.001438 0.012105 -0.001785 -0.005558 0.008606 -0.001662
# 3 -0.005210 -0.001785 0.014038 -0.008867 0.004212 -0.004949
# 4 0.004389 -0.005558 -0.008867 0.030383 -0.012712 0.007620
# 5 -0.000692 0.008606 0.004212 -0.012712 0.038649 0.002171
# 6 0.001423 -0.001662 -0.004949 0.007620 0.002171 0.032686
#
#
# Mechanical properties :
#
#
# Convention : Reuss Voigt Hill
#
# Bulk Modulus (GPa) = 55.23349 82.24693 68.74021
# Shear Modulus (GPa) = 31.33021 41.59089 36.46055
#
# Velocity S-wave (km/s) = 3.97627 4.58135 4.28949
# Velocity P-wave (km/s) = 6.99675 8.33611 7.69562
#
# Compressibility (1/GPa) = 0.01810496
#
# Stress axis : x y z
#
# Youngs Moduli (GPa) = 113.27107 82.61205 71.23553
#
# Poissons Ratio (x) = 0.11876 0.37115
# Poissons Ratio (y) = 0.16284 0.12717
# Poissons Ratio (z) = 0.59017 0.14749
#
# Static dielectric constant tensor:
#      x y z
#    x 1.704380 -0.002260 0.003750 
#    y -0.002260 1.696550 -0.020420 
#    z 0.003750 -0.020420 1.676880 
# 
# From -- ./inp_files/155489.got.cif
#   From: 2010.05.17/outbox.cif.g08.bks.cpg/sg2_78_cif.got.tgz:155489.got - 2010.06.03 11:33:40.
