data_PCOD9059051
_publ_section_title
;
Structure prediction by ZEFSAII (Michael W. Deem and Ramdas Pophale) SiO2 
 PCOD9059051
Probable space group: P -1
;
_chemical_formula_sum "Si O2"
_cell_formula_units_Z 14
_cell_length_a 5.347559
_cell_length_b 13.948866
_cell_length_c 9.884186
_cell_angle_alpha 58.668830
_cell_angle_beta 67.524965
_cell_angle_gamma 71.800069
_cell_volume 575.883809
_symmetry_space_group_name_H-M "P -1"
_symmetry_group_IT_number 2
_symmetry_cell_setting 'triclinic'
loop_
_space_group_symop_operation_xyz
x,y,z
-x,-y,-z
loop_
_atom_site_type_symbol
_atom_site_label
_atom_site_fract_x
_atom_site_fract_y
_atom_site_fract_z
Si Si1 0.830155 0.679724 0.102473
Si Si2 0.330932 0.197924 0.383142
Si Si3 0.280229 0.457209 0.175375
Si Si4 0.952388 0.753328 0.317856
Si Si5 0.368492 0.552409 0.354042
Si Si6 0.981456 0.134692 0.267631
Si Si7 0.200109 0.967237 0.110921
O O1 0.021931 0.556895 0.152777
O O2 0.849495 0.747039 0.190168
O O3 0.530985 0.644849 0.180687
O O4 0.926590 0.758052 0.910336
O O5 0.250654 0.327639 0.250366
O O6 0.653440 0.156694 0.331169
O O7 0.258555 0.201965 0.554221
O O8 0.146320 0.126735 0.381010
O O9 0.381807 0.457816 0.307731
O O10 0.500000 0.500000 0.000000
O O11 0.083573 0.623016 0.405907
O O12 0.183862 0.834536 0.225736
O O13 0.500000 0.500000 0.500000
O O14 0.078347 0.031053 0.223320
O O15 0.500000 0.000000 0.000000
O O16 0.000000 0.000000 0.000000
#
# Coordination Sequence:
#
# PCOD9059051 Si02
#       7
#     2   2   2   2   2   2   2
#     4  11  23  42  71 101 138 192 252 287 349 438
#     4  12  28  45  69 108 150 188 234 299 368 417
#     4  11  23  40  65 101 143 191 235 291 356 418
#     4  11  27  45  72 106 143 190 240 305 360 425
#     4  11  24  41  70 103 143 187 249 289 355 436
#     4  12  27  46  73 106 143 185 247 293 355 436
#     4  12  26  49  81 107 138 188 245 302 360 423
#
# _framework density 24.310459000000002
#
# number of rings (size 3 to 8) (size 9 to 14) (size 15 to 20)
#    0.000    0.571    2.857    4.286    8.000    4.571 
#    0.000    0.000    0.000    0.000    0.000    0.000 
#    0.000    0.000    0.000    0.000    0.000    0.000 
#
# Total GULP energy -78400.806032 kJ/mol
# GULP energy per Si atom -5600.057574 kJ/mol
# Density = 2.425513 g / cm^3
# Si number density = 24.310459 Si / 1000 Ang^3
#
#
#
# Elastic Constant Matrix: (Units=GPa)
#
#
# Indices 1 2 3 4 5 6 
#
# 1 109.9809 64.0222 42.2744 35.2829 -10.3493 21.4207
# 2 64.0222 175.6041 33.3780 31.6623 -7.4810 21.5079
# 3 42.2744 33.3780 91.5256 28.7115 -14.9964 -0.8728
# 4 35.2829 31.6623 28.7115 52.4952 4.4042 -3.6057
# 5 -10.3493 -7.4810 -14.9964 4.4042 42.8659 3.7731
# 6 21.4207 21.5079 -0.8728 -3.6057 3.7731 41.7714
#
#
#
# Elastic Compliance Matrix: (Units=1/GPa)
#
#
# Indices 1 2 3 4 5 6 
#
# 1 0.016796 -0.002699 -0.003478 -0.008671 0.003998 -0.008406
# 2 -0.002699 0.007692 -0.000527 -0.002827 0.001054 -0.002927
# 3 -0.003478 -0.000527 0.015480 -0.006133 0.004991 0.001398
# 4 -0.008671 -0.002827 -0.006133 0.031309 -0.008765 0.009268
# 5 0.003998 0.001054 0.004991 -0.008765 0.027630 -0.005741
# 6 -0.008406 -0.002927 0.001398 0.009268 -0.005741 0.031105
#
#
# Mechanical properties :
#
#
# Convention : Reuss Voigt Hill
#
# Bulk Modulus (GPa) = 37.65240 72.93997 55.29619
# Shear Modulus (GPa) = 32.83586 43.25558 38.04572
#
# Velocity S-wave (km/s) = 3.67916 4.22275 3.96029
# Velocity P-wave (km/s) = 5.79397 7.33786 6.61113
#
# Compressibility (1/GPa) = 0.02655873
#
# Stress axis : x y z
#
# Youngs Moduli (GPa) = 59.53866 130.00852 64.60021
#
# Poissons Ratio (x) = 0.35089 0.22471
# Poissons Ratio (y) = 0.16070 0.03404
# Poissons Ratio (z) = 0.20710 0.06850
#
# Static dielectric constant tensor:
#      x y z
#    x 1.947530 0.020010 0.011870 
#    y 0.020010 1.952830 0.002940 
#    z 0.011870 0.002940 1.989340 
# 
# From -- ./inp_files/366694.got.cif
#   From: 2010.05.17/outbox.cif.g08.bks.cpg/sg2_184_cif.got.tgz:366694.got - 2010.06.03 11:33:40.
