data_PCOD9059096
_publ_section_title
;
Structure prediction by ZEFSAII (Michael W. Deem and Ramdas Pophale) SiO2 
 PCOD9059096
Probable space group: P -1
;
_chemical_formula_sum "Si O2"
_cell_formula_units_Z 16
_cell_length_a 7.104370
_cell_length_b 5.329224
_cell_length_c 27.146446
_cell_angle_alpha 68.712874
_cell_angle_beta 109.435772
_cell_angle_gamma 63.313204
_cell_volume 687.363308
_symmetry_space_group_name_H-M "P -1"
_symmetry_group_IT_number 2
_symmetry_cell_setting 'triclinic'
loop_
_space_group_symop_operation_xyz
x,y,z
-x,-y,-z
loop_
_atom_site_type_symbol
_atom_site_label
_atom_site_fract_x
_atom_site_fract_y
_atom_site_fract_z
Si Si1 0.922918 0.123018 0.928599
Si Si2 0.941850 0.468761 0.760246
Si Si3 0.971371 0.709688 0.873069
Si Si4 0.631763 0.257288 0.576474
Si Si5 0.517294 0.442215 0.752368
Si Si6 0.961051 0.421231 0.650124
Si Si7 0.546863 0.732953 0.339914
Si Si8 0.322661 0.503545 0.827844
O O1 0.999064 0.365001 0.905733
O O2 0.612475 0.332251 0.881034
O O3 0.039231 0.805256 0.922618
O O4 0.000000 0.000000 0.000000
O O5 0.756274 0.438030 0.777471
O O6 0.972138 0.358133 0.714305
O O7 0.222087 0.289941 0.820388
O O8 0.753032 0.897894 0.713497
O O9 0.139841 0.700667 0.845023
O O10 0.667944 0.031944 0.808327
O O11 0.500000 0.500000 0.500000
O O12 0.814572 0.319786 0.614187
O O13 0.420112 0.373444 0.592876
O O14 0.792587 0.848981 0.604129
O O15 0.430352 0.511780 0.683311
O O16 0.302697 0.655214 0.760749
O O17 0.241812 0.236450 0.662778
#
# Coordination Sequence:
#
# PCOD9059096 Si02
#       8
#     2   2   2   2   2   2   2   2
#     4  11  27  49  71 100 138 182 235 279 331 407
#     4  11  23  41  63 100 139 174 226 278 349 418
#     4  11  25  45  68 103 133 176 225 282 338 406
#     4  11  26  47  69  99 138 184 238 281 331 408
#     4  11  23  40  66  98 141 172 221 279 346 416
#     4  11  25  43  70  99 133 182 223 287 346 393
#     4  11  24  40  67  99 138 176 227 283 344 410
#     4  11  23  41  68  99 135 181 217 282 348 400
#
# _framework density 23.277355
#
# number of rings (size 3 to 8) (size 9 to 14) (size 15 to 20)
#    0.000    1.000    3.750    2.250    1.750    7.000 
#    0.000    0.000    0.000    0.000    0.000    0.000 
#    0.000    0.000    0.000    0.000    0.000    0.000 
#
# Total GULP energy -89357.901670 kJ/mol
# GULP energy per Si atom -5584.868854 kJ/mol
# Density = 2.322437 g / cm^3
# Si number density = 23.277355 Si / 1000 Ang^3
#
#
#
# Elastic Constant Matrix: (Units=GPa)
#
#
# Indices 1 2 3 4 5 6 
#
# 1 184.5386 63.0590 33.8461 20.3226 -10.9757 -19.3978
# 2 63.0590 129.4983 48.9701 26.9320 -8.0405 -1.2458
# 3 33.8461 48.9701 94.9386 39.8846 -21.6582 -9.4840
# 4 20.3226 26.9320 39.8846 36.6343 -1.2262 -5.8718
# 5 -10.9757 -8.0405 -21.6582 -1.2262 38.1221 11.6682
# 6 -19.3978 -1.2458 -9.4840 -5.8718 11.6682 51.3080
#
#
#
# Elastic Compliance Matrix: (Units=1/GPa)
#
#
# Indices 1 2 3 4 5 6 
#
# 1 0.006859 -0.003026 -0.000039 -0.001158 0.000590 0.002246
# 2 -0.003026 0.011154 -0.003744 -0.002746 -0.000170 -0.001841
# 3 -0.000039 -0.003744 0.026148 -0.025444 0.013629 -0.001284
# 4 -0.001158 -0.002746 -0.025444 0.057932 -0.014983 0.004829
# 5 0.000590 -0.000170 0.013629 -0.014983 0.035806 -0.007119
# 6 0.002246 -0.001841 -0.001284 0.004829 -0.007119 0.022229
#
#
# Mechanical properties :
#
#
# Convention : Reuss Voigt Hill
#
# Bulk Modulus (GPa) = 32.73951 77.85842 55.29896
# Shear Modulus (GPa) = 27.18480 42.75291 34.96886
#
# Velocity S-wave (km/s) = 3.42111 4.29029 3.88012
# Velocity P-wave (km/s) = 5.44985 7.61990 6.62434
#
# Compressibility (1/GPa) = 0.03054413
#
# Stress axis : x y z
#
# Youngs Moduli (GPa) = 145.79849 89.65245 38.24364
#
# Poissons Ratio (x) = 0.27130 0.00149
# Poissons Ratio (y) = 0.44120 0.14317
# Poissons Ratio (z) = 0.00566 0.33562
#
# Static dielectric constant tensor:
#      x y z
#    x 1.876710 0.029320 -0.020970 
#    y 0.029320 1.993090 -0.027800 
#    z -0.020970 -0.027800 1.873110 
# 
# From -- ./inp_files/121818.got.cif
#   From: 2010.05.17/outbox.cif.g08.bks.cpg/sg2_61_cif.got.tgz:121818.got - 2010.06.03 11:33:40.
