data_PCOD9059325
_publ_section_title
;
Structure prediction by ZEFSAII (Michael W. Deem and Ramdas Pophale) SiO2 
 PCOD9059325
Probable space group: P -1
;
_chemical_formula_sum "Si O2"
_cell_formula_units_Z 14
_cell_length_a 7.493270
_cell_length_b 10.429205
_cell_length_c 13.491209
_cell_angle_alpha 147.508111
_cell_angle_beta 119.059826
_cell_angle_gamma 65.565416
_cell_volume 495.046025
_symmetry_space_group_name_H-M "P -1"
_symmetry_group_IT_number 2
_symmetry_cell_setting 'triclinic'
loop_
_space_group_symop_operation_xyz
x,y,z
-x,-y,-z
loop_
_atom_site_type_symbol
_atom_site_label
_atom_site_fract_x
_atom_site_fract_y
_atom_site_fract_z
Si Si1 0.805287 0.812104 0.388130
Si Si2 0.038715 0.780236 0.179384
Si Si3 0.247682 0.826669 0.720796
Si Si4 0.166486 0.495815 0.290169
Si Si5 0.381385 0.417809 0.612185
Si Si6 0.427468 0.766687 0.146810
Si Si7 0.693636 0.903292 0.815187
O O1 0.684027 0.705518 0.383057
O O2 0.638144 0.895131 0.316358
O O3 0.956889 0.597808 0.256439
O O4 0.933970 0.040987 0.604759
O O5 0.259059 0.801490 0.205266
O O6 0.878398 0.927586 0.163137
O O7 0.000000 0.500000 0.000000
O O8 0.191170 0.658550 0.502314
O O9 0.247867 0.657917 0.707651
O O10 0.483525 0.876256 0.799758
O O11 0.374533 0.528580 0.302292
O O12 0.150464 0.229368 0.157505
O O13 0.322868 0.243912 0.389860
O O14 0.326435 0.832401 0.058764
O O15 0.500000 0.500000 0.000000
#
# Coordination Sequence:
#
# PCOD9059325 Si02
#       7
#     2   2   2   2   2   2   2
#     4  11  23  42  70 101 130 173 225 274 326 393
#     4  11  23  41  65  96 134 176 219 265 328 398
#     4   8  17  34  62  98 129 167 214 270 328 391
#     4   8  18  35  64 101 129 165 220 273 328 390
#     4   9  17  35  66 101 128 165 220 276 327 388
#     4  12  26  43  62  95 138 178 217 273 335 393
#     4   9  17  36  63  93 132 170 209 270 333 390
#
# _framework density 28.280197999999999
#
# number of rings (size 3 to 8) (size 9 to 14) (size 15 to 20)
#    0.000    2.286    1.429    3.000    2.000    1.714 
#    5.143    5.000    0.000    2.571    0.000    0.000 
#    0.000    0.000    0.000    0.000    0.000    0.000 
#
# Total GULP energy -78417.432754 kJ/mol
# GULP energy per Si atom -5601.245197 kJ/mol
# Density = 2.821583 g / cm^3
# Si number density = 28.280198 Si / 1000 Ang^3
#
#
#
# Elastic Constant Matrix: (Units=GPa)
#
#
# Indices 1 2 3 4 5 6 
#
# 1 120.3788 80.1248 22.1203 7.3982 -0.6694 -8.2714
# 2 80.1248 223.6906 79.2801 46.5404 -3.5677 -9.4916
# 3 22.1203 79.2801 111.6935 16.7370 4.9921 12.1570
# 4 7.3982 46.5404 16.7370 68.0546 6.9057 -3.0122
# 5 -0.6694 -3.5677 4.9921 6.9057 39.0123 2.1346
# 6 -8.2714 -9.4916 12.1570 -3.0122 2.1346 51.4342
#
#
#
# Elastic Compliance Matrix: (Units=1/GPa)
#
#
# Indices 1 2 3 4 5 6 
#
# 1 0.011201 -0.004631 0.000718 0.001885 -0.000707 0.000917
# 2 -0.004631 0.008970 -0.005057 -0.004522 0.002092 0.001754
# 3 0.000718 -0.005057 0.012859 0.000247 -0.001933 -0.003762
# 4 0.001885 -0.004522 0.000247 0.017915 -0.003617 0.000610
# 5 -0.000707 0.002092 -0.001933 -0.003617 0.026732 -0.000592
# 6 0.000917 0.001754 -0.003762 0.000610 -0.000592 0.020863
#
#
# Mechanical properties :
#
#
# Convention : Reuss Voigt Hill
#
# Bulk Modulus (GPa) = 66.26557 90.97924 78.62241
# Shear Modulus (GPa) = 41.14902 49.98275 45.56588
#
# Velocity S-wave (km/s) = 3.81865 4.20862 4.01837
# Velocity P-wave (km/s) = 6.55175 7.47376 7.02789
#
# Compressibility (1/GPa) = 0.01509079
#
# Stress axis : x y z
#
# Youngs Moduli (GPa) = 89.27827 111.48021 77.76723
#
# Poissons Ratio (x) = 0.51630 -0.05587
# Poissons Ratio (y) = 0.41348 0.39324
# Poissons Ratio (z) = -0.06414 0.56372
#
# Static dielectric constant tensor:
#      x y z
#    x 2.185420 0.021410 0.017450 
#    y 0.021410 2.317160 0.040760 
#    z 0.017450 0.040760 2.401800 
# 
# From -- ./inp_files/559445.got.cif
#   From: 2010.05.17/outbox.cif.g08.bks.cpg/sg2_280_cif.got.tgz:559445.got - 2010.06.03 11:33:40.
