data_PCOD9059949
_publ_section_title
;
Structure prediction by ZEFSAII (Michael W. Deem and Ramdas Pophale) SiO2 
 PCOD9059949
Probable space group: P -1
;
_chemical_formula_sum "Si O2"
_cell_formula_units_Z 14
_cell_length_a 17.775151
_cell_length_b 11.575928
_cell_length_c 17.515736
_cell_angle_alpha 149.898143
_cell_angle_beta 157.801486
_cell_angle_gamma 29.637966
_cell_volume 637.235660
_symmetry_space_group_name_H-M "P -1"
_symmetry_group_IT_number 2
_symmetry_cell_setting 'triclinic'
loop_
_space_group_symop_operation_xyz
x,y,z
-x,-y,-z
loop_
_atom_site_type_symbol
_atom_site_label
_atom_site_fract_x
_atom_site_fract_y
_atom_site_fract_z
Si Si1 0.443662 0.363733 0.131801
Si Si2 0.597021 0.060306 0.831308
Si Si3 0.190374 0.768592 0.012523
Si Si4 0.992604 0.915053 0.232506
Si Si5 0.129861 0.375351 0.625821
Si Si6 0.438407 0.612324 0.422653
Si Si7 0.147621 0.085055 0.743245
O O1 0.354740 0.612723 0.142211
O O2 0.498251 0.416574 0.299417
O O3 0.655556 0.155672 0.180177
O O4 0.258261 0.249889 0.898111
O O5 0.685157 0.146632 0.888160
O O6 0.379718 0.263466 0.774763
O O7 0.541714 0.817991 0.624166
O O8 0.777328 0.999346 0.030431
O O9 0.096795 0.578315 0.775643
O O10 0.000000 0.000000 0.000000
O O11 0.057458 0.148787 0.449821
O O12 0.973130 0.786750 0.220276
O O13 0.182860 0.746537 0.261689
O O14 0.000000 0.500000 0.500000
O O15 0.500000 0.500000 0.500000
O O16 0.000000 0.000000 0.500000
#
# Coordination Sequence:
#
# PCOD9059949 Si02
#       7
#     2   2   2   2   2   2   2
#     4  11  26  44  65  98 140 170 220 284 335 393
#     4  11  25  44  68  99 133 179 225 272 337 404
#     4  12  26  44  68 102 144 177 220 277 346 403
#     4  11  23  42  71  95 129 173 228 274 329 397
#     4  11  24  43  69  97 131 176 229 269 327 406
#     4  11  25  44  67  99 132 175 227 277 330 399
#     4  11  24  44  69  96 127 177 226 275 337 393
#
# _framework density 21.969894
#
# number of rings (size 3 to 8) (size 9 to 14) (size 15 to 20)
#    0.000    0.857    1.429    4.714    4.000   12.000 
#    0.000    0.000    0.000    0.000    0.000    0.000 
#    0.000    0.000    0.000    0.000    0.000    0.000 
#
# Total GULP energy -78425.792493 kJ/mol
# GULP energy per Si atom -5601.842321 kJ/mol
# Density = 2.191989 g / cm^3
# Si number density = 21.969894 Si / 1000 Ang^3
#
#
#
# Elastic Constant Matrix: (Units=GPa)
#
#
# Indices 1 2 3 4 5 6 
#
# 1 76.0432 5.5479 30.8653 -9.4704 -3.3992 3.6973
# 2 5.5479 63.9959 22.3105 -5.1493 2.0544 -1.9058
# 3 30.8653 22.3105 99.5803 -14.9490 3.9443 -8.7748
# 4 -9.4704 -5.1493 -14.9490 34.4921 -2.1284 -12.2542
# 5 -3.3992 2.0544 3.9443 -2.1284 35.2468 -2.9770
# 6 3.6973 -1.9058 -8.7748 -12.2542 -2.9770 41.7016
#
#
#
# Elastic Compliance Matrix: (Units=1/GPa)
#
#
# Indices 1 2 3 4 5 6 
#
# 1 0.015479 0.000373 -0.004856 0.001706 0.001971 -0.001735
# 2 0.000373 0.017000 -0.003722 0.001088 -0.000452 0.000248
# 3 -0.004856 -0.003722 0.013689 0.005660 -0.001042 0.004730
# 4 0.001706 0.001088 0.005660 0.036509 0.002687 0.012009
# 5 0.001971 -0.000452 -0.001042 0.002687 0.029074 0.002450
# 6 -0.001735 0.000248 0.004730 0.012009 0.002450 0.028844
#
#
# Mechanical properties :
#
#
# Convention : Reuss Voigt Hill
#
# Bulk Modulus (GPa) = 33.60240 39.67409 36.63825
# Shear Modulus (GPa) = 29.95378 34.34781 32.15079
#
# Velocity S-wave (km/s) = 3.69643 3.95828 3.82959
# Velocity P-wave (km/s) = 5.79190 6.24406 6.02222
#
# Compressibility (1/GPa) = 0.02975978
#
# Stress axis : x y z
#
# Youngs Moduli (GPa) = 64.60241 58.82184 73.05184
#
# Poissons Ratio (x) = -0.02197 0.35477
# Poissons Ratio (y) = -0.02413 0.27187
# Poissons Ratio (z) = 0.31373 0.21891
#
# Static dielectric constant tensor:
#      x y z
#    x 1.769490 0.013470 0.015390 
#    y 0.013470 1.809030 0.005290 
#    z 0.015390 0.005290 1.777950 
# 
# From -- ./inp_files/69287.got.cif
#   From: 2010.05.17/outbox.cif.g08.bks.cpg/sg2_35_cif.got.tgz:69287.got - 2010.06.03 11:33:40.
