data_PCOD9059320
_publ_section_title
;
Structure prediction by ZEFSAII (Michael W. Deem and Ramdas Pophale) SiO2 
 PCOD9059320
Probable space group: P -1
;
_chemical_formula_sum "Si O2"
_cell_formula_units_Z 14
_cell_length_a 8.475649
_cell_length_b 9.149744
_cell_length_c 22.795253
_cell_angle_alpha 42.072706
_cell_angle_beta 54.374846
_cell_angle_gamma 32.138785
_cell_volume 624.855770
_symmetry_space_group_name_H-M "P -1"
_symmetry_group_IT_number 2
_symmetry_cell_setting 'triclinic'
loop_
_space_group_symop_operation_xyz
x,y,z
-x,-y,-z
loop_
_atom_site_type_symbol
_atom_site_label
_atom_site_fract_x
_atom_site_fract_y
_atom_site_fract_z
Si Si1 0.820001 0.457290 0.580859
Si Si2 0.316241 0.343172 0.751952
Si Si3 0.790870 0.574431 0.861160
Si Si4 0.328417 0.653715 0.551821
Si Si5 0.526493 0.487528 0.133198
Si Si6 0.584454 0.311551 0.303546
Si Si7 0.939053 0.769750 0.969775
O O1 0.527107 0.647593 0.549927
O O2 0.671980 0.610675 0.631559
O O3 0.000000 0.500000 0.500000
O O4 0.075849 0.051920 0.646969
O O5 0.312197 0.451444 0.655840
O O6 0.452142 0.413714 0.743930
O O7 0.993177 0.558582 0.782252
O O8 0.506739 0.960767 0.826096
O O9 0.691557 0.451590 0.881844
O O10 0.963349 0.358171 0.946702
O O11 0.500000 0.500000 0.500000
O O12 0.000000 0.000000 0.500000
O O13 0.554395 0.336565 0.233062
O O14 0.841162 0.244851 0.104827
O O15 0.386313 0.843126 0.073356
O O16 0.000000 0.500000 0.000000
#
# Coordination Sequence:
#
# PCOD9059320 Si02
#       7
#     2   2   2   2   2   2   2
#     4  11  24  42  66  97 132 174 220 275 332 390
#     4  11  23  42  63  91 126 171 214 260 325 392
#     4  12  24  41  65  95 129 167 213 272 324 380
#     4  11  23  41  65  94 129 170 218 271 324 391
#     4  12  25  42  64  97 129 164 214 271 322 380
#     4  11  23  43  65  93 131 174 220 269 324 398
#     4  12  24  43  67  93 127 172 213 260 322 393
#
# _framework density 22.405172
#
# number of rings (size 3 to 8) (size 9 to 14) (size 15 to 20)
#    0.000    0.571    0.000   10.286    0.000    3.429 
#    0.000    0.000    0.000    0.000    0.000    0.000 
#    0.000    0.000    0.000    0.000    0.000    0.000 
#
# Total GULP energy -78345.410771 kJ/mol
# GULP energy per Si atom -5596.100769 kJ/mol
# Density = 2.235418 g / cm^3
# Si number density = 22.405172 Si / 1000 Ang^3
#
#
#
# Elastic Constant Matrix: (Units=GPa)
#
#
# Indices 1 2 3 4 5 6 
#
# 1 61.7921 17.0530 26.9507 8.7873 7.1519 -2.1142
# 2 17.0530 116.7306 25.8599 9.3832 8.0968 -10.0787
# 3 26.9507 25.8599 85.5548 21.8378 18.5835 3.2394
# 4 8.7873 9.3832 21.8378 59.9839 -0.5656 0.5919
# 5 7.1519 8.0968 18.5835 -0.5656 37.4463 4.7110
# 6 -2.1142 -10.0787 3.2394 0.5919 4.7110 30.7675
#
#
#
# Elastic Compliance Matrix: (Units=1/GPa)
#
#
# Indices 1 2 3 4 5 6 
#
# 1 0.019129 -0.001365 -0.005294 -0.000686 -0.000941 0.001582
# 2 -0.001365 0.009690 -0.002237 -0.000547 -0.001174 0.003506
# 3 -0.005294 -0.002237 0.016849 -0.005055 -0.006724 -0.001744
# 4 -0.000686 -0.000547 -0.005055 0.018732 0.003108 -0.000530
# 5 -0.000941 -0.001174 -0.006724 0.003108 0.031096 -0.004562
# 6 0.001582 0.003506 -0.001744 -0.000530 -0.004562 0.034651
#
#
# Mechanical properties :
#
#
# Convention : Reuss Voigt Hill
#
# Bulk Modulus (GPa) = 35.87246 44.86718 40.36982
# Shear Modulus (GPa) = 31.80022 38.58714 35.19368
#
# Velocity S-wave (km/s) = 3.77148 4.15449 3.96761
# Velocity P-wave (km/s) = 5.91701 6.56368 6.24872
#
# Compressibility (1/GPa) = 0.02787654
#
# Stress axis : x y z
#
# Youngs Moduli (GPa) = 52.27539 103.20105 59.35077
#
# Poissons Ratio (x) = 0.14085 0.31420
# Poissons Ratio (y) = 0.07135 0.13277
# Poissons Ratio (z) = 0.27674 0.23087
#
# Static dielectric constant tensor:
#      x y z
#    x 3.608970 1.380740 1.294390 
#    y 1.380740 2.816910 0.996720 
#    z 1.294390 0.996720 2.819440 
# 
# From -- ./inp_files/140946.got.cif
#   From: 2010.05.17/outbox.cif.g08.bks.cpg/sg2_71_cif.got.tgz:140946.got - 2010.06.03 11:33:40.
