data_PCOD9059793
_publ_section_title
;
Structure prediction by ZEFSAII (Michael W. Deem and Ramdas Pophale) SiO2 
 PCOD9059793
Probable space group: P -1
;
_chemical_formula_sum "Si O2"
_cell_formula_units_Z 16
_cell_length_a 10.766474
_cell_length_b 12.993792
_cell_length_c 15.834174
_cell_angle_alpha 36.391304
_cell_angle_beta 117.361400
_cell_angle_gamma 141.912853
_cell_volume 713.242630
_symmetry_space_group_name_H-M "P -1"
_symmetry_group_IT_number 2
_symmetry_cell_setting 'triclinic'
loop_
_space_group_symop_operation_xyz
x,y,z
-x,-y,-z
loop_
_atom_site_type_symbol
_atom_site_label
_atom_site_fract_x
_atom_site_fract_y
_atom_site_fract_z
Si Si1 0.959240 0.756069 0.658198
Si Si2 0.449093 0.150463 0.903731
Si Si3 0.753087 0.169761 0.783592
Si Si4 0.457613 0.819461 0.677544
Si Si5 0.373737 0.988298 0.702071
Si Si6 0.892942 0.727902 0.185080
Si Si7 0.048928 0.801296 0.459390
Si Si8 0.318520 0.370065 0.643254
O O1 0.697821 0.472141 0.790146
O O2 0.032219 0.773908 0.573958
O O3 0.112064 0.788438 0.746328
O O4 0.000000 0.000000 0.500000
O O5 0.371491 0.216333 0.765838
O O6 0.500000 0.000000 0.000000
O O7 0.264413 0.945429 0.055834
O O8 0.913631 0.491624 0.601453
O O9 0.893929 0.167379 0.776272
O O10 0.498909 0.994800 0.806917
O O11 0.420691 0.902469 0.693899
O O12 0.245916 0.505220 0.779258
O O13 0.500000 0.000000 0.500000
O O14 0.695154 0.944471 0.665885
O O15 0.492839 0.297283 0.539521
O O16 0.731432 0.623478 0.280188
O O17 0.000000 0.000000 0.000000
O O18 0.893806 0.801233 0.371955
#
# Coordination Sequence:
#
# PCOD9059793 Si02
#       8
#     2   2   2   2   2   2   2   2
#     4  12  24  42  66  94 130 176 223 269 317 379
#     4  12  26  44  66  94 132 175 220 268 328 383
#     4  11  23  42  68  99 132 171 214 273 331 382
#     4  12  21  39  71 101 128 168 216 266 329 393
#     4  11  23  42  70 100 129 169 222 273 322 387
#     4  12  23  41  69  98 138 171 205 269 343 387
#     4  11  23  42  70  99 128 169 223 272 320 392
#     4  11  23  42  70 100 128 171 220 269 330 392
#
# _framework density 22.432759999999998
#
# number of rings (size 3 to 8) (size 9 to 14) (size 15 to 20)
#    0.000    0.500    7.500    0.750    0.000    4.000 
#    0.000    5.000    0.000    0.000    0.000    0.000 
#    0.000    0.000    0.000    0.000    0.000    0.000 
#
# Total GULP energy -89079.371018 kJ/mol
# GULP energy per Si atom -5567.460689 kJ/mol
# Density = 2.238170 g / cm^3
# Si number density = 22.432760 Si / 1000 Ang^3
#
#
#
# Elastic Constant Matrix: (Units=GPa)
#
#
# Indices 1 2 3 4 5 6 
#
# 1 56.6598 17.5256 14.3518 6.9041 12.6706 19.8768
# 2 17.5256 96.5015 35.3668 6.9947 7.9745 38.2758
# 3 14.3518 35.3668 106.0455 -6.0038 19.3836 11.0989
# 4 6.9041 6.9947 -6.0038 27.3920 10.5865 -0.2145
# 5 12.6706 7.9745 19.3836 10.5865 38.3314 3.3572
# 6 19.8768 38.2758 11.0989 -0.2145 3.3572 43.8285
#
#
#
# Elastic Compliance Matrix: (Units=1/GPa)
#
#
# Indices 1 2 3 4 5 6 
#
# 1 0.023191 0.001677 -0.001959 -0.004985 -0.004670 -0.011153
# 2 0.001677 0.018796 -0.005555 -0.007237 0.001739 -0.015937
# 3 -0.001959 -0.005555 0.012950 0.007514 -0.007087 0.003040
# 4 -0.004985 -0.007237 0.007514 0.046841 -0.014284 0.008001
# 5 -0.004670 0.001739 -0.007087 -0.014284 0.034829 -0.000344
# 6 -0.011153 -0.015937 0.003040 0.008001 -0.000344 0.041088
#
#
# Mechanical properties :
#
#
# Convention : Reuss Voigt Hill
#
# Bulk Modulus (GPa) = 23.11454 43.74392 33.42923
# Shear Modulus (GPa) = 24.53502 34.70789 29.62145
#
# Velocity S-wave (km/s) = 3.31072 3.93771 3.63775
# Velocity P-wave (km/s) = 4.99408 6.34164 5.70777
#
# Compressibility (1/GPa) = 0.04326281
#
# Stress axis : x y z
#
# Youngs Moduli (GPa) = 43.12008 53.20331 77.21827
#
# Poissons Ratio (x) = -0.08923 0.15129
# Poissons Ratio (y) = -0.07232 0.42895
# Poissons Ratio (z) = 0.08448 0.29555
#
# Static dielectric constant tensor:
#      x y z
#    x 1.947930 0.070360 0.044730 
#    y 0.070360 1.814190 0.092840 
#    z 0.044730 0.092840 1.610480 
# 
# From -- ./inp_files/186386.got.cif
#   From: 2010.05.17/outbox.cif.g08.bks.cpg/sg2_94_cif.got.tgz:186386.got - 2010.06.03 11:33:40.
