data_PCOD9059529
_publ_section_title
;
Structure prediction by ZEFSAII (Michael W. Deem and Ramdas Pophale) SiO2 
 PCOD9059529
Probable space group: P -1
;
_chemical_formula_sum "Si O2"
_cell_formula_units_Z 16
_cell_length_a 15.253080
_cell_length_b 12.244693
_cell_length_c 12.363472
_cell_angle_alpha 97.015778
_cell_angle_beta 161.863969
_cell_angle_gamma 80.009191
_cell_volume 700.958693
_symmetry_space_group_name_H-M "P -1"
_symmetry_group_IT_number 2
_symmetry_cell_setting 'triclinic'
loop_
_space_group_symop_operation_xyz
x,y,z
-x,-y,-z
loop_
_atom_site_type_symbol
_atom_site_label
_atom_site_fract_x
_atom_site_fract_y
_atom_site_fract_z
Si Si1 0.764471 0.761807 0.895202
Si Si2 0.863019 0.712058 0.754531
Si Si3 0.463813 0.713542 0.099836
Si Si4 0.212471 0.899241 0.178044
Si Si5 0.472886 0.051078 0.856589
Si Si6 0.025598 0.580887 0.639244
Si Si7 0.251618 0.491241 0.117931
Si Si8 0.875287 0.979737 0.117931
O O1 0.829250 0.739800 0.842814
O O2 0.450048 0.839619 0.533881
O O3 0.777963 0.638219 0.942162
O O4 0.954823 0.845936 0.176037
O O5 0.575126 0.738121 0.352261
O O6 0.066930 0.794047 0.959961
O O7 0.992189 0.581305 0.874708
O O8 0.477576 0.822709 0.061080
O O9 0.712639 0.618457 0.330012
O O10 0.158657 0.680616 0.754115
O O11 0.310121 0.957860 0.192333
O O12 0.000000 0.000000 0.000000
O O13 0.157452 0.034345 0.450271
O O14 0.500000 0.000000 0.000000
O O15 0.703254 0.998620 0.030103
O O16 0.000000 0.500000 0.500000
O O17 0.244033 0.533119 0.988501
O O18 0.500000 0.500000 0.500000
#
# Coordination Sequence:
#
# PCOD9059529 Si02
#       8
#     2   2   2   2   2   2   2   2
#     4  12  25  40  68 103 149 183 228 298 364 435
#     4  11  23  41  71 100 143 188 233 286 363 437
#     4  11  24  45  73  98 136 183 237 297 349 430
#     4  12  23  42  66 105 145 189 229 287 362 446
#     4  12  27  46  70 100 136 182 245 300 360 418
#     4  11  26  48  73 102 136 190 243 292 358 434
#     4  11  24  44  70 106 142 186 240 301 365 423
#     4  12  26  44  68 103 140 188 234 288 365 441
#
# _framework density 22.825880999999999
#
# number of rings (size 3 to 8) (size 9 to 14) (size 15 to 20)
#    0.000    0.500    3.750    4.500    3.500    3.000 
#    0.000    0.000    0.000    0.000    0.000    0.000 
#    0.000    0.000    0.000    0.000    0.000    0.000 
#
# Total GULP energy -89420.801734 kJ/mol
# GULP energy per Si atom -5588.800108 kJ/mol
# Density = 2.277393 g / cm^3
# Si number density = 22.825881 Si / 1000 Ang^3
#
#
#
# Elastic Constant Matrix: (Units=GPa)
#
#
# Indices 1 2 3 4 5 6 
#
# 1 131.1058 33.8586 2.3033 -7.0319 1.3931 -5.7048
# 2 33.8586 120.4339 -3.4477 -10.9547 0.6973 17.5949
# 3 2.3033 -3.4477 26.1667 7.4769 3.2647 2.3857
# 4 -7.0319 -10.9547 7.4769 34.0043 2.1979 4.7042
# 5 1.3931 0.6973 3.2647 2.1979 34.2364 -0.3576
# 6 -5.7048 17.5949 2.3857 4.7042 -0.3576 44.6408
#
#
#
# Elastic Compliance Matrix: (Units=1/GPa)
#
#
# Indices 1 2 3 4 5 6 
#
# 1 0.008484 -0.002649 -0.001539 0.000960 -0.000184 0.002108
# 2 -0.002649 0.010053 0.001152 0.003116 -0.000456 -0.004694
# 3 -0.001539 0.001152 0.041564 -0.008591 -0.003394 -0.001994
# 4 0.000960 0.003116 -0.008591 0.033168 -0.001456 -0.004153
# 5 -0.000184 -0.000456 -0.003394 -0.001456 0.029650 0.000728
# 6 0.002108 -0.004694 -0.001994 -0.004153 0.000728 0.025071
#
#
# Mechanical properties :
#
#
# Convention : Reuss Voigt Hill
#
# Bulk Modulus (GPa) = 18.50864 38.12609 28.31737
# Shear Modulus (GPa) = 29.05780 38.90912 33.98346
#
# Velocity S-wave (km/s) = 3.57181 4.13317 3.86270
# Velocity P-wave (km/s) = 5.01365 6.28623 5.68566
#
# Compressibility (1/GPa) = 0.05402881
#
# Stress axis : x y z
#
# Youngs Moduli (GPa) = 117.87365 99.47391 24.05933
#
# Poissons Ratio (x) = 0.26348 0.03703
# Poissons Ratio (y) = 0.31221 -0.02772
# Poissons Ratio (z) = 0.18143 -0.11460
#
# Static dielectric constant tensor:
#      x y z
#    x 1.842700 0.020480 0.008890 
#    y 0.020480 1.884290 0.038290 
#    z 0.008890 0.038290 2.012850 
# 
# From -- ./inp_files/452528.got.cif
#   From: 2010.05.17/outbox.cif.g08.bks.cpg/sg2_227_cif.got.tgz:452528.got - 2010.06.03 11:33:40.
