data_PCOD9059380
_publ_section_title
;
Structure prediction by ZEFSAII (Michael W. Deem and Ramdas Pophale) SiO2 
 PCOD9059380
Probable space group: P -1
;
_chemical_formula_sum "Si O2"
_cell_formula_units_Z 16
_cell_length_a 5.691823
_cell_length_b 15.485623
_cell_length_c 14.231440
_cell_angle_alpha 140.660938
_cell_angle_beta 61.445031
_cell_angle_gamma 118.209248
_cell_volume 686.382389
_symmetry_space_group_name_H-M "P -1"
_symmetry_group_IT_number 2
_symmetry_cell_setting 'triclinic'
loop_
_space_group_symop_operation_xyz
x,y,z
-x,-y,-z
loop_
_atom_site_type_symbol
_atom_site_label
_atom_site_fract_x
_atom_site_fract_y
_atom_site_fract_z
Si Si1 0.154473 0.718984 0.666634
Si Si2 0.715367 0.916232 0.344208
Si Si3 0.579403 0.386205 0.820082
Si Si4 0.793286 0.206215 0.878332
Si Si5 0.758908 0.999892 0.209125
Si Si6 0.792576 0.511351 0.178544
Si Si7 0.397177 0.457948 0.380360
Si Si8 0.755765 0.123064 0.035013
O O1 0.247226 0.586325 0.492485
O O2 0.239758 0.754501 0.787918
O O3 0.826629 0.682552 0.695299
O O4 0.284819 0.855336 0.700208
O O5 0.533362 0.763357 0.240743
O O6 0.836378 0.011049 0.312513
O O7 0.993937 0.866370 0.282380
O O8 0.500000 0.000000 0.500000
O O9 0.405580 0.408063 0.777088
O O10 0.909389 0.411267 0.778411
O O11 0.500000 0.500000 0.000000
O O12 0.498454 0.121811 0.841929
O O13 0.832876 0.371440 0.997130
O O14 0.805991 0.179811 0.966885
O O15 0.983737 0.948319 0.060266
O O16 0.623662 0.458746 0.259971
O O17 0.500000 0.500000 0.500000
O O18 0.500000 0.000000 0.000000
#
# Coordination Sequence:
#
# PCOD9059380 Si02
#       8
#     2   2   2   2   2   2   2   2
#     4  11  25  43  69 103 151 190 245 297 381 448
#     4  11  28  47  73 103 146 189 252 316 383 440
#     4  12  27  52  78 110 145 201 257 324 382 451
#     4  11  24  44  72 107 144 190 249 308 371 458
#     4  11  25  42  70 104 141 189 245 301 375 451
#     4  12  28  46  82 108 150 197 264 307 383 455
#     4  11  28  45  71 104 151 200 247 307 371 464
#     4  11  23  41  67 106 143 192 233 303 370 449
#
# _framework density 23.310621999999999
#
# number of rings (size 3 to 8) (size 9 to 14) (size 15 to 20)
#    0.000    0.750    2.500    3.000   14.000    1.500 
#    0.000    0.000    0.000    0.000    0.000    0.000 
#    0.000    0.000    0.000    0.000    0.000    0.000 
#
# Total GULP energy -89323.106830 kJ/mol
# GULP energy per Si atom -5582.694177 kJ/mol
# Density = 2.325757 g / cm^3
# Si number density = 23.310622 Si / 1000 Ang^3
#
#
#
# Elastic Constant Matrix: (Units=GPa)
#
#
# Indices 1 2 3 4 5 6 
#
# 1 119.8166 43.3250 10.2261 -6.0099 -7.7175 21.6604
# 2 43.3250 98.3025 12.6480 4.4520 -7.6435 -4.3694
# 3 10.2261 12.6480 93.2167 -2.0167 -25.1997 2.8115
# 4 -6.0099 4.4520 -2.0167 39.3855 7.2199 -3.1930
# 5 -7.7175 -7.6435 -25.1997 7.2199 33.7377 -5.8050
# 6 21.6604 -4.3694 2.8115 -3.1930 -5.8050 56.8784
#
#
#
# Elastic Compliance Matrix: (Units=1/GPa)
#
#
# Indices 1 2 3 4 5 6 
#
# 1 0.011153 -0.005163 -0.000367 0.001915 -0.000081 -0.004527
# 2 -0.005163 0.012967 -0.000725 -0.002457 0.002273 0.003092
# 3 -0.000367 -0.000725 0.013590 -0.001118 0.010209 0.000392
# 4 0.001915 -0.002457 -0.001118 0.027141 -0.006767 -0.000030
# 5 -0.000081 0.002273 0.010209 -0.006767 0.039793 0.003382
# 6 -0.004527 0.003092 0.000392 -0.000030 0.003382 0.019867
#
#
# Mechanical properties :
#
#
# Convention : Reuss Voigt Hill
#
# Bulk Modulus (GPa) = 39.68071 49.30378 44.49225
# Shear Modulus (GPa) = 34.38310 42.34274 38.36292
#
# Velocity S-wave (km/s) = 3.84474 4.26662 4.06116
# Velocity P-wave (km/s) = 6.06373 6.74305 6.41239
#
# Compressibility (1/GPa) = 0.02520116
#
# Stress axis : x y z
#
# Youngs Moduli (GPa) = 89.65930 77.12051 73.58188
#
# Poissons Ratio (x) = 0.39814 0.02701
# Poissons Ratio (y) = 0.46288 0.05334
# Poissons Ratio (z) = 0.03291 0.05591
#
# Static dielectric constant tensor:
#      x y z
#    x 2.074500 -0.129300 -0.042770 
#    y -0.129300 1.906710 -0.002480 
#    z -0.042770 -0.002480 1.897140 
# 
# From -- ./inp_files/484437.got.cif
#   From: 2010.05.17/outbox.cif.g08.bks.cpg/sg2_243_cif.got.tgz:484437.got - 2010.06.03 11:33:40.
