data_PCOD9059068
_publ_section_title
;
Structure prediction by ZEFSAII (Michael W. Deem and Ramdas Pophale) SiO2 
 PCOD9059068
Probable space group: P -1
;
_chemical_formula_sum "Si O2"
_cell_formula_units_Z 14
_cell_length_a 9.049666
_cell_length_b 13.164093
_cell_length_c 13.585460
_cell_angle_alpha 121.457279
_cell_angle_beta 133.045173
_cell_angle_gamma 31.261347
_cell_volume 605.644437
_symmetry_space_group_name_H-M "P -1"
_symmetry_group_IT_number 2
_symmetry_cell_setting 'triclinic'
loop_
_space_group_symop_operation_xyz
x,y,z
-x,-y,-z
loop_
_atom_site_type_symbol
_atom_site_label
_atom_site_fract_x
_atom_site_fract_y
_atom_site_fract_z
Si Si1 0.581091 0.013943 0.651987
Si Si2 0.731146 0.603923 0.342116
Si Si3 0.242468 0.770706 0.732637
Si Si4 0.181621 0.708505 0.246308
Si Si5 0.293693 0.720595 0.513463
Si Si6 0.234768 0.282584 0.039731
Si Si7 0.244388 0.263083 0.263227
O O1 0.564063 0.933483 0.694455
O O2 0.964671 0.875062 0.739846
O O3 0.500000 0.000000 0.500000
O O4 0.338606 0.240168 0.665957
O O5 0.382828 0.716006 0.282696
O O6 0.000000 0.500000 0.500000
O O7 0.903811 0.435838 0.258586
O O8 0.531888 0.532012 0.743294
O O9 0.109100 0.825680 0.586933
O O10 0.403223 0.824086 0.851598
O O11 0.101934 0.798588 0.362982
O O12 0.858902 0.792224 0.099401
O O13 0.500000 0.500000 0.500000
O O14 0.549287 0.711096 0.616903
O O15 0.167290 0.287356 0.125889
O O16 0.000000 0.500000 0.000000
#
# Coordination Sequence:
#
# PCOD9059068 Si02
#       7
#     2   2   2   2   2   2   2
#     4  12  23  39  67  99 133 165 208 272 326 374
#     4  12  22  39  67  98 128 165 215 270 320 380
#     4   9  19  38  62  94 131 160 212 268 316 377
#     4  10  17  37  64  95 124 173 215 257 316 379
#     4   9  18  33  66  94 124 165 212 262 314 370
#     4   9  21  41  69  91 126 179 214 257 322 380
#     4  11  22  42  67  97 130 167 215 263 322 381
#
# _framework density 23.115874000000002
#
# number of rings (size 3 to 8) (size 9 to 14) (size 15 to 20)
#    0.000    1.714    4.286    0.857    2.000    0.571 
#    0.000    7.857    0.000    0.000    0.000    0.000 
#    0.000    0.000    0.000    0.000    0.000    0.000 
#
# Total GULP energy -78302.154813 kJ/mol
# GULP energy per Si atom -5593.011058 kJ/mol
# Density = 2.306326 g / cm^3
# Si number density = 23.115874 Si / 1000 Ang^3
#
#
#
# Elastic Constant Matrix: (Units=GPa)
#
#
# Indices 1 2 3 4 5 6 
#
# 1 132.2315 27.7278 42.5873 -7.4784 -7.1108 16.8361
# 2 27.7278 100.8926 11.9801 -11.5041 -5.4924 35.5001
# 3 42.5873 11.9801 139.9935 10.2885 -7.0320 12.4917
# 4 -7.4784 -11.5041 10.2885 24.7918 7.7055 2.1575
# 5 -7.1108 -5.4924 -7.0320 7.7055 33.0098 -8.2059
# 6 16.8361 35.5001 12.4917 2.1575 -8.2059 47.2157
#
#
#
# Elastic Compliance Matrix: (Units=1/GPa)
#
#
# Indices 1 2 3 4 5 6 
#
# 1 0.009128 -0.001121 -0.002784 0.003585 -0.000112 -0.001858
# 2 -0.001121 0.015352 -0.000722 0.009018 -0.002896 -0.011867
# 3 -0.002784 -0.000722 0.008579 -0.005464 0.002365 -0.000074
# 4 0.003585 0.009018 -0.005464 0.053282 -0.014191 -0.011514
# 5 -0.000112 -0.002896 0.002365 -0.014191 0.035704 0.008446
# 6 -0.001858 -0.011867 -0.000074 -0.011514 0.008446 0.032778
#
#
# Mechanical properties :
#
#
# Convention : Reuss Voigt Hill
#
# Bulk Modulus (GPa) = 42.01106 59.74532 50.87819
# Shear Modulus (GPa) = 29.06799 40.39162 34.72981
#
# Velocity S-wave (km/s) = 3.54996 4.18467 3.88031
# Velocity P-wave (km/s) = 5.91747 7.01789 6.49104
#
# Compressibility (1/GPa) = 0.02380326
#
# Stress axis : x y z
#
# Youngs Moduli (GPa) = 109.55798 65.14017 116.56697
#
# Poissons Ratio (x) = 0.07305 0.32452
# Poissons Ratio (y) = 0.12286 0.08415
# Poissons Ratio (z) = 0.30501 0.04702
#
# Static dielectric constant tensor:
#      x y z
#    x 1.960830 0.016870 -0.037060 
#    y 0.016870 1.928990 -0.045680 
#    z -0.037060 -0.045680 1.925690 
# 
# From -- ./inp_files/198417.got.cif
#   From: 2010.05.17/outbox.cif.g08.bks.cpg/sg2_100_cif.got.tgz:198417.got - 2010.06.03 11:33:40.
