data_PCOD9059107
_publ_section_title
;
Structure prediction by ZEFSAII (Michael W. Deem and Ramdas Pophale) SiO2 
 PCOD9059107
Probable space group: P -1
;
_chemical_formula_sum "Si O2"
_cell_formula_units_Z 16
_cell_length_a 10.010713
_cell_length_b 8.985834
_cell_length_c 18.554268
_cell_angle_alpha 69.891554
_cell_angle_beta 123.722632
_cell_angle_gamma 61.984909
_cell_volume 695.534815
_symmetry_space_group_name_H-M "P -1"
_symmetry_group_IT_number 2
_symmetry_cell_setting 'triclinic'
loop_
_space_group_symop_operation_xyz
x,y,z
-x,-y,-z
loop_
_atom_site_type_symbol
_atom_site_label
_atom_site_fract_x
_atom_site_fract_y
_atom_site_fract_z
Si Si1 0.749976 0.840332 0.041005
Si Si2 0.990644 0.861518 0.629623
Si Si3 0.259188 0.356976 0.715715
Si Si4 0.939481 0.085338 0.883894
Si Si5 0.386149 0.239999 0.378235
Si Si6 0.725200 0.403683 0.435363
Si Si7 0.859562 0.389513 0.626838
Si Si8 0.145704 0.824675 0.839578
O O1 0.909933 0.944319 0.234635
O O2 0.571785 0.004399 0.884886
O O3 0.066610 0.479722 0.202903
O O4 0.500000 0.000000 0.000000
O O5 0.237499 0.527456 0.734678
O O6 0.000686 0.856281 0.721191
O O7 0.696185 0.038078 0.469920
O O8 0.983182 0.052707 0.571833
O O9 0.211938 0.483581 0.604901
O O10 0.016405 0.425006 0.649308
O O11 0.127235 0.085675 0.923261
O O12 0.580921 0.405269 0.721564
O O13 0.022326 0.901028 0.871663
O O14 0.000000 0.000000 0.000000
O O15 0.324674 0.427509 0.387352
O O16 0.500000 0.000000 0.500000
O O17 0.661475 0.498460 0.483216
O O18 0.500000 0.500000 0.000000
#
# Coordination Sequence:
#
# PCOD9059107 Si02
#       8
#     2   2   2   2   2   2   2   2
#     4  12  22  40  67  97 131 181 235 282 348 419
#     4  11  23  40  67 102 134 181 242 288 337 417
#     4  12  23  42  68  99 141 187 227 291 352 426
#     4  12  23  42  70 101 140 183 229 291 355 413
#     4  12  22  39  67  98 129 170 234 294 334 406
#     4  11  24  41  66 101 140 181 233 288 362 405
#     4  11  23  42  68  97 138 186 233 289 347 415
#     4  11  24  43  70 103 139 185 241 289 343 422
#
# _framework density 23.003882000000001
#
# number of rings (size 3 to 8) (size 9 to 14) (size 15 to 20)
#    0.000    0.500    6.250    2.250    0.000    3.000 
#    0.000    0.000    0.000    1.500    0.000    0.000 
#    0.000    0.000    0.000    0.000    0.000    0.000 
#
# Total GULP energy -89160.323157 kJ/mol
# GULP energy per Si atom -5572.520197 kJ/mol
# Density = 2.295152 g / cm^3
# Si number density = 23.003882 Si / 1000 Ang^3
#
#
#
# Elastic Constant Matrix: (Units=GPa)
#
#
# Indices 1 2 3 4 5 6 
#
# 1 86.1628 6.9051 33.1195 0.8336 -10.2313 2.8122
# 2 6.9051 73.4442 35.3336 -6.9249 -17.7196 -3.9311
# 3 33.1195 35.3336 161.5382 -16.1621 -14.7571 -0.8772
# 4 0.8336 -6.9249 -16.1621 43.3705 -4.1910 -6.1206
# 5 -10.2313 -17.7196 -14.7571 -4.1910 42.5543 4.3985
# 6 2.8122 -3.9311 -0.8772 -6.1206 4.3985 29.4358
#
#
#
# Elastic Compliance Matrix: (Units=1/GPa)
#
#
# Indices 1 2 3 4 5 6 
#
# 1 0.012956 0.000439 -0.002658 -0.001197 0.002452 -0.001874
# 2 0.000439 0.016793 -0.002953 0.002405 0.006136 0.001696
# 3 -0.002658 -0.002953 0.007741 0.002632 0.001025 0.000484
# 4 -0.001197 0.002405 0.002632 0.025538 0.003595 0.005287
# 5 0.002452 0.006136 0.001025 0.003595 0.027639 -0.002767
# 6 -0.001874 0.001696 0.000484 0.005287 -0.002767 0.035905
#
#
# Mechanical properties :
#
#
# Convention : Reuss Voigt Hill
#
# Bulk Modulus (GPa) = 36.83761 52.42905 44.63333
# Shear Modulus (GPa) = 34.25459 39.45790 36.85624
#
# Velocity S-wave (km/s) = 3.86304 4.14608 4.00706
# Velocity P-wave (km/s) = 5.99549 6.76467 6.39166
#
# Compressibility (1/GPa) = 0.02714617
#
# Stress axis : x y z
#
# Youngs Moduli (GPa) = 77.18148 59.54883 129.18260
#
# Poissons Ratio (x) = -0.02615 0.34342
# Poissons Ratio (y) = -0.03390 0.38146
# Poissons Ratio (z) = 0.20518 0.17584
#
# Static dielectric constant tensor:
#      x y z
#    x 1.946350 0.004080 -0.028820 
#    y 0.004080 1.893700 -0.009730 
#    z -0.028820 -0.009730 1.958090 
# 
# From -- ./inp_files/565944.got.cif
#   From: 2010.05.17/outbox.cif.g08.bks.cpg/sg2_283_cif.got.tgz:565944.got - 2010.06.03 11:33:40.
