data_PCOD9059544
_publ_section_title
;
Structure prediction by ZEFSAII (Michael W. Deem and Ramdas Pophale) SiO2 
 PCOD9059544
Probable space group: P -1
;
_chemical_formula_sum "Si O2"
_cell_formula_units_Z 16
_cell_length_a 9.277567
_cell_length_b 14.963891
_cell_length_c 8.808176
_cell_angle_alpha 100.209881
_cell_angle_beta 88.183037
_cell_angle_gamma 37.194218
_cell_volume 696.113985
_symmetry_space_group_name_H-M "P -1"
_symmetry_group_IT_number 2
_symmetry_cell_setting 'triclinic'
loop_
_space_group_symop_operation_xyz
x,y,z
-x,-y,-z
loop_
_atom_site_type_symbol
_atom_site_label
_atom_site_fract_x
_atom_site_fract_y
_atom_site_fract_z
Si Si1 0.571439 0.734950 0.915254
Si Si2 0.235859 0.229451 0.860851
Si Si3 0.158052 0.825710 0.443918
Si Si4 0.345529 0.379114 0.459840
Si Si5 0.754926 0.912937 0.649985
Si Si6 0.363807 0.667548 0.057829
Si Si7 0.139858 0.105446 0.023451
Si Si8 0.115351 0.320797 0.575307
O O1 0.623334 0.683023 0.724779
O O2 0.324335 0.925215 0.973229
O O3 0.776750 0.691141 0.980692
O O4 0.528169 0.667542 0.996010
O O5 0.229540 0.133708 0.907046
O O6 0.054509 0.331964 0.755633
O O7 0.507041 0.100310 0.733692
O O8 0.398793 0.715143 0.510104
O O9 0.255041 0.746611 0.251372
O O10 0.965365 0.852015 0.524635
O O11 0.000000 0.000000 0.500000
O O12 0.228259 0.362881 0.567728
O O13 0.129385 0.562041 0.486190
O O14 0.695036 0.848614 0.553767
O O15 0.852085 0.852567 0.799757
O O16 0.133919 0.782070 0.982937
O O17 0.500000 0.500000 0.000000
#
# Coordination Sequence:
#
# PCOD9059544 Si02
#       8
#     2   2   2   2   2   2   2   2
#     4  11  23  45  69  96 140 182 235 280 348 415
#     4  11  23  43  72 103 135 179 238 284 346 412
#     4  12  25  46  73 100 137 185 237 286 343 416
#     4  11  25  42  67  97 139 182 222 279 352 409
#     4  11  23  41  71  97 135 175 230 285 339 407
#     4  12  28  44  69 105 145 183 234 289 354 416
#     4  11  23  44  71 102 137 185 231 287 347 418
#     4  11  24  41  63 101 139 176 224 283 344 411
#
# _framework density 22.984741
#
# number of rings (size 3 to 8) (size 9 to 14) (size 15 to 20)
#    0.000    0.750    0.000    9.000    5.250    1.000 
#    0.000    0.000    0.000    0.000    0.000    0.000 
#    0.000    0.000    0.000    0.000    0.000    0.000 
#
# Total GULP energy -89579.383359 kJ/mol
# GULP energy per Si atom -5598.711460 kJ/mol
# Density = 2.293243 g / cm^3
# Si number density = 22.984741 Si / 1000 Ang^3
#
#
#
# Elastic Constant Matrix: (Units=GPa)
#
#
# Indices 1 2 3 4 5 6 
#
# 1 65.6377 17.6475 4.2722 -2.2347 -10.8461 15.5748
# 2 17.6475 85.8007 27.1978 -5.7593 -4.5564 19.2800
# 3 4.2722 27.1978 118.6862 -4.3894 1.5371 16.0331
# 4 -2.2347 -5.7593 -4.3894 36.9105 0.9289 1.7933
# 5 -10.8461 -4.5564 1.5371 0.9289 40.6001 -6.9847
# 6 15.5748 19.2800 16.0331 1.7933 -6.9847 44.3871
#
#
#
# Elastic Compliance Matrix: (Units=1/GPa)
#
#
# Indices 1 2 3 4 5 6 
#
# 1 0.017620 -0.002479 0.000567 0.000890 0.003564 -0.004786
# 2 -0.002479 0.014080 -0.002473 0.001961 0.000210 -0.004399
# 3 0.000567 -0.002473 0.009384 0.000920 -0.000967 -0.002704
# 4 0.000890 0.001961 0.000920 0.027711 -0.000679 -0.002723
# 5 0.003564 0.000210 -0.000967 -0.000679 0.026202 0.003158
# 6 -0.004786 -0.004399 -0.002704 -0.002723 0.003158 0.027702
#
#
# Mechanical properties :
#
#
# Convention : Reuss Voigt Hill
#
# Bulk Modulus (GPa) = 30.94796 40.92885 35.93841
# Shear Modulus (GPa) = 35.15172 39.11334 37.13253
#
# Velocity S-wave (km/s) = 3.91493 4.12965 4.02373
# Velocity P-wave (km/s) = 5.82490 6.37058 6.10384
#
# Compressibility (1/GPa) = 0.03231231
#
# Stress axis : x y z
#
# Youngs Moduli (GPa) = 56.75509 71.02226 106.56754
#
# Poissons Ratio (x) = 0.17610 -0.06045
# Poissons Ratio (y) = 0.14072 0.26357
# Poissons Ratio (z) = -0.03219 0.17566
#
# Static dielectric constant tensor:
#      x y z
#    x 1.851430 -0.012050 -0.009740 
#    y -0.012050 1.908230 0.005510 
#    z -0.009740 0.005510 1.835180 
# 
# From -- ./inp_files/207757.got.cif
#   From: 2010.05.17/outbox.cif.g08.bks.cpg/sg2_104_cif.got.tgz:207757.got - 2010.06.03 11:33:40.
