data_PCOD9059280
_publ_section_title
;
Structure prediction by ZEFSAII (Michael W. Deem and Ramdas Pophale) SiO2 
 PCOD9059280
Probable space group: P -1
;
_chemical_formula_sum "Si O2"
_cell_formula_units_Z 12
_cell_length_a 9.790032
_cell_length_b 8.050910
_cell_length_c 8.581385
_cell_angle_alpha 48.677010
_cell_angle_beta 115.503789
_cell_angle_gamma 115.764300
_cell_volume 447.036346
_symmetry_space_group_name_H-M "P -1"
_symmetry_group_IT_number 2
_symmetry_cell_setting 'triclinic'
loop_
_space_group_symop_operation_xyz
x,y,z
-x,-y,-z
loop_
_atom_site_type_symbol
_atom_site_label
_atom_site_fract_x
_atom_site_fract_y
_atom_site_fract_z
Si Si1 0.300092 0.693475 0.652326
Si Si2 0.029450 0.122375 0.269272
Si Si3 0.512966 0.751340 0.287201
Si Si4 0.224982 0.597722 0.026856
Si Si5 0.377299 0.089988 0.233063
Si Si6 0.194531 0.226738 0.775798
O O1 0.225803 0.636568 0.818625
O O2 0.297569 0.937608 0.431003
O O3 0.220094 0.497264 0.618052
O O4 0.484694 0.711577 0.757632
O O5 0.904272 0.271419 0.060640
O O6 0.976830 0.910688 0.257419
O O7 0.000000 0.000000 0.500000
O O8 0.179955 0.330332 0.212745
O O9 0.500000 0.500000 0.500000
O O10 0.459930 0.918824 0.280494
O O11 0.686203 0.832394 0.256868
O O12 0.390095 0.713723 0.108721
O O13 0.261227 0.172526 0.008851
#
# Coordination Sequence:
#
# PCOD9059280 Si02
#       6
#     2   2   2   2   2   2
#     4  11  25  40  67 104 140 171 217 280 347 395
#     4  11  26  46  71  95 132 184 234 271 331 403
#     4  12  22  41  73  99 131 177 227 273 332 401
#     4  11  25  46  67  99 138 176 224 285 328 397
#     4  11  23  41  64 102 138 175 214 278 334 395
#     4  12  23  42  70 100 136 176 224 276 337 399
#
# _framework density 26.843453
#
# number of rings (size 3 to 8) (size 9 to 14) (size 15 to 20)
#    0.000    0.667    5.000    3.000    0.000    2.000 
#    0.000    1.667    0.000    0.000    0.000    0.000 
#    0.000    0.000    0.000    0.000    0.000    0.000 
#
# Total GULP energy -67295.617452 kJ/mol
# GULP energy per Si atom -5607.968121 kJ/mol
# Density = 2.678236 g / cm^3
# Si number density = 26.843453 Si / 1000 Ang^3
#
#
#
# Elastic Constant Matrix: (Units=GPa)
#
#
# Indices 1 2 3 4 5 6 
#
# 1 62.4799 27.3663 -7.3286 -1.3417 0.6805 16.7456
# 2 27.3663 167.5680 5.5663 -18.7271 2.0391 17.3008
# 3 -7.3286 5.5663 104.2650 -27.8919 -9.6123 8.2559
# 4 -1.3417 -18.7271 -27.8919 53.2425 8.6301 3.2410
# 5 0.6805 2.0391 -9.6123 8.6301 43.3075 -6.8609
# 6 16.7456 17.3008 8.2559 3.2410 -6.8609 49.4065
#
#
#
# Elastic Compliance Matrix: (Units=1/GPa)
#
#
# Indices 1 2 3 4 5 6 
#
# 1 0.019008 -0.002377 0.002225 0.001339 -0.000942 -0.006201
# 2 -0.002377 0.006878 0.000271 0.002800 -0.001099 -0.001984
# 3 0.002225 0.000271 0.011758 0.006372 0.000798 -0.003121
# 4 0.001339 0.002800 0.006372 0.024118 -0.004286 -0.004676
# 5 -0.000942 -0.001099 0.000798 -0.004286 0.024870 0.004306
# 6 -0.006201 -0.001984 -0.003121 -0.004676 0.004306 0.024463
#
#
# Mechanical properties :
#
#
# Convention : Reuss Voigt Hill
#
# Bulk Modulus (GPa) = 26.39775 42.83566 34.61671
# Shear Modulus (GPa) = 40.49078 49.77189 45.13134
#
# Velocity S-wave (km/s) = 3.88803 4.31066 4.10479
# Velocity P-wave (km/s) = 5.47823 6.38498 5.94891
#
# Compressibility (1/GPa) = 0.03788202
#
# Stress axis : x y z
#
# Youngs Moduli (GPa) = 52.60900 145.38895 85.04829
#
# Poissons Ratio (x) = 0.34558 -0.18925
# Poissons Ratio (y) = 0.12505 -0.02301
# Poissons Ratio (z) = -0.11707 -0.03934
#
# Static dielectric constant tensor:
#      x y z
#    x 2.253300 -0.065300 0.018470 
#    y -0.065300 2.066860 -0.049660 
#    z 0.018470 -0.049660 2.077590 
# 
# From -- ./inp_files/176204.got.cif
#   From: 2010.05.17/outbox.cif.g08.bks.cpg/sg2_89_cif.got.tgz:176204.got - 2010.06.03 11:33:40.
