data_PCOD9059327
_publ_section_title
;
Structure prediction by ZEFSAII (Michael W. Deem and Ramdas Pophale) SiO2 
 PCOD9059327
Probable space group: P -1
;
_chemical_formula_sum "Si O2"
_cell_formula_units_Z 16
_cell_length_a 21.040047
_cell_length_b 8.483016
_cell_length_c 8.870008
_cell_angle_alpha 68.602130
_cell_angle_beta 63.219985
_cell_angle_gamma 32.710914
_cell_volume 763.437155
_symmetry_space_group_name_H-M "P -1"
_symmetry_group_IT_number 2
_symmetry_cell_setting 'triclinic'
loop_
_space_group_symop_operation_xyz
x,y,z
-x,-y,-z
loop_
_atom_site_type_symbol
_atom_site_label
_atom_site_fract_x
_atom_site_fract_y
_atom_site_fract_z
Si Si1 0.135740 0.795956 0.976797
Si Si2 0.115300 0.178841 0.052637
Si Si3 0.526816 0.699891 0.817133
Si Si4 0.420438 0.034348 0.402975
Si Si5 0.754930 0.077298 0.721243
Si Si6 0.667686 0.069005 0.262752
Si Si7 0.313598 0.654594 0.624547
Si Si8 0.324589 0.154190 0.127794
O O1 0.219429 0.485130 0.066539
O O2 0.123959 0.976943 0.040507
O O3 0.216303 0.716576 0.782099
O O4 0.000000 0.000000 0.000000
O O5 0.120670 0.150757 0.237272
O O6 0.225227 0.088967 0.910609
O O7 0.000000 0.500000 0.000000
O O8 0.654198 0.364186 0.836764
O O9 0.557788 0.809549 0.653821
O O10 0.454769 0.707507 0.785018
O O11 0.439739 0.924051 0.969186
O O12 0.551351 0.687700 0.394441
O O13 0.330527 0.114795 0.588782
O O14 0.369573 0.115579 0.259410
O O15 0.736447 0.199179 0.537231
O O16 0.725720 0.937964 0.780706
O O17 0.671635 0.204970 0.338531
#
# Coordination Sequence:
#
# PCOD9059327 Si02
#       8
#     2   2   2   2   2   2   2   2
#     4  11  26  49  70  96 131 183 226 273 331 396
#     4  11  26  48  71  96 131 178 229 275 329 397
#     4  12  24  37  66 105 138 175 218 276 335 393
#     4  12  23  39  64 103 142 169 220 275 339 395
#     4  12  24  43  69 101 135 175 223 274 334 401
#     4  11  23  41  65  96 135 176 214 272 333 395
#     4  11  24  44  67  98 138 177 218 275 337 401
#     4  12  24  42  68  98 140 179 223 270 335 402
#
# _framework density 20.957846
#
# number of rings (size 3 to 8) (size 9 to 14) (size 15 to 20)
#    0.000    0.500    5.000    3.750    3.500    0.000 
#    2.250    2.500    0.000    0.000    0.000    0.000 
#    0.000    0.000    0.000    0.000    0.000    0.000 
#
# Total GULP energy -89480.499388 kJ/mol
# GULP energy per Si atom -5592.531212 kJ/mol
# Density = 2.091014 g / cm^3
# Si number density = 20.957846 Si / 1000 Ang^3
#
#
#
# Elastic Constant Matrix: (Units=GPa)
#
#
# Indices 1 2 3 4 5 6 
#
# 1 84.1455 21.9046 39.7896 -11.6704 -4.8669 -16.0936
# 2 21.9046 88.2718 33.7387 -36.1140 1.6533 -1.2314
# 3 39.7896 33.7387 109.3038 -32.3213 -4.3083 -4.8951
# 4 -11.6704 -36.1140 -32.3213 32.1880 -1.8465 1.0203
# 5 -4.8669 1.6533 -4.3083 -1.8465 46.0828 -7.6110
# 6 -16.0936 -1.2314 -4.8951 1.0203 -7.6110 29.9055
#
#
#
# Elastic Compliance Matrix: (Units=1/GPa)
#
#
# Indices 1 2 3 4 5 6 
#
# 1 0.016749 -0.003346 -0.005572 -0.003400 0.002679 0.008761
# 2 -0.003346 0.021651 0.001841 0.024963 -0.000207 -0.001512
# 3 -0.005572 0.001841 0.015178 0.015380 0.001275 -0.000638
# 4 -0.003400 0.024963 0.015380 0.073466 0.003128 0.000005
# 5 0.002679 -0.000207 0.001275 0.003128 0.023475 0.007510
# 6 0.008761 -0.001512 -0.000638 0.000005 0.007510 0.039898
#
#
# Mechanical properties :
#
#
# Convention : Reuss Voigt Hill
#
# Bulk Modulus (GPa) = 25.36455 52.50965 38.93710
# Shear Modulus (GPa) = 22.96609 34.05447 28.51028
#
# Velocity S-wave (km/s) = 3.31391 4.03538 3.69231
# Velocity P-wave (km/s) = 5.17413 6.84264 6.06602
#
# Compressibility (1/GPa) = 0.03942511
#
# Stress axis : x y z
#
# Youngs Moduli (GPa) = 59.70551 46.18684 65.88307
#
# Poissons Ratio (x) = 0.15452 0.36709
# Poissons Ratio (y) = 0.19975 -0.12126
# Poissons Ratio (z) = 0.33267 -0.08501
#
# Static dielectric constant tensor:
#      x y z
#    x 1.763290 -0.004670 0.025690 
#    y -0.004670 1.742960 0.006590 
#    z 0.025690 0.006590 1.785590 
# 
# From -- ./inp_files/189805.got.cif
#   From: 2010.05.17/outbox.cif.g08.bks.cpg/sg2_95_cif.got.tgz:189805.got - 2010.06.03 11:33:40.
