data_PCOD9059221
_publ_section_title
;
Structure prediction by ZEFSAII (Michael W. Deem and Ramdas Pophale) SiO2 
 PCOD9059221
Probable space group: P -1
;
_chemical_formula_sum "Si O2"
_cell_formula_units_Z 16
_cell_length_a 12.092074
_cell_length_b 16.728153
_cell_length_c 10.452224
_cell_angle_alpha 33.509545
_cell_angle_beta 56.519081
_cell_angle_gamma 42.000360
_cell_volume 767.701362
_symmetry_space_group_name_H-M "P -1"
_symmetry_group_IT_number 2
_symmetry_cell_setting 'triclinic'
loop_
_space_group_symop_operation_xyz
x,y,z
-x,-y,-z
loop_
_atom_site_type_symbol
_atom_site_label
_atom_site_fract_x
_atom_site_fract_y
_atom_site_fract_z
Si Si1 0.155348 0.000680 0.431808
Si Si2 0.326736 0.026304 0.059945
Si Si3 0.359363 0.922795 0.643167
Si Si4 0.396073 0.785575 0.095912
Si Si5 0.271543 0.297423 0.289333
Si Si6 0.742510 0.434113 0.462701
Si Si7 0.934467 0.539836 0.347296
Si Si8 0.927375 0.390609 0.163786
O O1 0.287284 0.934734 0.319418
O O2 0.060226 0.215154 0.231692
O O3 0.249374 0.908187 0.630381
O O4 0.000000 0.000000 0.500000
O O5 0.326024 0.949308 0.024532
O O6 0.178977 0.241688 0.883054
O O7 0.500000 0.000000 0.000000
O O8 0.547943 0.808931 0.618051
O O9 0.288172 0.134541 0.419823
O O10 0.377518 0.853183 0.870952
O O11 0.582484 0.622596 0.249055
O O12 0.302384 0.694976 0.289994
O O13 0.103693 0.411595 0.327066
O O14 0.242683 0.457696 0.005905
O O15 0.816507 0.484704 0.458715
O O16 0.881303 0.335934 0.393407
O O17 0.000000 0.500000 0.500000
O O18 0.000000 0.500000 0.000000
#
# Coordination Sequence:
#
# PCOD9059221 Si02
#       8
#     2   2   2   2   2   2   2   2
#     4  12  27  46  71 106 144 185 229 296 365 421
#     4  12  26  44  71 104 147 185 233 290 362 423
#     4  11  25  43  75 105 136 180 248 288 340 418
#     4  11  25  44  69 103 140 188 228 293 353 426
#     4  11  23  40  72 104 131 177 242 295 330 408
#     4  11  23  43  70  99 141 182 234 283 361 419
#     4  12  25  42  68 105 141 181 236 292 351 413
#     4  12  20  43  73  99 126 183 236 276 341 417
#
# _framework density 20.841438
#
# number of rings (size 3 to 8) (size 9 to 14) (size 15 to 20)
#    0.000    0.500    6.250    1.500    5.250    1.000 
#    0.000    4.375    0.000    0.000    0.000    0.000 
#    0.000    0.000    0.000    0.000    0.000    0.000 
#
# Total GULP energy -89305.054740 kJ/mol
# GULP energy per Si atom -5581.565921 kJ/mol
# Density = 2.079400 g / cm^3
# Si number density = 20.841438 Si / 1000 Ang^3
#
#
#
# Elastic Constant Matrix: (Units=GPa)
#
#
# Indices 1 2 3 4 5 6 
#
# 1 177.9967 56.5263 53.3364 18.1517 3.8690 3.1490
# 2 56.5263 111.4473 31.7103 -0.3257 -0.5197 -9.9974
# 3 53.3364 31.7103 67.3468 5.7730 6.1559 -2.7418
# 4 18.1517 -0.3257 5.7730 35.5481 -0.4753 2.2145
# 5 3.8690 -0.5197 6.1559 -0.4753 28.3271 -1.2320
# 6 3.1490 -9.9974 -2.7418 2.2145 -1.2320 26.5435
#
#
#
# Elastic Compliance Matrix: (Units=1/GPa)
#
#
# Indices 1 2 3 4 5 6 
#
# 1 0.008520 -0.003110 -0.005064 -0.003409 -0.000283 -0.002434
# 2 -0.003110 0.011890 -0.003269 0.001974 0.001579 0.004418
# 3 -0.005064 -0.003269 0.020894 -0.000978 -0.003863 0.001430
# 4 -0.003409 0.001974 -0.000978 0.030152 0.001159 -0.001415
# 5 -0.000283 0.001579 -0.003863 0.001159 0.036307 0.001818
# 6 -0.002434 0.004418 0.001430 -0.001415 0.001818 0.039977
#
#
# Mechanical properties :
#
#
# Convention : Reuss Voigt Hill
#
# Bulk Modulus (GPa) = 54.29749 71.10410 62.70079
# Shear Modulus (GPa) = 28.28608 32.43159 30.35883
#
# Velocity S-wave (km/s) = 3.68802 3.94904 3.82076
# Velocity P-wave (km/s) = 6.65166 7.41512 7.04374
#
# Compressibility (1/GPa) = 0.01841706
#
# Stress axis : x y z
#
# Youngs Moduli (GPa) = 117.36966 84.10530 47.86174
#
# Poissons Ratio (x) = 0.26158 0.24238
# Poissons Ratio (y) = 0.36503 0.15645
# Poissons Ratio (z) = 0.59439 0.27493
#
# Static dielectric constant tensor:
#      x y z
#    x 1.886640 0.067570 0.145260 
#    y 0.067570 1.827210 0.088100 
#    z 0.145260 0.088100 1.839440 
# 
# From -- ./inp_files/436333.got.cif
#   From: 2010.05.17/outbox.cif.g08.bks.cpg/sg2_219_cif.got.tgz:436333.got - 2010.06.03 11:33:40.
