data_PCOD9059100
_publ_section_title
;
Structure prediction by ZEFSAII (Michael W. Deem and Ramdas Pophale) SiO2 
 PCOD9059100
Probable space group: P -1
;
_chemical_formula_sum "Si O2"
_cell_formula_units_Z 16
_cell_length_a 11.812044
_cell_length_b 9.507323
_cell_length_c 12.445312
_cell_angle_alpha 55.118870
_cell_angle_beta 94.987259
_cell_angle_gamma 131.201744
_cell_volume 761.664579
_symmetry_space_group_name_H-M "P -1"
_symmetry_group_IT_number 2
_symmetry_cell_setting 'triclinic'
loop_
_space_group_symop_operation_xyz
x,y,z
-x,-y,-z
loop_
_atom_site_type_symbol
_atom_site_label
_atom_site_fract_x
_atom_site_fract_y
_atom_site_fract_z
Si Si1 0.956775 0.534151 0.366545
Si Si2 0.026358 0.966846 0.682522
Si Si3 0.405993 0.725430 0.580768
Si Si4 0.467032 0.667551 0.841854
Si Si5 0.518523 0.043241 0.851775
Si Si6 0.610204 0.796753 0.372521
Si Si7 0.893911 0.611019 0.639786
Si Si8 0.210435 0.105758 0.156793
O O1 0.781139 0.438248 0.404648
O O2 0.000000 0.500000 0.500000
O O3 0.962060 0.374509 0.360028
O O4 0.102450 0.833146 0.213404
O O5 0.195599 0.047662 0.679098
O O6 0.072571 0.196295 0.524577
O O7 0.900306 0.712744 0.709786
O O8 0.926154 0.914720 0.800876
O O9 0.391590 0.620015 0.739939
O O10 0.533389 0.794190 0.473902
O O11 0.500000 0.000000 0.500000
O O12 0.667780 0.848271 0.764716
O O13 0.468433 0.821154 0.867824
O O14 0.352311 0.375006 0.991031
O O15 0.421289 0.101982 0.770504
O O16 0.716565 0.316802 0.731190
O O17 0.500000 0.000000 0.000000
O O18 0.500000 0.500000 0.500000
#
# Coordination Sequence:
#
# PCOD9059100 Si02
#       8
#     2   2   2   2   2   2   2   2
#     4  12  22  42  70 101 134 183 231 288 346 415
#     4  11  24  41  68 104 139 180 234 290 349 419
#     4  12  25  43  74 103 140 181 237 293 345 423
#     4  11  26  46  72 103 137 189 237 292 363 419
#     4  12  25  48  71 101 145 192 234 288 364 431
#     4  12  25  44  70 107 142 182 237 289 351 416
#     4  11  23  40  67 100 134 182 233 285 354 419
#     4  11  24  45  70  97 145 180 235 290 355 426
#
# _framework density 21.006620999999999
#
# number of rings (size 3 to 8) (size 9 to 14) (size 15 to 20)
#    0.000    0.500    5.000    3.750    3.500    2.500 
#    2.250    1.250    0.000    0.000    0.000    0.000 
#    0.000    0.000    0.000    0.000    0.000    0.000 
#
# Total GULP energy -89209.626615 kJ/mol
# GULP energy per Si atom -5575.601663 kJ/mol
# Density = 2.095881 g / cm^3
# Si number density = 21.006621 Si / 1000 Ang^3
#
#
#
# Elastic Constant Matrix: (Units=GPa)
#
#
# Indices 1 2 3 4 5 6 
#
# 1 138.8647 42.1402 25.7558 3.3333 -7.1983 2.3886
# 2 42.1402 76.4566 30.5000 -4.1258 7.0297 -6.3294
# 3 25.7558 30.5000 82.4036 0.3279 10.3698 0.2482
# 4 3.3333 -4.1258 0.3279 38.9750 1.9159 -1.7215
# 5 -7.1983 7.0297 10.3698 1.9159 26.7622 -2.7906
# 6 2.3886 -6.3294 0.2482 -1.7215 -2.7906 44.1848
#
#
#
# Elastic Compliance Matrix: (Units=1/GPa)
#
#
# Indices 1 2 3 4 5 6 
#
# 1 0.009326 -0.005087 -0.001585 -0.001587 0.004468 -0.001004
# 2 -0.005087 0.018558 -0.004756 0.002775 -0.004307 0.002796
# 3 -0.001585 -0.004756 0.015036 -0.000289 -0.005088 -0.001013
# 4 -0.001587 0.002775 -0.000289 0.026285 -0.002786 0.001333
# 5 0.004468 -0.004307 -0.005088 -0.002786 0.042049 0.001717
# 6 -0.001004 0.002796 -0.001013 0.001333 0.001717 0.023253
#
#
# Mechanical properties :
#
#
# Convention : Reuss Voigt Hill
#
# Bulk Modulus (GPa) = 49.84369 54.94631 52.39500
# Shear Modulus (GPa) = 30.47826 35.27299 32.87563
#
# Velocity S-wave (km/s) = 3.81319 4.10217 3.96032
# Velocity P-wave (km/s) = 6.57011 6.97499 6.77558
#
# Compressibility (1/GPa) = 0.02006272
#
# Stress axis : x y z
#
# Youngs Moduli (GPa) = 107.22722 53.88537 66.50895
#
# Poissons Ratio (x) = 0.27414 0.10540
# Poissons Ratio (y) = 0.54552 0.31633
# Poissons Ratio (z) = 0.16993 0.25629
#
# Static dielectric constant tensor:
#      x y z
#    x 1.755500 -0.029260 0.012750 
#    y -0.029260 1.778600 -0.065410 
#    z 0.012750 -0.065410 1.933820 
# 
# From -- ./inp_files/263596.got.cif
#   From: 2010.05.17/outbox.cif.g08.bks.cpg/sg2_132_cif.got.tgz:263596.got - 2010.06.03 11:33:40.
