data_PCOD9059292
_publ_section_title
;
Structure prediction by ZEFSAII (Michael W. Deem and Ramdas Pophale) SiO2 
 PCOD9059292
Probable space group: P -1
;
_chemical_formula_sum "Si O2"
_cell_formula_units_Z 12
_cell_length_a 13.403574
_cell_length_b 10.553526
_cell_length_c 11.923840
_cell_angle_alpha 48.427332
_cell_angle_beta 146.682019
_cell_angle_gamma 149.098816
_cell_volume 467.178470
_symmetry_space_group_name_H-M "P -1"
_symmetry_group_IT_number 2
_symmetry_cell_setting 'triclinic'
loop_
_space_group_symop_operation_xyz
x,y,z
-x,-y,-z
loop_
_atom_site_type_symbol
_atom_site_label
_atom_site_fract_x
_atom_site_fract_y
_atom_site_fract_z
Si Si1 0.064186 0.577909 0.194601
Si Si2 0.953168 0.746026 0.781538
Si Si3 0.431768 0.315573 0.138760
Si Si4 0.628817 0.098401 0.419780
Si Si5 0.459386 0.860869 0.932859
Si Si6 0.825142 0.877970 0.764281
O O1 0.340242 0.838439 0.349110
O O2 0.110577 0.416510 0.289419
O O3 0.818235 0.425419 0.138570
O O4 0.978186 0.627763 0.976223
O O5 0.772250 0.766266 0.656203
O O6 0.252295 0.030164 0.874753
O O7 0.382959 0.330015 0.214399
O O8 0.647645 0.311475 0.334471
O O9 0.500000 0.500000 0.000000
O O10 0.131032 0.039361 0.988828
O O11 0.825193 0.081829 0.643605
O O12 0.584786 0.060097 0.266140
O O13 0.500000 0.000000 0.000000
#
# Coordination Sequence:
#
# PCOD9059292 Si02
#       6
#     2   2   2   2   2   2
#     4   9  18  35  62  89 128 166 197 249 309 375
#     4   9  18  36  60  92 125 166 201 245 317 370
#     4  11  26  45  64  89 123 172 212 261 320 366
#     4  11  23  41  64  98 126 161 212 259 315 370
#     4   9  18  35  61  91 128 167 200 244 305 373
#     4  11  24  42  66  94 127 158 216 265 307 378
#
# _framework density 25.686112999999999
#
# number of rings (size 3 to 8) (size 9 to 14) (size 15 to 20)
#    0.000    2.000    3.333    1.500    2.333    2.667 
#    0.000    3.333    0.000    0.000    0.000    0.000 
#    0.000    0.000    0.000    0.000    0.000    0.000 
#
# Total GULP energy -67039.960544 kJ/mol
# GULP energy per Si atom -5586.663379 kJ/mol
# Density = 2.562765 g / cm^3
# Si number density = 25.686113 Si / 1000 Ang^3
#
#
#
# Elastic Constant Matrix: (Units=GPa)
#
#
# Indices 1 2 3 4 5 6 
#
# 1 167.4665 45.3891 32.3386 -22.0846 28.4935 7.8527
# 2 45.3891 101.3052 16.4745 -6.9788 5.8789 17.2662
# 3 32.3386 16.4745 79.2163 -22.8351 12.5751 -4.2637
# 4 -22.0846 -6.9788 -22.8351 29.7811 -3.8201 -0.9691
# 5 28.4935 5.8789 12.5751 -3.8201 34.6850 -9.6286
# 6 7.8527 17.2662 -4.2637 -0.9691 -9.6286 45.6645
#
#
#
# Elastic Compliance Matrix: (Units=1/GPa)
#
#
# Indices 1 2 3 4 5 6 
#
# 1 0.008591 -0.002762 -0.000801 0.004242 -0.006317 -0.001750
# 2 -0.002762 0.012117 -0.001782 -0.000774 -0.000441 -0.004383
# 3 -0.000801 -0.001782 0.017432 0.011970 -0.003499 0.001955
# 4 0.004242 -0.000774 0.011970 0.045454 -0.002369 0.001146
# 5 -0.006317 -0.000441 -0.003499 -0.002369 0.037544 0.008792
# 6 -0.001750 -0.004383 0.001955 0.001146 0.008792 0.025918
#
#
# Mechanical properties :
#
#
# Convention : Reuss Voigt Hill
#
# Bulk Modulus (GPa) = 36.42764 59.59915 48.01339
# Shear Modulus (GPa) = 29.95882 38.94517 34.45200
#
# Velocity S-wave (km/s) = 3.41888 3.89806 3.66631
# Velocity P-wave (km/s) = 5.45872 6.59644 6.05437
#
# Compressibility (1/GPa) = 0.02745169
#
# Stress axis : x y z
#
# Youngs Moduli (GPa) = 116.40216 82.52528 57.36465
#
# Poissons Ratio (x) = 0.22791 0.04597
# Poissons Ratio (y) = 0.32147 0.10220
# Poissons Ratio (z) = 0.09328 0.14702
#
# Static dielectric constant tensor:
#      x y z
#    x 2.166620 -0.051880 0.011500 
#    y -0.051880 2.063620 0.020490 
#    z 0.011500 0.020490 1.990300 
# 
# From -- ./inp_files/394917.got.cif
#   From: 2010.05.17/outbox.cif.g08.bks.cpg/sg2_198_cif.got.tgz:394917.got - 2010.06.03 11:33:40.
