data_PCOD9059159
_publ_section_title
;
Structure prediction by ZEFSAII (Michael W. Deem and Ramdas Pophale) SiO2 
 PCOD9059159
Probable space group: P -1
;
_chemical_formula_sum "Si O2"
_cell_formula_units_Z 16
_cell_length_a 15.731247
_cell_length_b 9.338251
_cell_length_c 19.167733
_cell_angle_alpha 149.559232
_cell_angle_beta 147.927420
_cell_angle_gamma 37.256628
_cell_volume 734.821092
_symmetry_space_group_name_H-M "P -1"
_symmetry_group_IT_number 2
_symmetry_cell_setting 'triclinic'
loop_
_space_group_symop_operation_xyz
x,y,z
-x,-y,-z
loop_
_atom_site_type_symbol
_atom_site_label
_atom_site_fract_x
_atom_site_fract_y
_atom_site_fract_z
Si Si1 0.699333 0.364414 0.076803
Si Si2 0.305260 0.761464 0.472374
Si Si3 0.437117 0.793980 0.316637
Si Si4 0.836649 0.950027 0.112451
Si Si5 0.651391 0.859717 0.741428
Si Si6 0.833665 0.896762 0.357116
Si Si7 0.356243 0.859537 0.809747
Si Si8 0.212684 0.654089 0.212097
O O1 0.800068 0.573650 0.198110
O O2 0.764513 0.256511 0.153210
O O3 0.500000 0.500000 0.000000
O O4 0.730076 0.062204 0.929089
O O5 0.486060 0.796849 0.633865
O O6 0.251852 0.473808 0.342081
O O7 0.304059 0.742766 0.380280
O O8 0.193715 0.024483 0.547010
O O9 0.570024 0.485505 0.275161
O O10 0.272607 0.747808 0.219759
O O11 0.500000 0.000000 0.500000
O O12 0.398075 0.954969 0.284371
O O13 0.025461 0.814048 0.166702
O O14 0.798396 0.005314 0.190617
O O15 0.754673 0.694720 0.919581
O O16 0.698911 0.065500 0.277117
O O17 0.000000 0.000000 0.500000
O O18 0.500000 0.000000 0.000000
#
# Coordination Sequence:
#
# PCOD9059159 Si02
#       8
#     2   2   2   2   2   2   2   2
#     4  12  24  44  73 103 135 188 248 285 346 436
#     4  11  23  44  70  97 142 182 231 288 359 415
#     4  12  24  41  68 105 137 180 238 296 348 422
#     4  11  25  45  70 103 141 191 235 293 361 429
#     4  11  23  40  69 102 130 179 237 290 336 417
#     4  12  28  47  68 104 149 186 230 302 370 421
#     4  12  25  45  74 103 143 188 243 296 357 431
#     4  11  24  45  69 102 146 184 233 298 367 419
#
# _framework density 21.774007000000001
#
# number of rings (size 3 to 8) (size 9 to 14) (size 15 to 20)
#    0.000    0.500    5.000    3.750    1.750    2.000 
#    0.000    3.125    0.000    0.000    0.000    0.000 
#    0.000    0.000    0.000    0.000    0.000    0.000 
#
# Total GULP energy -89266.520440 kJ/mol
# GULP energy per Si atom -5579.157528 kJ/mol
# Density = 2.172445 g / cm^3
# Si number density = 21.774007 Si / 1000 Ang^3
#
#
#
# Elastic Constant Matrix: (Units=GPa)
#
#
# Indices 1 2 3 4 5 6 
#
# 1 92.3844 22.5287 23.4046 10.6425 5.1990 5.0495
# 2 22.5287 57.7131 16.7882 11.7544 3.8901 17.5665
# 3 23.4046 16.7882 117.7981 19.3673 9.1995 4.3846
# 4 10.6425 11.7544 19.3673 37.1685 0.7915 0.6423
# 5 5.1990 3.8901 9.1995 0.7915 39.3050 2.8786
# 6 5.0495 17.5665 4.3846 0.6423 2.8786 41.6238
#
#
#
# Elastic Compliance Matrix: (Units=1/GPa)
#
#
# Indices 1 2 3 4 5 6 
#
# 1 0.012434 -0.004206 -0.001594 -0.001390 -0.000865 0.000516
# 2 -0.004206 0.023198 -0.001204 -0.005334 -0.000690 -0.009023
# 3 -0.001594 -0.001204 0.009826 -0.004241 -0.001874 -0.000139
# 4 -0.001390 -0.005334 -0.004241 0.031140 0.000907 0.002323
# 5 -0.000865 -0.000690 -0.001874 0.000907 0.026135 -0.001228
# 6 0.000516 -0.009023 -0.000139 0.002323 -0.001228 0.027834
#
#
# Mechanical properties :
#
#
# Convention : Reuss Voigt Hill
#
# Bulk Modulus (GPa) = 31.79487 43.70430 37.74959
# Shear Modulus (GPa) = 32.24578 37.29771 34.77175
#
# Velocity S-wave (km/s) = 3.85246 4.14327 4.00051
# Velocity P-wave (km/s) = 5.86707 6.55776 6.22201
#
# Compressibility (1/GPa) = 0.03145161
#
# Stress axis : x y z
#
# Youngs Moduli (GPa) = 80.42180 43.10647 101.76923
#
# Poissons Ratio (x) = 0.18129 0.16224
# Poissons Ratio (y) = 0.33822 0.12251
# Poissons Ratio (z) = 0.12821 0.05189
#
# Static dielectric constant tensor:
#      x y z
#    x 1.834250 0.000770 0.033330 
#    y 0.000770 1.835520 -0.021890 
#    z 0.033330 -0.021890 1.814270 
# 
# From -- ./inp_files/572963.got.cif
#   From: 2010.05.17/outbox.cif.g08.bks.cpg/sg2_287_cif.got.tgz:572963.got - 2010.06.03 11:33:40.
