data_PCOD9059151
_publ_section_title
;
Structure prediction by ZEFSAII (Michael W. Deem and Ramdas Pophale) SiO2 
 PCOD9059151
Probable space group: P -1
;
_chemical_formula_sum "Si O2"
_cell_formula_units_Z 14
_cell_length_a 10.377388
_cell_length_b 9.032746
_cell_length_c 9.825405
_cell_angle_alpha 63.403353
_cell_angle_beta 116.723957
_cell_angle_gamma 116.441809
_cell_volume 700.414338
_symmetry_space_group_name_H-M "P -1"
_symmetry_group_IT_number 2
_symmetry_cell_setting 'triclinic'
loop_
_space_group_symop_operation_xyz
x,y,z
-x,-y,-z
loop_
_atom_site_type_symbol
_atom_site_label
_atom_site_fract_x
_atom_site_fract_y
_atom_site_fract_z
Si Si1 0.554178 0.970818 0.193617
Si Si2 0.156165 0.475796 0.533165
Si Si3 0.734129 0.334141 0.774078
Si Si4 0.015187 0.853006 0.966241
Si Si5 0.111777 0.066938 0.652923
Si Si6 0.300806 0.435312 0.082981
Si Si7 0.417733 0.679773 0.777764
O O1 0.432785 0.800092 0.266456
O O2 0.721240 0.951977 0.277586
O O3 0.559647 0.129207 0.231720
O O4 0.500000 0.000000 0.000000
O O5 0.198363 0.547034 0.371771
O O6 0.137094 0.270277 0.613502
O O7 0.288104 0.596516 0.641105
O O8 0.000000 0.500000 0.500000
O O9 0.719762 0.453899 0.843754
O O10 0.844841 0.219443 0.907426
O O11 0.862242 0.695867 0.971590
O O12 0.036592 0.941338 0.792869
O O13 0.000000 0.000000 0.000000
O O14 0.000000 0.000000 0.500000
O O15 0.425266 0.335558 0.201029
O O16 0.364360 0.561155 0.934925
#
# Coordination Sequence:
#
# PCOD9059151 Si02
#       7
#     2   2   2   2   2   2   2
#     4  12  24  46  73 102 141 180 237 287 348 417
#     4  12  27  46  68 103 147 180 230 294 351 411
#     4  12  25  44  71 100 138 189 231 283 351 420
#     4  12  24  41  68  99 135 182 235 281 342 416
#     4  12  26  45  71 101 141 182 229 289 349 406
#     4  11  23  40  68  99 135 179 239 279 344 417
#     4  11  24  42  68 101 139 181 227 294 346 407
#
# _framework density 19.988168999999999
#
# number of rings (size 3 to 8) (size 9 to 14) (size 15 to 20)
#    0.000    0.286    2.857    6.429    2.000    4.000 
#    0.000    0.000    0.000    0.000    0.000    0.000 
#    0.000    0.000    0.000    0.000    0.000    0.000 
#
# Total GULP energy -78331.289781 kJ/mol
# GULP energy per Si atom -5595.092127 kJ/mol
# Density = 1.994267 g / cm^3
# Si number density = 19.988169 Si / 1000 Ang^3
#
#
#
# Elastic Constant Matrix: (Units=GPa)
#
#
# Indices 1 2 3 4 5 6 
#
# 1 181.6761 71.8168 85.4457 0.9311 4.9902 -3.1642
# 2 71.8168 168.0918 66.7042 3.7283 2.4426 -4.8381
# 3 85.4457 66.7042 181.4426 -14.9550 -7.9326 10.7393
# 4 0.9311 3.7283 -14.9550 44.6033 11.4960 -10.5124
# 5 4.9902 2.4426 -7.9326 11.4960 37.9928 -5.5094
# 6 -3.1642 -4.8381 10.7393 -10.5124 -5.5094 58.2281
#
#
#
# Elastic Compliance Matrix: (Units=1/GPa)
#
#
# Indices 1 2 3 4 5 6 
#
# 1 0.007808 -0.002078 -0.003049 -0.000542 -0.001278 0.000595
# 2 -0.002078 0.007667 -0.001976 -0.001044 -0.000218 0.000679
# 3 -0.003049 -0.001976 0.007993 0.002268 0.001326 -0.001269
# 4 -0.000542 -0.001044 0.002268 0.025829 -0.006697 0.003495
# 5 -0.001278 -0.000218 0.001326 -0.006697 0.028980 0.001201
# 6 0.000595 0.000679 -0.001269 0.003495 0.001201 0.018241
#
#
# Mechanical properties :
#
#
# Convention : Reuss Voigt Hill
#
# Bulk Modulus (GPa) = 107.95621 108.79378 108.37499
# Shear Modulus (GPa) = 43.93239 48.64776 46.29008
#
# Velocity S-wave (km/s) = 4.69328 4.93874 4.81757
# Velocity P-wave (km/s) = 9.13764 9.33106 9.23486
#
# Compressibility (1/GPa) = 0.00926302
#
# Stress axis : x y z
#
# Youngs Moduli (GPa) = 128.07399 130.42917 125.10346
#
# Poissons Ratio (x) = 0.27109 0.38139
# Poissons Ratio (y) = 0.26619 0.24716
# Poissons Ratio (z) = 0.39045 0.25768
#
# Static dielectric constant tensor:
#      x y z
#    x 1.545660 0.076150 0.029670 
#    y 0.076150 1.604520 -0.017580 
#    z 0.029670 -0.017580 1.715120 
# 
# From -- ./inp_files/157013.got.cif
#   From: 2010.05.17/outbox.cif.g08.bks.cpg/sg2_79_cif.got.tgz:157013.got - 2010.06.03 11:33:40.
