data_PCOD9059744
_publ_section_title
;
Structure prediction by ZEFSAII (Michael W. Deem and Ramdas Pophale) SiO2 
 PCOD9059744
Probable space group: P -1
;
_chemical_formula_sum "Si O2"
_cell_formula_units_Z 16
_cell_length_a 15.311631
_cell_length_b 11.555919
_cell_length_c 15.193462
_cell_angle_alpha 38.961406
_cell_angle_beta 148.975819
_cell_angle_gamma 120.282098
_cell_volume 754.453572
_symmetry_space_group_name_H-M "P -1"
_symmetry_group_IT_number 2
_symmetry_cell_setting 'triclinic'
loop_
_space_group_symop_operation_xyz
x,y,z
-x,-y,-z
loop_
_atom_site_type_symbol
_atom_site_label
_atom_site_fract_x
_atom_site_fract_y
_atom_site_fract_z
Si Si1 0.560264 0.904120 0.744378
Si Si2 0.010110 0.351507 0.178109
Si Si3 0.717475 0.827609 0.323732
Si Si4 0.376681 0.350834 0.225557
Si Si5 0.015490 0.060415 0.625388
Si Si6 0.581361 0.289747 0.134970
Si Si7 0.685523 0.498783 0.375195
Si Si8 0.044515 0.266883 0.707511
O O1 0.620724 0.726773 0.825751
O O2 0.405098 0.888488 0.682534
O O3 0.469078 0.134363 0.488705
O O4 0.752468 0.844900 0.000397
O O5 0.215094 0.231352 0.481483
O O6 0.961247 0.170547 0.212992
O O7 0.838437 0.494826 0.014511
O O8 0.000000 0.500000 0.000000
O O9 0.852356 0.914183 0.348205
O O10 0.756992 0.608679 0.441864
O O11 0.500000 0.000000 0.000000
O O12 0.526454 0.440749 0.307547
O O13 0.052795 0.135178 0.707168
O O14 0.788796 0.223708 0.312385
O O15 0.500000 0.500000 0.000000
O O16 0.428992 0.332970 0.901016
O O17 0.869146 0.305619 0.599134
O O18 0.000000 0.500000 0.500000
#
# Coordination Sequence:
#
# PCOD9059744 Si02
#       8
#     2   2   2   2   2   2   2   2
#     4  11  23  42  68 100 140 173 225 278 345 408
#     4  12  28  48  70  94 140 188 236 280 344 413
#     4  12  26  46  69 101 136 179 235 288 334 403
#     4  11  25  44  66  97 135 186 225 275 340 416
#     4  12  24  43  71 101 137 181 228 280 345 410
#     4  12  20  38  70 103 135 171 222 279 343 410
#     4  12  23  39  70 100 137 173 222 283 342 398
#     4  12  22  40  69 109 136 169 220 291 343 399
#
# _framework density 21.207401000000001
#
# number of rings (size 3 to 8) (size 9 to 14) (size 15 to 20)
#    0.000    0.250    5.000    4.125    0.000    3.500 
#    0.000    1.875    0.000    0.000    0.000    0.000 
#    0.000    0.000    0.000    0.000    0.000    0.000 
#
# Total GULP energy -89544.862075 kJ/mol
# GULP energy per Si atom -5596.553880 kJ/mol
# Density = 2.115913 g / cm^3
# Si number density = 21.207401 Si / 1000 Ang^3
#
#
#
# Elastic Constant Matrix: (Units=GPa)
#
#
# Indices 1 2 3 4 5 6 
#
# 1 104.3630 33.9288 37.2530 -0.6762 -4.7376 15.1242
# 2 33.9288 123.3519 28.3015 -1.0832 -28.0869 -9.1443
# 3 37.2530 28.3015 104.9065 10.5833 2.3451 -0.3945
# 4 -0.6762 -1.0832 10.5833 37.7943 0.6066 -1.7441
# 5 -4.7376 -28.0869 2.3451 0.6066 39.9635 5.8682
# 6 15.1242 -9.1443 -0.3945 -1.7441 5.8682 37.6704
#
#
#
# Elastic Compliance Matrix: (Units=1/GPa)
#
#
# Indices 1 2 3 4 5 6 
#
# 1 0.012818 -0.002944 -0.003888 0.000951 0.000537 -0.005941
# 2 -0.002944 0.011313 -0.002252 0.000914 0.007308 0.002808
# 3 -0.003888 -0.002252 0.011930 -0.003362 -0.002903 0.001436
# 4 0.000951 0.000914 -0.003362 0.027484 0.000386 0.001017
# 5 0.000537 0.007308 -0.002903 0.000386 0.030866 -0.003262
# 6 -0.005941 0.002808 0.001436 0.001017 -0.003262 0.030183
#
#
# Mechanical properties :
#
#
# Convention : Reuss Voigt Hill
#
# Bulk Modulus (GPa) = 55.88234 59.06533 57.47384
# Shear Modulus (GPa) = 33.61848 38.62819 36.12334
#
# Velocity S-wave (km/s) = 3.98581 4.27247 4.13163
# Velocity P-wave (km/s) = 6.89854 7.22845 7.06542
#
# Compressibility (1/GPa) = 0.01789474
#
# Stress axis : x y z
#
# Youngs Moduli (GPa) = 78.01356 88.39016 83.82260
#
# Poissons Ratio (x) = 0.26018 0.32591
# Poissons Ratio (y) = 0.22963 0.18876
# Poissons Ratio (z) = 0.30332 0.19905
#
# Static dielectric constant tensor:
#      x y z
#    x 1.805500 -0.012670 0.036860 
#    y -0.012670 1.757630 -0.011570 
#    z 0.036860 -0.011570 1.775160 
# 
# From -- ./inp_files/532368.got.cif
#   From: 2010.05.17/outbox.cif.g08.bks.cpg/sg2_267_cif.got.tgz:532368.got - 2010.06.03 11:33:40.
