data_PCOD9059797
_publ_section_title
;
Structure prediction by ZEFSAII (Michael W. Deem and Ramdas Pophale) SiO2 
 PCOD9059797
Probable space group: P -1
;
_chemical_formula_sum "Si O2"
_cell_formula_units_Z 16
_cell_length_a 17.298675
_cell_length_b 4.876588
_cell_length_c 26.858735
_cell_angle_alpha 58.348902
_cell_angle_beta 162.153249
_cell_angle_gamma 122.209436
_cell_volume 586.208814
_symmetry_space_group_name_H-M "P -1"
_symmetry_group_IT_number 2
_symmetry_cell_setting 'triclinic'
loop_
_space_group_symop_operation_xyz
x,y,z
-x,-y,-z
loop_
_atom_site_type_symbol
_atom_site_label
_atom_site_fract_x
_atom_site_fract_y
_atom_site_fract_z
Si Si1 0.417563 0.508654 0.579393
Si Si2 0.296150 0.409515 0.342705
Si Si3 0.783194 0.272096 0.096546
Si Si4 0.819284 0.175084 0.469042
Si Si5 0.089346 0.669858 0.103429
Si Si6 0.860984 0.599846 0.219043
Si Si7 0.427431 0.641670 0.146393
Si Si8 0.179153 0.773785 0.675784
O O1 0.548483 0.726800 0.593880
O O2 0.156653 0.655237 0.413812
O O3 0.679183 0.455567 0.774052
O O4 0.295275 0.124333 0.537021
O O5 0.500000 0.500000 0.500000
O O6 0.046904 0.239492 0.231811
O O7 0.211215 0.710484 0.229939
O O8 0.840951 0.500571 0.158160
O O9 0.613195 0.377432 0.936923
O O10 0.718802 0.909075 0.111593
O O11 0.594385 0.371608 0.294753
O O12 0.950041 0.992396 0.522771
O O13 0.047895 0.441111 0.602598
O O14 0.845600 0.408842 0.989334
O O15 0.000000 0.000000 0.000000
O O16 0.747440 0.322085 0.213883
O O17 0.580332 0.990887 0.218418
#
# Coordination Sequence:
#
# PCOD9059797 Si02
#       8
#     2   2   2   2   2   2   2   2
#     4   9  19  37  69  94 132 173 217 273 330 399
#     4   9  17  34  59  96 123 174 212 267 321 396
#     4  11  24  40  66  96 135 173 214 279 330 391
#     4  11  23  46  70  97 131 173 226 273 332 398
#     4   9  17  36  66  98 136 173 211 278 341 392
#     4  11  23  43  63  97 132 176 224 262 332 393
#     4  11  23  42  69 100 137 169 226 271 339 392
#     4  11  26  42  72  95 129 180 222 277 323 397
#
# _framework density 27.294028999999998
#
# number of rings (size 3 to 8) (size 9 to 14) (size 15 to 20)
#    0.750    1.000    2.500    2.250    0.000    3.500 
#    0.000    0.000    0.000    3.750    0.000    0.000 
#    0.000    0.000    0.000    0.000    0.000    0.000 
#
# Total GULP energy -89381.932477 kJ/mol
# GULP energy per Si atom -5586.370780 kJ/mol
# Density = 2.723191 g / cm^3
# Si number density = 27.294029 Si / 1000 Ang^3
#
#
#
# Elastic Constant Matrix: (Units=GPa)
#
#
# Indices 1 2 3 4 5 6 
#
# 1 84.1272 53.5540 46.1761 20.8906 -1.4649 -3.0096
# 2 53.5540 126.2577 57.3166 -2.9173 5.8771 -1.1655
# 3 46.1761 57.3166 177.7845 0.5196 9.5053 8.3337
# 4 20.8906 -2.9173 0.5196 47.8474 12.5590 -1.8936
# 5 -1.4649 5.8771 9.5053 12.5590 58.0521 5.0524
# 6 -3.0096 -1.1655 8.3337 -1.8936 5.0524 39.9466
#
#
#
# Elastic Compliance Matrix: (Units=1/GPa)
#
#
# Indices 1 2 3 4 5 6 
#
# 1 0.021717 -0.008179 -0.003244 -0.011007 0.004200 0.001021
# 2 -0.008179 0.012439 -0.001808 0.004980 -0.002304 0.000651
# 3 -0.003244 -0.001808 0.007187 0.001498 -0.001263 -0.001566
# 4 -0.011007 0.004980 0.001498 0.027925 -0.007176 0.001235
# 5 0.004200 -0.002304 -0.001263 -0.007176 0.019524 -0.002297
# 6 0.001021 0.000651 -0.001566 0.001235 -0.002297 0.025805
#
#
# Mechanical properties :
#
#
# Convention : Reuss Voigt Hill
#
# Bulk Modulus (GPa) = 67.20140 78.02920 72.61530
# Shear Modulus (GPa) = 34.24209 44.57741 39.40975
#
# Velocity S-wave (km/s) = 3.54582 4.04571 3.80399
# Velocity P-wave (km/s) = 6.43728 7.10451 6.77911
#
# Compressibility (1/GPa) = 0.01488064
#
# Stress axis : x y z
#
# Youngs Moduli (GPa) = 46.04654 80.39471 139.14731
#
# Poissons Ratio (x) = 0.65758 0.45137
# Poissons Ratio (y) = 0.37663 0.25152
# Poissons Ratio (z) = 0.14937 0.14532
#
# Static dielectric constant tensor:
#      x y z
#    x 66.053950 47.392350 3.753220 
#    y 47.392350 37.275430 2.762830 
#    z 3.753220 2.762830 2.376140 
# 
# From -- ./inp_files/620074.got.cif
#   From: 2010.05.17/outbox.cif.g08.bks.cpg/sg2_311_cif.got.tgz:620074.got - 2010.06.03 11:33:40.
