data_PCOD9059923
_publ_section_title
;
Structure prediction by ZEFSAII (Michael W. Deem and Ramdas Pophale) SiO2 
 PCOD9059923
Probable space group: P -1
;
_chemical_formula_sum "Si O2"
_cell_formula_units_Z 14
_cell_length_a 8.647784
_cell_length_b 8.258514
_cell_length_c 17.529861
_cell_angle_alpha 105.937584
_cell_angle_beta 116.262189
_cell_angle_gamma 33.085174
_cell_volume 600.938229
_symmetry_space_group_name_H-M "P -1"
_symmetry_group_IT_number 2
_symmetry_cell_setting 'triclinic'
loop_
_space_group_symop_operation_xyz
x,y,z
-x,-y,-z
loop_
_atom_site_type_symbol
_atom_site_label
_atom_site_fract_x
_atom_site_fract_y
_atom_site_fract_z
Si Si1 0.434388 0.119546 0.179242
Si Si2 0.726927 0.340805 0.959509
Si Si3 0.226188 0.787336 0.342308
Si Si4 0.401250 0.649300 0.775078
Si Si5 0.425742 0.241836 0.481117
Si Si6 0.272644 0.295840 0.935970
Si Si7 0.819986 0.875005 0.374280
O O1 0.613619 0.136810 0.185657
O O2 0.075938 0.461188 0.136746
O O3 0.530770 0.874981 0.121872
O O4 0.566984 0.001795 0.278187
O O5 0.577048 0.427490 0.856266
O O6 0.500000 0.500000 0.000000
O O7 0.794653 0.483908 0.000286
O O8 0.000000 0.000000 0.000000
O O9 0.402196 0.540318 0.283317
O O10 0.475347 0.697897 0.428605
O O11 0.034476 0.830395 0.367015
O O12 0.952610 0.117967 0.285219
O O13 0.067122 0.544925 0.419673
O O14 0.500000 0.000000 0.500000
O O15 0.634023 0.105037 0.433661
O O16 0.500000 0.000000 0.000000
#
# Coordination Sequence:
#
# PCOD9059923 Si02
#       7
#     2   2   2   2   2   2   2
#     4  11  23  42  71 104 128 172 240 291 334 384
#     4  12  27  46  64 101 144 187 228 278 351 419
#     4  11  23  43  73 100 126 184 232 282 341 402
#     4  11  23  43  70  99 138 174 233 289 334 407
#     4  12  25  45  67 101 142 178 220 280 356 421
#     4  12  24  43  72  98 135 182 232 283 341 401
#     4  11  23  45  70  99 135 175 232 287 332 421
#
# _framework density 23.296906
#
# number of rings (size 3 to 8) (size 9 to 14) (size 15 to 20)
#    0.000    0.571    1.429    8.571    2.000    0.000 
#   15.429    0.000    0.000    0.000    0.000    0.000 
#    0.000    0.000    0.000    0.000    0.000    0.000 
#
# Total GULP energy -78253.078408 kJ/mol
# GULP energy per Si atom -5589.505601 kJ/mol
# Density = 2.324388 g / cm^3
# Si number density = 23.296906 Si / 1000 Ang^3
#
#
#
# Elastic Constant Matrix: (Units=GPa)
#
#
# Indices 1 2 3 4 5 6 
#
# 1 27.1758 14.2323 30.1254 -4.9628 -4.2875 1.0393
# 2 14.2323 168.7957 68.1610 -24.6839 -4.2022 -0.1806
# 3 30.1254 68.1610 174.6828 -21.2322 -11.6939 11.1238
# 4 -4.9628 -24.6839 -21.2322 63.1823 -4.8122 -8.9219
# 5 -4.2875 -4.2022 -11.6939 -4.8122 23.3125 -2.7673
# 6 1.0393 -0.1806 11.1238 -8.9219 -2.7673 35.6245
#
#
#
# Elastic Compliance Matrix: (Units=1/GPa)
#
#
# Indices 1 2 3 4 5 6 
#
# 1 0.046269 -0.000580 -0.007317 0.001596 0.005271 0.001741
# 2 -0.000580 0.007342 -0.002550 0.002214 0.000567 0.001449
# 3 -0.007317 -0.002550 0.008409 0.001165 0.002422 -0.001945
# 4 0.001596 0.002214 0.001165 0.018287 0.005600 0.004616
# 5 0.005271 0.000567 0.002422 0.005600 0.046828 0.004133
# 6 0.001741 0.001449 -0.001945 0.004616 0.004133 0.030112
#
#
# Mechanical properties :
#
#
# Convention : Reuss Voigt Hill
#
# Bulk Modulus (GPa) = 24.31564 66.18797 45.25181
# Shear Modulus (GPa) = 26.06185 41.63290 33.84738
#
# Velocity S-wave (km/s) = 3.34830 4.23195 3.81579
# Velocity P-wave (km/s) = 5.04064 7.23543 6.23537
#
# Compressibility (1/GPa) = 0.04112579
#
# Stress axis : x y z
#
# Youngs Moduli (GPa) = 21.61273 136.19512 118.91656
#
# Poissons Ratio (x) = 0.07900 0.87013
# Poissons Ratio (y) = 0.01254 0.30326
# Poissons Ratio (z) = 0.15814 0.34733
#
# Static dielectric constant tensor:
#      x y z
#    x 1.788190 0.002000 -0.041300 
#    y 0.002000 1.848120 -0.019990 
#    z -0.041300 -0.019990 1.878890 
# 
# From -- ./inp_files/218135.got.cif
#   From: 2010.05.17/outbox.cif.g08.bks.cpg/sg2_110_cif.got.tgz:218135.got - 2010.06.03 11:33:40.
