data_PCOD9059998
_publ_section_title
;
Structure prediction by ZEFSAII (Michael W. Deem and Ramdas Pophale) SiO2 
 PCOD9059998
Probable space group: P -1
;
_chemical_formula_sum "Si O2"
_cell_formula_units_Z 14
_cell_length_a 14.917432
_cell_length_b 14.915540
_cell_length_c 9.384402
_cell_angle_alpha 122.009289
_cell_angle_beta 78.437679
_cell_angle_gamma 151.143461
_cell_volume 653.278120
_symmetry_space_group_name_H-M "P -1"
_symmetry_group_IT_number 2
_symmetry_cell_setting 'triclinic'
loop_
_space_group_symop_operation_xyz
x,y,z
-x,-y,-z
loop_
_atom_site_type_symbol
_atom_site_label
_atom_site_fract_x
_atom_site_fract_y
_atom_site_fract_z
Si Si1 0.960536 0.852217 0.979933
Si Si2 0.529934 0.230324 0.536609
Si Si3 0.417626 0.032526 0.088704
Si Si4 0.763227 0.991131 0.299708
Si Si5 0.480649 0.305770 0.151271
Si Si6 0.955873 0.915473 0.600620
Si Si7 0.974198 0.580783 0.656951
O O1 0.950570 0.888383 0.169646
O O2 0.206823 0.047066 0.062369
O O3 0.721370 0.534108 0.736787
O O4 0.000000 0.000000 0.000000
O O5 0.337170 0.048542 0.568713
O O6 0.710841 0.326340 0.585510
O O7 0.434462 0.096913 0.297500
O O8 0.551535 0.262872 0.140674
O O9 0.147042 0.755757 0.884220
O O10 0.500000 0.000000 0.000000
O O11 0.901459 0.036717 0.354426
O O12 0.543850 0.720392 0.035093
O O13 0.938375 0.244189 0.349097
O O14 0.668991 0.581697 0.406255
O O15 0.000000 0.000000 0.500000
O O16 0.000000 0.500000 0.500000
#
# Coordination Sequence:
#
# PCOD9059998 Si02
#       7
#     2   2   2   2   2   2   2
#     4  12  23  43  70  97 137 194 227 280 351 401
#     4  12  25  43  72 100 140 176 239 282 340 421
#     4  11  23  42  73 101 130 185 227 285 351 408
#     4  11  26  46  67 105 139 181 233 285 343 414
#     4  11  24  45  68  98 142 183 237 281 342 419
#     4  12  27  42  66 102 142 183 231 285 339 409
#     4  11  23  48  72  96 140 182 224 290 354 404
#
# _framework density 21.430381000000001
#
# number of rings (size 3 to 8) (size 9 to 14) (size 15 to 20)
#    0.000    0.571    5.714    3.000    4.000    2.857 
#    0.000    0.714    0.000    0.000    0.000    0.000 
#    0.000    0.000    0.000    0.000    0.000    0.000 
#
# Total GULP energy -78049.446164 kJ/mol
# GULP energy per Si atom -5574.960440 kJ/mol
# Density = 2.138160 g / cm^3
# Si number density = 21.430381 Si / 1000 Ang^3
#
#
#
# Elastic Constant Matrix: (Units=GPa)
#
#
# Indices 1 2 3 4 5 6 
#
# 1 138.5205 45.2422 46.5419 -19.8265 -0.2047 9.1309
# 2 45.2422 80.1574 41.8552 -25.8444 1.8961 18.0756
# 3 46.5419 41.8552 176.6433 -41.4869 4.8276 13.0467
# 4 -19.8265 -25.8444 -41.4869 40.7062 -0.0581 -7.0212
# 5 -0.2047 1.8961 4.8276 -0.0581 41.1598 -5.8247
# 6 9.1309 18.0756 13.0467 -7.0212 -5.8247 29.4941
#
#
#
# Elastic Compliance Matrix: (Units=1/GPa)
#
#
# Indices 1 2 3 4 5 6 
#
# 1 0.009147 -0.004532 -0.001319 0.000358 0.000511 0.000715
# 2 -0.004532 0.020244 -0.000977 0.008083 -0.002112 -0.009064
# 3 -0.001319 -0.000977 0.007900 0.006594 -0.001038 -0.001123
# 4 0.000358 0.008083 0.006594 0.036686 -0.001014 0.000552
# 5 0.000511 -0.002112 -0.001038 -0.001014 0.025418 0.006373
# 6 0.000715 -0.009064 -0.001123 0.000552 0.006373 0.041125
#
#
# Mechanical properties :
#
#
# Convention : Reuss Voigt Hill
#
# Bulk Modulus (GPa) = 42.31068 73.62222 57.96645
# Shear Modulus (GPa) = 30.85370 39.71749 35.28560
#
# Velocity S-wave (km/s) = 3.79848 4.30970 4.06214
# Velocity P-wave (km/s) = 6.24693 7.69372 7.00776
#
# Compressibility (1/GPa) = 0.02363469
#
# Stress axis : x y z
#
# Youngs Moduli (GPa) = 109.32054 49.39802 126.58135
#
# Poissons Ratio (x) = 0.22389 0.16697
# Poissons Ratio (y) = 0.49547 0.12366
# Poissons Ratio (z) = 0.14420 0.04826
#
# Static dielectric constant tensor:
#      x y z
#    x 1.780030 -0.022640 -0.151820 
#    y -0.022640 1.835160 0.171360 
#    z -0.151820 0.171360 1.542540 
# 
# From -- ./inp_files/313854.got.cif
#   From: 2010.05.17/outbox.cif.g08.bks.cpg/sg2_157_cif.got.tgz:313854.got - 2010.06.03 11:33:40.
