data_PCOD9059943
_publ_section_title
;
Structure prediction by ZEFSAII (Michael W. Deem and Ramdas Pophale) SiO2 
 PCOD9059943
Probable space group: P -1
;
_chemical_formula_sum "Si O2"
_cell_formula_units_Z 14
_cell_length_a 12.626922
_cell_length_b 13.799319
_cell_length_c 6.119290
_cell_angle_alpha 131.090184
_cell_angle_beta 56.782912
_cell_angle_gamma 129.904330
_cell_volume 601.594967
_symmetry_space_group_name_H-M "P -1"
_symmetry_group_IT_number 2
_symmetry_cell_setting 'triclinic'
loop_
_space_group_symop_operation_xyz
x,y,z
-x,-y,-z
loop_
_atom_site_type_symbol
_atom_site_label
_atom_site_fract_x
_atom_site_fract_y
_atom_site_fract_z
Si Si1 0.781323 0.856727 0.044885
Si Si2 0.114053 0.668011 0.094653
Si Si3 0.688502 0.318895 0.754671
Si Si4 0.035522 0.913617 0.523294
Si Si5 0.432576 0.276902 0.282932
Si Si6 0.581310 0.161202 0.236069
Si Si7 0.346911 0.425591 0.944800
O O1 0.738463 0.714362 0.023466
O O2 0.818577 0.983807 0.365764
O O3 0.671371 0.833444 0.939690
O O4 0.918501 0.879940 0.788672
O O5 0.183459 0.696062 0.299319
O O6 0.039152 0.764887 0.243520
O O7 0.260576 0.736644 0.886261
O O8 0.000000 0.500000 0.000000
O O9 0.603893 0.181186 0.496993
O O10 0.580360 0.333070 0.071659
O O11 0.725361 0.466948 0.804143
O O12 0.000000 0.000000 0.500000
O O13 0.472339 0.221645 0.376723
O O14 0.367049 0.377656 0.604634
O O15 0.500000 0.000000 0.000000
O O16 0.500000 0.500000 0.000000
#
# Coordination Sequence:
#
# PCOD9059943 Si02
#       7
#     2   2   2   2   2   2   2
#     4  11  26  42  76 103 142 191 253 304 366 435
#     4  11  30  48  73 106 156 197 248 306 382 445
#     4  11  26  45  71 111 151 194 241 308 379 440
#     4  11  28  50  72 103 143 201 255 305 362 452
#     4  11  23  42  71 107 146 187 244 307 368 438
#     4  11  27  45  75 108 150 196 250 306 373 447
#     4  12  23  41  73 109 148 181 240 303 375 434
#
# _framework density 23.271470999999998
#
# number of rings (size 3 to 8) (size 9 to 14) (size 15 to 20)
#    0.000    0.857    2.857    1.286   14.000    2.857 
#    0.000    0.000    0.000    0.000    0.000    0.000 
#    0.000    0.000    0.000    0.000    0.000    0.000 
#
# Total GULP energy -78059.377485 kJ/mol
# GULP energy per Si atom -5575.669820 kJ/mol
# Density = 2.321850 g / cm^3
# Si number density = 23.271471 Si / 1000 Ang^3
#
#
#
# Elastic Constant Matrix: (Units=GPa)
#
#
# Indices 1 2 3 4 5 6 
#
# 1 111.7268 25.8988 31.5115 20.9387 13.7570 -5.7473
# 2 25.8988 135.8994 50.5257 1.0483 -5.9980 3.0853
# 3 31.5115 50.5257 99.2415 15.0244 13.6789 -3.4799
# 4 20.9387 1.0483 15.0244 37.7158 5.8346 -3.1377
# 5 13.7570 -5.9980 13.6789 5.8346 45.5703 6.6289
# 6 -5.7473 3.0853 -3.4799 -3.1377 6.6289 22.5635
#
#
#
# Elastic Compliance Matrix: (Units=1/GPa)
#
#
# Indices 1 2 3 4 5 6 
#
# 1 0.011203 -0.001788 -0.001380 -0.004895 -0.003026 0.003094
# 2 -0.001788 0.009949 -0.005438 0.002017 0.003728 -0.003469
# 3 -0.001380 -0.005438 0.014644 -0.003898 -0.004703 0.003490
# 4 -0.004895 0.002017 -0.003898 0.031174 -0.001462 0.002641
# 5 -0.003026 0.003728 -0.004703 -0.001462 0.026397 -0.009965
# 6 0.003094 -0.003469 0.003490 0.002641 -0.009965 0.049415
#
#
# Mechanical properties :
#
#
# Convention : Reuss Voigt Hill
#
# Bulk Modulus (GPa) = 53.81207 62.52661 58.16934
# Shear Modulus (GPa) = 30.08607 37.09870 33.59238
#
# Velocity S-wave (km/s) = 3.59950 3.99704 3.80346
# Velocity P-wave (km/s) = 6.35995 6.94467 6.65873
#
# Compressibility (1/GPa) = 0.01858319
#
# Stress axis : x y z
#
# Youngs Moduli (GPa) = 89.25973 100.51538 68.28584
#
# Poissons Ratio (x) = 0.17971 0.09426
# Poissons Ratio (y) = 0.15958 0.37136
# Poissons Ratio (z) = 0.12322 0.54663
#
# Static dielectric constant tensor:
#      x y z
#    x 1.904810 -0.019020 -0.009550 
#    y -0.019020 2.051730 0.037790 
#    z -0.009550 0.037790 1.925770 
# 
# From -- ./inp_files/78726.got.cif
#   From: 2010.05.17/outbox.cif.g08.bks.cpg/sg2_40_cif.got.tgz:78726.got - 2010.06.03 11:33:40.
