data_PCOD9059000
_publ_section_title
;
Structure prediction by ZEFSAII (Michael W. Deem and Ramdas Pophale) SiO2 
 PCOD9059000
Probable space group: P -1
;
_chemical_formula_sum "Si O2"
_cell_formula_units_Z 14
_cell_length_a 10.715148
_cell_length_b 9.429673
_cell_length_c 11.361241
_cell_angle_alpha 111.861249
_cell_angle_beta 58.457757
_cell_angle_gamma 138.765162
_cell_volume 644.417564
_symmetry_space_group_name_H-M "P -1"
_symmetry_group_IT_number 2
_symmetry_cell_setting 'triclinic'
loop_
_space_group_symop_operation_xyz
x,y,z
-x,-y,-z
loop_
_atom_site_type_symbol
_atom_site_label
_atom_site_fract_x
_atom_site_fract_y
_atom_site_fract_z
Si Si1 0.152461 0.115067 0.244969
Si Si2 0.460733 0.106897 0.964342
Si Si3 0.357855 0.986251 0.724321
Si Si4 0.782926 0.351431 0.494374
Si Si5 0.720475 0.573511 0.915954
Si Si6 0.623489 0.571838 0.583054
Si Si7 0.771556 0.763157 0.183143
O O1 0.173434 0.290186 0.214000
O O2 0.205968 0.185474 0.375980
O O3 0.311495 0.115726 0.106370
O O4 0.931773 0.884224 0.248356
O O5 0.359702 0.960724 0.853396
O O6 0.657267 0.351561 0.897529
O O7 0.500000 0.000000 0.000000
O O8 0.592423 0.158142 0.611896
O O9 0.276018 0.097189 0.781773
O O10 0.225724 0.769371 0.649056
O O11 0.721377 0.475257 0.517478
O O12 0.000000 0.500000 0.500000
O O13 0.500000 0.500000 0.000000
O O14 0.836911 0.723058 0.020235
O O15 0.500000 0.500000 0.500000
O O16 0.443855 0.460979 0.734978
#
# Coordination Sequence:
#
# PCOD9059000 Si02
#       7
#     2   2   2   2   2   2   2
#     4  11  22  40  68  93 121 164 214 255 310 385
#     4  11  23  39  61  93 130 163 195 262 325 362
#     4  10  21  38  63  89 121 158 205 257 301 365
#     4  10  22  42  62  88 120 165 211 252 303 367
#     4  10  17  37  64  88 121 158 203 251 305 371
#     4  11  24  41  63  89 130 167 208 262 312 371
#     4  11  20  39  67  95 118 162 216 255 309 374
#
# _framework density 21.725041999999998
#
# number of rings (size 3 to 8) (size 9 to 14) (size 15 to 20)
#    0.000    1.429    5.714    2.143    2.000    0.571 
#    2.571    0.714    0.000    0.000    0.000    0.000 
#    0.000    0.000    0.000    0.000    0.000    0.000 
#
# Total GULP energy -78208.025802 kJ/mol
# GULP energy per Si atom -5586.287557 kJ/mol
# Density = 2.167560 g / cm^3
# Si number density = 21.725042 Si / 1000 Ang^3
#
#
#
# Elastic Constant Matrix: (Units=GPa)
#
#
# Indices 1 2 3 4 5 6 
#
# 1 126.2297 46.2640 49.6598 18.3738 27.6980 13.1076
# 2 46.2640 85.0704 31.2514 24.8556 6.8918 21.8826
# 3 49.6598 31.2514 115.8850 41.6974 33.8292 8.1713
# 4 18.3738 24.8556 41.6974 39.3196 18.1174 10.5418
# 5 27.6980 6.8918 33.8292 18.1174 31.4839 10.9153
# 6 13.1076 21.8826 8.1713 10.5418 10.9153 36.8328
#
#
#
# Elastic Compliance Matrix: (Units=1/GPa)
#
#
# Indices 1 2 3 4 5 6 
#
# 1 0.013087 -0.007527 -0.002624 0.006064 -0.011226 0.001988
# 2 -0.007527 0.021547 -0.001662 -0.012112 0.014312 -0.010528
# 3 -0.002624 -0.001662 0.017506 -0.012752 -0.010460 0.004787
# 4 0.006064 -0.012112 -0.012752 0.052915 -0.018845 -0.001693
# 5 -0.011226 0.014312 -0.010460 -0.018845 0.066288 -0.016438
# 6 0.001988 -0.010528 0.004787 -0.001693 -0.016438 0.036991
#
#
# Mechanical properties :
#
#
# Convention : Reuss Voigt Hill
#
# Bulk Modulus (GPa) = 35.07110 64.61505 49.84307
# Shear Modulus (GPa) = 20.70698 34.86126 27.78412
#
# Velocity S-wave (km/s) = 3.09064 4.01016 3.58005
# Velocity P-wave (km/s) = 5.37720 7.15882 6.33099
#
# Compressibility (1/GPa) = 0.02851351
#
# Stress axis : x y z
#
# Youngs Moduli (GPa) = 76.41204 46.41072 57.12343
#
# Poissons Ratio (x) = 0.34934 0.14986
# Poissons Ratio (y) = 0.57516 0.09497
# Poissons Ratio (z) = 0.20047 0.07716
#
# Static dielectric constant tensor:
#      x y z
#    x 1.792470 0.032860 0.004340 
#    y 0.032860 1.834870 -0.001920 
#    z 0.004340 -0.001920 1.814170 
# 
# From -- ./inp_files/276840.got.cif
#   From: 2010.05.17/outbox.cif.g08.bks.cpg/sg2_139_cif.got.tgz:276840.got - 2010.06.03 11:33:40.
