data_PCOD9059779
_publ_section_title
;
Structure prediction by ZEFSAII (Michael W. Deem and Ramdas Pophale) SiO2 
 PCOD9059779
Probable space group: P -1
;
_chemical_formula_sum "Si O2"
_cell_formula_units_Z 12
_cell_length_a 9.715005
_cell_length_b 13.487954
_cell_length_c 8.526156
_cell_angle_alpha 110.489434
_cell_angle_beta 30.416740
_cell_angle_gamma 107.957140
_cell_volume 529.804324
_symmetry_space_group_name_H-M "P -1"
_symmetry_group_IT_number 2
_symmetry_cell_setting 'triclinic'
loop_
_space_group_symop_operation_xyz
x,y,z
-x,-y,-z
loop_
_atom_site_type_symbol
_atom_site_label
_atom_site_fract_x
_atom_site_fract_y
_atom_site_fract_z
Si Si1 0.052869 0.793611 0.697355
Si Si2 0.745635 0.432800 0.656272
Si Si3 0.814195 0.085605 0.817056
Si Si4 0.114089 0.262601 0.812017
Si Si5 0.639923 0.398680 0.377003
Si Si6 0.523223 0.899221 0.144660
O O1 0.192398 0.689081 0.429293
O O2 0.966094 0.768549 0.947346
O O3 0.286090 0.883121 0.496801
O O4 0.781754 0.828565 0.893618
O O5 0.699722 0.425890 0.512737
O O6 0.000000 0.500000 0.500000
O O7 0.500000 0.500000 0.000000
O O8 0.615912 0.129712 0.901753
O O9 0.014291 0.168941 0.746949
O O10 0.000000 0.000000 0.500000
O O11 0.633224 0.019130 0.082251
O O12 0.924386 0.361611 0.006380
O O13 0.425516 0.300410 0.521531
O O14 0.500000 0.500000 0.500000
#
# Coordination Sequence:
#
# PCOD9059779 Si02
#       6
#     2   2   2   2   2   2
#     4  11  23  44  66 100 132 177 229 269 344 400
#     4  11  23  42  68  96 135 172 220 284 327 392
#     4  11  26  47  67 101 141 175 230 279 337 399
#     4  11  26  44  71  95 141 178 218 286 332 394
#     4  11  25  46  66 102 134 176 227 269 341 408
#     4  11  24  43  68  96 136 171 230 276 327 407
#
# _framework density 22.649872999999999
#
# number of rings (size 3 to 8) (size 9 to 14) (size 15 to 20)
#    0.000    1.000    1.667    5.500    4.667    5.333 
#    0.000    0.000    0.000    0.000    0.000    0.000 
#    0.000    0.000    0.000    0.000    0.000    0.000 
#
# Total GULP energy -67139.146141 kJ/mol
# GULP energy per Si atom -5594.928845 kJ/mol
# Density = 2.259832 g / cm^3
# Si number density = 22.649873 Si / 1000 Ang^3
#
#
#
# Elastic Constant Matrix: (Units=GPa)
#
#
# Indices 1 2 3 4 5 6 
#
# 1 120.1222 63.9238 29.5477 14.9169 -41.0463 2.9845
# 2 63.9238 74.0191 5.7691 -1.4441 -8.9083 10.5148
# 3 29.5477 5.7691 93.9157 2.8890 -37.0136 0.6094
# 4 14.9169 -1.4441 2.8890 51.2559 -0.6002 -6.1116
# 5 -41.0463 -8.9083 -37.0136 -0.6002 35.4686 1.7343
# 6 2.9845 10.5148 0.6094 -6.1116 1.7343 56.7347
#
#
#
# Elastic Compliance Matrix: (Units=1/GPa)
#
#
# Indices 1 2 3 4 5 6 
#
# 1 0.039061 -0.029135 0.007996 -0.012034 0.046000 0.000556
# 2 -0.029135 0.036145 -0.004924 0.009044 -0.029465 -0.003238
# 3 0.007996 -0.004924 0.019874 -0.003364 0.028747 -0.000963
# 4 -0.012034 0.009044 -0.003364 0.023519 -0.014865 0.001981
# 5 0.046000 -0.029465 0.028747 -0.014865 0.103875 -0.002044
# 6 0.000556 -0.003238 -0.000963 0.001981 -0.002044 0.018483
#
#
# Mechanical properties :
#
#
# Convention : Reuss Voigt Hill
#
# Bulk Modulus (GPa) = 23.27983 54.05981 38.66982
# Shear Modulus (GPa) = 16.26548 41.27960 28.77254
#
# Velocity S-wave (km/s) = 2.68270 4.27372 3.56802
# Velocity P-wave (km/s) = 4.46052 6.94783 5.83817
#
# Compressibility (1/GPa) = 0.04295564
#
# Stress axis : x y z
#
# Youngs Moduli (GPa) = 25.60089 27.66624 50.31763
#
# Poissons Ratio (x) = 0.80604 -0.40235
# Poissons Ratio (y) = 0.74587 0.24775
# Poissons Ratio (z) = -0.20471 0.13622
#
# Static dielectric constant tensor:
#      x y z
#    x 1.801100 -0.071280 0.011810 
#    y -0.071280 1.894450 0.011360 
#    z 0.011810 0.011360 1.861260 
# 
# From -- ./inp_files/131132.got.cif
#   From: 2010.05.17/outbox.cif.g08.bks.cpg/sg2_66_cif.got.tgz:131132.got - 2010.06.03 11:33:40.
