data_PCOD9059878
_publ_section_title
;
Structure prediction by ZEFSAII (Michael W. Deem and Ramdas Pophale) SiO2 
 PCOD9059878
Probable space group: P -1
;
_chemical_formula_sum "Si O2"
_cell_formula_units_Z 12
_cell_length_a 7.929649
_cell_length_b 17.244779
_cell_length_c 5.180623
_cell_angle_alpha 100.085927
_cell_angle_beta 117.215338
_cell_angle_gamma 116.680011
_cell_volume 494.196394
_symmetry_space_group_name_H-M "P -1"
_symmetry_group_IT_number 2
_symmetry_cell_setting 'triclinic'
loop_
_space_group_symop_operation_xyz
x,y,z
-x,-y,-z
loop_
_atom_site_type_symbol
_atom_site_label
_atom_site_fract_x
_atom_site_fract_y
_atom_site_fract_z
Si Si1 0.940434 0.702687 0.711200
Si Si2 0.345860 0.870267 0.838271
Si Si3 0.398569 0.258706 0.740781
Si Si4 0.949386 0.435484 0.176387
Si Si5 0.336286 0.070638 0.405087
Si Si6 0.011637 0.143217 0.776384
O O1 0.725202 0.692189 0.413176
O O2 0.896439 0.605959 0.735201
O O3 0.163664 0.752945 0.698284
O O4 0.016717 0.785479 0.030013
O O5 0.533134 0.910211 0.762814
O O6 0.151993 0.885511 0.612117
O O7 0.488876 0.915014 0.231088
O O8 0.317083 0.159359 0.478646
O O9 0.284855 0.212041 0.915028
O O10 0.675545 0.339672 0.941368
O O11 0.000000 0.500000 0.500000
O O12 0.000000 0.500000 0.000000
O O13 0.097598 0.960672 0.223883
#
# Coordination Sequence:
#
# PCOD9059878 Si02
#       6
#     2   2   2   2   2   2
#     4  11  27  48  78 110 151 191 248 305 372 433
#     4  11  23  42  70 104 154 201 248 291 347 430
#     4  11  28  47  77 111 155 189 248 307 360 445
#     4  12  31  54  81 106 141 192 251 314 384 435
#     4  12  25  42  75 109 158 205 241 285 363 438
#     4  11  25  44  73 114 157 197 242 295 363 440
#
# _framework density 24.281845000000001
#
# number of rings (size 3 to 8) (size 9 to 14) (size 15 to 20)
#    0.000    0.667    3.333    1.500   16.333    2.000 
#    0.000    0.000    0.000    0.000    0.000    0.000 
#    0.000    0.000    0.000    0.000    0.000    0.000 
#
# Total GULP energy -67153.204221 kJ/mol
# GULP energy per Si atom -5596.100352 kJ/mol
# Density = 2.422658 g / cm^3
# Si number density = 24.281845 Si / 1000 Ang^3
#
#
#
# Elastic Constant Matrix: (Units=GPa)
#
#
# Indices 1 2 3 4 5 6 
#
# 1 100.1911 71.0624 19.2065 1.4944 -4.7030 5.4969
# 2 71.0624 186.5420 39.8649 -14.2809 -1.5249 -16.9135
# 3 19.2065 39.8649 82.5265 -14.7372 -8.5707 -3.5366
# 4 1.4944 -14.2809 -14.7372 40.8128 2.4435 -7.9367
# 5 -4.7030 -1.5249 -8.5707 2.4435 38.0237 -3.1259
# 6 5.4969 -16.9135 -3.5366 -7.9367 -3.1259 56.8954
#
#
#
# Elastic Compliance Matrix: (Units=1/GPa)
#
#
# Indices 1 2 3 4 5 6 
#
# 1 0.014803 -0.005997 -0.001279 -0.003910 0.001243 -0.003769
# 2 -0.005997 0.008652 -0.002152 0.003182 -0.000803 0.003417
# 3 -0.001279 -0.002152 0.014631 0.004639 0.002854 0.001197
# 4 -0.003910 0.003182 0.004639 0.028556 -0.000689 0.005558
# 5 0.001243 -0.000803 0.002854 -0.000689 0.027209 0.001217
# 6 -0.003769 0.003417 0.001197 0.005558 0.001217 0.019873
#
#
# Mechanical properties :
#
#
# Convention : Reuss Voigt Hill
#
# Bulk Modulus (GPa) = 52.00352 69.94746 60.97549
# Shear Modulus (GPa) = 35.97417 43.08811 39.53114
#
# Velocity S-wave (km/s) = 3.85323 4.21705 4.03924
# Velocity P-wave (km/s) = 6.42337 7.25123 6.84982
#
# Compressibility (1/GPa) = 0.01922947
#
# Stress axis : x y z
#
# Youngs Moduli (GPa) = 67.55467 115.57963 68.34925
#
# Poissons Ratio (x) = 0.69309 0.08741
# Poissons Ratio (y) = 0.40510 0.14712
# Poissons Ratio (z) = 0.08640 0.24878
#
# Static dielectric constant tensor:
#      x y z
#    x 1.994680 -0.027220 0.018380 
#    y -0.027220 1.939850 -0.051030 
#    z 0.018380 -0.051030 1.988720 
# 
# From -- ./inp_files/41132.got.cif
#   From: 2010.05.17/outbox.cif.g08.bks.cpg/sg2_21_cif.got.tgz:41132.got - 2010.06.03 11:33:40.
