data_PCOD9059244
_publ_section_title
;
Structure prediction by ZEFSAII (Michael W. Deem and Ramdas Pophale) SiO2 
 PCOD9059244
Probable space group: P -1
;
_chemical_formula_sum "Si O2"
_cell_formula_units_Z 14
_cell_length_a 21.629604
_cell_length_b 5.286230
_cell_length_c 7.020044
_cell_angle_alpha 105.000284
_cell_angle_beta 49.899838
_cell_angle_gamma 93.835314
_cell_volume 587.615013
_symmetry_space_group_name_H-M "P -1"
_symmetry_group_IT_number 2
_symmetry_cell_setting 'triclinic'
loop_
_space_group_symop_operation_xyz
x,y,z
-x,-y,-z
loop_
_atom_site_type_symbol
_atom_site_label
_atom_site_fract_x
_atom_site_fract_y
_atom_site_fract_z
Si Si1 0.042096 0.078463 0.239205
Si Si2 0.403644 0.037928 0.660723
Si Si3 0.613126 0.474714 0.955827
Si Si4 0.827219 0.669739 0.762527
Si Si5 0.928606 0.346781 0.192900
Si Si6 0.275909 0.776054 0.029716
Si Si7 0.450103 0.265415 0.243745
O O1 0.098432 0.292283 0.236266
O O2 0.970219 0.178259 0.254585
O O3 0.000000 0.000000 0.500000
O O4 0.093304 0.840076 0.971525
O O5 0.369259 0.258450 0.924868
O O6 0.394994 0.160735 0.493188
O O7 0.500000 0.000000 0.500000
O O8 0.355656 0.790819 0.742715
O O9 0.525358 0.411350 0.193033
O O10 0.683312 0.248965 0.843806
O O11 0.598369 0.548491 0.780830
O O12 0.858271 0.540545 0.473622
O O13 0.772757 0.472845 0.933227
O O14 0.783377 0.961861 0.856624
O O15 0.000000 0.500000 0.000000
O O16 0.500000 0.000000 0.000000
#
# Coordination Sequence:
#
# PCOD9059244 Si02
#       7
#     2   2   2   2   2   2   2
#     4  11  24  48  83 118 153 198 261 313 369 463
#     4  12  23  45  77 101 143 201 266 314 377 462
#     4  11  23  44  71 106 144 190 257 317 393 440
#     4  12  27  49  77 115 167 202 252 316 398 465
#     4  11  25  46  85 118 145 204 262 307 370 458
#     4  12  27  47  75 106 157 212 241 323 405 448
#     4  11  23  40  75 107 131 187 265 330 366 443
#
# _framework density 23.825123999999999
#
# number of rings (size 3 to 8) (size 9 to 14) (size 15 to 20)
#    0.000    0.571    5.714    1.714    4.000    0.000 
#    0.000    5.714    0.000    0.000    0.000    0.000 
#    0.000    0.000    0.000    0.000    0.000    0.000 
#
# Total GULP energy -78314.615257 kJ/mol
# GULP energy per Si atom -5593.901090 kJ/mol
# Density = 2.377090 g / cm^3
# Si number density = 23.825124 Si / 1000 Ang^3
#
#
#
# Elastic Constant Matrix: (Units=GPa)
#
#
# Indices 1 2 3 4 5 6 
#
# 1 86.7557 47.7598 38.9907 -17.2043 5.9010 7.1096
# 2 47.7598 136.1345 48.3643 -26.2489 -0.5827 10.7355
# 3 38.9907 48.3643 104.1829 -17.0272 12.7884 14.5408
# 4 -17.2043 -26.2489 -17.0272 55.8076 1.2566 -3.6574
# 5 5.9010 -0.5827 12.7884 1.2566 34.3271 -7.0086
# 6 7.1096 10.7355 14.5408 -3.6574 -7.0086 59.2755
#
#
#
# Elastic Compliance Matrix: (Units=1/GPa)
#
#
# Indices 1 2 3 4 5 6 
#
# 1 0.015782 -0.003878 -0.003530 0.001975 -0.001616 -0.000394
# 2 -0.003878 0.010354 -0.003110 0.002667 0.001849 -0.000264
# 3 -0.003530 -0.003110 0.013653 0.001543 -0.005176 -0.002879
# 4 0.001975 0.002667 0.001543 0.020286 -0.001619 -0.000038
# 5 -0.001616 0.001849 -0.005176 -0.001619 0.032421 0.004862
# 6 -0.000394 -0.000264 -0.002879 -0.000038 0.004862 0.018244
#
#
# Mechanical properties :
#
#
# Convention : Reuss Voigt Hill
#
# Bulk Modulus (GPa) = 53.32348 66.36698 59.84523
# Shear Modulus (GPa) = 36.22516 42.67924 39.45220
#
# Velocity S-wave (km/s) = 3.90354 4.23703 4.07370
# Velocity P-wave (km/s) = 6.53809 7.20090 6.87748
#
# Compressibility (1/GPa) = 0.01875347
#
# Stress axis : x y z
#
# Youngs Moduli (GPa) = 63.36471 96.58383 73.24626
#
# Poissons Ratio (x) = 0.37451 0.25857
# Poissons Ratio (y) = 0.24570 0.22776
# Poissons Ratio (z) = 0.22368 0.30033
#
# Static dielectric constant tensor:
#      x y z
#    x 1.921940 -0.013630 -0.008180 
#    y -0.013630 1.993520 0.037210 
#    z -0.008180 0.037210 1.895180 
# 
# From -- ./inp_files/114702.got.cif
#   From: 2010.05.17/outbox.cif.g08.bks.cpg/sg2_58_cif.got.tgz:114702.got - 2010.06.03 11:33:40.
