data_PCOD9059778
_publ_section_title
;
Structure prediction by ZEFSAII (Michael W. Deem and Ramdas Pophale) SiO2 
 PCOD9059778
Probable space group: P -1
;
_chemical_formula_sum "Si O2"
_cell_formula_units_Z 16
_cell_length_a 12.901191
_cell_length_b 12.807193
_cell_length_c 15.324294
_cell_angle_alpha 30.050291
_cell_angle_beta 123.853585
_cell_angle_gamma 100.463583
_cell_volume 727.665555
_symmetry_space_group_name_H-M "P -1"
_symmetry_group_IT_number 2
_symmetry_cell_setting 'triclinic'
loop_
_space_group_symop_operation_xyz
x,y,z
-x,-y,-z
loop_
_atom_site_type_symbol
_atom_site_label
_atom_site_fract_x
_atom_site_fract_y
_atom_site_fract_z
Si Si1 0.813728 0.214289 0.809571
Si Si2 0.251850 0.170506 0.935282
Si Si3 0.316261 0.634410 0.856492
Si Si4 0.654724 0.647437 0.577509
Si Si5 0.929009 0.418157 0.288240
Si Si6 0.093848 0.311582 0.267258
Si Si7 0.313436 0.727639 0.984310
Si Si8 0.403420 0.302689 0.787905
O O1 0.784388 0.019662 0.976885
O O2 0.782930 0.417634 0.724593
O O3 0.669154 0.446641 0.498612
O O4 0.000000 0.000000 0.000000
O O5 0.455556 0.918764 0.250063
O O6 0.115409 0.380064 0.798360
O O7 0.250615 0.363689 0.727017
O O8 0.241204 0.527024 0.847612
O O9 0.339679 0.580324 0.010641
O O10 0.158694 0.997516 0.513129
O O11 0.500000 0.500000 0.000000
O O12 0.732369 0.761985 0.573750
O O13 0.659369 0.465094 0.785189
O O14 0.963042 0.487337 0.161755
O O15 0.112708 0.068008 0.645832
O O16 0.000000 0.500000 0.000000
O O17 0.456872 0.742308 0.052657
O O18 0.500000 0.000000 0.000000
#
# Coordination Sequence:
#
# PCOD9059778 Si02
#       8
#     2   2   2   2   2   2   2   2
#     4  12  28  46  67 103 137 175 232 276 330 408
#     4  12  25  45  70 100 137 178 226 274 339 397
#     4  11  23  43  66  98 133 174 225 274 335 402
#     4  12  23  45  67  98 137 175 222 281 333 400
#     4  11  24  43  67 100 134 175 228 275 335 401
#     4  11  23  42  68  96 132 174 221 276 339 395
#     4  11  24  43  69  98 136 176 223 280 336 396
#     4  12  25  45  71  96 137 181 222 280 339 391
#
# _framework density 21.988123000000002
#
# number of rings (size 3 to 8) (size 9 to 14) (size 15 to 20)
#    0.000    0.500    2.500    7.875    3.500    1.500 
#    4.500    2.500    0.000    0.000    0.000    0.000 
#    0.000    0.000    0.000    0.000    0.000    0.000 
#
# Total GULP energy -89579.999313 kJ/mol
# GULP energy per Si atom -5598.749957 kJ/mol
# Density = 2.193808 g / cm^3
# Si number density = 21.988123 Si / 1000 Ang^3
#
#
#
# Elastic Constant Matrix: (Units=GPa)
#
#
# Indices 1 2 3 4 5 6 
#
# 1 77.5018 -12.3163 6.1806 4.0241 -9.2766 -7.5049
# 2 -12.3163 53.8023 8.5508 -1.3025 -5.6493 1.0209
# 3 6.1806 8.5508 30.4674 5.4483 -1.8612 -9.7030
# 4 4.0241 -1.3025 5.4483 30.8535 -6.8362 4.8205
# 5 -9.2766 -5.6493 -1.8612 -6.8362 36.0604 1.3664
# 6 -7.5049 1.0209 -9.7030 4.8205 1.3664 54.4800
#
#
#
# Elastic Compliance Matrix: (Units=1/GPa)
#
#
# Indices 1 2 3 4 5 6 
#
# 1 0.014482 0.004255 -0.003417 -0.000392 0.004095 0.001239
# 2 0.004255 0.021359 -0.007595 0.002964 0.004669 -0.001546
# 3 -0.003417 -0.007595 0.039422 -0.008430 -0.001916 0.007487
# 4 -0.000392 0.002964 -0.008430 0.036415 0.007022 -0.005009
# 5 0.004095 0.004669 -0.001916 0.007022 0.030796 -0.001258
# 6 0.001239 -0.001546 0.007487 -0.005009 -0.001258 0.020363
#
#
# Mechanical properties :
#
#
# Convention : Reuss Voigt Hill
#
# Bulk Modulus (GPa) = 16.19470 18.51132 17.35301
# Shear Modulus (GPa) = 25.38931 34.90255 30.14593
#
# Velocity S-wave (km/s) = 3.40175 3.98846 3.70673
# Velocity P-wave (km/s) = 4.77602 5.44495 5.12142
#
# Compressibility (1/GPa) = 0.06174858
#
# Stress axis : x y z
#
# Youngs Moduli (GPa) = 69.05092 46.81848 25.36686
#
# Poissons Ratio (x) = -0.19922 0.08669
# Poissons Ratio (y) = -0.29383 0.19266
# Poissons Ratio (z) = 0.23597 0.35558
#
# Static dielectric constant tensor:
#      x y z
#    x 1.839870 0.034340 0.001930 
#    y 0.034340 1.836950 0.032830 
#    z 0.001930 0.032830 1.778580 
# 
# From -- ./inp_files/519508.got.cif
#   From: 2010.05.17/outbox.cif.g08.bks.cpg/sg2_260_cif.got.tgz:519508.got - 2010.06.03 11:33:40.
