data_PCOD9059134
_publ_section_title
;
Structure prediction by ZEFSAII (Michael W. Deem and Ramdas Pophale) SiO2 
 PCOD9059134
Probable space group: P -1
;
_chemical_formula_sum "Si O2"
_cell_formula_units_Z 14
_cell_length_a 5.356183
_cell_length_b 23.775345
_cell_length_c 12.831551
_cell_angle_alpha 23.880284
_cell_angle_beta 70.369287
_cell_angle_gamma 78.120874
_cell_volume 600.641068
_symmetry_space_group_name_H-M "P -1"
_symmetry_group_IT_number 2
_symmetry_cell_setting 'triclinic'
loop_
_space_group_symop_operation_xyz
x,y,z
-x,-y,-z
loop_
_atom_site_type_symbol
_atom_site_label
_atom_site_fract_x
_atom_site_fract_y
_atom_site_fract_z
Si Si1 0.923708 0.678701 0.407167
Si Si2 0.516688 0.140600 0.087324
Si Si3 0.306209 0.098287 0.811931
Si Si4 0.743062 0.611070 0.336072
Si Si5 0.545065 0.847859 0.534955
Si Si6 0.070311 0.617123 0.088948
Si Si7 0.812951 0.881040 0.648334
O O1 0.751504 0.774240 0.325384
O O2 0.733746 0.586813 0.500280
O O3 0.014487 0.544659 0.673634
O O4 0.190994 0.781569 0.137890
O O5 0.487087 0.139929 0.217974
O O6 0.406573 0.980102 0.331981
O O7 0.311176 0.233276 0.927064
O O8 0.400877 0.165744 0.570862
O O9 0.500000 0.000000 0.000000
O O10 0.000000 0.000000 0.000000
O O11 0.500000 0.500000 0.500000
O O12 0.011711 0.610479 0.233351
O O13 0.364188 0.702478 0.857698
O O14 0.785938 0.912518 0.476382
O O15 0.890701 0.729063 0.895710
O O16 0.000000 0.000000 0.500000
#
# Coordination Sequence:
#
# PCOD9059134 Si02
#       7
#     2   2   2   2   2   2   2
#     4  12  26  45  72 103 148 196 251 308 377 449
#     4  11  23  40  68 103 141 194 239 303 370 452
#     4  12  30  54  82 109 145 202 267 322 375 452
#     4  11  24  40  71 108 151 190 242 308 382 460
#     4  12  26  45  71 103 149 197 254 314 375 447
#     4  11  26  41  68 109 149 190 242 308 385 448
#     4  11  25  40  71 111 153 195 243 307 381 455
#
# _framework density 23.308430000000001
#
# number of rings (size 3 to 8) (size 9 to 14) (size 15 to 20)
#    0.000    0.571    4.286    2.571   10.000    0.571 
#    0.000    0.714    0.000    0.000    0.000    0.000 
#    0.000    0.000    0.000    0.000    0.000    0.000 
#
# Total GULP energy -78054.876436 kJ/mol
# GULP energy per Si atom -5575.348317 kJ/mol
# Density = 2.325538 g / cm^3
# Si number density = 23.308430 Si / 1000 Ang^3
#
#
#
# Elastic Constant Matrix: (Units=GPa)
#
#
# Indices 1 2 3 4 5 6 
#
# 1 92.0939 72.3915 41.7157 -1.2962 -1.7552 -6.0867
# 2 72.3915 199.3737 59.8446 -3.6815 15.2482 -16.9998
# 3 41.7157 59.8446 136.6676 -6.2582 -2.1308 -6.9209
# 4 -1.2962 -3.6815 -6.2582 50.0997 -9.7730 12.9232
# 5 -1.7552 15.2482 -2.1308 -9.7730 38.5979 -9.5564
# 6 -6.0867 -16.9998 -6.9209 12.9232 -9.5564 32.0844
#
#
#
# Elastic Compliance Matrix: (Units=1/GPa)
#
#
# Indices 1 2 3 4 5 6 
#
# 1 0.016292 -0.005317 -0.002568 0.000135 0.002862 0.000518
# 2 -0.005317 0.007907 -0.001820 -0.000978 -0.003159 0.002242
# 3 -0.002568 -0.001820 0.008996 0.001087 0.001497 0.000497
# 4 0.000135 -0.000978 0.001087 0.022982 0.004228 -0.008256
# 5 0.002862 -0.003159 0.001497 0.004228 0.030032 0.006435
# 6 0.000518 0.002242 0.000497 -0.008256 0.006435 0.037803
#
#
# Mechanical properties :
#
#
# Convention : Reuss Voigt Hill
#
# Bulk Modulus (GPa) = 72.53874 86.22653 79.38263
# Shear Modulus (GPa) = 33.78004 41.10195 37.44100
#
# Velocity S-wave (km/s) = 3.81105 4.20383 4.01225
# Velocity P-wave (km/s) = 7.11015 7.78698 7.45625
#
# Compressibility (1/GPa) = 0.01378574
#
# Stress axis : x y z
#
# Youngs Moduli (GPa) = 61.38124 126.46664 111.16034
#
# Poissons Ratio (x) = 0.67242 0.28541
# Poissons Ratio (y) = 0.32636 0.20232
# Poissons Ratio (z) = 0.15760 0.23018
#
# Static dielectric constant tensor:
#      x y z
#    x 2.110920 0.042250 0.028560 
#    y 0.042250 1.929220 0.043210 
#    z 0.028560 0.043210 2.045800 
# 
# From -- ./inp_files/370238.got.cif
#   From: 2010.05.17/outbox.cif.g08.bks.cpg/sg2_186_cif.got.tgz:370238.got - 2010.06.03 11:33:40.
