data_PCOD9059884
_publ_section_title
;
Structure prediction by ZEFSAII (Michael W. Deem and Ramdas Pophale) SiO2 
 PCOD9059884
Probable space group: P -1
;
_chemical_formula_sum "Si O2"
_cell_formula_units_Z 16
_cell_length_a 11.768184
_cell_length_b 14.456392
_cell_length_c 16.721731
_cell_angle_alpha 147.057224
_cell_angle_beta 51.558165
_cell_angle_gamma 150.934538
_cell_volume 680.920921
_symmetry_space_group_name_H-M "P -1"
_symmetry_group_IT_number 2
_symmetry_cell_setting 'triclinic'
loop_
_space_group_symop_operation_xyz
x,y,z
-x,-y,-z
loop_
_atom_site_type_symbol
_atom_site_label
_atom_site_fract_x
_atom_site_fract_y
_atom_site_fract_z
Si Si1 0.559858 0.809842 0.377170
Si Si2 0.848909 0.519522 0.389641
Si Si3 0.938411 0.352301 0.086232
Si Si4 0.946730 0.193577 0.717074
Si Si5 0.411107 0.608574 0.118934
Si Si6 0.593819 0.601054 0.342051
Si Si7 0.293092 0.784897 0.606910
Si Si8 0.619630 0.805258 0.733384
O O1 0.419151 0.673513 0.255378
O O2 0.501890 0.578436 0.281119
O O3 0.458710 0.854554 0.515403
O O4 0.867910 0.130984 0.462445
O O5 0.704429 0.316169 0.384808
O O6 0.660560 0.458481 0.376952
O O7 0.891119 0.400944 0.225772
O O8 0.056172 0.611938 0.164708
O O9 0.136608 0.389837 0.041817
O O10 0.685889 0.030096 0.922799
O O11 0.236627 0.404041 0.743240
O O12 0.787456 0.933571 0.531736
O O13 0.822941 0.020998 0.729904
O O14 0.607862 0.927174 0.219509
O O15 0.500000 0.500000 0.000000
O O16 0.379663 0.354298 0.323280
O O17 0.000000 0.500000 0.500000
#
# Coordination Sequence:
#
# PCOD9059884 Si02
#       8
#     2   2   2   2   2   2   2   2
#     4  12  25  49  78 106 148 191 247 303 356 437
#     4  12  23  45  79 107 139 189 251 292 350 439
#     4  12  25  49  69 105 152 191 237 296 367 437
#     4  11  23  45  69 103 144 192 237 293 359 433
#     4  12  28  49  74 109 149 189 238 313 371 413
#     4  11  23  42  70 106 142 184 241 300 356 419
#     4  12  25  47  83 106 136 201 256 291 359 439
#     4  12  26  41  72 107 149 187 237 290 367 432
#
# _framework density 23.497591
#
# number of rings (size 3 to 8) (size 9 to 14) (size 15 to 20)
#    0.000    0.250    5.000    4.500    1.750    3.000 
#    0.000    1.875    0.000    0.000    0.000    0.000 
#    0.000    0.000    0.000    0.000    0.000    0.000 
#
# Total GULP energy -89616.578556 kJ/mol
# GULP energy per Si atom -5601.036160 kJ/mol
# Density = 2.344411 g / cm^3
# Si number density = 23.497591 Si / 1000 Ang^3
#
#
#
# Elastic Constant Matrix: (Units=GPa)
#
#
# Indices 1 2 3 4 5 6 
#
# 1 134.7457 48.9131 24.9487 6.2848 -19.1463 -28.0951
# 2 48.9131 109.4525 26.5581 6.5712 -11.9916 -15.4714
# 3 24.9487 26.5581 60.7769 10.9552 -10.8678 -1.8335
# 4 6.2848 6.5712 10.9552 29.2545 -0.0361 -3.4314
# 5 -19.1463 -11.9916 -10.8678 -0.0361 40.3076 4.8918
# 6 -28.0951 -15.4714 -1.8335 -3.4314 4.8918 40.1052
#
#
#
# Elastic Compliance Matrix: (Units=1/GPa)
#
#
# Indices 1 2 3 4 5 6 
#
# 1 0.010553 -0.003027 -0.002332 -0.000033 0.002783 0.005776
# 2 -0.003027 0.011783 -0.003623 -0.000389 0.000833 0.002125
# 3 -0.002332 -0.003623 0.020812 -0.006841 0.003800 -0.003128
# 4 -0.000033 -0.000389 -0.006841 0.037186 -0.002304 0.002976
# 5 0.002783 0.000833 0.003800 -0.002304 0.027536 -0.001112
# 6 0.005776 0.002125 -0.003128 0.002976 -0.001112 0.030048
#
#
# Mechanical properties :
#
#
# Convention : Reuss Voigt Hill
#
# Bulk Modulus (GPa) = 39.70619 56.20165 47.95392
# Shear Modulus (GPa) = 30.43652 35.57048 33.00350
#
# Velocity S-wave (km/s) = 3.60294 3.89497 3.75180
# Velocity P-wave (km/s) = 5.85174 6.64813 6.26261
#
# Compressibility (1/GPa) = 0.02518499
#
# Stress axis : x y z
#
# Youngs Moduli (GPa) = 94.75790 84.86658 48.04885
#
# Poissons Ratio (x) = 0.25689 0.11203
# Poissons Ratio (y) = 0.28684 0.17409
# Poissons Ratio (z) = 0.22093 0.30749
#
# Static dielectric constant tensor:
#      x y z
#    x 1.912940 0.003340 -0.033480 
#    y 0.003340 1.900210 -0.031490 
#    z -0.033480 -0.031490 1.874760 
# 
# From -- ./inp_files/569973.got.cif
#   From: 2010.05.17/outbox.cif.g08.bks.cpg/sg2_285_cif.got.tgz:569973.got - 2010.06.03 11:33:40.
