data_PCOD9059665
_publ_section_title
;
Structure prediction by ZEFSAII (Michael W. Deem and Ramdas Pophale) SiO2 
 PCOD9059665
Probable space group: P -1
;
_chemical_formula_sum "Si O2"
_cell_formula_units_Z 16
_cell_length_a 7.793409
_cell_length_b 16.558203
_cell_length_c 9.574769
_cell_angle_alpha 144.167242
_cell_angle_beta 88.128676
_cell_angle_gamma 75.039527
_cell_volume 631.643503
_symmetry_space_group_name_H-M "P -1"
_symmetry_group_IT_number 2
_symmetry_cell_setting 'triclinic'
loop_
_space_group_symop_operation_xyz
x,y,z
-x,-y,-z
loop_
_atom_site_type_symbol
_atom_site_label
_atom_site_fract_x
_atom_site_fract_y
_atom_site_fract_z
Si Si1 0.377607 0.549740 0.391711
Si Si2 0.217593 0.581959 0.156946
Si Si3 0.798996 0.471119 0.362998
Si Si4 0.556802 0.992945 0.188792
Si Si5 0.135893 0.145315 0.784560
Si Si6 0.210069 0.338503 0.610862
Si Si7 0.004827 0.088423 0.429460
Si Si8 0.276617 0.912016 0.928432
O O1 0.363480 0.503569 0.169819
O O2 0.604160 0.460944 0.307921
O O3 0.236395 0.518979 0.456257
O O4 0.302388 0.739015 0.661752
O O5 0.001317 0.633527 0.298079
O O6 0.197710 0.747848 0.344431
O O7 0.248126 0.467306 0.869525
O O8 0.790575 0.620237 0.493435
O O9 0.995770 0.321834 0.091437
O O10 0.380900 0.171317 0.422329
O O11 0.715260 0.997213 0.083092
O O12 0.656905 0.933077 0.251282
O O13 0.459111 0.892600 0.991720
O O14 0.135479 0.126049 0.589830
O O15 0.027562 0.049386 0.703133
O O16 0.093337 0.028091 0.190008
#
# Coordination Sequence:
#
# PCOD9059665 Si02
#       8
#     2   2   2   2   2   2   2   2
#     4  11  25  44  69  99 131 180 221 274 335 388
#     4  11  25  44  73  96 132 182 220 275 333 394
#     4  11  24  46  64 100 138 167 228 274 325 401
#     4  11  25  44  70  99 135 181 217 273 335 395
#     4  11  25  43  67  99 137 178 221 274 334 384
#     4  11  24  48  66 101 136 171 227 273 328 403
#     4  11  23  42  66 100 138 171 228 273 319 405
#     4  11  23  45  67  99 136 173 228 270 321 409
#
# _framework density 25.330745
#
# number of rings (size 3 to 8) (size 9 to 14) (size 15 to 20)
#    0.000    1.000    5.000    0.750    1.750    4.500 
#    4.500    0.000    0.000    0.000    0.000    0.000 
#    0.000    0.000    0.000    0.000    0.000    0.000 
#
# Total GULP energy -89621.219627 kJ/mol
# GULP energy per Si atom -5601.326227 kJ/mol
# Density = 2.527309 g / cm^3
# Si number density = 25.330745 Si / 1000 Ang^3
#
#
#
# Elastic Constant Matrix: (Units=GPa)
#
#
# Indices 1 2 3 4 5 6 
#
# 1 64.0007 20.2960 16.1075 0.1043 -9.1453 -7.7023
# 2 20.2960 101.6025 -0.6206 -0.3782 0.6716 -9.2750
# 3 16.1075 -0.6206 53.6377 25.1706 -4.8460 8.3287
# 4 0.1043 -0.3782 25.1706 38.7867 -5.9874 -1.6761
# 5 -9.1453 0.6716 -4.8460 -5.9874 23.9432 -5.6321
# 6 -7.7023 -9.2750 8.3287 -1.6761 -5.6321 47.0706
#
#
#
# Elastic Compliance Matrix: (Units=1/GPa)
#
#
# Indices 1 2 3 4 5 6 
#
# 1 0.021660 -0.003863 -0.010652 0.008599 0.009822 0.006149
# 2 -0.003863 0.010721 0.001477 -0.001032 -0.001500 0.001003
# 3 -0.010652 0.001477 0.033493 -0.022863 -0.005119 -0.008805
# 4 0.008599 -0.001032 -0.022863 0.042676 0.011267 0.008117
# 5 0.009822 -0.001500 -0.005119 0.011267 0.049345 0.008523
# 6 0.006149 0.001003 -0.008805 0.008117 0.008523 0.025315
#
#
# Mechanical properties :
#
#
# Convention : Reuss Voigt Hill
#
# Bulk Modulus (GPa) = 25.12674 32.31183 28.71929
# Shear Modulus (GPa) = 22.46663 34.19064 28.32864
#
# Velocity S-wave (km/s) = 2.98137 3.67791 3.34780
# Velocity P-wave (km/s) = 4.66824 5.55154 5.12894
#
# Compressibility (1/GPa) = 0.03979823
#
# Stress axis : x y z
#
# Youngs Moduli (GPa) = 46.16718 93.27770 29.85702
#
# Poissons Ratio (x) = 0.36038 0.31803
# Poissons Ratio (y) = 0.17837 -0.04411
# Poissons Ratio (z) = 0.49176 -0.13780
#
# Static dielectric constant tensor:
#      x y z
#    x 2.041910 0.001120 -0.009900 
#    y 0.001120 2.001550 -0.032010 
#    z -0.009900 -0.032010 1.954280 
# 
# From -- ./inp_files/188567.got.cif
#   From: 2010.05.17/outbox.cif.g08.bks.cpg/sg2_95_cif.got.tgz:188567.got - 2010.06.03 11:33:40.
