data_PCOD9059210
_publ_section_title
;
Structure prediction by ZEFSAII (Michael W. Deem and Ramdas Pophale) SiO2 
 PCOD9059210
Probable space group: P -1
;
_chemical_formula_sum "Si O2"
_cell_formula_units_Z 16
_cell_length_a 14.278359
_cell_length_b 17.637592
_cell_length_c 13.224689
_cell_angle_alpha 34.161913
_cell_angle_beta 51.061512
_cell_angle_gamma 24.575640
_cell_volume 659.070186
_symmetry_space_group_name_H-M "P -1"
_symmetry_group_IT_number 2
_symmetry_cell_setting 'triclinic'
loop_
_space_group_symop_operation_xyz
x,y,z
-x,-y,-z
loop_
_atom_site_type_symbol
_atom_site_label
_atom_site_fract_x
_atom_site_fract_y
_atom_site_fract_z
Si Si1 0.613599 0.777594 0.590445
Si Si2 0.928196 0.223904 0.606557
Si Si3 0.487806 0.643107 0.921499
Si Si4 0.391195 0.897005 0.213710
Si Si5 0.697324 0.853458 0.797286
Si Si6 0.344906 0.745667 0.130563
Si Si7 0.196816 0.175665 0.825288
Si Si8 0.150895 0.843348 0.464735
O O1 0.675628 0.574256 0.831053
O O2 0.903441 0.532667 0.622477
O O3 0.500000 0.000000 0.500000
O O4 0.392120 0.980688 0.427997
O O5 0.705829 0.555823 0.368084
O O6 0.814531 0.229980 0.759161
O O7 0.988477 0.081883 0.619379
O O8 0.201595 0.001634 0.709152
O O9 0.500000 0.500000 0.000000
O O10 0.485359 0.602157 0.084754
O O11 0.248171 0.895113 0.315130
O O12 0.350584 0.005626 0.229063
O O13 0.269151 0.098455 0.980748
O O14 0.469505 0.965712 0.827586
O O15 0.000000 0.500000 0.000000
O O16 0.584643 0.509121 0.309067
O O17 0.176685 0.047354 0.930459
O O18 0.000000 0.000000 0.500000
#
# Coordination Sequence:
#
# PCOD9059210 Si02
#       8
#     2   2   2   2   2   2   2   2
#     4  12  30  51  74 109 155 199 252 305 386 456
#     4  11  23  44  69 108 149 191 246 301 376 440
#     4  12  28  43  74 110 152 191 254 315 369 443
#     4  11  25  43  73 106 141 193 247 306 367 447
#     4  12  30  48  77 109 142 194 259 313 367 443
#     4  11  23  43  69 105 146 201 237 302 378 448
#     4  12  25  49  77 101 151 196 249 301 386 449
#     4  11  23  40  71 105 153 189 241 300 382 441
#
# _framework density 24.276626
#
# number of rings (size 3 to 8) (size 9 to 14) (size 15 to 20)
#    0.000    0.500    2.500    4.875   14.000    0.000 
#    0.000    0.000    0.000    0.000    0.000    0.000 
#    0.000    0.000    0.000    0.000    0.000    0.000 
#
# Total GULP energy -89534.899672 kJ/mol
# GULP energy per Si atom -5595.931229 kJ/mol
# Density = 2.422137 g / cm^3
# Si number density = 24.276626 Si / 1000 Ang^3
#
#
#
# Elastic Constant Matrix: (Units=GPa)
#
#
# Indices 1 2 3 4 5 6 
#
# 1 49.4525 23.6220 26.1555 -7.4396 7.2824 6.6633
# 2 23.6220 117.3171 38.6656 4.5743 -1.0309 -2.3726
# 3 26.1555 38.6656 90.0502 -7.7648 20.0741 -10.1698
# 4 -7.4396 4.5743 -7.7648 58.6585 -0.2090 8.8867
# 5 7.2824 -1.0309 20.0741 -0.2090 36.4848 -16.7600
# 6 6.6633 -2.3726 -10.1698 8.8867 -16.7600 41.1524
#
#
#
# Elastic Compliance Matrix: (Units=1/GPa)
#
#
# Indices 1 2 3 4 5 6 
#
# 1 0.028397 -0.004381 -0.005449 0.004751 -0.007485 -0.010272
# 2 -0.004381 0.011072 -0.004471 -0.002411 0.004901 0.002760
# 3 -0.005449 -0.004471 0.016578 0.001629 -0.007557 0.001292
# 4 0.004751 -0.002411 0.001629 0.019034 -0.004828 -0.006582
# 5 -0.007485 0.004901 -0.007557 -0.004828 0.041184 0.017442
# 6 -0.010272 0.002760 0.001292 -0.006582 0.017442 0.034966
#
#
# Mechanical properties :
#
#
# Convention : Reuss Voigt Hill
#
# Bulk Modulus (GPa) = 36.43347 48.18956 42.31151
# Shear Modulus (GPa) = 26.45763 38.48427 32.47095
#
# Velocity S-wave (km/s) = 3.30485 3.98583 3.66121
# Velocity P-wave (km/s) = 5.44086 6.40903 5.94469
#
# Compressibility (1/GPa) = 0.02744729
#
# Stress axis : x y z
#
# Youngs Moduli (GPa) = 35.21508 90.31550 60.32017
#
# Poissons Ratio (x) = 0.39565 0.32867
# Poissons Ratio (y) = 0.15427 0.26967
# Poissons Ratio (z) = 0.19188 0.40376
#
# Static dielectric constant tensor:
#      x y z
#    x 1.909910 -0.069820 -0.006480 
#    y -0.069820 1.983100 0.034100 
#    z -0.006480 0.034100 1.979740 
# 
# From -- ./inp_files/455548.got.cif
#   From: 2010.05.17/outbox.cif.g08.bks.cpg/sg2_228_cif.got.tgz:455548.got - 2010.06.03 11:33:40.
