data_PCOD9059553
_publ_section_title
;
Structure prediction by ZEFSAII (Michael W. Deem and Ramdas Pophale) SiO2 
 PCOD9059553
Probable space group: P -1
;
_chemical_formula_sum "Si O2"
_cell_formula_units_Z 14
_cell_length_a 7.140977
_cell_length_b 9.290400
_cell_length_c 9.075673
_cell_angle_alpha 89.999260
_cell_angle_beta 82.346556
_cell_angle_gamma 61.736055
_cell_volume 524.220593
_symmetry_space_group_name_H-M "P -1"
_symmetry_group_IT_number 2
_symmetry_cell_setting 'triclinic'
loop_
_space_group_symop_operation_xyz
x,y,z
-x,-y,-z
loop_
_atom_site_type_symbol
_atom_site_label
_atom_site_fract_x
_atom_site_fract_y
_atom_site_fract_z
Si Si1 0.045841 0.711904 0.944128
Si Si2 0.750948 0.677683 0.445568
Si Si3 0.140853 0.730317 0.390642
Si Si4 0.573240 0.595192 0.193373
Si Si5 0.654931 0.877444 0.187216
Si Si6 0.041145 0.902050 0.682238
Si Si7 0.298367 0.209368 0.246047
O O1 0.089591 0.839820 0.844257
O O2 0.879514 0.681679 0.855385
O O3 0.272732 0.550700 0.928416
O O4 0.897941 0.789241 0.100637
O O5 0.703371 0.567544 0.336055
O O6 0.646932 0.847836 0.362391
O O7 0.664808 0.703023 0.619194
O O8 0.997665 0.640801 0.426141
O O9 0.341511 0.626905 0.265635
O O10 0.201412 0.774657 0.545179
O O11 0.007443 0.915487 0.341503
O O12 0.551361 0.766468 0.137938
O O13 0.519411 0.065930 0.161400
O O14 0.820782 0.891562 0.677218
#
# Coordination Sequence:
#
# PCOD9059553 Si02
#       7
#     2   2   2   2   2   2   2
#     4  10  20  35  55  85 118 143 184 224 280 340
#     4   9  21  34  59  88 104 143 195 225 267 334
#     4  10  17  38  57  79 113 144 187 233 267 324
#     4  10  21  34  61  80 114 153 178 219 287 333
#     4  10  19  35  58  83 109 150 188 221 276 332
#     4   8  18  31  56  80 107 147 183 227 272 316
#     4   9  17  34  55  84 107 138 193 228 267 313
#
# _framework density 26.706312
#
# number of rings (size 3 to 8) (size 9 to 14) (size 15 to 20)
#    1.714    0.857    1.429    1.286    0.000    1.143 
#    0.000    1.429    3.143    0.000    0.000    0.000 
#    0.000    0.000    0.000    0.000    0.000    0.000 
#
# Total GULP energy -78166.731646 kJ/mol
# GULP energy per Si atom -5583.337975 kJ/mol
# Density = 2.664553 g / cm^3
# Si number density = 26.706312 Si / 1000 Ang^3
#
#
#
# Elastic Constant Matrix: (Units=GPa)
#
#
# Indices 1 2 3 4 5 6 
#
# 1 70.1334 15.3453 11.9991 12.1136 -11.9837 -2.4603
# 2 15.3453 100.8416 34.5605 13.2494 -16.2104 -4.3328
# 3 11.9991 34.5605 125.6812 18.2641 -8.3323 -11.4816
# 4 12.1136 13.2494 18.2641 36.5542 -13.9816 -20.8638
# 5 -11.9837 -16.2104 -8.3323 -13.9816 39.5134 2.8866
# 6 -2.4603 -4.3328 -11.4816 -20.8638 2.8866 33.1931
#
#
#
# Elastic Compliance Matrix: (Units=1/GPa)
#
#
# Indices 1 2 3 4 5 6 
#
# 1 0.015839 -0.001277 -0.000495 -0.004987 0.002595 -0.002524
# 2 -0.001277 0.011766 -0.002725 -0.001697 0.003327 -0.000857
# 3 -0.000495 -0.002725 0.009260 -0.003178 -0.000502 0.000857
# 4 -0.004987 -0.001697 -0.003178 0.054497 0.014116 0.031337
# 5 0.002595 0.003327 -0.000502 0.014116 0.031870 0.006554
# 6 -0.002524 -0.000857 0.000857 0.031337 0.006554 0.049251
#
#
# Mechanical properties :
#
#
# Convention : Reuss Voigt Hill
#
# Bulk Modulus (GPa) = 35.87846 46.71844 41.29845
# Shear Modulus (GPa) = 26.21021 37.50222 31.85622
#
# Velocity S-wave (km/s) = 3.13617 3.75139 3.45749
# Velocity P-wave (km/s) = 5.15535 6.02456 5.60683
#
# Compressibility (1/GPa) = 0.02787187
#
# Stress axis : x y z
#
# Youngs Moduli (GPa) = 63.13612 84.99375 107.99188
#
# Poissons Ratio (x) = 0.10851 0.05345
# Poissons Ratio (y) = 0.08060 0.29424
# Poissons Ratio (z) = 0.03125 0.23158
#
# Static dielectric constant tensor:
#      x y z
#    x 2.108840 -0.035780 0.048880 
#    y -0.035780 2.074920 -0.013930 
#    z 0.048880 -0.013930 2.115430 
# 
# From -- ./inp_files/387780.got.cif
#   From: 2010.05.17/outbox.cif.g08.bks.cpg/sg2_194_cif.got.tgz:387780.got - 2010.06.03 11:33:40.
