data_PCOD9059641
_publ_section_title
;
Structure prediction by ZEFSAII (Michael W. Deem and Ramdas Pophale) SiO2 
 PCOD9059641
Probable space group: P -1
;
_chemical_formula_sum "Si O2"
_cell_formula_units_Z 16
_cell_length_a 10.508384
_cell_length_b 5.907784
_cell_length_c 14.528483
_cell_angle_alpha 93.664172
_cell_angle_beta 124.718336
_cell_angle_gamma 111.850451
_cell_volume 641.537758
_symmetry_space_group_name_H-M "P -1"
_symmetry_group_IT_number 2
_symmetry_cell_setting 'triclinic'
loop_
_space_group_symop_operation_xyz
x,y,z
-x,-y,-z
loop_
_atom_site_type_symbol
_atom_site_label
_atom_site_fract_x
_atom_site_fract_y
_atom_site_fract_z
Si Si1 0.647127 0.839712 0.536822
Si Si2 0.323235 0.633346 0.968725
Si Si3 0.098699 0.318862 0.030203
Si Si4 0.909296 0.312786 0.563542
Si Si5 0.215280 0.377510 0.574294
Si Si6 0.348305 0.307556 0.811265
Si Si7 0.912356 0.209760 0.225552
Si Si8 0.700166 0.542910 0.700282
O O1 0.741674 0.728526 0.502659
O O2 0.630337 0.725622 0.628649
O O3 0.453815 0.738018 0.408340
O O4 0.794800 0.137669 0.595849
O O5 0.377236 0.543905 0.895272
O O6 0.229675 0.798180 0.906526
O O7 0.182005 0.383829 0.963842
O O8 0.500444 0.767173 0.106532
O O9 0.256963 0.438851 0.174349
O O10 0.000000 0.500000 0.000000
O O11 0.000000 0.000000 0.000000
O O12 0.772130 0.353805 0.445751
O O13 0.019499 0.236003 0.538003
O O14 0.056469 0.582076 0.676778
O O15 0.341491 0.378728 0.705839
O O16 0.162096 0.065562 0.762609
O O17 0.101980 0.328924 0.257695
#
# Coordination Sequence:
#
# PCOD9059641 Si02
#       8
#     2   2   2   2   2   2   2   2
#     4  11  25  45  66  99 140 178 235 288 350 425
#     4  11  25  46  67 103 132 187 237 293 361 421
#     4  12  27  50  76 106 145 196 247 297 360 436
#     4  11  25  39  69 102 132 177 223 284 362 421
#     4  11  23  42  65 100 132 173 222 275 358 423
#     4  11  25  43  70  98 140 175 234 297 357 432
#     4  12  23  44  69  97 134 179 229 291 357 427
#     4  11  25  47  69  99 135 189 236 291 354 425
#
# _framework density 24.940073000000002
#
# number of rings (size 3 to 8) (size 9 to 14) (size 15 to 20)
#    0.000    0.750    3.750    3.000    5.250    0.500 
#    4.500    0.000    0.000    0.000    0.000    0.000 
#    0.000    0.000    0.000    0.000    0.000    0.000 
#
# Total GULP energy -89370.392231 kJ/mol
# GULP energy per Si atom -5585.649514 kJ/mol
# Density = 2.488331 g / cm^3
# Si number density = 24.940073 Si / 1000 Ang^3
#
#
#
# Elastic Constant Matrix: (Units=GPa)
#
#
# Indices 1 2 3 4 5 6 
#
# 1 86.5127 3.4783 7.7243 -4.7913 18.0963 -7.2751
# 2 3.4783 36.9292 21.1798 -8.9127 1.0124 8.6632
# 3 7.7243 21.1798 148.6121 -37.6807 13.3112 -11.5255
# 4 -4.7913 -8.9127 -37.6807 38.9602 5.7294 -2.8318
# 5 18.0963 1.0124 13.3112 5.7294 45.9427 -3.6339
# 6 -7.2751 8.6632 -11.5255 -2.8318 -3.6339 34.9736
#
#
#
# Elastic Compliance Matrix: (Units=1/GPa)
#
#
# Indices 1 2 3 4 5 6 
#
# 1 0.013171 -0.001696 0.001193 0.003455 -0.005670 0.003243
# 2 -0.001696 0.032818 -0.004955 0.001729 0.000379 -0.009936
# 3 0.001193 -0.004955 0.010870 0.010569 -0.004396 0.005457
# 4 0.003455 0.001729 0.010569 0.038435 -0.008782 0.005973
# 5 -0.005670 0.000379 -0.004396 -0.008782 0.026305 -0.000700
# 6 0.003243 -0.009936 0.005457 0.005973 -0.000700 0.033938
#
#
# Mechanical properties :
#
#
# Convention : Reuss Voigt Hill
#
# Bulk Modulus (GPa) = 21.76689 37.42432 29.59561
# Shear Modulus (GPa) = 27.50753 39.95340 33.73046
#
# Velocity S-wave (km/s) = 3.32466 4.00681 3.68157
# Velocity P-wave (km/s) = 4.84608 6.03691 5.47398
#
# Compressibility (1/GPa) = 0.04594133
#
# Stress axis : x y z
#
# Youngs Moduli (GPa) = 75.92504 30.47094 91.99690
#
# Poissons Ratio (x) = 0.05168 -0.10971
# Poissons Ratio (y) = 0.12878 0.45586
# Poissons Ratio (z) = -0.09054 0.15099
#
# Static dielectric constant tensor:
#      x y z
#    x 1.993980 -0.040530 0.038920 
#    y -0.040530 2.067590 -0.006290 
#    z 0.038920 -0.006290 1.979210 
# 
# From -- ./inp_files/511040.got.cif
#   From: 2010.05.17/outbox.cif.g08.bks.cpg/sg2_256_cif.got.tgz:511040.got - 2010.06.03 11:33:40.
