data_PCOD9059535
_publ_section_title
;
Structure prediction by ZEFSAII (Michael W. Deem and Ramdas Pophale) SiO2 
 PCOD9059535
Probable space group: P -1
;
_chemical_formula_sum "Si O2"
_cell_formula_units_Z 14
_cell_length_a 16.782336
_cell_length_b 10.998352
_cell_length_c 13.886938
_cell_angle_alpha 30.703072
_cell_angle_beta 34.198283
_cell_angle_gamma 30.925793
_cell_volume 632.262674
_symmetry_space_group_name_H-M "P -1"
_symmetry_group_IT_number 2
_symmetry_cell_setting 'triclinic'
loop_
_space_group_symop_operation_xyz
x,y,z
-x,-y,-z
loop_
_atom_site_type_symbol
_atom_site_label
_atom_site_fract_x
_atom_site_fract_y
_atom_site_fract_z
Si Si1 0.609922 0.008342 0.983721
Si Si2 0.886382 0.379619 0.096686
Si Si3 0.984476 0.895429 0.478715
Si Si4 0.646383 0.485594 0.612895
Si Si5 0.378108 0.650997 0.930082
Si Si6 0.761256 0.617831 0.874464
Si Si7 0.254373 0.147099 0.844422
O O1 0.744116 0.690088 0.052478
O O2 0.648657 0.042833 0.032693
O O3 0.417135 0.121914 0.093430
O O4 0.634381 0.234128 0.749223
O O5 0.907290 0.154980 0.306370
O O6 0.828234 0.366311 0.056011
O O7 0.065841 0.346485 0.929334
O O8 0.883425 0.736911 0.676634
O O9 0.172506 0.673289 0.411470
O O10 0.000000 0.000000 0.500000
O O11 0.492318 0.638387 0.734990
O O12 0.657227 0.686837 0.388570
O O13 0.260850 0.961057 0.875243
O O14 0.500000 0.500000 0.000000
O O15 0.277294 0.502469 0.100065
#
# Coordination Sequence:
#
# PCOD9059535 Si02
#       7
#     2   2   2   2   2   2   2
#     4  11  24  44  71 104 144 181 233 294 354 419
#     4  12  25  43  71 107 140 184 235 293 356 415
#     4  12  25  45  72 107 147 184 232 289 361 423
#     4  11  23  41  71 104 132 188 233 284 350 416
#     4  11  23  50  71  98 146 187 236 290 348 417
#     4  11  26  44  70 106 145 178 239 294 350 413
#     4  12  23  43  75 101 137 194 234 284 354 418
#
# _framework density 22.142695
#
# number of rings (size 3 to 8) (size 9 to 14) (size 15 to 20)
#    0.000    0.571    5.714    3.000    0.000    4.571 
#    2.571    1.429    0.000    0.000    0.000    0.000 
#    0.000    0.000    0.000    0.000    0.000    0.000 
#
# Total GULP energy -78174.969008 kJ/mol
# GULP energy per Si atom -5583.926358 kJ/mol
# Density = 2.209230 g / cm^3
# Si number density = 22.142695 Si / 1000 Ang^3
#
#
#
# Elastic Constant Matrix: (Units=GPa)
#
#
# Indices 1 2 3 4 5 6 
#
# 1 124.4349 17.5782 48.7526 -3.2065 -19.2066 -2.2605
# 2 17.5782 81.2602 32.7565 5.6389 -12.2630 -3.5435
# 3 48.7526 32.7565 146.8239 -5.3804 -19.1454 2.9900
# 4 -3.2065 5.6389 -5.3804 32.5810 -7.0513 -11.9385
# 5 -19.2066 -12.2630 -19.1454 -7.0513 41.4977 -0.7427
# 6 -2.2605 -3.5435 2.9900 -11.9385 -0.7427 31.9631
#
#
#
# Elastic Compliance Matrix: (Units=1/GPa)
#
#
# Indices 1 2 3 4 5 6 
#
# 1 0.009770 -0.000595 -0.002614 0.002018 0.003513 0.001705
# 2 -0.000595 0.014074 -0.002741 -0.002065 0.002287 0.001056
# 3 -0.002614 -0.002741 0.008673 0.001960 0.002305 -0.000515
# 4 0.002018 -0.002065 0.001960 0.038558 0.008036 0.014319
# 5 0.003513 0.002287 0.002305 0.008036 0.028900 0.003959
# 6 0.001705 0.001056 -0.000515 0.014319 0.003959 0.037012
#
#
# Mechanical properties :
#
#
# Convention : Reuss Voigt Hill
#
# Bulk Modulus (GPa) = 48.50450 61.18818 54.84634
# Shear Modulus (GPa) = 32.10047 38.10380 35.10214
#
# Velocity S-wave (km/s) = 3.81164 4.15279 3.98586
# Velocity P-wave (km/s) = 6.42841 7.11953 6.78278
#
# Compressibility (1/GPa) = 0.02061665
#
# Stress axis : x y z
#
# Youngs Moduli (GPa) = 102.35659 71.05066 115.29575
#
# Poissons Ratio (x) = 0.04229 0.30137
# Poissons Ratio (y) = 0.06092 0.31607
# Poissons Ratio (z) = 0.26755 0.19478
#
# Static dielectric constant tensor:
#      x y z
#    x 1.896160 0.067500 0.030310 
#    y 0.067500 1.873400 0.028930 
#    z 0.030310 0.028930 1.822840 
# 
# From -- ./inp_files/283410.got.cif
#   From: 2010.05.17/outbox.cif.g08.bks.cpg/sg2_142_cif.got.tgz:283410.got - 2010.06.03 11:33:40.
