data_PCOD9059052
_publ_section_title
;
Structure prediction by ZEFSAII (Michael W. Deem and Ramdas Pophale) SiO2 
 PCOD9059052
Probable space group: P -1
;
_chemical_formula_sum "Si O2"
_cell_formula_units_Z 16
_cell_length_a 6.536439
_cell_length_b 22.699385
_cell_length_c 11.124279
_cell_angle_alpha 144.557892
_cell_angle_beta 52.613048
_cell_angle_gamma 133.905517
_cell_volume 686.057818
_symmetry_space_group_name_H-M "P -1"
_symmetry_group_IT_number 2
_symmetry_cell_setting 'triclinic'
loop_
_space_group_symop_operation_xyz
x,y,z
-x,-y,-z
loop_
_atom_site_type_symbol
_atom_site_label
_atom_site_fract_x
_atom_site_fract_y
_atom_site_fract_z
Si Si1 0.668033 0.369737 0.979081
Si Si2 0.761614 0.466438 0.361359
Si Si3 0.840987 0.821747 0.087366
Si Si4 0.299574 0.005435 0.692397
Si Si5 0.325337 0.196476 0.436130
Si Si6 0.181175 0.676791 0.675912
Si Si7 0.318449 0.435411 0.841018
Si Si8 0.442657 0.019424 0.195415
O O1 0.736230 0.390926 0.130557
O O2 0.561972 0.463207 0.130273
O O3 0.418491 0.245850 0.842578
O O4 0.979941 0.393172 0.860824
O O5 0.500000 0.500000 0.500000
O O6 0.770037 0.393230 0.350150
O O7 0.046441 0.583846 0.463725
O O8 0.718720 0.875614 0.118671
O O9 0.123655 0.931643 0.203752
O O10 0.956826 0.729615 0.861060
O O11 0.377666 0.994984 0.784399
O O12 0.992621 0.899757 0.612570
O O13 0.500000 0.000000 0.500000
O O14 0.519242 0.219098 0.285753
O O15 0.335884 0.317878 0.648979
O O16 0.476718 0.147171 0.394207
O O17 0.500000 0.500000 0.000000
O O18 0.500000 0.000000 0.000000
#
# Coordination Sequence:
#
# PCOD9059052 Si02
#       8
#     2   2   2   2   2   2   2   2
#     4  11  25  42  66 104 136 185 234 285 358 431
#     4  11  23  40  65 101 146 182 230 284 358 430
#     4  11  25  43  73 102 140 182 241 299 357 431
#     4  11  28  50  73 103 144 193 247 298 364 433
#     4  11  25  46  73 101 142 186 240 296 362 432
#     4  11  24  41  67 106 139 183 229 297 361 425
#     4  11  26  46  70  99 144 186 236 290 358 434
#     4  11  26  49  72 108 142 189 245 302 364 421
#
# _framework density 23.321649000000001
#
# number of rings (size 3 to 8) (size 9 to 14) (size 15 to 20)
#    0.000    1.000    2.500    2.250    5.250   11.000 
#    2.250    0.000    0.000    0.000    0.000    0.000 
#    0.000    0.000    0.000    0.000    0.000    0.000 
#
# Total GULP energy -89148.826628 kJ/mol
# GULP energy per Si atom -5571.801664 kJ/mol
# Density = 2.326857 g / cm^3
# Si number density = 23.321649 Si / 1000 Ang^3
#
#
#
# Elastic Constant Matrix: (Units=GPa)
#
#
# Indices 1 2 3 4 5 6 
#
# 1 107.3276 57.0295 54.3217 14.1714 -23.7898 -26.0128
# 2 57.0295 159.0456 38.8755 31.2830 -12.2128 3.4211
# 3 54.3217 38.8755 71.8602 23.2123 -23.1296 -22.6499
# 4 14.1714 31.2830 23.2123 36.2847 -16.8536 -8.1237
# 5 -23.7898 -12.2128 -23.1296 -16.8536 38.4457 11.2146
# 6 -26.0128 3.4211 -22.6499 -8.1237 11.2146 33.3261
#
#
#
# Elastic Compliance Matrix: (Units=1/GPa)
#
#
# Indices 1 2 3 4 5 6 
#
# 1 0.020022 -0.006315 -0.009557 0.008510 0.005440 0.010025
# 2 -0.006315 0.010674 -0.001731 -0.008904 -0.003025 -0.008354
# 3 -0.009557 -0.001731 0.029379 -0.009516 0.004453 0.008867
# 4 0.008510 -0.008904 -0.009516 0.046621 0.014989 0.007410
# 5 0.005440 -0.003025 0.004453 0.014989 0.038131 -0.001595
# 6 0.010025 -0.008354 0.008867 0.007410 -0.001595 0.047058
#
#
# Mechanical properties :
#
#
# Convention : Reuss Voigt Hill
#
# Bulk Modulus (GPa) = 40.21248 70.96520 55.58884
# Shear Modulus (GPa) = 21.24221 34.14508 27.69365
#
# Velocity S-wave (km/s) = 3.02128 3.83050 3.44970
# Velocity P-wave (km/s) = 5.42686 7.07521 6.30513
#
# Compressibility (1/GPa) = 0.02486790
#
# Stress axis : x y z
#
# Youngs Moduli (GPa) = 49.94587 93.68719 34.03795
#
# Poissons Ratio (x) = 0.59163 0.32530
# Poissons Ratio (y) = 0.31541 0.05893
# Poissons Ratio (z) = 0.47733 0.16221
#
# Static dielectric constant tensor:
#      x y z
#    x 1.931580 0.079800 -0.085750 
#    y 0.079800 1.980420 -0.100010 
#    z -0.085750 -0.100010 2.063850 
# 
# From -- ./inp_files/370442.got.cif
#   From: 2010.05.17/outbox.cif.g08.bks.cpg/sg2_186_cif.got.tgz:370442.got - 2010.06.03 11:33:40.
