data_PCOD9059022
_publ_section_title
;
Structure prediction by ZEFSAII (Michael W. Deem and Ramdas Pophale) SiO2 
 PCOD9059022
Probable space group: P -1
;
_chemical_formula_sum "Si O2"
_cell_formula_units_Z 16
_cell_length_a 14.081304
_cell_length_b 5.384023
_cell_length_c 17.470243
_cell_angle_alpha 108.251109
_cell_angle_beta 32.072921
_cell_angle_gamma 95.883314
_cell_volume 632.121808
_symmetry_space_group_name_H-M "P -1"
_symmetry_group_IT_number 2
_symmetry_cell_setting 'triclinic'
loop_
_space_group_symop_operation_xyz
x,y,z
-x,-y,-z
loop_
_atom_site_type_symbol
_atom_site_label
_atom_site_fract_x
_atom_site_fract_y
_atom_site_fract_z
Si Si1 0.461057 0.098721 0.165951
Si Si2 0.862694 0.996654 0.923845
Si Si3 0.294089 0.729885 0.160971
Si Si4 0.204394 0.768692 0.848074
Si Si5 0.838730 0.362573 0.595687
Si Si6 0.002276 0.365312 0.762417
Si Si7 0.308746 0.988099 0.424884
Si Si8 0.602420 0.865066 0.340004
O O1 0.368895 0.425034 0.258879
O O2 0.351291 0.003375 0.163265
O O3 0.404432 0.007545 0.279421
O O4 0.684659 0.999116 0.992971
O O5 0.961587 0.677979 0.848064
O O6 0.005558 0.139297 0.803483
O O7 0.760114 0.185171 0.082722
O O8 0.173077 0.737313 0.320867
O O9 0.175750 0.652784 0.167417
O O10 0.500000 0.500000 0.000000
O O11 0.246692 0.440412 0.777167
O O12 0.326738 0.897767 0.723028
O O13 0.000000 0.000000 0.000000
O O14 0.854269 0.145041 0.496976
O O15 0.000000 0.500000 0.500000
O O16 0.190018 0.275535 0.573709
O O17 0.457320 0.825762 0.370934
O O18 0.500000 0.000000 0.500000
#
# Coordination Sequence:
#
# PCOD9059022 Si02
#       8
#     2   2   2   2   2   2   2   2
#     4  11  23  43  70  94 142 197 241 299 374 432
#     4  12  27  46  73 104 145 193 244 294 379 433
#     4  11  23  40  62 101 139 187 249 307 358 425
#     4  12  28  52  82 112 155 191 246 306 380 459
#     4  11  24  41  70  99 142 196 248 300 376 431
#     4  12  28  43  70 108 145 193 247 309 357 435
#     4  11  27  45  71 104 151 192 249 306 375 448
#     4  12  28  51  82 117 150 196 247 310 379 450
#
# _framework density 25.311575000000001
#
# number of rings (size 3 to 8) (size 9 to 14) (size 15 to 20)
#    0.000    0.500    2.500    4.500   10.500    3.000 
#    0.000    0.000    0.000    0.000    0.000    0.000 
#    0.000    0.000    0.000    0.000    0.000    0.000 
#
# Total GULP energy -89512.299016 kJ/mol
# GULP energy per Si atom -5594.518689 kJ/mol
# Density = 2.525396 g / cm^3
# Si number density = 25.311575 Si / 1000 Ang^3
#
#
#
# Elastic Constant Matrix: (Units=GPa)
#
#
# Indices 1 2 3 4 5 6 
#
# 1 92.4569 15.6731 7.6976 -6.6303 6.0758 -8.0794
# 2 15.6731 115.2123 25.0236 11.0674 14.9011 -5.6399
# 3 7.6976 25.0236 82.1181 0.0558 12.8818 -0.8340
# 4 -6.6303 11.0674 0.0558 57.4387 -7.9787 -2.8020
# 5 6.0758 14.9011 12.8818 -7.9787 50.1711 7.0734
# 6 -8.0794 -5.6399 -0.8340 -2.8020 7.0734 27.2426
#
#
#
# Elastic Compliance Matrix: (Units=1/GPa)
#
#
# Indices 1 2 3 4 5 6 
#
# 1 0.011582 -0.001301 -0.000473 0.001605 -0.001149 0.003614
# 2 -0.001301 0.010103 -0.002480 -0.002391 -0.002887 0.002133
# 3 -0.000473 -0.002480 0.013407 0.000057 -0.002705 0.000465
# 4 0.001605 -0.002391 0.000057 0.018566 0.003308 0.001033
# 5 -0.001149 -0.002887 -0.002705 0.003308 0.023090 -0.006676
# 6 0.003614 0.002133 0.000465 0.001033 -0.006676 0.040075
#
#
# Mechanical properties :
#
#
# Convention : Reuss Voigt Hill
#
# Bulk Modulus (GPa) = 37.61983 42.95288 40.28635
# Shear Modulus (GPa) = 37.25950 43.06333 40.16142
#
# Velocity S-wave (km/s) = 3.84087 4.12919 3.98764
# Velocity P-wave (km/s) = 5.87917 6.30398 6.09528
#
# Compressibility (1/GPa) = 0.02658173
#
# Stress axis : x y z
#
# Youngs Moduli (GPa) = 86.33843 98.98047 74.58919
#
# Poissons Ratio (x) = 0.12882 0.03530
# Poissons Ratio (y) = 0.11237 0.18501
# Poissons Ratio (z) = 0.04086 0.24552
#
# Static dielectric constant tensor:
#      x y z
#    x 2.076790 0.010820 0.008510 
#    y 0.010820 2.039030 0.006280 
#    z 0.008510 0.006280 2.015450 
# 
# From -- ./inp_files/324095.got.cif
#   From: 2010.05.17/outbox.cif.g08.bks.cpg/sg2_163_cif.got.tgz:324095.got - 2010.06.03 11:33:40.
