data_PCOD9059103
_publ_section_title
;
Structure prediction by ZEFSAII (Michael W. Deem and Ramdas Pophale) SiO2 
 PCOD9059103
Probable space group: P -1
;
_chemical_formula_sum "Si O2"
_cell_formula_units_Z 16
_cell_length_a 16.375607
_cell_length_b 9.440561
_cell_length_c 23.509937
_cell_angle_alpha 136.612175
_cell_angle_beta 161.526782
_cell_angle_gamma 41.464178
_cell_volume 760.348239
_symmetry_space_group_name_H-M "P -1"
_symmetry_group_IT_number 2
_symmetry_cell_setting 'triclinic'
loop_
_space_group_symop_operation_xyz
x,y,z
-x,-y,-z
loop_
_atom_site_type_symbol
_atom_site_label
_atom_site_fract_x
_atom_site_fract_y
_atom_site_fract_z
Si Si1 0.012325 0.747641 0.994834
Si Si2 0.019149 0.081514 0.600729
Si Si3 0.500023 0.579680 0.587798
Si Si4 0.706400 0.215515 0.705206
Si Si5 0.877148 0.752076 0.484765
Si Si6 0.714181 0.241882 0.934450
Si Si7 0.772369 0.524446 0.160516
Si Si8 0.821286 0.818430 0.598783
O O1 0.757713 0.667475 0.789152
O O2 0.911939 0.006175 0.006055
O O3 0.133524 0.673398 0.114464
O O4 0.228374 0.684008 0.068854
O O5 0.218846 0.232757 0.773629
O O6 0.754597 0.241344 0.502636
O O7 0.000000 0.000000 0.500000
O O8 0.061033 0.869393 0.605127
O O9 0.500000 0.500000 0.500000
O O10 0.544603 0.373519 0.597088
O O11 0.489849 0.151464 0.583635
O O12 0.892289 0.009565 0.736027
O O13 0.589566 0.778679 0.271750
O O14 0.846527 0.840044 0.554634
O O15 0.000000 0.500000 0.500000
O O16 0.789065 0.398445 0.075368
O O17 0.004227 0.403653 0.322942
O O18 0.500000 0.500000 0.000000
#
# Coordination Sequence:
#
# PCOD9059103 Si02
#       8
#     2   2   2   2   2   2   2   2
#     4  11  23  40  67 100 140 180 226 295 357 412
#     4  12  26  45  71 105 141 188 235 292 363 432
#     4  12  25  43  70 105 144 183 241 300 357 434
#     4  11  23  40  67 100 140 180 226 295 357 412
#     4  12  25  46  71 100 139 189 238 292 357 431
#     4  11  23  42  68  99 135 181 234 288 354 421
#     4  12  25  46  71 100 139 189 238 292 357 431
#     4  11  23  42  68  99 135 181 234 288 354 421
#
# _framework density 21.04299
#
# number of rings (size 3 to 8) (size 9 to 14) (size 15 to 20)
#    0.000    0.500    5.000    4.125    0.000    0.000 
#    0.000    3.750    0.000    0.000    0.000    0.000 
#    0.000    0.000    0.000    0.000    0.000    0.000 
#
# Total GULP energy -89407.426319 kJ/mol
# GULP energy per Si atom -5587.964145 kJ/mol
# Density = 2.099510 g / cm^3
# Si number density = 21.042990 Si / 1000 Ang^3
#
#
#
# Elastic Constant Matrix: (Units=GPa)
#
#
# Indices 1 2 3 4 5 6 
#
# 1 143.7342 37.8268 36.4266 23.9473 -24.3411 3.3697
# 2 37.8268 69.0158 2.3763 12.8929 3.5438 12.7262
# 3 36.4266 2.3763 85.8059 22.8202 -7.8940 -0.8775
# 4 23.9473 12.8929 22.8202 40.2093 2.9296 0.8688
# 5 -24.3411 3.5438 -7.8940 2.9296 44.6455 4.8776
# 6 3.3697 12.7262 -0.8775 0.8688 4.8776 36.5974
#
#
#
# Elastic Compliance Matrix: (Units=1/GPa)
#
#
# Indices 1 2 3 4 5 6 
#
# 1 0.010715 -0.005467 -0.002945 -0.003394 0.005964 0.000130
# 2 -0.005467 0.019355 0.002501 -0.004015 -0.003195 -0.005646
# 3 -0.002945 0.002501 0.014994 -0.007653 0.001376 -0.000241
# 4 -0.003394 -0.004015 -0.007653 0.032870 -0.005199 0.001438
# 5 0.005964 -0.003195 0.001376 -0.005199 0.026800 -0.002854
# 6 0.000130 -0.005646 -0.000241 0.001438 -0.002854 0.029616
#
#
# Mechanical properties :
#
#
# Convention : Reuss Voigt Hill
#
# Bulk Modulus (GPa) = 30.08185 50.20172 40.14178
# Shear Modulus (GPa) = 31.79595 39.08553 35.44074
#
# Velocity S-wave (km/s) = 3.89138 4.31445 4.10836
# Velocity P-wave (km/s) = 5.87511 6.98053 6.45154
#
# Compressibility (1/GPa) = 0.03324263
#
# Stress axis : x y z
#
# Youngs Moduli (GPa) = 93.32876 51.66628 66.69127
#
# Poissons Ratio (x) = 0.28248 0.19637
# Poissons Ratio (y) = 0.51026 -0.16680
# Poissons Ratio (z) = 0.27481 -0.12922
#
# Static dielectric constant tensor:
#      x y z
#    x 1.793770 -0.016290 -0.011530 
#    y -0.016290 1.784380 0.006430 
#    z -0.011530 0.006430 1.769840 
# 
# From -- ./inp_files/274855.got.cif
#   From: 2010.05.17/outbox.cif.g08.bks.cpg/sg2_138_cif.got.tgz:274855.got - 2010.06.03 11:33:40.
