data_PCOD9059488
_publ_section_title
;
Structure prediction by ZEFSAII (Michael W. Deem and Ramdas Pophale) SiO2 
 PCOD9059488
Probable space group: P -1
;
_chemical_formula_sum "Si O2"
_cell_formula_units_Z 14
_cell_length_a 14.303863
_cell_length_b 11.844151
_cell_length_c 12.108461
_cell_angle_alpha 101.760228
_cell_angle_beta 19.774945
_cell_angle_gamma 107.720391
_cell_volume 639.019625
_symmetry_space_group_name_H-M "P -1"
_symmetry_group_IT_number 2
_symmetry_cell_setting 'triclinic'
loop_
_space_group_symop_operation_xyz
x,y,z
-x,-y,-z
loop_
_atom_site_type_symbol
_atom_site_label
_atom_site_fract_x
_atom_site_fract_y
_atom_site_fract_z
Si Si1 0.406232 0.954881 0.969264
Si Si2 0.314793 0.859595 0.696141
Si Si3 0.668093 0.798753 0.485834
Si Si4 0.746009 0.670722 0.919204
Si Si5 0.889999 0.710329 0.518517
Si Si6 0.633769 0.402792 0.073906
Si Si7 0.687765 0.195113 0.566112
O O1 0.586563 0.879585 0.688909
O O2 0.465774 0.073651 0.848348
O O3 0.077953 0.854083 0.321581
O O4 0.500000 0.000000 0.000000
O O5 0.488231 0.804872 0.577886
O O6 0.281763 0.807807 0.599472
O O7 0.500000 0.000000 0.500000
O O8 0.007617 0.848547 0.090361
O O9 0.572619 0.659850 0.607087
O O10 0.875758 0.673277 0.654089
O O11 0.991391 0.777673 0.733460
O O12 0.699933 0.544370 0.007249
O O13 0.446746 0.698381 0.241150
O O14 0.563666 0.668957 0.824512
O O15 0.076529 0.633736 0.240641
#
# Coordination Sequence:
#
# PCOD9059488 Si02
#       7
#     2   2   2   2   2   2   2
#     4  11  24  43  68 107 142 169 213 283 349 399
#     4  12  25  45  70  96 134 177 229 268 330 401
#     4  11  25  45  70  98 131 179 226 276 322 397
#     4  12  25  44  65  99 140 178 221 277 329 401
#     4  11  23  41  69  97 137 183 220 267 333 410
#     4  11  24  44  68  97 133 181 232 265 327 399
#     4  12  27  42  68 102 137 176 222 276 345 389
#
# _framework density 21.908559
#
# number of rings (size 3 to 8) (size 9 to 14) (size 15 to 20)
#    0.000    0.571    2.857    5.571    4.000    1.714 
#    0.000    4.286    0.000    0.000    0.000    0.000 
#    0.000    0.000    0.000    0.000    0.000    0.000 
#
# Total GULP energy -78314.769610 kJ/mol
# GULP energy per Si atom -5593.912115 kJ/mol
# Density = 2.185869 g / cm^3
# Si number density = 21.908559 Si / 1000 Ang^3
#
#
#
# Elastic Constant Matrix: (Units=GPa)
#
#
# Indices 1 2 3 4 5 6 
#
# 1 4.8412 30.1158 33.1161 -8.1099 -1.9390 -79.5004
# 2 30.1158 57.9155 13.0111 -27.3682 19.3637 -11.7462
# 3 33.1161 13.0111 103.8091 -6.3698 18.0850 -2.9629
# 4 -8.1099 -27.3682 -6.3698 40.0765 -8.9935 9.6205
# 5 -1.9390 19.3637 18.0850 -8.9935 40.9550 -11.7084
# 6 -79.5004 -11.7462 -2.9629 9.6205 -11.7084 -2.0035
#
#
#
# Elastic Compliance Matrix: (Units=1/GPa)
#
#
# Indices 1 2 3 4 5 6 
#
# 1 0.001161 -0.001601 0.000011 0.001736 -0.002592 -0.013224
# 2 -0.001601 0.030580 -0.000671 0.016351 -0.007865 0.009731
# 3 0.000011 -0.000671 0.010353 -0.000528 -0.003172 0.004191
# 4 0.001736 0.016351 -0.000528 0.036083 0.001186 0.002370
# 5 -0.002592 -0.007865 -0.003172 0.001186 0.028169 -0.005267
# 6 -0.013224 0.009731 0.004191 0.002370 -0.005267 0.004513
#
#
# Mechanical properties :
#
#
# Convention : Reuss Voigt Hill
#
# Bulk Modulus (GPa) = 26.61500 35.45022 31.03261
# Shear Modulus (GPa) = 39.09105 21.82711 30.45908
#
# Velocity S-wave (km/s) = 4.22866 3.15982 3.73269
# Velocity P-wave (km/s) = 6.00139 5.43403 5.72474
#
# Compressibility (1/GPa) = 0.03757279
#
# Stress axis : x y z
#
# Youngs Moduli (GPa) = 861.14024 32.70084 96.58574
#
# Poissons Ratio (x) = 0.05237 -0.00105
# Poissons Ratio (y) = 1.37901 0.06477
# Poissons Ratio (z) = -0.00940 0.02193
#
# Static dielectric constant tensor:
#      x y z
#    x 1.672100 0.004490 -0.055300 
#    y 0.004490 1.809620 -0.009410 
#    z -0.055300 -0.009410 1.757360 
# 
# From -- ./inp_files/366903.got.cif
#   From: 2010.05.17/outbox.cif.g08.bks.cpg/sg2_184_cif.got.tgz:366903.got - 2010.06.03 11:33:40.
