data_PCOD9059245
_publ_section_title
;
Structure prediction by ZEFSAII (Michael W. Deem and Ramdas Pophale) SiO2 
 PCOD9059245
Probable space group: P -1
;
_chemical_formula_sum "Si O2"
_cell_formula_units_Z 16
_cell_length_a 9.633927
_cell_length_b 13.348774
_cell_length_c 8.147667
_cell_angle_alpha 139.004417
_cell_angle_beta 82.017241
_cell_angle_gamma 101.676369
_cell_volume 672.976116
_symmetry_space_group_name_H-M "P -1"
_symmetry_group_IT_number 2
_symmetry_cell_setting 'triclinic'
loop_
_space_group_symop_operation_xyz
x,y,z
-x,-y,-z
loop_
_atom_site_type_symbol
_atom_site_label
_atom_site_fract_x
_atom_site_fract_y
_atom_site_fract_z
Si Si1 0.927150 0.320013 0.781702
Si Si2 0.602002 0.313377 0.351225
Si Si3 0.276073 0.221964 0.213193
Si Si4 0.212957 0.246416 0.620152
Si Si5 0.449197 0.028701 0.360773
Si Si6 0.241734 0.870610 0.715035
Si Si7 0.363753 0.401107 0.082177
Si Si8 0.354712 0.684998 0.979033
O O1 0.857477 0.237435 0.526441
O O2 0.051738 0.219552 0.676738
O O3 0.794784 0.315861 0.918303
O O4 0.000000 0.500000 0.000000
O O5 0.439476 0.232603 0.260363
O O6 0.737750 0.226538 0.247746
O O7 0.608307 0.426134 0.645381
O O8 0.635206 0.418585 0.311697
O O9 0.206018 0.274701 0.459402
O O10 0.285947 0.303515 0.130825
O O11 0.210060 0.042582 0.967838
O O12 0.315638 0.118664 0.476555
O O13 0.283822 0.381176 0.898117
O O14 0.593425 0.101217 0.338583
O O15 0.500000 0.000000 0.500000
O O16 0.399070 0.853560 0.100406
O O17 0.515826 0.344205 0.964595
#
# Coordination Sequence:
#
# PCOD9059245 Si02
#       8
#     2   2   2   2   2   2   2   2
#     4  12  30  46  66 103 153 196 235 281 366 448
#     4  11  23  40  75 112 136 182 241 312 362 410
#     4  11  23  43  76 107 138 179 249 302 359 420
#     4  12  26  45  70 104 147 190 233 293 363 430
#     4  12  20  43  76 107 132 178 244 313 346 413
#     4  12  22  47  72 107 141 181 244 302 358 418
#     4  11  24  45  74 109 142 182 247 308 353 419
#     4  11  23  44  72 102 140 184 238 299 359 416
#
# _framework density 23.774989999999999
#
# number of rings (size 3 to 8) (size 9 to 14) (size 15 to 20)
#    0.000    0.500    6.250    3.375    3.500    1.500 
#    2.250    1.250    0.000    0.000    0.000    0.000 
#    0.000    0.000    0.000    0.000    0.000    0.000 
#
# Total GULP energy -89261.407188 kJ/mol
# GULP energy per Si atom -5578.837949 kJ/mol
# Density = 2.372088 g / cm^3
# Si number density = 23.774990 Si / 1000 Ang^3
#
#
#
# Elastic Constant Matrix: (Units=GPa)
#
#
# Indices 1 2 3 4 5 6 
#
# 1 132.5882 24.4349 20.6799 -15.0184 2.1091 8.1720
# 2 24.4349 46.6549 31.9993 -0.2546 0.3403 -1.2345
# 3 20.6799 31.9993 127.9669 -15.1828 25.4361 7.6766
# 4 -15.0184 -0.2546 -15.1828 43.1348 6.8212 -7.5122
# 5 2.1091 0.3403 25.4361 6.8212 32.2075 -1.4299
# 6 8.1720 -1.2345 7.6766 -7.5122 -1.4299 22.5228
#
#
#
# Elastic Compliance Matrix: (Units=1/GPa)
#
#
# Indices 1 2 3 4 5 6 
#
# 1 0.008962 -0.005303 0.000824 0.003191 -0.001986 -0.002885
# 2 -0.005303 0.030894 -0.009665 -0.005517 0.009073 0.005648
# 3 0.000824 -0.009665 0.013480 0.006166 -0.012088 -0.004134
# 4 0.003191 -0.005517 0.006166 0.029112 -0.010944 0.005453
# 5 -0.001986 0.009073 -0.012088 -0.010944 0.043144 0.004426
# 6 -0.002885 0.005648 -0.004134 0.005453 0.004426 0.049265
#
#
# Mechanical properties :
#
#
# Convention : Reuss Voigt Hill
#
# Bulk Modulus (GPa) = 39.92427 51.27091 45.59759
# Shear Modulus (GPa) = 23.64128 34.91274 29.27701
#
# Velocity S-wave (km/s) = 3.15679 3.83621 3.51297
# Velocity P-wave (km/s) = 5.48782 6.42136 5.97286
#
# Compressibility (1/GPa) = 0.02504742
#
# Stress axis : x y z
#
# Youngs Moduli (GPa) = 111.58518 32.36902 74.18136
#
# Poissons Ratio (x) = 0.17166 -0.06114
# Poissons Ratio (y) = 0.59178 0.71697
# Poissons Ratio (z) = -0.09197 0.31285
#
# Static dielectric constant tensor:
#      x y z
#    x 1.822120 0.120210 0.117990 
#    y 0.120210 1.523830 -0.608680 
#    z 0.117990 -0.608680 1.438530 
# 
# From -- ./inp_files/209401.got.cif
#   From: 2010.05.17/outbox.cif.g08.bks.cpg/sg2_105_cif.got.tgz:209401.got - 2010.06.03 11:33:40.
