data_PCOD9059860
_publ_section_title
;
Structure prediction by ZEFSAII (Michael W. Deem and Ramdas Pophale) SiO2 
 PCOD9059860
Probable space group: P -1
;
_chemical_formula_sum "Si O2"
_cell_formula_units_Z 16
_cell_length_a 7.057503
_cell_length_b 21.511942
_cell_length_c 13.874709
_cell_angle_alpha 159.142710
_cell_angle_beta 85.535583
_cell_angle_gamma 91.513377
_cell_volume 741.318013
_symmetry_space_group_name_H-M "P -1"
_symmetry_group_IT_number 2
_symmetry_cell_setting 'triclinic'
loop_
_space_group_symop_operation_xyz
x,y,z
-x,-y,-z
loop_
_atom_site_type_symbol
_atom_site_label
_atom_site_fract_x
_atom_site_fract_y
_atom_site_fract_z
Si Si1 0.231026 0.499165 0.602904
Si Si2 0.971530 0.230494 0.258115
Si Si3 0.896457 0.692709 0.259352
Si Si4 0.298705 0.997822 0.557123
Si Si5 0.604585 0.230392 0.155412
Si Si6 0.969365 0.251050 0.880038
Si Si7 0.114652 0.842279 0.637044
Si Si8 0.479006 0.862703 0.552866
O O1 0.418207 0.355122 0.381178
O O2 0.289241 0.660487 0.770563
O O3 0.056166 0.386685 0.425263
O O4 0.161007 0.584081 0.830326
O O5 0.759772 0.202506 0.193137
O O6 0.962112 0.255047 0.409238
O O7 0.099169 0.047222 0.962897
O O8 0.946000 0.725011 0.193844
O O9 0.668393 0.728096 0.331264
O O10 0.985958 0.818442 0.514207
O O11 0.000000 0.500000 0.000000
O O12 0.353417 0.909085 0.528688
O O13 0.177214 0.889669 0.334432
O O14 0.500000 0.000000 0.500000
O O15 0.152487 0.179169 0.835588
O O16 0.546502 0.047380 0.852844
O O17 0.335992 0.785648 0.520822
#
# Coordination Sequence:
#
# PCOD9059860 Si02
#       8
#     2   2   2   2   2   2   2   2
#     4  11  25  43  68 106 140 178 229 290 347 414
#     4  11  24  44  69  99 138 184 234 283 342 407
#     4  12  26  47  69 102 141 185 232 289 345 415
#     4  11  23  42  70 102 134 181 229 280 350 410
#     4  11  25  44  70 103 139 183 228 290 350 406
#     4  11  25  42  69 102 141 177 228 283 343 421
#     4  11  25  44  71  99 134 186 238 282 342 413
#     4  12  24  45  73 103 142 182 237 286 350 423
#
# _framework density 21.583179000000001
#
# number of rings (size 3 to 8) (size 9 to 14) (size 15 to 20)
#    0.000    0.750    5.000    1.875    3.500    6.000 
#    2.250    0.000    0.000    0.000    0.000    0.000 
#    0.000    0.000    0.000    0.000    0.000    0.000 
#
# Total GULP energy -89365.401581 kJ/mol
# GULP energy per Si atom -5585.337599 kJ/mol
# Density = 2.153405 g / cm^3
# Si number density = 21.583179 Si / 1000 Ang^3
#
#
#
# Elastic Constant Matrix: (Units=GPa)
#
#
# Indices 1 2 3 4 5 6 
#
# 1 127.0058 47.1524 29.3150 -12.1309 -9.0580 8.0066
# 2 47.1524 72.5154 31.7914 -9.1460 -22.6061 9.2542
# 3 29.3150 31.7914 59.7940 -7.2794 -14.0618 10.7060
# 4 -12.1309 -9.1460 -7.2794 31.3937 6.9940 -3.4171
# 5 -9.0580 -22.6061 -14.0618 6.9940 27.3149 -1.4291
# 6 8.0066 9.2542 10.7060 -3.4171 -1.4291 34.8751
#
#
#
# Elastic Compliance Matrix: (Units=1/GPa)
#
#
# Indices 1 2 3 4 5 6 
#
# 1 0.010983 -0.007104 -0.002276 0.002567 -0.004058 0.000147
# 2 -0.007104 0.026604 -0.006359 -0.000421 0.016347 -0.002848
# 3 -0.002276 -0.006359 0.023488 0.000961 0.005584 -0.004678
# 4 0.002567 -0.000421 0.000961 0.034943 -0.007827 0.002330
# 5 -0.004058 0.016347 0.005584 -0.007827 0.053479 -0.003696
# 6 0.000147 -0.002848 -0.004678 0.002330 -0.003696 0.030908
#
#
# Mechanical properties :
#
#
# Convention : Reuss Voigt Hill
#
# Bulk Modulus (GPa) = 33.78649 52.87030 43.32840
# Shear Modulus (GPa) = 22.54812 28.78715 25.66763
#
# Velocity S-wave (km/s) = 3.23570 3.65605 3.45228
# Velocity P-wave (km/s) = 5.44497 6.50934 6.00080
#
# Compressibility (1/GPa) = 0.02959763
#
# Stress axis : x y z
#
# Youngs Moduli (GPa) = 91.05139 37.58887 42.57422
#
# Poissons Ratio (x) = 0.26703 0.09689
# Poissons Ratio (y) = 0.64683 0.27072
# Poissons Ratio (z) = 0.20721 0.23902
#
# Static dielectric constant tensor:
#      x y z
#    x 1.727630 -0.008880 0.033160 
#    y -0.008880 1.808670 0.050860 
#    z 0.033160 0.050860 1.801860 
# 
# From -- ./inp_files/72392.got.cif
#   From: 2010.05.17/outbox.cif.g08.bks.cpg/sg2_37_cif.got.tgz:72392.got - 2010.06.03 11:33:40.
