data_PCOD9059396
_publ_section_title
;
Structure prediction by ZEFSAII (Michael W. Deem and Ramdas Pophale) SiO2 
 PCOD9059396
Probable space group: P -1
;
_chemical_formula_sum "Si O2"
_cell_formula_units_Z 14
_cell_length_a 6.806100
_cell_length_b 7.744772
_cell_length_c 12.060893
_cell_angle_alpha 114.817676
_cell_angle_beta 84.597607
_cell_angle_gamma 73.754629
_cell_volume 537.421169
_symmetry_space_group_name_H-M "P -1"
_symmetry_group_IT_number 2
_symmetry_cell_setting 'triclinic'
loop_
_space_group_symop_operation_xyz
x,y,z
-x,-y,-z
loop_
_atom_site_type_symbol
_atom_site_label
_atom_site_fract_x
_atom_site_fract_y
_atom_site_fract_z
Si Si1 0.140953 0.234269 0.338103
Si Si2 0.259311 0.732760 0.762824
Si Si3 0.640840 0.436320 0.587963
Si Si4 0.944651 0.769751 0.968154
Si Si5 0.746038 0.970096 0.485009
Si Si6 0.887541 0.698180 0.193978
Si Si7 0.541311 0.940511 0.147811
O O1 0.207600 0.432264 0.381139
O O2 0.294308 0.053903 0.202434
O O3 0.905044 0.287531 0.323203
O O4 0.179186 0.139542 0.432022
O O5 0.500000 0.500000 0.500000
O O6 0.455551 0.527099 0.714128
O O7 0.370176 0.889226 0.761477
O O8 0.116372 0.825313 0.902397
O O9 0.747151 0.197365 0.535507
O O10 0.997997 0.539415 0.858370
O O11 0.996005 0.753632 0.093389
O O12 0.688070 0.868755 0.011635
O O13 0.500000 0.000000 0.500000
O O14 0.870018 0.829742 0.339175
O O15 0.648162 0.751267 0.173392
#
# Coordination Sequence:
#
# PCOD9059396 Si02
#       7
#     2   2   2   2   2   2   2
#     4  11  25  42  66 103 134 168 218 274 325 391
#     4  11  23  41  67  99 130 170 219 268 330 387
#     4  11  24  44  64  97 135 174 219 264 327 398
#     4   9  19  38  66  91 125 171 216 269 319 386
#     4  12  19  41  69  92 133 179 210 267 336 385
#     4   9  19  37  64  94 120 171 225 256 322 396
#     4   9  19  41  65  92 130 168 215 264 324 389
#
# _framework density 26.050331
#
# number of rings (size 3 to 8) (size 9 to 14) (size 15 to 20)
#    0.857    0.857    2.857    2.143    0.000    1.143 
#    2.571    1.429    0.000    3.429    0.000    0.000 
#    0.000    0.000    0.000    0.000    0.000    0.000 
#
# Total GULP energy -78285.500999 kJ/mol
# GULP energy per Si atom -5591.821500 kJ/mol
# Density = 2.599104 g / cm^3
# Si number density = 26.050331 Si / 1000 Ang^3
#
#
#
# Elastic Constant Matrix: (Units=GPa)
#
#
# Indices 1 2 3 4 5 6 
#
# 1 112.7624 36.2989 32.3776 10.0202 -26.9254 7.2930
# 2 36.2989 107.6731 46.5796 -0.5724 -7.3521 3.0272
# 3 32.3776 46.5796 184.9124 5.5337 -20.0943 -13.6859
# 4 10.0202 -0.5724 5.5337 61.2915 -13.1661 -3.1680
# 5 -26.9254 -7.3521 -20.0943 -13.1661 38.8291 -1.9742
# 6 7.2930 3.0272 -13.6859 -3.1680 -1.9742 17.8201
#
#
#
# Elastic Compliance Matrix: (Units=1/GPa)
#
#
# Indices 1 2 3 4 5 6 
#
# 1 0.012123 -0.003103 -0.000904 -0.000681 0.006892 -0.004486
# 2 -0.003103 0.011502 -0.002729 0.000414 -0.001391 -0.002861
# 3 -0.000904 -0.002729 0.007061 0.000477 0.003012 0.006675
# 4 -0.000681 0.000414 0.000477 0.017941 0.006163 0.004447
# 5 0.006892 -0.001391 0.003012 0.006163 0.034152 0.004608
# 6 -0.004486 -0.002861 0.006675 0.004447 0.004608 0.064865
#
#
# Mechanical properties :
#
#
# Convention : Reuss Voigt Hill
#
# Bulk Modulus (GPa) = 58.09345 70.65112 64.37229
# Shear Modulus (GPa) = 29.96640 42.92759 36.44699
#
# Velocity S-wave (km/s) = 3.39533 4.06380 3.74451
# Velocity P-wave (km/s) = 6.14165 7.01421 6.59238
#
# Compressibility (1/GPa) = 0.01721364
#
# Stress axis : x y z
#
# Youngs Moduli (GPa) = 82.48886 86.94342 141.62866
#
# Poissons Ratio (x) = 0.26977 0.12799
# Poissons Ratio (y) = 0.25595 0.38655
# Poissons Ratio (z) = 0.07455 0.23730
#
# Static dielectric constant tensor:
#      x y z
#    x 2.035450 0.021100 -0.032180 
#    y 0.021100 2.127710 0.021010 
#    z -0.032180 0.021010 2.167680 
# 
# From -- ./inp_files/493594.got.cif
#   From: 2010.05.17/outbox.cif.g08.bks.cpg/sg2_247_cif.got.tgz:493594.got - 2010.06.03 11:33:40.
