data_PCOD9059652
_publ_section_title
;
Structure prediction by ZEFSAII (Michael W. Deem and Ramdas Pophale) SiO2 
 PCOD9059652
Probable space group: P -1
;
_chemical_formula_sum "Si O2"
_cell_formula_units_Z 16
_cell_length_a 6.650519
_cell_length_b 16.606640
_cell_length_c 7.493256
_cell_angle_alpha 124.690777
_cell_angle_beta 72.347284
_cell_angle_gamma 98.965032
_cell_volume 648.272548
_symmetry_space_group_name_H-M "P -1"
_symmetry_group_IT_number 2
_symmetry_cell_setting 'triclinic'
loop_
_space_group_symop_operation_xyz
x,y,z
-x,-y,-z
loop_
_atom_site_type_symbol
_atom_site_label
_atom_site_fract_x
_atom_site_fract_y
_atom_site_fract_z
Si Si1 0.703804 0.473019 0.029564
Si Si2 0.880073 0.605540 0.654309
Si Si3 0.824942 0.892274 0.979422
Si Si4 0.182236 0.915187 0.622916
Si Si5 0.893893 0.164338 0.817747
Si Si6 0.981583 0.641601 0.060101
Si Si7 0.490321 0.282567 0.237071
Si Si8 0.751570 0.296625 0.524403
O O1 0.772814 0.377931 0.772541
O O2 0.793902 0.418045 0.113373
O O3 0.500000 0.500000 0.000000
O O4 0.838126 0.571155 0.126632
O O5 0.643260 0.620719 0.666417
O O6 0.000000 0.500000 0.500000
O O7 0.034955 0.681198 0.612515
O O8 0.858821 0.638871 0.903971
O O9 0.975864 0.868730 0.083281
O O10 0.962336 0.915034 0.794473
O O11 0.672606 0.805397 0.859676
O O12 0.705035 0.991352 0.204551
O O13 0.165366 0.916688 0.414723
O O14 0.279144 0.809959 0.519488
O O15 0.013834 0.243574 0.761039
O O16 0.695844 0.231137 0.023499
O O17 0.565538 0.309055 0.448314
#
# Coordination Sequence:
#
# PCOD9059652 Si02
#       8
#     2   2   2   2   2   2   2   2
#     4  11  27  40  64 100 133 176 231 277 335 407
#     4  12  25  43  68  95 136 183 227 277 340 404
#     4  11  25  49  71 101 139 178 231 283 350 412
#     4  11  24  48  73  98 141 183 219 294 349 404
#     4  12  24  46  73 104 138 176 236 282 343 412
#     4  11  23  42  65  90 137 173 215 283 330 398
#     4  12  25  43  72  99 138 179 230 288 336 411
#     4  12  24  44  65 100 136 177 230 277 343 410
#
# _framework density 24.680978
#
# number of rings (size 3 to 8) (size 9 to 14) (size 15 to 20)
#    0.000    0.500    7.500    0.375    3.500    2.500 
#    2.250    0.000    0.000    0.000    0.000    0.000 
#    0.000    0.000    0.000    0.000    0.000    0.000 
#
# Total GULP energy -89101.080930 kJ/mol
# GULP energy per Si atom -5568.817558 kJ/mol
# Density = 2.462480 g / cm^3
# Si number density = 24.680978 Si / 1000 Ang^3
#
#
#
# Elastic Constant Matrix: (Units=GPa)
#
#
# Indices 1 2 3 4 5 6 
#
# 1 110.4306 24.7022 1.3695 14.7422 5.9447 -25.0752
# 2 24.7022 67.8767 -4.8244 11.5301 -8.3649 -11.8137
# 3 1.3695 -4.8244 79.4322 16.8652 7.3570 3.6758
# 4 14.7422 11.5301 16.8652 35.6015 -1.9397 10.1379
# 5 5.9447 -8.3649 7.3570 -1.9397 27.0674 2.0835
# 6 -25.0752 -11.8137 3.6758 10.1379 2.0835 36.1447
#
#
#
# Elastic Compliance Matrix: (Units=1/GPa)
#
#
# Indices 1 2 3 4 5 6 
#
# 1 0.013677 -0.001918 0.001633 -0.009444 -0.005615 0.011668
# 2 -0.001918 0.018592 0.002102 -0.007816 0.004538 0.006463
# 3 0.001633 0.002102 0.015029 -0.009668 -0.004739 0.003276
# 4 -0.009444 -0.007816 -0.009668 0.045574 0.007193 -0.021320
# 5 -0.005615 0.004538 -0.004739 0.007193 0.041874 -0.006362
# 6 0.011668 0.006463 0.003276 -0.021320 -0.006362 0.043887
#
#
# Mechanical properties :
#
#
# Convention : Reuss Voigt Hill
#
# Bulk Modulus (GPa) = 19.63412 33.35933 26.49672
# Shear Modulus (GPa) = 26.04513 35.52886 30.78700
#
# Velocity S-wave (km/s) = 3.25202 3.79822 3.53568
# Velocity P-wave (km/s) = 4.69822 5.72546 5.23709
#
# Compressibility (1/GPa) = 0.05093175
#
# Stress axis : x y z
#
# Youngs Moduli (GPa) = 73.11711 53.78687 66.53853
#
# Poissons Ratio (x) = 0.10318 -0.10866
# Poissons Ratio (y) = 0.14026 -0.13989
# Poissons Ratio (z) = -0.11940 -0.11308
#
# Static dielectric constant tensor:
#      x y z
#    x 3.245460 -0.231580 0.807750 
#    y -0.231580 2.169480 -0.082450 
#    z 0.807750 -0.082450 2.588190 
# 
# From -- ./inp_files/139512.got.cif
#   From: 2010.05.17/outbox.cif.g08.bks.cpg/sg2_70_cif.got.tgz:139512.got - 2010.06.03 11:33:40.
