data_PCOD9059139
_publ_section_title
;
Structure prediction by ZEFSAII (Michael W. Deem and Ramdas Pophale) SiO2 
 PCOD9059139
Probable space group: P -1
;
_chemical_formula_sum "Si O2"
_cell_formula_units_Z 11
_cell_length_a 6.299806
_cell_length_b 11.794338
_cell_length_c 14.795517
_cell_angle_alpha 33.060945
_cell_angle_beta 43.576100
_cell_angle_gamma 54.790417
_cell_volume 412.028593
_symmetry_space_group_name_H-M "P -1"
_symmetry_group_IT_number 2
_symmetry_cell_setting 'triclinic'
loop_
_space_group_symop_operation_xyz
x,y,z
-x,-y,-z
loop_
_atom_site_type_symbol
_atom_site_label
_atom_site_fract_x
_atom_site_fract_y
_atom_site_fract_z
Si Si1 0.263716 0.853092 0.486286
Si Si2 0.336489 0.877111 0.249576
Si Si3 0.160829 0.751965 0.116696
Si Si4 0.000000 0.500000 0.500000
Si Si5 0.343170 0.585942 0.816208
Si Si6 0.830079 0.158846 0.141219
O O1 0.209375 0.783492 0.447228
O O2 0.331092 0.695887 0.650141
O O3 0.583217 0.990677 0.288843
O O4 0.000000 0.000000 0.500000
O O5 0.263499 0.688236 0.328660
O O6 0.097679 0.049937 0.181967
O O7 0.667878 0.018588 0.061034
O O8 0.429823 0.591873 0.140169
O O9 0.937231 0.648427 0.331391
O O10 0.048252 0.725824 0.064187
O O11 0.386572 0.732772 0.791927
O O12 0.000000 0.500000 0.000000
#
# Coordination Sequence:
#
# PCOD9059139 Si02
#       6
#     2   2   2   1   2   2
#     4  11  23  40  68 106 142 176 227 288 348 418
#     4  11  25  48  68 103 140 181 238 283 339 416
#     4  11  26  46  69 106 140 181 237 283 342 417
#     4  12  28  46  74  94 142 198 230 280 342 412
#     4  12  22  41  73 107 140 176 222 292 359 410
#     4  11  23  44  71 101 142 179 223 296 355 400
#
# _framework density 26.697175000000001
#
# number of rings (size 3 to 8) (size 9 to 14) (size 15 to 20)
#    0.000    0.727    3.636    3.818    5.091    0.727 
#    0.000   10.909    0.000    0.000    0.000    0.000 
#    0.000    0.000    0.000    0.000    0.000    0.000 
#
# Total GULP energy -61282.726051 kJ/mol
# GULP energy per Si atom -5571.156914 kJ/mol
# Density = 2.663641 g / cm^3
# Si number density = 26.697175 Si / 1000 Ang^3
#
#
#
# Elastic Constant Matrix: (Units=GPa)
#
#
# Indices 1 2 3 4 5 6 
#
# 1 86.7232 34.2664 20.7188 -2.5483 23.4128 37.4351
# 2 34.2664 132.2365 17.8823 -11.8025 16.4212 14.2442
# 3 20.7188 17.8823 120.2591 -2.5970 25.2530 41.8484
# 4 -2.5483 -11.8025 -2.5970 30.0096 13.8789 3.7945
# 5 23.4128 16.4212 25.2530 13.8789 67.0927 17.1403
# 6 37.4351 14.2442 41.8484 3.7945 17.1403 43.0304
#
#
#
# Elastic Compliance Matrix: (Units=1/GPa)
#
#
# Indices 1 2 3 4 5 6 
#
# 1 0.022764 -0.003031 0.005659 0.006344 -0.004779 -0.022961
# 2 -0.003031 0.008953 -0.000525 0.004032 -0.001922 0.000594
# 3 0.005659 -0.000525 0.014579 0.005612 -0.003933 -0.017857
# 4 0.006344 0.004032 0.005612 0.042558 -0.011147 -0.011625
# 5 -0.004779 -0.001922 -0.003933 -0.011147 0.020458 0.001452
# 6 -0.022961 0.000594 -0.017857 -0.011625 0.001452 0.060831
#
#
# Mechanical properties :
#
#
# Convention : Reuss Voigt Hill
#
# Bulk Modulus (GPa) = 19.80111 53.88375 36.84243
# Shear Modulus (GPa) = 27.35647 45.78330 36.56989
#
# Velocity S-wave (km/s) = 3.20456 4.14564 3.70510
# Velocity P-wave (km/s) = 4.59623 6.56828 5.66867
#
# Compressibility (1/GPa) = 0.05050223
#
# Stress axis : x y z
#
# Youngs Moduli (GPa) = 43.92837 111.69135 68.58968
#
# Poissons Ratio (x) = 0.33857 -0.38816
# Poissons Ratio (y) = 0.13316 0.03603
# Poissons Ratio (z) = -0.24860 0.05866
#
# Static dielectric constant tensor:
#      x y z
#    x 1.347540 -0.771270 -0.005430 
#    y -0.771270 1.347890 -0.035730 
#    z -0.005430 -0.035730 2.123590 
# 
# From -- ./inp_files/20802.got.cif
#   From: 2010.05.17/outbox.cif.g08.bks.cpg/sg2_11_cif.got.tgz:20802.got - 2010.06.03 11:33:40.
