data_PCOD9059254
_publ_section_title
;
Structure prediction by ZEFSAII (Michael W. Deem and Ramdas Pophale) SiO2 
 PCOD9059254
Probable space group: P -1
;
_chemical_formula_sum "Si O2"
_cell_formula_units_Z 14
_cell_length_a 8.083975
_cell_length_b 18.280302
_cell_length_c 5.459367
_cell_angle_alpha 81.036850
_cell_angle_beta 58.177845
_cell_angle_gamma 60.418385
_cell_volume 590.159964
_symmetry_space_group_name_H-M "P -1"
_symmetry_group_IT_number 2
_symmetry_cell_setting 'triclinic'
loop_
_space_group_symop_operation_xyz
x,y,z
-x,-y,-z
loop_
_atom_site_type_symbol
_atom_site_label
_atom_site_fract_x
_atom_site_fract_y
_atom_site_fract_z
Si Si1 0.153587 0.029456 0.504188
Si Si2 0.777015 0.178269 0.035471
Si Si3 0.530036 0.842482 0.420214
Si Si4 0.905697 0.830153 0.845840
Si Si5 0.637327 0.672510 0.198771
Si Si6 0.211818 0.679246 0.366534
Si Si7 0.921827 0.599007 0.515641
O O1 0.228619 0.085592 0.253076
O O2 0.972768 0.095934 0.798651
O O3 0.362910 0.942752 0.472573
O O4 0.000000 0.000000 0.500000
O O5 0.754479 0.263086 0.893510
O O6 0.543764 0.180227 0.255321
O O7 0.873763 0.169000 0.237467
O O8 0.531924 0.774984 0.254631
O O9 0.774254 0.829275 0.188935
O O10 0.000962 0.745736 0.657564
O O11 0.440074 0.647301 0.358803
O O12 0.783656 0.638920 0.351211
O O13 0.778333 0.636438 0.858366
O O14 0.133792 0.615552 0.355428
O O15 0.000000 0.500000 0.500000
#
# Coordination Sequence:
#
# PCOD9059254 Si02
#       7
#     2   2   2   2   2   2   2
#     4  11  23  41  60  95 148 194 252 312 368 431
#     4  11  23  43  65  99 145 202 246 313 365 438
#     4  12  22  42  69 101 140 195 254 301 371 434
#     4  11  23  42  65 102 143 197 248 310 367 436
#     4  12  26  48  80 113 152 203 248 308 388 456
#     4  11  25  47  76 108 155 193 253 303 383 454
#     4  12  29  52  81 118 153 190 249 318 387 472
#
# _framework density 23.722383000000001
#
# number of rings (size 3 to 8) (size 9 to 14) (size 15 to 20)
#    0.000    0.571    4.286    3.857    0.000    1.714 
#    5.143    0.000    0.000    0.000    0.000    0.000 
#    0.000    0.000    0.000    0.000    0.000    0.000 
#
# Total GULP energy -78235.580724 kJ/mol
# GULP energy per Si atom -5588.255766 kJ/mol
# Density = 2.366839 g / cm^3
# Si number density = 23.722383 Si / 1000 Ang^3
#
#
#
# Elastic Constant Matrix: (Units=GPa)
#
#
# Indices 1 2 3 4 5 6 
#
# 1 122.1746 39.8239 35.3864 -9.8711 -4.4902 23.2254
# 2 39.8239 103.0692 42.1757 3.4412 9.4428 27.1845
# 3 35.3864 42.1757 154.7459 -1.7957 -9.2409 4.8798
# 4 -9.8711 3.4412 -1.7957 23.7324 5.8325 5.1642
# 5 -4.4902 9.4428 -9.2409 5.8325 41.2789 -6.1179
# 6 23.2254 27.1845 4.8798 5.1642 -6.1179 33.6292
#
#
#
# Elastic Compliance Matrix: (Units=1/GPa)
#
#
# Indices 1 2 3 4 5 6 
#
# 1 0.011150 -0.001865 -0.001787 0.006488 -0.000724 -0.007062
# 2 -0.001865 0.015838 -0.003888 0.000947 -0.006654 -0.012306
# 3 -0.001787 -0.003888 0.007984 -0.001245 0.003251 0.004001
# 4 0.006488 0.000947 -0.001245 0.049935 -0.008974 -0.014366
# 5 -0.000724 -0.006654 0.003251 -0.008974 0.029465 0.012145
# 6 -0.007062 -0.012306 0.004001 -0.014366 0.012145 0.048396
#
#
# Mechanical properties :
#
#
# Convention : Reuss Voigt Hill
#
# Bulk Modulus (GPa) = 50.27101 68.30685 59.28893
# Shear Modulus (GPa) = 27.10336 37.23501 32.16918
#
# Velocity S-wave (km/s) = 3.38379 3.96613 3.68648
# Velocity P-wave (km/s) = 6.04186 7.05907 6.57018
#
# Compressibility (1/GPa) = 0.01989218
#
# Stress axis : x y z
#
# Youngs Moduli (GPa) = 89.68241 63.14069 125.24886
#
# Poissons Ratio (x) = 0.11775 0.22380
# Poissons Ratio (y) = 0.16724 0.48701
# Poissons Ratio (z) = 0.16024 0.24551
#
# Static dielectric constant tensor:
#      x y z
#    x 1.932920 -0.015790 0.031330 
#    y -0.015790 1.919400 0.018040 
#    z 0.031330 0.018040 1.963300 
# 
# From -- ./inp_files/47254.got.cif
#   From: 2010.05.17/outbox.cif.g08.bks.cpg/sg2_24_cif.got.tgz:47254.got - 2010.06.03 11:33:40.
