data_PCOD9059805
_publ_section_title
;
Structure prediction by ZEFSAII (Michael W. Deem and Ramdas Pophale) SiO2 
 PCOD9059805
Probable space group: P -1
;
_chemical_formula_sum "Si O2"
_cell_formula_units_Z 14
_cell_length_a 8.338285
_cell_length_b 14.683595
_cell_length_c 11.849393
_cell_angle_alpha 132.976426
_cell_angle_beta 53.041467
_cell_angle_gamma 88.208179
_cell_volume 556.609154
_symmetry_space_group_name_H-M "P -1"
_symmetry_group_IT_number 2
_symmetry_cell_setting 'triclinic'
loop_
_space_group_symop_operation_xyz
x,y,z
-x,-y,-z
loop_
_atom_site_type_symbol
_atom_site_label
_atom_site_fract_x
_atom_site_fract_y
_atom_site_fract_z
Si Si1 0.280647 0.316521 0.297466
Si Si2 0.193523 0.150236 0.876946
Si Si3 0.001469 0.013201 0.291444
Si Si4 0.097484 0.134242 0.147995
Si Si5 0.146469 0.263036 0.763160
Si Si6 0.803264 0.310398 0.770571
Si Si7 0.293965 0.285688 0.506644
O O1 0.243456 0.185734 0.188886
O O2 0.234221 0.387296 0.504074
O O3 0.000000 0.500000 0.500000
O O4 0.635344 0.171069 0.995728
O O5 0.143539 0.280001 0.912927
O O6 0.114786 0.063754 0.766389
O O7 0.559473 0.964818 0.584091
O O8 0.010404 0.225737 0.136610
O O9 0.149890 0.853669 0.422537
O O10 0.922024 0.145527 0.332184
O O11 0.351447 0.913197 0.821584
O O12 0.225380 0.343492 0.715360
O O13 0.847075 0.331776 0.899883
O O14 0.084486 0.260012 0.559050
O O15 0.500000 0.500000 0.000000
#
# Coordination Sequence:
#
# PCOD9059805 Si02
#       7
#     2   2   2   2   2   2   2
#     4  11  20  35  63  87 115 149 197 247 288 339
#     4  10  19  33  62  87 117 152 193 231 292 359
#     4  11  20  36  60  92 110 154 199 239 286 346
#     4  10  17  38  61  80 121 153 180 242 300 339
#     4   8  18  37  55  78 121 154 185 233 291 334
#     4  10  19  36  61  81 110 154 197 238 279 333
#     4   8  16  36  58  78 110 153 186 230 293 328
#
# _framework density 25.152298999999999
#
# number of rings (size 3 to 8) (size 9 to 14) (size 15 to 20)
#    0.857    1.429    2.857    1.286    0.000    1.714 
#    0.000    5.714    9.429    0.000    0.000    0.000 
#    0.000    0.000    0.000    0.000    0.000    0.000 
#
# Total GULP energy -77967.479976 kJ/mol
# GULP energy per Si atom -5569.105713 kJ/mol
# Density = 2.509505 g / cm^3
# Si number density = 25.152299 Si / 1000 Ang^3
#
#
#
# Elastic Constant Matrix: (Units=GPa)
#
#
# Indices 1 2 3 4 5 6 
#
# 1 65.2107 -6.8557 47.5413 4.4384 -19.1003 -10.3391
# 2 -6.8557 105.8456 29.5866 14.2181 -19.5704 -45.5761
# 3 47.5413 29.5866 63.3026 20.8610 8.9336 -24.9797
# 4 4.4384 14.2181 20.8610 24.2792 -17.1182 -8.0559
# 5 -19.1003 -19.5704 8.9336 -17.1182 35.2059 0.2627
# 6 -10.3391 -45.5761 -24.9797 -8.0559 0.2627 57.3490
#
#
#
# Elastic Compliance Matrix: (Units=1/GPa)
#
#
# Indices 1 2 3 4 5 6 
#
# 1 -0.003644 -0.006730 0.017642 -0.028062 -0.023823 -0.002154
# 2 -0.006730 0.010844 0.010920 -0.017661 -0.009054 0.009721
# 3 0.017642 0.010920 -0.010559 0.024040 0.029932 0.010499
# 4 -0.028062 -0.017661 0.024040 0.018427 -0.022138 -0.005933
# 5 -0.023823 -0.009054 0.029932 -0.022138 -0.007902 -0.001527
# 6 -0.002154 0.009721 0.010499 -0.005933 -0.001527 0.028521
#
#
# Mechanical properties :
#
#
# Convention : Reuss Voigt Hill
#
# Bulk Modulus (GPa) = 24.81102 41.65592 33.23347
# Shear Modulus (GPa) = 916.27568 34.30592 475.29080
#
# Velocity S-wave (km/s) = 19.10712 3.69715 13.76137
# Velocity P-wave (km/s) = 22.28591 5.90107 16.30160
#
# Compressibility (1/GPa) = 0.04030466
#
# Stress axis : x y z
#
# Youngs Moduli (GPa) = -274.44574 92.22104 -94.70165
#
# Poissons Ratio (x) = 0.62065 1.67072
# Poissons Ratio (y) = -1.84703 1.03417
# Poissons Ratio (z) = 4.84175 -1.00708
#
# Static dielectric constant tensor:
#      x y z
#    x 2.003120 -0.058480 0.051330 
#    y -0.058480 2.160680 0.048910 
#    z 0.051330 0.048910 2.004500 
# 
# From -- ./inp_files/503060.got.cif
#   From: 2010.05.17/outbox.cif.g08.bks.cpg/sg2_252_cif.got.tgz:503060.got - 2010.06.03 11:33:40.
