data_PCOD9059233
_publ_section_title
;
Structure prediction by ZEFSAII (Michael W. Deem and Ramdas Pophale) SiO2 
 PCOD9059233
Probable space group: P -1
;
_chemical_formula_sum "Si O2"
_cell_formula_units_Z 12
_cell_length_a 4.991804
_cell_length_b 9.855832
_cell_length_c 11.276811
_cell_angle_alpha 108.880042
_cell_angle_beta 103.293815
_cell_angle_gamma 78.214904
_cell_volume 505.781206
_symmetry_space_group_name_H-M "P -1"
_symmetry_group_IT_number 2
_symmetry_cell_setting 'triclinic'
loop_
_space_group_symop_operation_xyz
x,y,z
-x,-y,-z
loop_
_atom_site_type_symbol
_atom_site_label
_atom_site_fract_x
_atom_site_fract_y
_atom_site_fract_z
Si Si1 0.705155 0.093448 0.921486
Si Si2 0.471009 0.214624 0.152442
Si Si3 0.170146 0.371468 0.645769
Si Si4 0.313085 0.381853 0.405964
Si Si5 0.086413 0.219844 0.817003
Si Si6 0.349984 0.514598 0.115308
O O1 0.440811 0.417717 0.752794
O O2 0.406995 0.169461 0.864244
O O3 0.921209 0.113948 0.846239
O O4 0.677378 0.927647 0.898378
O O5 0.488070 0.268175 0.303920
O O6 0.312625 0.358465 0.117026
O O7 0.725958 0.170938 0.074027
O O8 0.224134 0.316686 0.501917
O O9 0.065833 0.247806 0.681656
O O10 0.952538 0.520043 0.653687
O O11 0.500000 0.500000 0.500000
O O12 0.933238 0.376339 0.887389
O O13 0.500000 0.500000 0.000000
#
# Coordination Sequence:
#
# PCOD9059233 Si02
#       6
#     2   2   2   2   2   2
#     4  11  28  44  70 104 150 184 225 294 368 424
#     4  11  24  46  68 105 143 187 234 289 358 422
#     4  11  23  40  73 105 141 178 242 298 343 412
#     4  11  23  42  69 106 141 185 240 294 345 411
#     4  12  23  47  69 104 143 180 236 293 351 419
#     4  12  23  42  75 108 135 181 241 299 347 406
#
# _framework density 23.725671999999999
#
# number of rings (size 3 to 8) (size 9 to 14) (size 15 to 20)
#    0.000    0.667    6.667    0.000    2.333    5.333 
#    0.000    1.667    0.000    0.000    0.000    0.000 
#    0.000    0.000    0.000    0.000    0.000    0.000 
#
# Total GULP energy -67088.094693 kJ/mol
# GULP energy per Si atom -5590.674558 kJ/mol
# Density = 2.367167 g / cm^3
# Si number density = 23.725672 Si / 1000 Ang^3
#
#
#
# Elastic Constant Matrix: (Units=GPa)
#
#
# Indices 1 2 3 4 5 6 
#
# 1 118.7260 14.2448 44.8458 -15.2404 2.7604 -14.9785
# 2 14.2448 120.3573 45.0266 -26.6542 -1.3852 2.3729
# 3 44.8458 45.0266 205.1041 -19.8793 -36.6898 10.0534
# 4 -15.2404 -26.6542 -19.8793 52.6018 6.7155 -2.4525
# 5 2.7604 -1.3852 -36.6898 6.7155 36.0789 -14.7196
# 6 -14.9785 2.3729 10.0534 -2.4525 -14.7196 22.5616
#
#
#
# Elastic Compliance Matrix: (Units=1/GPa)
#
#
# Indices 1 2 3 4 5 6 
#
# 1 0.010800 0.000136 -0.002656 0.002662 -0.000677 0.008187
# 2 0.000136 0.010217 -0.002382 0.004698 -0.003645 -0.001791
# 3 -0.002656 -0.002382 0.007325 -0.000178 0.007683 0.000216
# 4 0.002662 0.004698 -0.000178 0.022653 -0.003904 0.001268
# 5 -0.000677 -0.003645 0.007683 -0.003904 0.047111 0.026822
# 6 0.008187 -0.001791 0.000216 0.001268 0.026822 0.067487
#
#
# Mechanical properties :
#
#
# Convention : Reuss Voigt Hill
#
# Bulk Modulus (GPa) = 53.93811 72.49132 63.21471
# Shear Modulus (GPa) = 27.53652 44.91983 36.22817
#
# Velocity S-wave (km/s) = 3.41048 4.35593 3.91187
# Velocity P-wave (km/s) = 6.18805 7.47791 6.86335
#
# Compressibility (1/GPa) = 0.01853977
#
# Stress axis : x y z
#
# Youngs Moduli (GPa) = 92.59387 97.87266 136.51082
#
# Poissons Ratio (x) = -0.01328 0.36251
# Poissons Ratio (y) = -0.01256 0.32511
# Poissons Ratio (z) = 0.24588 0.23309
#
# Static dielectric constant tensor:
#      x y z
#    x 2.004600 0.045470 -0.001350 
#    y 0.045470 1.889850 -0.003380 
#    z -0.001350 -0.003380 1.996830 
# 
# From -- ./inp_files/138407.got.cif
#   From: 2010.05.17/outbox.cif.g08.bks.cpg/sg2_70_cif.got.tgz:138407.got - 2010.06.03 11:33:40.
