data_PCOD9059363
_publ_section_title
;
Structure prediction by ZEFSAII (Michael W. Deem and Ramdas Pophale) SiO2 
 PCOD9059363
Probable space group: P -1
;
_chemical_formula_sum "Si O2"
_cell_formula_units_Z 12
_cell_length_a 4.885962
_cell_length_b 11.697443
_cell_length_c 12.833496
_cell_angle_alpha 60.162097
_cell_angle_beta 85.000911
_cell_angle_gamma 124.673792
_cell_volume 447.282500
_symmetry_space_group_name_H-M "P -1"
_symmetry_group_IT_number 2
_symmetry_cell_setting 'triclinic'
loop_
_space_group_symop_operation_xyz
x,y,z
-x,-y,-z
loop_
_atom_site_type_symbol
_atom_site_label
_atom_site_fract_x
_atom_site_fract_y
_atom_site_fract_z
Si Si1 0.792663 0.173552 0.558368
Si Si2 0.877490 0.330890 0.693022
Si Si3 0.111688 0.182691 0.875892
Si Si4 0.734654 0.361781 0.302552
Si Si5 0.493855 0.621489 0.022556
Si Si6 0.088877 0.081787 0.292000
O O1 0.943552 0.324489 0.573548
O O2 0.809588 0.250899 0.411890
O O3 0.979283 0.095198 0.604507
O O4 0.329817 0.995341 0.674345
O O5 0.498923 0.290272 0.745272
O O6 0.817659 0.167635 0.823858
O O7 0.221679 0.513397 0.665920
O O8 0.224855 0.299697 0.923542
O O9 0.000000 0.000000 0.000000
O O10 0.333956 0.218764 0.319003
O O11 0.072262 0.496113 0.144781
O O12 0.500000 0.500000 0.000000
O O13 0.650037 0.798689 0.871656
#
# Coordination Sequence:
#
# PCOD9059363 Si02
#       6
#     2   2   2   2   2   2
#     4  12  26  47  72 103 140 183 230 284 344 410
#     4  11  24  43  68 100 136 180 228 281 340 407
#     4  11  23  41  67 100 137 178 226 281 341 405
#     4  11  26  46  71 104 140 183 231 285 344 410
#     4  11  24  45  71 103 139 182 230 285 343 408
#     4  12  26  46  71 102 140 184 230 284 343 408
#
# _framework density 26.828679999999999
#
# number of rings (size 3 to 8) (size 9 to 14) (size 15 to 20)
#    0.000    0.667    0.000    7.500    0.000   10.667 
#    0.000    5.833    0.000    0.000    0.000    0.000 
#    0.000    0.000    0.000    0.000    0.000    0.000 
#
# Total GULP energy -67413.978034 kJ/mol
# GULP energy per Si atom -5617.831503 kJ/mol
# Density = 2.676762 g / cm^3
# Si number density = 26.828680 Si / 1000 Ang^3
#
#
#
# Elastic Constant Matrix: (Units=GPa)
#
#
# Indices 1 2 3 4 5 6 
#
# 1 88.1086 25.3978 31.2626 16.9809 7.5874 -8.2495
# 2 25.3978 141.1532 17.5637 21.4047 -19.5102 -3.4328
# 3 31.2626 17.5637 162.6634 2.7020 0.2328 -4.2761
# 4 16.9809 21.4047 2.7020 44.2169 3.2386 3.4372
# 5 7.5874 -19.5102 0.2328 3.2386 38.1199 5.0141
# 6 -8.2495 -3.4328 -4.2761 3.4372 5.0141 24.5780
#
#
#
# Elastic Compliance Matrix: (Units=1/GPa)
#
#
# Indices 1 2 3 4 5 6 
#
# 1 0.014572 -0.002097 -0.002342 -0.004565 -0.004323 0.005711
# 2 -0.002097 0.008829 -0.000497 -0.003817 0.005277 -0.000100
# 3 -0.002342 -0.000497 0.006644 0.000714 0.000086 0.000183
# 4 -0.004565 -0.003817 0.000714 0.026767 -0.002647 -0.005145
# 5 -0.004323 0.005277 0.000086 -0.002647 0.030891 -0.006631
# 6 0.005711 -0.000100 0.000183 -0.005145 -0.006631 0.044694
#
#
# Mechanical properties :
#
#
# Convention : Reuss Voigt Hill
#
# Bulk Modulus (GPa) = 49.56963 60.04149 54.80556
# Shear Modulus (GPa) = 33.55852 42.56304 38.06078
#
# Velocity S-wave (km/s) = 3.54057 3.98738 3.77060
# Velocity P-wave (km/s) = 5.93554 6.60508 6.27924
#
# Compressibility (1/GPa) = 0.02017364
#
# Stress axis : x y z
#
# Youngs Moduli (GPa) = 68.62549 113.25755 150.50497
#
# Poissons Ratio (x) = 0.23748 0.35249
# Poissons Ratio (y) = 0.14389 0.07482
# Poissons Ratio (z) = 0.16072 0.05631
#
# Static dielectric constant tensor:
#      x y z
#    x 2.014760 -0.030090 0.003290 
#    y -0.030090 2.086880 -0.053180 
#    z 0.003290 -0.053180 2.117130 
# 
# From -- ./inp_files/68063.got.cif
#   From: 2010.05.17/outbox.cif.g08.bks.cpg/sg2_35_cif.got.tgz:68063.got - 2010.06.03 11:33:40.
