data_PCOD9059853
_publ_section_title
;
Structure prediction by ZEFSAII (Michael W. Deem and Ramdas Pophale) SiO2 
 PCOD9059853
Probable space group: P -1
;
_chemical_formula_sum "Si O2"
_cell_formula_units_Z 16
_cell_length_a 9.310469
_cell_length_b 13.226452
_cell_length_c 11.444450
_cell_angle_alpha 89.070286
_cell_angle_beta 124.375038
_cell_angle_gamma 130.982463
_cell_volume 722.558562
_symmetry_space_group_name_H-M "P -1"
_symmetry_group_IT_number 2
_symmetry_cell_setting 'triclinic'
loop_
_space_group_symop_operation_xyz
x,y,z
-x,-y,-z
loop_
_atom_site_type_symbol
_atom_site_label
_atom_site_fract_x
_atom_site_fract_y
_atom_site_fract_z
Si Si1 0.661190 0.114857 0.853232
Si Si2 0.921930 0.632397 0.751314
Si Si3 0.802118 0.959171 0.251456
Si Si4 0.315910 0.304751 0.523055
Si Si5 0.649659 0.662204 0.209395
Si Si6 0.060528 0.344569 0.828563
Si Si7 0.272481 0.083768 0.058603
Si Si8 0.848723 0.430709 0.308063
O O1 0.372015 0.034163 0.761232
O O2 0.792024 0.211713 0.789568
O O3 0.640400 0.984286 0.845909
O O4 0.883573 0.249903 0.053232
O O5 0.648022 0.442514 0.663157
O O6 0.798702 0.676390 0.633121
O O7 0.091031 0.644057 0.735138
O O8 0.666958 0.790428 0.221451
O O9 0.778465 0.959005 0.101097
O O10 0.125421 0.118690 0.432639
O O11 0.275352 0.342371 0.627422
O O12 0.867684 0.721857 0.212802
O O13 0.338279 0.488136 0.032680
O O14 0.055752 0.433976 0.732730
O O15 0.515687 0.278029 0.177179
O O16 0.000000 0.000000 0.000000
O O17 0.000000 0.500000 0.500000
#
# Coordination Sequence:
#
# PCOD9059853 Si02
#       8
#     2   2   2   2   2   2   2   2
#     4  12  24  45  74 103 136 184 233 284 341 410
#     4  11  23  42  70 100 135 179 235 279 341 405
#     4  12  24  44  70 100 141 178 233 286 343 403
#     4  11  24  40  68 101 136 176 225 291 334 404
#     4  11  23  43  67  97 137 180 229 276 345 404
#     4  11  25  44  71  98 140 183 228 282 346 412
#     4  12  26  44  71 104 141 183 227 281 350 414
#     4  12  27  47  71 101 141 182 231 286 345 412
#
# _framework density 22.143535
#
# number of rings (size 3 to 8) (size 9 to 14) (size 15 to 20)
#    0.000    0.500    5.000    3.000    5.250    1.000 
#    0.000    1.250    0.000    0.000    0.000    0.000 
#    0.000    0.000    0.000    0.000    0.000    0.000 
#
# Total GULP energy -89573.789677 kJ/mol
# GULP energy per Si atom -5598.361855 kJ/mol
# Density = 2.209314 g / cm^3
# Si number density = 22.143535 Si / 1000 Ang^3
#
#
#
# Elastic Constant Matrix: (Units=GPa)
#
#
# Indices 1 2 3 4 5 6 
#
# 1 93.9034 28.1285 -5.3961 -2.1613 -0.6235 17.0767
# 2 28.1285 89.1253 15.8245 -9.6920 -4.2486 17.6069
# 3 -5.3961 15.8245 76.5990 -4.9498 -16.2315 20.4789
# 4 -2.1613 -9.6920 -4.9498 21.6108 6.2417 0.7187
# 5 -0.6235 -4.2486 -16.2315 6.2417 24.9452 -3.1993
# 6 17.0767 17.6069 20.4789 0.7187 -3.1993 44.2096
#
#
#
# Elastic Compliance Matrix: (Units=1/GPa)
#
#
# Indices 1 2 3 4 5 6 
#
# 1 0.012811 -0.003555 0.003209 0.000268 0.001102 -0.004944
# 2 -0.003555 0.013967 -0.002048 0.005823 -0.000936 -0.003403
# 3 0.003209 -0.002048 0.018091 0.000853 0.010254 -0.008076
# 4 0.000268 0.005823 0.000853 0.052794 -0.012242 -0.004562
# 5 0.001102 -0.000936 0.010254 -0.012242 0.049561 -0.001017
# 6 -0.004944 -0.003403 -0.008076 -0.004562 -0.001017 0.029626
#
#
# Mechanical properties :
#
#
# Convention : Reuss Voigt Hill
#
# Bulk Modulus (GPa) = 24.94858 37.41571 31.18214
# Shear Modulus (GPa) = 25.64142 32.89118 29.26630
#
# Velocity S-wave (km/s) = 3.40658 3.85822 3.63941
# Velocity P-wave (km/s) = 5.17342 6.06477 5.63674
#
# Compressibility (1/GPa) = 0.04008245
#
# Stress axis : x y z
#
# Youngs Moduli (GPa) = 78.05750 71.59989 55.27508
#
# Poissons Ratio (x) = 0.25451 -0.17741
# Poissons Ratio (y) = 0.27747 0.11321
# Poissons Ratio (z) = -0.25053 0.14664
#
# Static dielectric constant tensor:
#      x y z
#    x 1.789500 0.012860 0.004850 
#    y 0.012860 1.860400 -0.018410 
#    z 0.004850 -0.018410 1.791500 
# 
# From -- ./inp_files/263383.got.cif
#   From: 2010.05.17/outbox.cif.g08.bks.cpg/sg2_132_cif.got.tgz:263383.got - 2010.06.03 11:33:40.
