data_PCOD9059839
_publ_section_title
;
Structure prediction by ZEFSAII (Michael W. Deem and Ramdas Pophale) SiO2 
 PCOD9059839
Probable space group: P -1
;
_chemical_formula_sum "Si O2"
_cell_formula_units_Z 14
_cell_length_a 9.863989
_cell_length_b 9.830226
_cell_length_c 8.775249
_cell_angle_alpha 118.468361
_cell_angle_beta 108.072422
_cell_angle_gamma 69.002332
_cell_volume 688.184047
_symmetry_space_group_name_H-M "P -1"
_symmetry_group_IT_number 2
_symmetry_cell_setting 'triclinic'
loop_
_space_group_symop_operation_xyz
x,y,z
-x,-y,-z
loop_
_atom_site_type_symbol
_atom_site_label
_atom_site_fract_x
_atom_site_fract_y
_atom_site_fract_z
Si Si1 0.814510 0.254314 0.247109
Si Si2 0.373838 0.904653 0.406772
Si Si3 0.533152 0.315174 0.969015
Si Si4 0.045328 0.973742 0.324876
Si Si5 0.032826 0.673339 0.959965
Si Si6 0.238979 0.395917 0.055972
Si Si7 0.349365 0.616118 0.449971
O O1 0.770840 0.352423 0.440175
O O2 0.658160 0.272149 0.118525
O O3 0.914103 0.304293 0.178572
O O4 0.911851 0.082980 0.241592
O O5 0.408333 0.791617 0.211857
O O6 0.205795 0.010773 0.389407
O O7 0.373463 0.784343 0.485371
O O8 0.500000 0.000000 0.500000
O O9 0.500000 0.500000 0.000000
O O10 0.380858 0.288446 0.965601
O O11 0.067159 0.798918 0.162561
O O12 0.000000 0.000000 0.500000
O O13 0.126585 0.497737 0.948206
O O14 0.859555 0.688973 0.921550
O O15 0.296323 0.521655 0.244825
O O16 0.500000 0.500000 0.500000
#
# Coordination Sequence:
#
# PCOD9059839 Si02
#       7
#     2   2   2   2   2   2   2
#     4  12  23  41  74  94 134 183 223 276 349 404
#     4  12  27  46  69 102 140 183 227 284 350 409
#     4  12  21  45  72  96 133 184 226 281 341 409
#     4  12  24  46  65  92 140 179 220 282 346 402
#     4  11  24  42  67 100 128 177 226 278 335 408
#     4  11  23  42  69  97 133 172 228 279 335 405
#     4  12  23  44  68 100 137 174 228 288 336 402
#
# _framework density 20.343394
#
# number of rings (size 3 to 8) (size 9 to 14) (size 15 to 20)
#    0.000    0.286    8.571    0.429    2.000    1.714 
#    0.000    1.429    0.000    0.000    0.000    0.000 
#    0.000    0.000    0.000    0.000    0.000    0.000 
#
# Total GULP energy -78168.559496 kJ/mol
# GULP energy per Si atom -5583.468535 kJ/mol
# Density = 2.029709 g / cm^3
# Si number density = 20.343394 Si / 1000 Ang^3
#
#
#
# Elastic Constant Matrix: (Units=GPa)
#
#
# Indices 1 2 3 4 5 6 
#
# 1 170.1727 24.9723 25.3490 -6.8443 -22.1781 -6.4564
# 2 24.9723 57.1456 12.0394 -20.3855 0.2686 -21.0613
# 3 25.3490 12.0394 65.6887 -5.3554 -28.2985 6.4060
# 4 -6.8443 -20.3855 -5.3554 27.9995 -1.3091 0.5153
# 5 -22.1781 0.2686 -28.2985 -1.3091 51.5284 -2.7618
# 6 -6.4564 -21.0613 6.4060 0.5153 -2.7618 40.2426
#
#
#
# Elastic Compliance Matrix: (Units=1/GPa)
#
#
# Indices 1 2 3 4 5 6 
#
# 1 0.006750 -0.003016 -0.001103 -0.000647 0.002290 -0.000154
# 2 -0.003016 0.035401 -0.006810 0.023223 -0.003636 0.018581
# 3 -0.001103 -0.006810 0.022490 -0.000266 0.011555 -0.006525
# 4 -0.000647 0.023223 -0.000266 0.052267 0.001400 0.011519
# 5 0.002290 -0.003636 0.011555 0.001400 0.026709 -0.001560
# 6 -0.000154 0.018581 -0.006525 0.011519 -0.001560 0.035333
#
#
# Mechanical properties :
#
#
# Convention : Reuss Voigt Hill
#
# Bulk Modulus (GPa) = 23.37342 46.41426 34.89384
# Shear Modulus (GPa) = 23.24842 39.33052 31.28947
#
# Velocity S-wave (km/s) = 3.38420 4.40174 3.92607
# Velocity P-wave (km/s) = 5.17540 6.97844 6.14343
#
# Compressibility (1/GPa) = 0.04278363
#
# Stress axis : x y z
#
# Youngs Moduli (GPa) = 148.15129 28.24779 44.46482
#
# Poissons Ratio (x) = 0.08518 0.04905
# Poissons Ratio (y) = 0.44675 0.30280
# Poissons Ratio (z) = 0.16341 0.19237
#
# Static dielectric constant tensor:
#      x y z
#    x 1.766390 0.011490 -0.009130 
#    y 0.011490 1.753140 -0.012690 
#    z -0.009130 -0.012690 1.712740 
# 
# From -- ./inp_files/159739.got.cif
#   From: 2010.05.17/outbox.cif.g08.bks.cpg/sg2_80_cif.got.tgz:159739.got - 2010.06.03 11:33:40.
