data_PCOD9059237
_publ_section_title
;
Structure prediction by ZEFSAII (Michael W. Deem and Ramdas Pophale) SiO2 
 PCOD9059237
Probable space group: P -1
;
_chemical_formula_sum "Si O2"
_cell_formula_units_Z 13
_cell_length_a 9.390106
_cell_length_b 13.210757
_cell_length_c 8.089929
_cell_angle_alpha 41.636693
_cell_angle_beta 134.001693
_cell_angle_gamma 130.354627
_cell_volume 462.005427
_symmetry_space_group_name_H-M "P -1"
_symmetry_group_IT_number 2
_symmetry_cell_setting 'triclinic'
loop_
_space_group_symop_operation_xyz
x,y,z
-x,-y,-z
loop_
_atom_site_type_symbol
_atom_site_label
_atom_site_fract_x
_atom_site_fract_y
_atom_site_fract_z
Si Si1 0.333536 0.332288 0.695447
Si Si2 0.500000 0.000000 0.500000
Si Si3 0.124518 0.182712 0.395148
Si Si4 0.703328 0.145061 0.721576
Si Si5 0.842030 0.855436 0.891711
Si Si6 0.893066 0.405335 0.808496
Si Si7 0.644311 0.411903 0.119004
O O1 0.279998 0.223694 0.622722
O O2 0.232470 0.472558 0.398022
O O3 0.213726 0.255657 0.858583
O O4 0.557514 0.395949 0.882180
O O5 0.528622 0.986260 0.749495
O O6 0.258985 0.005538 0.324190
O O7 0.231658 0.217107 0.259321
O O8 0.000000 0.000000 0.500000
O O9 0.967190 0.293939 0.135431
O O10 0.739066 0.287326 0.703512
O O11 0.621391 0.227585 0.388438
O O12 0.915998 0.103943 0.970507
O O13 0.111990 0.502748 0.781929
O O14 0.500000 0.500000 0.000000
#
# Coordination Sequence:
#
# PCOD9059237 Si02
#       7
#     2   1   2   2   2   2   2
#     4  12  25  49  80 111 152 199 249 318 382 444
#     4  12  26  42  76 116 144 204 250 304 390 458
#     4  11  29  48  75 115 152 202 258 307 382 461
#     4  11  23  40  73 112 148 193 253 305 372 457
#     4  11  26  49  79 107 152 200 251 309 382 449
#     4  11  25  45  76 108 154 196 251 320 373 449
#     4  12  22  40  75 118 142 193 257 308 375 453
#
# _framework density 28.138199
#
# number of rings (size 3 to 8) (size 9 to 14) (size 15 to 20)
#    0.000    0.615    4.615    3.231    6.462    0.615 
#    0.000    3.846    0.000    0.000    0.000    0.000 
#    0.000    0.000    0.000    0.000    0.000    0.000 
#
# Total GULP energy -72509.915011 kJ/mol
# GULP energy per Si atom -5577.685770 kJ/mol
# Density = 2.807416 g / cm^3
# Si number density = 28.138199 Si / 1000 Ang^3
#
#
#
# Elastic Constant Matrix: (Units=GPa)
#
#
# Indices 1 2 3 4 5 6 
#
# 1 71.6220 40.2767 66.1211 2.2559 -11.0395 -14.7213
# 2 40.2767 178.4442 69.9858 62.1158 -22.0509 -34.4897
# 3 66.1211 69.9858 211.5066 10.7035 -1.1141 -30.8876
# 4 2.2559 62.1158 10.7035 75.9838 -20.2239 -15.1051
# 5 -11.0395 -22.0509 -1.1141 -20.2239 48.0053 -7.9805
# 6 -14.7213 -34.4897 -30.8876 -15.1051 -7.9805 39.7100
#
#
#
# Elastic Compliance Matrix: (Units=1/GPa)
#
#
# Indices 1 2 3 4 5 6 
#
# 1 0.022724 -0.003009 -0.005640 0.005336 0.006761 0.004812
# 2 -0.003009 0.010309 -0.001458 -0.006715 0.001935 0.004539
# 3 -0.005640 -0.001458 0.007268 0.000445 -0.001242 0.002216
# 4 0.005336 -0.006715 0.000445 0.022002 0.008514 0.006572
# 5 0.006761 0.001935 -0.001242 0.008514 0.028871 0.012262
# 6 0.004812 0.004539 0.002216 0.006572 0.012262 0.037597
#
#
# Mechanical properties :
#
#
# Convention : Reuss Voigt Hill
#
# Bulk Modulus (GPa) = 49.78082 90.48221 70.13151
# Shear Modulus (GPa) = 32.11723 51.75244 41.93483
#
# Velocity S-wave (km/s) = 3.38214 4.29327 3.86465
# Velocity P-wave (km/s) = 5.74298 7.53674 6.70016
#
# Compressibility (1/GPa) = 0.02008806
#
# Stress axis : x y z
#
# Youngs Moduli (GPa) = 44.00594 97.00520 137.58822
#
# Poissons Ratio (x) = 0.29187 0.77601
# Poissons Ratio (y) = 0.13240 0.20055
# Poissons Ratio (z) = 0.24820 0.14140
#
# Static dielectric constant tensor:
#      x y z
#    x 2.810130 -2.471870 0.437960 
#    y -2.471870 15.067130 -2.744640 
#    z 0.437960 -2.744640 2.761630 
# 
# From -- ./inp_files/266582.got.cif
#   From: 2010.05.17/outbox.cif.g08.bks.cpg/sg2_134_cif.got.tgz:266582.got - 2010.06.03 11:33:40.
