data_PCOD9059857
_publ_section_title
;
Structure prediction by ZEFSAII (Michael W. Deem and Ramdas Pophale) SiO2 
 PCOD9059857
Probable space group: P -1
;
_chemical_formula_sum "Si O2"
_cell_formula_units_Z 14
_cell_length_a 5.296669
_cell_length_b 25.540476
_cell_length_c 15.544490
_cell_angle_alpha 18.451416
_cell_angle_beta 94.200561
_cell_angle_gamma 85.524046
_cell_volume 586.811877
_symmetry_space_group_name_H-M "P -1"
_symmetry_group_IT_number 2
_symmetry_cell_setting 'triclinic'
loop_
_space_group_symop_operation_xyz
x,y,z
-x,-y,-z
loop_
_atom_site_type_symbol
_atom_site_label
_atom_site_fract_x
_atom_site_fract_y
_atom_site_fract_z
Si Si1 0.466466 0.455449 0.418919
Si Si2 0.660662 0.126987 0.799933
Si Si3 0.947180 0.897909 0.854155
Si Si4 0.370882 0.335554 0.779232
Si Si5 0.870390 0.184362 0.272209
Si Si6 0.018110 0.318881 0.233657
Si Si7 0.624284 0.176545 0.531816
O O1 0.579997 0.278354 0.636339
O O2 0.306011 0.411636 0.561779
O O3 0.682672 0.498131 0.415607
O O4 0.311510 0.641600 0.066027
O O5 0.571570 0.231432 0.543716
O O6 0.500000 0.000000 0.000000
O O7 0.000000 0.000000 0.000000
O O8 0.776684 0.084068 0.501141
O O9 0.878023 0.969815 0.838390
O O10 0.803970 0.768411 0.034536
O O11 0.285189 0.804976 0.990006
O O12 0.013563 0.279437 0.192465
O O13 0.000000 0.000000 0.500000
O O14 0.754684 0.299432 0.299299
O O15 0.660453 0.827471 0.502403
O O16 0.000000 0.500000 0.000000
#
# Coordination Sequence:
#
# PCOD9059857 Si02
#       7
#     2   2   2   2   2   2   2
#     4  11  26  46  75 111 147 192 252 311 370 446
#     4  12  26  47  73 108 146 194 254 311 370 440
#     4  11  23  47  73 103 148 197 236 298 378 448
#     4  11  25  47  71 105 148 194 245 298 378 445
#     4  11  24  48  74 116 152 196 252 316 374 446
#     4  11  24  45  69 100 146 195 243 300 374 442
#     4  11  23  42  70 101 139 193 242 294 371 442
#
# _framework density 23.857728999999999
#
# number of rings (size 3 to 8) (size 9 to 14) (size 15 to 20)
#    0.000    0.857    1.429    5.571    0.000    5.143 
#    5.143    0.000    0.000    0.000    0.000    0.000 
#    0.000    0.000    0.000    0.000    0.000    0.000 
#
# Total GULP energy -78016.430507 kJ/mol
# GULP energy per Si atom -5572.602179 kJ/mol
# Density = 2.380343 g / cm^3
# Si number density = 23.857729 Si / 1000 Ang^3
#
#
#
# Elastic Constant Matrix: (Units=GPa)
#
#
# Indices 1 2 3 4 5 6 
#
# 1 133.0625 46.1244 58.0981 -7.0524 -1.3802 0.5736
# 2 46.1244 235.6351 70.9260 -29.0784 -2.1631 12.1841
# 3 58.0981 70.9260 135.1855 -13.3183 -11.9271 -0.4787
# 4 -7.0524 -29.0784 -13.3183 70.4490 7.3670 -8.9971
# 5 -1.3802 -2.1631 -11.9271 7.3670 40.2337 -0.3933
# 6 0.5736 12.1841 -0.4787 -8.9971 -0.3933 12.1720
#
#
#
# Elastic Compliance Matrix: (Units=1/GPa)
#
#
# Indices 1 2 3 4 5 6 
#
# 1 0.009385 -0.000727 -0.003720 0.000041 -0.000826 0.000143
# 2 -0.000727 0.005544 -0.002561 0.001203 -0.000753 -0.004751
# 3 -0.003720 -0.002561 0.010677 0.000786 0.002793 0.003830
# 4 0.000041 0.001203 0.000786 0.016516 -0.002618 0.010948
# 5 -0.000826 -0.000753 0.002793 -0.002618 0.026092 -0.000190
# 6 0.000143 -0.004751 0.003830 0.010948 -0.000190 0.095142
#
#
# Mechanical properties :
#
#
# Convention : Reuss Voigt Hill
#
# Bulk Modulus (GPa) = 86.28490 94.90890 90.59690
# Shear Modulus (GPa) = 27.58853 46.48658 37.03755
#
# Velocity S-wave (km/s) = 3.40424 4.41896 3.94437
# Velocity P-wave (km/s) = 7.19005 8.11812 7.66814
#
# Compressibility (1/GPa) = 0.01158951
#
# Stress axis : x y z
#
# Youngs Moduli (GPa) = 106.55825 180.36439 93.65864
#
# Poissons Ratio (x) = 0.13116 0.34841
# Poissons Ratio (y) = 0.07749 0.23986
# Poissons Ratio (z) = 0.39639 0.46192
#
# Static dielectric constant tensor:
#      x y z
#    x 1.927680 -0.004320 0.029760 
#    y -0.004320 2.009570 -0.031820 
#    z 0.029760 -0.031820 2.096460 
# 
# From -- ./inp_files/485935.got.cif
#   From: 2010.05.17/outbox.cif.g08.bks.cpg/sg2_243_cif.got.tgz:485935.got - 2010.06.03 11:33:40.
