data_PCOD9059640
_publ_section_title
;
Structure prediction by ZEFSAII (Michael W. Deem and Ramdas Pophale) SiO2 
 PCOD9059640
Probable space group: P -1
;
_chemical_formula_sum "Si O2"
_cell_formula_units_Z 14
_cell_length_a 8.524822
_cell_length_b 12.273519
_cell_length_c 20.670996
_cell_angle_alpha 45.369962
_cell_angle_beta 148.988301
_cell_angle_gamma 113.503586
_cell_volume 659.934756
_symmetry_space_group_name_H-M "P -1"
_symmetry_group_IT_number 2
_symmetry_cell_setting 'triclinic'
loop_
_space_group_symop_operation_xyz
x,y,z
-x,-y,-z
loop_
_atom_site_type_symbol
_atom_site_label
_atom_site_fract_x
_atom_site_fract_y
_atom_site_fract_z
Si Si1 0.069970 0.159585 0.790968
Si Si2 0.705629 0.965802 0.797885
Si Si3 0.905234 0.773663 0.623268
Si Si4 0.758819 0.594685 0.178640
Si Si5 0.229932 0.556533 0.100033
Si Si6 0.634317 0.225943 0.477113
Si Si7 0.317165 0.893774 0.790832
O O1 0.027707 0.337813 0.733201
O O2 0.865170 0.210205 0.628584
O O3 0.894227 0.077581 0.808360
O O4 0.500000 0.000000 0.000000
O O5 0.586898 0.945293 0.835445
O O6 0.337671 0.075337 0.579265
O O7 0.972324 0.764899 0.946099
O O8 0.657959 0.814452 0.582218
O O9 0.008620 0.578788 0.713467
O O10 0.252020 0.778137 0.763435
O O11 0.540875 0.544226 0.170422
O O12 0.477518 0.769652 0.962598
O O13 0.413667 0.420433 0.282324
O O14 0.000000 0.500000 0.000000
O O15 0.926333 0.075818 0.593023
#
# Coordination Sequence:
#
# PCOD9059640 Si02
#       7
#     2   2   2   2   2   2   2
#     4  11  23  49  64  92 131 176 222 262 318 384
#     4  11  24  41  66  93 133 168 216 270 320 386
#     4  11  23  42  65 100 130 168 216 270 331 384
#     4  12  24  42  68  91 136 170 215 272 316 386
#     4  12  23  41  66 100 130 169 216 270 328 385
#     4  11  24  41  68  95 133 176 213 264 325 384
#     4  12  22  41  67  99 130 169 214 271 332 383
#
# _framework density 21.214217999999999
#
# number of rings (size 3 to 8) (size 9 to 14) (size 15 to 20)
#    0.000    0.571    2.857    6.429    0.000    3.429 
#    0.000    0.000    0.000    0.000    0.000    0.000 
#    0.000    0.000    0.000    0.000    0.000    0.000 
#
# Total GULP energy -78370.993301 kJ/mol
# GULP energy per Si atom -5597.928093 kJ/mol
# Density = 2.116593 g / cm^3
# Si number density = 21.214218 Si / 1000 Ang^3
#
#
#
# Elastic Constant Matrix: (Units=GPa)
#
#
# Indices 1 2 3 4 5 6 
#
# 1 59.3410 37.9981 -1.3529 2.6330 5.4618 13.8111
# 2 37.9981 143.2875 21.0568 0.6329 1.2472 7.6206
# 3 -1.3529 21.0568 78.9457 -0.6755 -18.6947 7.7118
# 4 2.6330 0.6329 -0.6755 30.2669 -4.2465 13.0036
# 5 5.4618 1.2472 -18.6947 -4.2465 37.4492 -12.6151
# 6 13.8111 7.6206 7.7118 13.0036 -12.6151 27.1058
#
#
#
# Elastic Compliance Matrix: (Units=1/GPa)
#
#
# Indices 1 2 3 4 5 6 
#
# 1 0.025396 -0.006028 0.001911 0.004409 -0.007984 -0.017620
# 2 -0.006028 0.008907 -0.002696 -0.000346 -0.000352 0.001336
# 3 0.001911 -0.002696 0.015307 0.002248 0.006883 -0.002446
# 4 0.004409 -0.000346 0.002248 0.042940 -0.002987 -0.024779
# 5 -0.007984 -0.000352 0.006883 -0.002987 0.038191 0.021416
# 6 -0.017620 0.001336 -0.002446 -0.024779 0.021416 0.068045
#
#
# Mechanical properties :
#
#
# Convention : Reuss Voigt Hill
#
# Bulk Modulus (GPa) = 27.79035 44.10870 35.94953
# Shear Modulus (GPa) = 22.28099 33.88919 28.08509
#
# Velocity S-wave (km/s) = 3.24433 4.00118 3.64246
# Velocity P-wave (km/s) = 5.21177 6.49485 5.88836
#
# Compressibility (1/GPa) = 0.03598371
#
# Stress axis : x y z
#
# Youngs Moduli (GPa) = 39.37685 112.26674 65.32973
#
# Poissons Ratio (x) = 0.67679 -0.12487
# Poissons Ratio (y) = 0.23738 0.17613
# Poissons Ratio (z) = -0.07526 0.30268
#
# Static dielectric constant tensor:
#      x y z
#    x 1.759970 -0.007240 0.017570 
#    y -0.007240 1.749120 0.002140 
#    z 0.017570 0.002140 1.728120 
# 
# From -- ./inp_files/175532.got.cif
#   From: 2010.05.17/outbox.cif.g08.bks.cpg/sg2_88_cif.got.tgz:175532.got - 2010.06.03 11:33:40.
