data_PCOD9059960
_publ_section_title
;
Structure prediction by ZEFSAII (Michael W. Deem and Ramdas Pophale) SiO2 
 PCOD9059960
Probable space group: P -1
;
_chemical_formula_sum "Si O2"
_cell_formula_units_Z 16
_cell_length_a 10.011837
_cell_length_b 22.913019
_cell_length_c 12.687277
_cell_angle_alpha 37.550234
_cell_angle_beta 43.350798
_cell_angle_gamma 26.051134
_cell_volume 777.803248
_symmetry_space_group_name_H-M "P -1"
_symmetry_group_IT_number 2
_symmetry_cell_setting 'triclinic'
loop_
_space_group_symop_operation_xyz
x,y,z
-x,-y,-z
loop_
_atom_site_type_symbol
_atom_site_label
_atom_site_fract_x
_atom_site_fract_y
_atom_site_fract_z
Si Si1 0.730582 0.537227 0.749286
Si Si2 0.351005 0.636280 0.032640
Si Si3 0.291058 0.781587 0.474020
Si Si4 0.726758 0.871386 0.639472
Si Si5 0.337124 0.392800 0.690864
Si Si6 0.823641 0.471738 0.184845
Si Si7 0.316520 0.922083 0.970789
Si Si8 0.763023 0.976993 0.902998
O O1 0.591961 0.562973 0.905771
O O2 0.490241 0.679093 0.607624
O O3 0.022986 0.490494 0.670988
O O4 0.800656 0.409828 0.834539
O O5 0.089991 0.813601 0.915888
O O6 0.533100 0.569668 0.133661
O O7 0.426234 0.678409 0.438398
O O8 0.953094 0.867657 0.557108
O O9 0.295232 0.894131 0.291995
O O10 0.507071 0.911199 0.795936
O O11 0.941101 0.704514 0.713079
O O12 0.500000 0.000000 0.500000
O O13 0.277521 0.480218 0.703219
O O14 0.464311 0.246692 0.877363
O O15 0.000000 0.500000 0.000000
O O16 0.229307 0.016795 0.985207
O O17 0.000000 0.000000 0.000000
O O18 0.500000 0.000000 0.000000
#
# Coordination Sequence:
#
# PCOD9059960 Si02
#       8
#     2   2   2   2   2   2   2   2
#     4  11  23  43  70  98 141 179 225 286 352 411
#     4  11  23  42  72 100 132 182 232 279 344 419
#     4  11  26  45  68 103 143 183 225 296 350 407
#     4  12  26  45  68 103 142 179 228 289 357 401
#     4  11  23  42  73  96 136 182 234 276 348 412
#     4  12  23  43  71 102 128 179 237 284 331 422
#     4  11  23  45  71  96 139 187 226 280 346 417
#     4  11  26  45  70 100 136 183 235 279 345 416
#
# _framework density 20.570754000000001
#
# number of rings (size 3 to 8) (size 9 to 14) (size 15 to 20)
#    0.000    0.750    3.750    4.125    5.250    1.000 
#    4.500    0.000    0.000    0.000    0.000    0.000 
#    0.000    0.000    0.000    0.000    0.000    0.000 
#
# Total GULP energy -89444.801636 kJ/mol
# GULP energy per Si atom -5590.300102 kJ/mol
# Density = 2.052393 g / cm^3
# Si number density = 20.570754 Si / 1000 Ang^3
#
#
#
# Elastic Constant Matrix: (Units=GPa)
#
#
# Indices 1 2 3 4 5 6 
#
# 1 145.1611 32.2146 42.4526 6.8236 6.4535 -12.2452
# 2 32.2146 45.3547 16.8684 -2.5682 -10.7239 -13.4364
# 3 42.4526 16.8684 89.8140 -2.8286 1.0399 -22.6671
# 4 6.8236 -2.5682 -2.8286 40.5955 -3.9406 -4.5703
# 5 6.4535 -10.7239 1.0399 -3.9406 34.3856 -7.8094
# 6 -12.2452 -13.4364 -22.6671 -4.5703 -7.8094 32.9654
#
#
#
# Elastic Compliance Matrix: (Units=1/GPa)
#
#
# Indices 1 2 3 4 5 6 
#
# 1 0.010105 -0.008516 -0.004394 -0.003637 -0.005890 -0.004638
# 2 -0.008516 0.037918 0.001726 0.007891 0.018586 0.018975
# 3 -0.004394 0.001726 0.015826 0.003608 0.003881 0.011373
# 4 -0.003637 0.007891 0.003608 0.027982 0.008570 0.010255
# 5 -0.005890 0.018586 0.003881 0.008570 0.041163 0.018995
# 6 -0.004638 0.018975 0.011373 0.010255 0.018995 0.050088
#
#
# Mechanical properties :
#
#
# Convention : Reuss Voigt Hill
#
# Bulk Modulus (GPa) = 24.10741 51.48901 37.79821
# Shear Modulus (GPa) = 22.80219 34.17558 28.48888
#
# Velocity S-wave (km/s) = 3.33299 4.08041 3.72549
# Velocity P-wave (km/s) = 5.15330 6.87635 6.07621
#
# Compressibility (1/GPa) = 0.04148102
#
# Stress axis : x y z
#
# Youngs Moduli (GPa) = 98.95621 26.37257 63.18786
#
# Poissons Ratio (x) = 0.22460 0.27765
# Poissons Ratio (y) = 0.84274 -0.10907
# Poissons Ratio (z) = 0.43482 -0.04552
#
# Static dielectric constant tensor:
#      x y z
#    x 1.726500 0.024980 -0.018090 
#    y 0.024980 1.747770 0.046170 
#    z -0.018090 0.046170 1.754100 
# 
# From -- ./inp_files/209570.got.cif
#   From: 2010.05.17/outbox.cif.g08.bks.cpg/sg2_105_cif.got.tgz:209570.got - 2010.06.03 11:33:40.
