data_PCOD9059699
_publ_section_title
;
Structure prediction by ZEFSAII (Michael W. Deem and Ramdas Pophale) SiO2 
 PCOD9059699
Probable space group: P -1
;
_chemical_formula_sum "Si O2"
_cell_formula_units_Z 16
_cell_length_a 11.783392
_cell_length_b 12.200757
_cell_length_c 5.481566
_cell_angle_alpha 119.125019
_cell_angle_beta 77.744025
_cell_angle_gamma 94.675637
_cell_volume 672.512088
_symmetry_space_group_name_H-M "P -1"
_symmetry_group_IT_number 2
_symmetry_cell_setting 'triclinic'
loop_
_space_group_symop_operation_xyz
x,y,z
-x,-y,-z
loop_
_atom_site_type_symbol
_atom_site_label
_atom_site_fract_x
_atom_site_fract_y
_atom_site_fract_z
Si Si1 0.066302 0.266587 0.812958
Si Si2 0.793244 0.569317 0.736807
Si Si3 0.451771 0.361107 0.854836
Si Si4 0.077074 0.906143 0.019412
Si Si5 0.853293 0.301638 0.624979
Si Si6 0.633297 0.147401 0.694712
Si Si7 0.703094 0.725621 0.562179
Si Si8 0.668498 0.001859 0.007986
O O1 0.191793 0.228272 0.606905
O O2 0.001219 0.141123 0.778319
O O3 0.968048 0.331832 0.759574
O O4 0.100021 0.355541 0.119797
O O5 0.799150 0.428511 0.673650
O O6 0.773425 0.602118 0.500528
O O7 0.672830 0.631994 0.952706
O O8 0.537535 0.257420 0.816427
O O9 0.414202 0.321458 0.557961
O O10 0.500000 0.500000 0.000000
O O11 0.198250 0.967286 0.077098
O O12 0.106766 0.784950 0.710496
O O13 0.000000 0.000000 0.000000
O O14 0.755844 0.222500 0.728126
O O15 0.609220 0.065158 0.860587
O O16 0.637127 0.064466 0.352589
O O17 0.666617 0.851473 0.860255
#
# Coordination Sequence:
#
# PCOD9059699 Si02
#       8
#     2   2   2   2   2   2   2   2
#     4  11  23  42  67 103 145 187 243 294 373 435
#     4  11  25  45  69 102 144 185 249 300 376 437
#     4  11  26  49  75 103 140 190 249 309 374 433
#     4  11  24  40  70 103 147 198 239 298 363 442
#     4  11  23  42  68 104 144 190 243 302 365 436
#     4  11  26  47  76 111 144 200 247 311 362 447
#     4  11  28  45  71 106 145 195 239 312 366 443
#     4  11  26  47  74 109 155 190 254 296 376 436
#
# _framework density 23.791395999999999
#
# number of rings (size 3 to 8) (size 9 to 14) (size 15 to 20)
#    0.000    1.000    2.500    2.625    8.750    8.500 
#    0.000    0.000    0.000    0.000    0.000    0.000 
#    0.000    0.000    0.000    0.000    0.000    0.000 
#
# Total GULP energy -89421.877946 kJ/mol
# GULP energy per Si atom -5588.867372 kJ/mol
# Density = 2.373725 g / cm^3
# Si number density = 23.791396 Si / 1000 Ang^3
#
#
#
# Elastic Constant Matrix: (Units=GPa)
#
#
# Indices 1 2 3 4 5 6 
#
# 1 127.2670 34.5352 27.7530 11.6723 14.6665 -11.5342
# 2 34.5352 145.6842 43.0453 17.9832 6.2664 -23.1040
# 3 27.7530 43.0453 48.9433 9.1357 1.0409 -10.6744
# 4 11.6723 17.9832 9.1357 27.2278 -3.3006 -5.7220
# 5 14.6665 6.2664 1.0409 -3.3006 34.1876 -1.5109
# 6 -11.5342 -23.1040 -10.6744 -5.7220 -1.5109 42.1442
#
#
#
# Elastic Compliance Matrix: (Units=1/GPa)
#
#
# Indices 1 2 3 4 5 6 
#
# 1 0.009732 -0.000342 -0.004426 -0.002798 -0.004211 0.000824
# 2 -0.000342 0.010114 -0.007322 -0.003644 -0.001702 0.003041
# 3 -0.004426 -0.007322 0.030315 -0.002724 0.002150 0.002160
# 4 -0.002798 -0.003644 -0.002724 0.042530 0.006170 0.002542
# 5 -0.004211 -0.001702 0.002150 0.006170 0.031919 0.000441
# 6 0.000824 0.003041 0.002160 0.002542 0.000441 0.026529
#
#
# Mechanical properties :
#
#
# Convention : Reuss Voigt Hill
#
# Bulk Modulus (GPa) = 38.48922 59.17350 48.83136
# Shear Modulus (GPa) = 27.17727 35.14931 31.16329
#
# Velocity S-wave (km/s) = 3.38348 3.84786 3.62312
# Velocity P-wave (km/s) = 5.61042 6.68335 6.17025
#
# Compressibility (1/GPa) = 0.02598130
#
# Stress axis : x y z
#
# Youngs Moduli (GPa) = 102.75185 98.87533 32.98732
#
# Poissons Ratio (x) = 0.03382 0.14601
# Poissons Ratio (y) = 0.03514 0.24152
# Poissons Ratio (z) = 0.45479 0.72392
#
# Static dielectric constant tensor:
#      x y z
#    x 1.914480 -0.069690 0.081520 
#    y -0.069690 2.088120 -0.266540 
#    z 0.081520 -0.266540 2.144780 
# 
# From -- ./inp_files/70888.got.cif
#   From: 2010.05.17/outbox.cif.g08.bks.cpg/sg2_36_cif.got.tgz:70888.got - 2010.06.03 11:33:40.
