data_PCOD9059009
_publ_section_title
;
Structure prediction by ZEFSAII (Michael W. Deem and Ramdas Pophale) SiO2 
 PCOD9059009
Probable space group: P -1
;
_chemical_formula_sum "Si O2"
_cell_formula_units_Z 16
_cell_length_a 7.595590
_cell_length_b 22.169853
_cell_length_c 5.788590
_cell_angle_alpha 91.812062
_cell_angle_beta 113.474492
_cell_angle_gamma 53.975097
_cell_volume 695.595455
_symmetry_space_group_name_H-M "P -1"
_symmetry_group_IT_number 2
_symmetry_cell_setting 'triclinic'
loop_
_space_group_symop_operation_xyz
x,y,z
-x,-y,-z
loop_
_atom_site_type_symbol
_atom_site_label
_atom_site_fract_x
_atom_site_fract_y
_atom_site_fract_z
Si Si1 0.973155 0.648861 0.323127
Si Si2 0.368620 0.224970 0.228002
Si Si3 0.533457 0.681630 0.421275
Si Si4 0.941408 0.773349 0.531135
Si Si5 0.425158 0.879091 0.055778
Si Si6 0.638138 0.981768 0.821765
Si Si7 0.136089 0.816854 0.975571
Si Si8 0.867513 0.510338 0.683209
O O1 0.755052 0.662474 0.368530
O O2 0.084264 0.685552 0.512224
O O3 0.149650 0.558900 0.339362
O O4 0.825449 0.706806 0.041546
O O5 0.488211 0.260953 0.399126
O O6 0.210092 0.219266 0.325037
O O7 0.565321 0.139351 0.211961
O O8 0.626036 0.599828 0.556226
O O9 0.272920 0.734477 0.162138
O O10 0.090556 0.801688 0.691462
O O11 0.714653 0.832928 0.252391
O O12 0.321323 0.836799 0.093818
O O13 0.289955 0.962038 0.106417
O O14 0.875337 0.892226 0.934247
O O15 0.500000 0.000000 0.500000
O O16 0.500000 0.000000 0.000000
O O17 0.000000 0.500000 0.500000
O O18 0.000000 0.500000 0.000000
#
# Coordination Sequence:
#
# PCOD9059009 Si02
#       8
#     2   2   2   2   2   2   2   2
#     4   9  18  36  59  90 131 175 215 275 331 394
#     4  10  17  37  64  88 132 168 224 275 329 397
#     4  10  20  36  60 100 125 169 230 271 329 402
#     4  10  21  39  62  94 135 170 224 276 340 391
#     4  11  23  43  67  96 130 175 225 275 332 407
#     4  12  28  50  71 101 139 178 221 279 344 401
#     4  12  23  44  69  98 133 178 224 283 332 400
#     4  10  19  33  62  97 131 174 221 273 332 394
#
# _framework density 23.001875999999999
#
# number of rings (size 3 to 8) (size 9 to 14) (size 15 to 20)
#    0.000    1.500    6.250    1.125    0.000    1.000 
#    4.500    2.500    0.000    0.750    0.000    0.000 
#    0.000    0.000    0.000    0.000    0.000    0.000 
#
# Total GULP energy -89159.374569 kJ/mol
# GULP energy per Si atom -5572.460911 kJ/mol
# Density = 2.294952 g / cm^3
# Si number density = 23.001876 Si / 1000 Ang^3
#
#
#
# Elastic Constant Matrix: (Units=GPa)
#
#
# Indices 1 2 3 4 5 6 
#
# 1 54.0374 50.1047 26.5855 -3.0820 -6.4404 -7.2243
# 2 50.1047 162.9918 50.5007 10.1405 22.9627 13.8846
# 3 26.5855 50.5007 82.2064 0.2166 9.5512 -9.2508
# 4 -3.0820 10.1405 0.2166 41.2002 -1.7928 3.1426
# 5 -6.4404 22.9627 9.5512 -1.7928 31.8086 6.3294
# 6 -7.2243 13.8846 -9.2508 3.1426 6.3294 30.9024
#
#
#
# Elastic Compliance Matrix: (Units=1/GPa)
#
#
# Indices 1 2 3 4 5 6 
#
# 1 0.036903 -0.013488 -0.004621 0.006150 0.017118 0.009172
# 2 -0.013488 0.013863 -0.003857 -0.004235 -0.010225 -0.008011
# 3 -0.004621 -0.003857 0.017348 -0.000215 -0.004733 0.006837
# 4 0.006150 -0.004235 -0.000215 0.026080 0.005955 -0.000596
# 5 0.017118 -0.010225 -0.004733 0.005955 0.044550 -0.002551
# 6 0.009172 -0.008011 0.006837 -0.000596 -0.002551 0.040734
#
#
# Mechanical properties :
#
#
# Convention : Reuss Voigt Hill
#
# Bulk Modulus (GPa) = 41.35297 61.51305 51.43301
# Shear Modulus (GPa) = 21.60112 32.25189 26.92650
#
# Velocity S-wave (km/s) = 3.06780 3.74858 3.42515
# Velocity P-wave (km/s) = 5.52862 6.74807 6.16856
#
# Compressibility (1/GPa) = 0.02418206
#
# Stress axis : x y z
#
# Youngs Moduli (GPa) = 27.09824 72.13510 57.64309
#
# Poissons Ratio (x) = 0.97295 0.26639
# Poissons Ratio (y) = 0.36550 0.22231
# Poissons Ratio (z) = 0.12523 0.27820
#
# Static dielectric constant tensor:
#      x y z
#    x 1.931310 -0.021710 -0.044450 
#    y -0.021710 1.916590 0.068080 
#    z -0.044450 0.068080 1.946930 
# 
# From -- ./inp_files/55516.got.cif
#   From: 2010.05.17/outbox.cif.g08.bks.cpg/sg2_28_cif.got.tgz:55516.got - 2010.06.03 11:33:40.
