data_PCOD9059690
_publ_section_title
;
Structure prediction by ZEFSAII (Michael W. Deem and Ramdas Pophale) SiO2 
 PCOD9059690
Probable space group: P -1
;
_chemical_formula_sum "Si O2"
_cell_formula_units_Z 16
_cell_length_a 16.360750
_cell_length_b 9.063709
_cell_length_c 11.790222
_cell_angle_alpha 83.965251
_cell_angle_beta 148.461990
_cell_angle_gamma 114.022371
_cell_volume 720.384129
_symmetry_space_group_name_H-M "P -1"
_symmetry_group_IT_number 2
_symmetry_cell_setting 'triclinic'
loop_
_space_group_symop_operation_xyz
x,y,z
-x,-y,-z
loop_
_atom_site_type_symbol
_atom_site_label
_atom_site_fract_x
_atom_site_fract_y
_atom_site_fract_z
Si Si1 0.930605 0.628806 0.693350
Si Si2 0.683402 0.839641 0.899959
Si Si3 0.132271 0.943761 0.104368
Si Si4 0.105410 0.706893 0.645026
Si Si5 0.305358 0.816834 0.504648
Si Si6 0.483226 0.470707 0.845071
Si Si7 0.944231 0.037748 0.547382
Si Si8 0.535642 0.863000 0.155189
O O1 0.842084 0.409955 0.630395
O O2 0.742062 0.618196 0.440020
O O3 0.065398 0.706965 0.732145
O O4 0.029398 0.768148 0.906947
O O5 0.525050 0.876413 0.739887
O O6 0.600943 0.657135 0.892443
O O7 0.699958 0.867899 0.781891
O O8 0.917843 0.959375 0.197895
O O9 0.223974 0.880793 0.307268
O O10 0.000000 0.000000 0.000000
O O11 0.009001 0.765907 0.439204
O O12 0.000000 0.500000 0.500000
O O13 0.338505 0.830381 0.887148
O O14 0.341035 0.952770 0.637434
O O15 0.540249 0.341311 0.874679
O O16 0.500000 0.500000 0.000000
O O17 0.707976 0.896270 0.279140
O O18 0.000000 0.000000 0.500000
#
# Coordination Sequence:
#
# PCOD9059690 Si02
#       8
#     2   2   2   2   2   2   2   2
#     4  11  24  45  69 100 139 181 230 285 349 419
#     4  11  24  43  67  97 133 178 228 281 346 414
#     4  12  25  46  71  98 136 186 236 294 351 404
#     4  12  25  41  67 103 141 180 223 279 348 423
#     4  11  25  45  70  99 133 179 234 292 347 406
#     4  11  23  42  67 100 141 182 225 281 348 424
#     4  12  23  39  62  93 134 180 221 275 341 408
#     4  12  24  41  66 100 137 182 233 281 341 422
#
# _framework density 22.210372
#
# number of rings (size 3 to 8) (size 9 to 14) (size 15 to 20)
#    0.000    0.500    0.000   10.125    0.000    4.000 
#    0.000    6.875    0.000    0.000    0.000    0.000 
#    0.000    0.000    0.000    0.000    0.000    0.000 
#
# Total GULP energy -89106.529095 kJ/mol
# GULP energy per Si atom -5569.158068 kJ/mol
# Density = 2.215982 g / cm^3
# Si number density = 22.210372 Si / 1000 Ang^3
#
#
#
# Elastic Constant Matrix: (Units=GPa)
#
#
# Indices 1 2 3 4 5 6 
#
# 1 121.2103 45.7918 51.7302 -0.0946 9.8114 0.6526
# 2 45.7918 153.0185 53.2638 -22.3196 -10.9380 -5.4321
# 3 51.7302 53.2638 152.0994 -20.1725 0.2965 2.4339
# 4 -0.0946 -22.3196 -20.1725 53.2672 1.3597 -3.6893
# 5 9.8114 -10.9380 0.2965 1.3597 43.8720 3.7223
# 6 0.6526 -5.4321 2.4339 -3.6893 3.7223 39.4996
#
#
#
# Elastic Compliance Matrix: (Units=1/GPa)
#
#
# Indices 1 2 3 4 5 6 
#
# 1 0.010805 -0.002735 -0.002999 -0.002207 -0.002985 -0.000295
# 2 -0.002735 0.008620 -0.001719 0.002985 0.002563 0.001374
# 3 -0.002999 -0.001719 0.008532 0.002467 0.000150 -0.000496
# 4 -0.002207 0.002985 0.002467 0.021099 0.000378 0.002230
# 5 -0.002985 0.002563 0.000150 0.000378 0.024245 -0.001857
# 6 -0.000295 0.001374 -0.000496 0.002230 -0.001857 0.025924
#
#
# Mechanical properties :
#
#
# Convention : Reuss Voigt Hill
#
# Bulk Modulus (GPa) = 76.63495 80.87774 78.75635
# Shear Modulus (GPa) = 42.20066 45.69727 43.94897
#
# Velocity S-wave (km/s) = 4.36368 4.54086 4.45315
# Velocity P-wave (km/s) = 7.74390 7.99912 7.87255
#
# Compressibility (1/GPa) = 0.01304888
#
# Stress axis : x y z
#
# Youngs Moduli (GPa) = 92.55079 116.01473 117.21126
#
# Poissons Ratio (x) = 0.31732 0.35153
# Poissons Ratio (y) = 0.25314 0.20152
# Poissons Ratio (z) = 0.27757 0.19946
#
# Static dielectric constant tensor:
#      x y z
#    x 2.180370 0.157570 0.252400 
#    y 0.157570 1.799830 -0.494250 
#    z 0.252400 -0.494250 -0.531540 
# 
# From -- ./inp_files/447577.got.cif
#   From: 2010.05.17/outbox.cif.g08.bks.cpg/sg2_224_cif.got.tgz:447577.got - 2010.06.03 11:33:40.
