data_PCOD9059308
_publ_section_title
;
Structure prediction by ZEFSAII (Michael W. Deem and Ramdas Pophale) SiO2 
 PCOD9059308
Probable space group: P -1
;
_chemical_formula_sum "Si O2"
_cell_formula_units_Z 14
_cell_length_a 10.757542
_cell_length_b 11.189424
_cell_length_c 15.064367
_cell_angle_alpha 141.217020
_cell_angle_beta 40.388354
_cell_angle_gamma 113.097663
_cell_volume 638.917970
_symmetry_space_group_name_H-M "P -1"
_symmetry_group_IT_number 2
_symmetry_cell_setting 'triclinic'
loop_
_space_group_symop_operation_xyz
x,y,z
-x,-y,-z
loop_
_atom_site_type_symbol
_atom_site_label
_atom_site_fract_x
_atom_site_fract_y
_atom_site_fract_z
Si Si1 0.146778 0.356535 0.558151
Si Si2 0.805269 0.790517 0.228047
Si Si3 0.699713 0.523783 0.982686
Si Si4 0.374737 0.429222 0.313377
Si Si5 0.762306 0.214302 0.550560
Si Si6 0.767131 0.088127 0.789432
Si Si7 0.717603 0.542234 0.275694
O O1 0.220523 0.392020 0.442749
O O2 0.241000 0.444912 0.635826
O O3 0.880781 0.479199 0.783824
O O4 0.248863 0.095507 0.366307
O O5 0.731489 0.738463 0.331816
O O6 0.715322 0.047611 0.420850
O O7 0.744035 0.665968 0.115009
O O8 0.070666 0.669227 0.004493
O O9 0.762879 0.288474 0.854514
O O10 0.434693 0.664324 0.200080
O O11 0.250134 0.600631 0.401324
O O12 0.505420 0.526484 0.355013
O O13 0.563456 0.205566 0.036325
O O14 0.997578 0.060254 0.377099
#
# Coordination Sequence:
#
# PCOD9059308 Si02
#       7
#     2   2   2   2   2   2   2
#     4  11  24  39  62  91 130 157 191 258 309 347
#     4  10  17  37  66  92 114 157 204 254 294 346
#     4  10  22  39  64  93 118 154 211 250 295 355
#     4  11  23  42  63  90 121 164 203 240 302 371
#     4  11  21  37  68  87 119 160 208 246 291 364
#     4  11  22  43  65  87 119 167 203 243 300 361
#     4  10  19  38  66  90 118 155 208 249 296 353
#
# _framework density 21.912044999999999
#
# number of rings (size 3 to 8) (size 9 to 14) (size 15 to 20)
#    0.000    1.429    4.286    3.429    0.000    1.143 
#    0.000    7.143    0.000    0.000    0.000    0.000 
#    0.000    0.000    0.000    0.000    0.000    0.000 
#
# Total GULP energy -78273.638809 kJ/mol
# GULP energy per Si atom -5590.974201 kJ/mol
# Density = 2.186217 g / cm^3
# Si number density = 21.912045 Si / 1000 Ang^3
#
#
#
# Elastic Constant Matrix: (Units=GPa)
#
#
# Indices 1 2 3 4 5 6 
#
# 1 73.0372 19.5262 39.4365 -0.5886 -9.3185 -2.9747
# 2 19.5262 86.6979 78.4445 -17.3559 -8.8776 0.0631
# 3 39.4365 78.4445 139.1732 -10.8119 -12.4813 -12.5491
# 4 -0.5886 -17.3559 -10.8119 48.1247 2.1592 3.1240
# 5 -9.3185 -8.8776 -12.4813 2.1592 39.5448 6.9161
# 6 -2.9747 0.0631 -12.5491 3.1240 6.9161 21.6292
#
#
#
# Elastic Compliance Matrix: (Units=1/GPa)
#
#
# Indices 1 2 3 4 5 6 
#
# 1 0.016523 0.001307 -0.005358 -0.000549 0.002816 -0.001661
# 2 0.001307 0.027456 -0.016049 0.006903 0.002982 -0.011162
# 3 -0.005358 -0.016049 0.018453 -0.002361 -0.000767 0.010602
# 4 -0.000549 0.006903 -0.002361 0.023036 0.000271 -0.004880
# 5 0.002816 0.002982 -0.000767 0.000271 0.027945 -0.009041
# 6 -0.001661 -0.011162 0.010602 -0.004880 -0.009041 0.055785
#
#
# Mechanical properties :
#
#
# Convention : Reuss Voigt Hill
#
# Bulk Modulus (GPa) = 44.98122 63.74696 54.36409
# Shear Modulus (GPa) = 23.06168 32.62649 27.84409
#
# Velocity S-wave (km/s) = 3.24769 3.86291 3.56858
# Velocity P-wave (km/s) = 5.88523 7.00367 6.46867
#
# Compressibility (1/GPa) = 0.02223150
#
# Stress axis : x y z
#
# Youngs Moduli (GPa) = 60.52258 36.42163 54.19116
#
# Poissons Ratio (x) = -0.04759 0.29037
# Poissons Ratio (y) = -0.07908 0.86969
# Poissons Ratio (z) = 0.32430 0.58452
#
# Static dielectric constant tensor:
#      x y z
#    x 1.892930 0.038800 0.000660 
#    y 0.038800 1.769010 0.002240 
#    z 0.000660 0.002240 1.787130 
# 
# From -- ./inp_files/432460.got.cif
#   From: 2010.05.17/outbox.cif.g08.bks.cpg/sg2_217_cif.got.tgz:432460.got - 2010.06.03 11:33:40.
