data_PCOD9059372
_publ_section_title
;
Structure prediction by ZEFSAII (Michael W. Deem and Ramdas Pophale) SiO2 
 PCOD9059372
Probable space group: P -1
;
_chemical_formula_sum "Si O2"
_cell_formula_units_Z 16
_cell_length_a 9.817545
_cell_length_b 14.558763
_cell_length_c 11.320117
_cell_angle_alpha 60.682967
_cell_angle_beta 70.398738
_cell_angle_gamma 121.013411
_cell_volume 746.686807
_symmetry_space_group_name_H-M "P -1"
_symmetry_group_IT_number 2
_symmetry_cell_setting 'triclinic'
loop_
_space_group_symop_operation_xyz
x,y,z
-x,-y,-z
loop_
_atom_site_type_symbol
_atom_site_label
_atom_site_fract_x
_atom_site_fract_y
_atom_site_fract_z
Si Si1 0.159171 0.442661 0.194826
Si Si2 0.391907 0.863967 0.512866
Si Si3 0.715918 0.443014 0.184452
Si Si4 0.852104 0.191994 0.009096
Si Si5 0.345942 0.414309 0.361505
Si Si6 0.553672 0.717178 0.288166
Si Si7 0.011192 0.886861 0.168454
Si Si8 0.993957 0.456365 0.661373
O O1 0.317492 0.455280 0.218507
O O2 0.866194 0.231968 0.390873
O O3 0.111413 0.515088 0.244583
O O4 0.262902 0.535926 0.977101
O O5 0.334844 0.709382 0.669016
O O6 0.500000 0.000000 0.500000
O O7 0.600836 0.993407 0.266697
O O8 0.504169 0.402218 0.307830
O O9 0.976245 0.642816 0.047389
O O10 0.000659 0.190294 0.898119
O O11 0.812355 0.249833 0.877402
O O12 0.474088 0.570446 0.321764
O O13 0.069127 0.222553 0.621600
O O14 0.292139 0.599360 0.500286
O O15 0.774310 0.823725 0.252511
O O16 0.706942 0.892261 0.050867
O O17 0.000000 0.500000 0.500000
#
# Coordination Sequence:
#
# PCOD9059372 Si02
#       8
#     2   2   2   2   2   2   2   2
#     4  12  25  47  69 100 142 180 229 286 347 406
#     4  12  26  46  72 102 135 181 238 281 336 413
#     4  12  26  46  74  98 133 191 231 279 344 409
#     4  12  23  42  73 101 136 181 235 283 334 413
#     4  12  25  46  69 102 143 179 227 287 347 408
#     4  11  23  41  67 103 136 181 227 278 337 409
#     4  11  24  40  69 103 137 180 228 280 342 402
#     4  12  23  42  71 100 138 181 222 278 352 405
#
# _framework density 21.427994000000002
#
# number of rings (size 3 to 8) (size 9 to 14) (size 15 to 20)
#    0.000    0.250    6.250    3.375    3.500    1.000 
#    2.250    3.125    0.000    0.000    0.000    0.000 
#    0.000    0.000    0.000    0.000    0.000    0.000 
#
# Total GULP energy -89369.659400 kJ/mol
# GULP energy per Si atom -5585.603713 kJ/mol
# Density = 2.137922 g / cm^3
# Si number density = 21.427994 Si / 1000 Ang^3
#
#
#
# Elastic Constant Matrix: (Units=GPa)
#
#
# Indices 1 2 3 4 5 6 
#
# 1 58.1430 10.4828 7.1814 1.9657 4.2083 -1.2463
# 2 10.4828 81.6256 31.8782 9.8362 7.5759 -20.5604
# 3 7.1814 31.8782 143.2104 14.2711 20.3865 -0.1028
# 4 1.9657 9.8362 14.2711 39.8101 2.5258 4.9388
# 5 4.2083 7.5759 20.3865 2.5258 30.1743 6.8037
# 6 -1.2463 -20.5604 -0.1028 4.9388 6.8037 23.0013
#
#
#
# Elastic Compliance Matrix: (Units=1/GPa)
#
#
# Indices 1 2 3 4 5 6 
#
# 1 0.017725 -0.002148 -0.000153 -0.000128 -0.001723 -0.000423
# 2 -0.002148 0.020507 -0.002779 -0.006191 -0.007348 0.021705
# 3 -0.000153 -0.002779 0.008473 -0.001966 -0.004696 -0.000643
# 4 -0.000128 -0.006191 -0.001966 0.028724 0.003362 -0.012712
# 5 -0.001723 -0.007348 -0.004696 0.003362 0.042630 -0.020014
# 6 -0.000423 0.021705 -0.000643 -0.012712 -0.020014 0.071501
#
#
# Mechanical properties :
#
#
# Convention : Reuss Voigt Hill
#
# Bulk Modulus (GPa) = 27.36237 42.45155 34.90696
# Shear Modulus (GPa) = 23.59592 34.15958 28.87775
#
# Velocity S-wave (km/s) = 3.32199 3.99702 3.67504
# Velocity P-wave (km/s) = 5.24513 6.41528 5.85949
#
# Compressibility (1/GPa) = 0.03654654
#
# Stress axis : x y z
#
# Youngs Moduli (GPa) = 56.41723 48.76304 118.02465
#
# Poissons Ratio (x) = 0.10473 0.01806
# Poissons Ratio (y) = 0.12117 0.32795
# Poissons Ratio (z) = 0.00863 0.13549
#
# Static dielectric constant tensor:
#      x y z
#    x 1.857220 -0.063800 0.028770 
#    y -0.063800 1.954460 -0.005470 
#    z 0.028770 -0.005470 1.820570 
# 
# From -- ./inp_files/398577.got.cif
#   From: 2010.05.17/outbox.cif.g08.bks.cpg/sg2_200_cif.got.tgz:398577.got - 2010.06.03 11:33:40.
