data_PCOD9059295
_publ_section_title
;
Structure prediction by ZEFSAII (Michael W. Deem and Ramdas Pophale) SiO2 
 PCOD9059295
Probable space group: P -1
;
_chemical_formula_sum "Si O2"
_cell_formula_units_Z 16
_cell_length_a 5.596185
_cell_length_b 19.109099
_cell_length_c 9.199326
_cell_angle_alpha 135.979427
_cell_angle_beta 100.428054
_cell_angle_gamma 90.643073
_cell_volume 657.795273
_symmetry_space_group_name_H-M "P -1"
_symmetry_group_IT_number 2
_symmetry_cell_setting 'triclinic'
loop_
_space_group_symop_operation_xyz
x,y,z
-x,-y,-z
loop_
_atom_site_type_symbol
_atom_site_label
_atom_site_fract_x
_atom_site_fract_y
_atom_site_fract_z
Si Si1 0.367936 0.595169 0.642574
Si Si2 0.465764 0.114528 0.151739
Si Si3 0.083615 0.706209 0.586472
Si Si4 0.499087 0.814397 0.418282
Si Si5 0.396149 0.590940 0.949212
Si Si6 0.002415 0.884905 0.382888
Si Si7 0.838582 0.583171 0.134420
Si Si8 0.192776 0.222033 0.077609
O O1 0.500000 0.500000 0.500000
O O2 0.215055 0.613806 0.512620
O O3 0.562999 0.702859 0.842453
O O4 0.248306 0.584892 0.774092
O O5 0.719005 0.187632 0.235406
O O6 0.410903 0.162917 0.372170
O O7 0.262717 0.125812 0.026028
O O8 0.500000 0.000000 0.000000
O O9 0.974723 0.684535 0.382389
O O10 0.901118 0.713736 0.709245
O O11 0.380582 0.692942 0.192395
O O12 0.745566 0.849796 0.396613
O O13 0.269061 0.873635 0.461860
O O14 0.696563 0.604511 0.006357
O O15 0.329454 0.478347 0.846577
O O16 0.982560 0.815425 0.131163
O O17 0.000000 0.000000 0.500000
O O18 0.000000 0.500000 0.000000
#
# Coordination Sequence:
#
# PCOD9059295 Si02
#       8
#     2   2   2   2   2   2   2   2
#     4  11  23  41  64  99 134 181 225 287 353 425
#     4  11  27  46  71 102 142 187 240 301 362 428
#     4  11  25  42  68  99 139 182 238 294 356 429
#     4  12  27  47  76 108 142 191 244 297 362 435
#     4  11  24  42  66  97 140 180 237 289 358 422
#     4  12  28  48  76 106 146 189 242 303 364 432
#     4  11  24  41  66  98 137 187 232 295 355 431
#     4  11  25  45  69 100 144 183 238 295 362 426
#
# _framework density 24.323675999999999
#
# number of rings (size 3 to 8) (size 9 to 14) (size 15 to 20)
#    0.000    0.750    1.250    4.875    8.750    8.500 
#    0.000    0.000    0.000    0.000    0.000    0.000 
#    0.000    0.000    0.000    0.000    0.000    0.000 
#
# Total GULP energy -89393.445020 kJ/mol
# GULP energy per Si atom -5587.090314 kJ/mol
# Density = 2.426831 g / cm^3
# Si number density = 24.323676 Si / 1000 Ang^3
#
#
#
# Elastic Constant Matrix: (Units=GPa)
#
#
# Indices 1 2 3 4 5 6 
#
# 1 66.1627 18.0944 -8.5431 -1.4430 0.1883 -7.4439
# 2 18.0944 106.9793 3.5957 11.7288 6.6121 -12.3614
# 3 -8.5431 3.5957 64.8746 -4.5481 -0.0528 2.4061
# 4 -1.4430 11.7288 -4.5481 48.2640 -9.9467 -7.8920
# 5 0.1883 6.6121 -0.0528 -9.9467 27.8454 2.7418
# 6 -7.4439 -12.3614 2.4061 -7.8920 2.7418 36.8862
#
#
#
# Elastic Compliance Matrix: (Units=1/GPa)
#
#
# Indices 1 2 3 4 5 6 
#
# 1 0.016540 -0.002870 0.002386 0.002056 0.001054 0.002582
# 2 -0.002870 0.010788 -0.001305 -0.003199 -0.003956 0.002731
# 3 0.002386 -0.001305 0.015967 0.002015 0.001108 -0.000648
# 4 0.002056 -0.003199 0.002015 0.024219 0.009034 0.003722
# 5 0.001054 -0.003956 0.001108 0.009034 0.040295 -0.002248
# 6 0.002582 0.002731 -0.000648 0.003722 -0.002248 0.029552
#
#
# Mechanical properties :
#
#
# Convention : Reuss Voigt Hill
#
# Bulk Modulus (GPa) = 25.17751 29.36784 27.27267
# Shear Modulus (GPa) = 32.43038 37.59045 35.01042
#
# Velocity S-wave (km/s) = 3.65538 3.93546 3.79800
# Velocity P-wave (km/s) = 5.30935 5.72280 5.51995
#
# Compressibility (1/GPa) = 0.03971799
#
# Stress axis : x y z
#
# Youngs Moduli (GPa) = 60.46084 92.69825 62.62859
#
# Poissons Ratio (x) = 0.26604 -0.14946
# Poissons Ratio (y) = 0.17352 0.08171
# Poissons Ratio (z) = -0.14428 0.12094
#
# Static dielectric constant tensor:
#      x y z
#    x 2.158890 0.157670 0.019470 
#    y 0.157670 2.199780 -0.042210 
#    z 0.019470 -0.042210 1.931570 
# 
# From -- ./inp_files/39252.got.cif
#   From: 2010.05.17/outbox.cif.g08.bks.cpg/sg2_20_cif.got.tgz:39252.got - 2010.06.03 11:33:40.
