data_PCOD9059104
_publ_section_title
;
Structure prediction by ZEFSAII (Michael W. Deem and Ramdas Pophale) SiO2 
 PCOD9059104
Probable space group: P -1
;
_chemical_formula_sum "Si O2"
_cell_formula_units_Z 16
_cell_length_a 9.897072
_cell_length_b 11.867690
_cell_length_c 12.576312
_cell_angle_alpha 130.378714
_cell_angle_beta 44.937740
_cell_angle_gamma 116.436741
_cell_volume 794.572517
_symmetry_space_group_name_H-M "P -1"
_symmetry_group_IT_number 2
_symmetry_cell_setting 'triclinic'
loop_
_space_group_symop_operation_xyz
x,y,z
-x,-y,-z
loop_
_atom_site_type_symbol
_atom_site_label
_atom_site_fract_x
_atom_site_fract_y
_atom_site_fract_z
Si Si1 0.848411 0.110265 0.211477
Si Si2 0.002572 0.613479 0.969150
Si Si3 0.034300 0.430021 0.271920
Si Si4 0.730191 0.611962 0.686330
Si Si5 0.693666 0.923601 0.803301
Si Si6 0.400957 0.151284 0.431487
Si Si7 0.400599 0.494223 0.665112
Si Si8 0.096214 0.056879 0.705003
O O1 0.627112 0.112257 0.297037
O O2 0.929587 0.273759 0.250398
O O3 0.851476 0.056445 0.298808
O O4 0.000000 0.000000 0.000000
O O5 0.229140 0.613251 0.823363
O O6 0.920740 0.551608 0.866037
O O7 0.000000 0.500000 0.000000
O O8 0.920474 0.776123 0.137317
O O9 0.212506 0.429898 0.252146
O O10 0.887846 0.550771 0.476712
O O11 0.727091 0.786232 0.779482
O O12 0.534502 0.542740 0.715438
O O13 0.654973 0.866588 0.671102
O O14 0.884944 0.018873 0.757055
O O15 0.500000 0.000000 0.000000
O O16 0.356534 0.321468 0.595132
O O17 0.261028 0.054421 0.522581
O O18 0.500000 0.500000 0.500000
#
# Coordination Sequence:
#
# PCOD9059104 Si02
#       8
#     2   2   2   2   2   2   2   2
#     4  12  23  43  70  96 130 179 235 278 331 415
#     4  12  24  43  69 100 134 176 222 282 344 408
#     4  11  23  42  68  97 131 177 227 282 331 400
#     4  11  23  40  67 101 128 172 236 278 329 389
#     4  12  25  42  69 102 137 177 230 285 334 411
#     4  12  25  43  66  99 138 180 221 287 347 404
#     4  12  21  41  71  98 129 175 237 276 324 408
#     4  12  26  44  66  99 144 177 221 283 359 405
#
# _framework density 20.136613000000001
#
# number of rings (size 3 to 8) (size 9 to 14) (size 15 to 20)
#    0.000    0.250    7.500    2.250    0.000    0.000 
#    0.000    0.625    0.000    0.000    0.000    0.000 
#    0.000    0.000    0.000    0.000    0.000    0.000 
#
# Total GULP energy -89400.745529 kJ/mol
# GULP energy per Si atom -5587.546596 kJ/mol
# Density = 2.009078 g / cm^3
# Si number density = 20.136613 Si / 1000 Ang^3
#
#
#
# Elastic Constant Matrix: (Units=GPa)
#
#
# Indices 1 2 3 4 5 6 
#
# 1 113.0818 -6.1389 13.2895 -7.0607 11.8524 -0.9199
# 2 -6.1389 63.1048 2.0465 -3.7503 6.2917 -9.3377
# 3 13.2895 2.0465 65.8578 4.2224 -9.3184 -2.4362
# 4 -7.0607 -3.7503 4.2224 31.8494 -5.1278 -2.3354
# 5 11.8524 6.2917 -9.3184 -5.1278 31.7932 -0.6920
# 6 -0.9199 -9.3377 -2.4362 -2.3354 -0.6920 33.7203
#
#
#
# Elastic Compliance Matrix: (Units=1/GPa)
#
#
# Indices 1 2 3 4 5 6 
#
# 1 0.009869 0.001709 -0.002791 0.002080 -0.004487 0.000593
# 2 0.001709 0.017308 -0.001419 0.002314 -0.004000 0.004815
# 3 -0.002791 -0.001419 0.016786 -0.002003 0.005934 0.000727
# 4 0.002080 0.002314 -0.002003 0.033190 0.003596 0.002925
# 5 -0.004487 -0.004000 0.005934 0.003596 0.036241 0.000191
# 6 0.000593 0.004815 0.000727 0.002925 0.000191 0.031264
#
#
# Mechanical properties :
#
#
# Convention : Reuss Voigt Hill
#
# Bulk Modulus (GPa) = 25.66606 28.93763 27.30184
# Shear Modulus (GPa) = 30.74132 34.99574 32.86853
#
# Velocity S-wave (km/s) = 3.91146 4.17335 4.04453
# Velocity P-wave (km/s) = 5.75960 6.13387 5.94968
#
# Compressibility (1/GPa) = 0.03896196
#
# Stress axis : x y z
#
# Youngs Moduli (GPa) = 101.32800 57.77734 59.57200
#
# Poissons Ratio (x) = -0.09876 0.16626
# Poissons Ratio (y) = -0.17320 0.08453
# Poissons Ratio (z) = 0.28280 0.08199
#
# Static dielectric constant tensor:
#      x y z
#    x 1.700800 0.022270 -0.068840 
#    y 0.022270 1.733730 -0.013790 
#    z -0.068840 -0.013790 1.692020 
# 
# From -- ./inp_files/217120.got.cif
#   From: 2010.05.17/outbox.cif.g08.bks.cpg/sg2_109_cif.got.tgz:217120.got - 2010.06.03 11:33:40.
