data_PCOD9059917
_publ_section_title
;
Structure prediction by ZEFSAII (Michael W. Deem and Ramdas Pophale) SiO2 
 PCOD9059917
Probable space group: P -1
;
_chemical_formula_sum "Si O2"
_cell_formula_units_Z 16
_cell_length_a 11.339861
_cell_length_b 11.155585
_cell_length_c 14.029260
_cell_angle_alpha 107.956504
_cell_angle_beta 30.422254
_cell_angle_gamma 87.687061
_cell_volume 659.947990
_symmetry_space_group_name_H-M "P -1"
_symmetry_group_IT_number 2
_symmetry_cell_setting 'triclinic'
loop_
_space_group_symop_operation_xyz
x,y,z
-x,-y,-z
loop_
_atom_site_type_symbol
_atom_site_label
_atom_site_fract_x
_atom_site_fract_y
_atom_site_fract_z
Si Si1 0.685299 0.683221 0.846356
Si Si2 0.803427 0.852761 0.457722
Si Si3 0.081067 0.027334 0.316990
Si Si4 0.834503 0.450851 0.161801
Si Si5 0.841694 0.969352 0.958123
Si Si6 0.085099 0.654803 0.398303
Si Si7 0.187010 0.596612 0.627222
Si Si8 0.146458 0.132636 0.783409
O O1 0.656024 0.541294 0.827097
O O2 0.815545 0.682063 0.653315
O O3 0.948930 0.621657 0.724521
O O4 0.380867 0.868255 0.121328
O O5 0.780996 0.496788 0.321646
O O6 0.858958 0.984394 0.458785
O O7 0.990496 0.713234 0.371287
O O8 0.460267 0.941301 0.748018
O O9 0.194348 0.023924 0.130804
O O10 0.911516 0.207022 0.522599
O O11 0.531649 0.504285 0.334714
O O12 0.922877 0.785017 0.252028
O O13 0.000000 0.500000 0.000000
O O14 0.061814 0.257200 0.954049
O O15 0.987954 0.055016 0.892493
O O16 0.066560 0.778391 0.776202
O O17 0.500000 0.000000 0.500000
#
# Coordination Sequence:
#
# PCOD9059917 Si02
#       8
#     2   2   2   2   2   2   2   2
#     4  11  24  42  74 106 142 193 240 293 365 427
#     4  11  25  41  74 103 145 194 231 300 367 417
#     4  11  23  47  68 106 151 189 241 299 352 434
#     4  11  27  48  71 103 146 179 237 300 354 430
#     4  11  23  46  75 100 144 184 239 296 355 432
#     4  11  23  42  71 102 146 188 241 293 359 433
#     4  11  25  46  74 102 138 195 228 296 371 410
#     4  11  26  45  73 108 137 185 245 293 358 431
#
# _framework density 24.244333999999998
#
# number of rings (size 3 to 8) (size 9 to 14) (size 15 to 20)
#    0.000    1.000    2.500    3.000    3.500    5.500 
#    2.250    0.000    0.000    0.000    0.000    0.000 
#    0.000    0.000    0.000    0.000    0.000    0.000 
#
# Total GULP energy -89489.224156 kJ/mol
# GULP energy per Si atom -5593.076510 kJ/mol
# Density = 2.418915 g / cm^3
# Si number density = 24.244334 Si / 1000 Ang^3
#
#
#
# Elastic Constant Matrix: (Units=GPa)
#
#
# Indices 1 2 3 4 5 6 
#
# 1 78.2523 37.9232 12.5829 -13.1645 5.0551 -17.1378
# 2 37.9232 143.1651 43.8549 -13.7267 7.6506 -11.5903
# 3 12.5829 43.8549 116.7528 -27.4528 -6.0792 3.8578
# 4 -13.1645 -13.7267 -27.4528 47.0308 -2.4719 6.3635
# 5 5.0551 7.6506 -6.0792 -2.4719 26.0826 -3.7106
# 6 -17.1378 -11.5903 3.8578 6.3635 -3.7106 36.4542
#
#
#
# Elastic Compliance Matrix: (Units=1/GPa)
#
#
# Indices 1 2 3 4 5 6 
#
# 1 0.016314 -0.003504 -0.000076 0.002633 -0.001049 0.005997
# 2 -0.003504 0.009153 -0.003394 -0.000628 -0.002648 0.001462
# 3 -0.000076 -0.003394 0.011661 0.006416 0.003899 -0.003072
# 4 0.002633 -0.000628 0.006416 0.026253 0.003101 -0.003908
# 5 -0.001049 -0.002648 0.003899 0.003101 0.040787 0.001863
# 6 0.005997 0.001462 -0.003072 -0.003908 0.001863 0.031912
#
#
# Mechanical properties :
#
#
# Convention : Reuss Voigt Hill
#
# Bulk Modulus (GPa) = 43.14107 58.54359 50.84233
# Shear Modulus (GPa) = 31.69481 38.16747 34.93114
#
# Velocity S-wave (km/s) = 3.61959 3.97203 3.79990
# Velocity P-wave (km/s) = 5.94151 6.72575 6.34576
#
# Compressibility (1/GPa) = 0.02317977
#
# Stress axis : x y z
#
# Youngs Moduli (GPa) = 61.29848 109.25970 85.75458
#
# Poissons Ratio (x) = 0.38287 0.00648
# Poissons Ratio (y) = 0.21480 0.29105
# Poissons Ratio (z) = 0.00463 0.37083
#
# Static dielectric constant tensor:
#      x y z
#    x 2.206600 -0.073740 0.092520 
#    y -0.073740 1.879110 0.030810 
#    z 0.092520 0.030810 1.930450 
# 
# From -- ./inp_files/597404.got.cif
#   From: 2010.05.17/outbox.cif.g08.bks.cpg/sg2_299_cif.got.tgz:597404.got - 2010.06.03 11:33:40.
