data_PCOD9059758
_publ_section_title
;
Structure prediction by ZEFSAII (Michael W. Deem and Ramdas Pophale) SiO2 
 PCOD9059758
Probable space group: P -1
;
_chemical_formula_sum "Si O2"
_cell_formula_units_Z 16
_cell_length_a 9.011229
_cell_length_b 16.056706
_cell_length_c 9.383259
_cell_angle_alpha 33.061990
_cell_angle_beta 91.381093
_cell_angle_gamma 100.356620
_cell_volume 708.052576
_symmetry_space_group_name_H-M "P -1"
_symmetry_group_IT_number 2
_symmetry_cell_setting 'triclinic'
loop_
_space_group_symop_operation_xyz
x,y,z
-x,-y,-z
loop_
_atom_site_type_symbol
_atom_site_label
_atom_site_fract_x
_atom_site_fract_y
_atom_site_fract_z
Si Si1 0.593947 0.747962 0.136193
Si Si2 0.117615 0.894905 0.967538
Si Si3 0.852996 0.461318 0.949059
Si Si4 0.557440 0.008374 0.322562
Si Si5 0.985872 0.610408 0.206816
Si Si6 0.540975 0.339455 0.267678
Si Si7 0.859517 0.778486 0.343838
Si Si8 0.640367 0.475532 0.361936
O O1 0.730584 0.761651 0.237960
O O2 0.621015 0.651149 0.135457
O O3 0.427920 0.625672 0.355503
O O4 0.567716 0.917905 0.862450
O O5 0.997383 0.789198 0.000894
O O6 0.030168 0.802286 0.241247
O O7 0.279721 0.896030 0.893000
O O8 0.129511 0.072657 0.764952
O O9 0.819059 0.621255 0.663410
O O10 0.887086 0.379840 0.923288
O O11 0.707198 0.354972 0.181642
O O12 0.000000 0.500000 0.000000
O O13 0.560198 0.829677 0.544620
O O14 0.500000 0.000000 0.500000
O O15 0.820188 0.516680 0.275131
O O16 0.000000 0.500000 0.500000
O O17 0.550730 0.354344 0.415019
O O18 0.500000 0.500000 0.000000
#
# Coordination Sequence:
#
# PCOD9059758 Si02
#       8
#     2   2   2   2   2   2   2   2
#     4  11  24  44  73 101 141 183 242 295 345 430
#     4  11  24  45  71  99 143 182 235 293 349 426
#     4  12  25  45  71 105 142 181 240 292 349 424
#     4  12  27  46  69 105 141 188 236 294 359 422
#     4  12  22  42  69 102 138 181 233 285 342 418
#     4  12  26  46  72 101 146 186 230 295 361 420
#     4  11  25  46  71 106 137 188 233 291 364 415
#     4  11  23  42  68 105 135 188 235 285 358 417
#
# _framework density 22.597193000000001
#
# number of rings (size 3 to 8) (size 9 to 14) (size 15 to 20)
#    0.000    0.500    3.750    4.500    0.000    8.000 
#    0.000    1.250    0.000    0.000    0.000    0.000 
#    0.000    0.000    0.000    0.000    0.000    0.000 
#
# Total GULP energy -89099.996266 kJ/mol
# GULP energy per Si atom -5568.749767 kJ/mol
# Density = 2.254576 g / cm^3
# Si number density = 22.597193 Si / 1000 Ang^3
#
#
#
# Elastic Constant Matrix: (Units=GPa)
#
#
# Indices 1 2 3 4 5 6 
#
# 1 88.3327 18.6013 32.2475 14.7839 -21.0990 -17.6759
# 2 18.6013 140.2994 15.8527 -15.1241 3.9739 -26.1242
# 3 32.2475 15.8527 58.0493 -0.1785 0.6635 -4.9433
# 4 14.7839 -15.1241 -0.1785 40.0506 -10.1336 -5.8534
# 5 -21.0990 3.9739 0.6635 -10.1336 41.6802 7.2336
# 6 -17.6759 -26.1242 -4.9433 -5.8534 7.2336 32.3316
#
#
#
# Elastic Compliance Matrix: (Units=1/GPa)
#
#
# Indices 1 2 3 4 5 6 
#
# 1 0.018831 -0.001125 -0.009805 -0.004687 0.007735 0.005308
# 2 -0.001125 0.009485 -0.001242 0.004743 -0.001706 0.008100
# 3 -0.009805 -0.001242 0.022941 0.001897 -0.004487 -0.001509
# 4 -0.004687 0.004743 0.001897 0.030280 0.003418 0.006278
# 5 0.007735 -0.001706 -0.004487 0.003418 0.029641 -0.003849
# 6 0.005308 0.008100 -0.001509 0.006278 -0.003849 0.042143
#
#
# Mechanical properties :
#
#
# Convention : Reuss Voigt Hill
#
# Bulk Modulus (GPa) = 37.15384 46.67606 41.91495
# Shear Modulus (GPa) = 26.79018 37.47781 32.13399
#
# Velocity S-wave (km/s) = 3.44692 4.07691 3.77508
# Velocity P-wave (km/s) = 5.68500 6.54691 6.13112
#
# Compressibility (1/GPa) = 0.02691512
#
# Stress axis : x y z
#
# Youngs Moduli (GPa) = 53.10297 105.43127 43.58965
#
# Poissons Ratio (x) = 0.11858 0.42739
# Poissons Ratio (y) = 0.05973 0.05412
# Poissons Ratio (z) = 0.52066 0.13090
#
# Static dielectric constant tensor:
#      x y z
#    x 1.899220 0.006920 0.011740 
#    y 0.006920 1.780570 -0.035700 
#    z 0.011740 -0.035700 1.835420 
# 
# From -- ./inp_files/205253.got.cif
#   From: 2010.05.17/outbox.cif.g08.bks.cpg/sg2_103_cif.got.tgz:205253.got - 2010.06.03 11:33:40.
