data_PCOD9059881
_publ_section_title
;
Structure prediction by ZEFSAII (Michael W. Deem and Ramdas Pophale) SiO2 
 PCOD9059881
Probable space group: P -1
;
_chemical_formula_sum "Si O2"
_cell_formula_units_Z 14
_cell_length_a 21.904838
_cell_length_b 9.652647
_cell_length_c 9.659166
_cell_angle_alpha 133.962586
_cell_angle_beta 138.940045
_cell_angle_gamma 26.072120
_cell_volume 588.582464
_symmetry_space_group_name_H-M "P -1"
_symmetry_group_IT_number 2
_symmetry_cell_setting 'triclinic'
loop_
_space_group_symop_operation_xyz
x,y,z
-x,-y,-z
loop_
_atom_site_type_symbol
_atom_site_label
_atom_site_fract_x
_atom_site_fract_y
_atom_site_fract_z
Si Si1 0.686147 0.332105 0.224968
Si Si2 0.895939 0.204251 0.717066
Si Si3 0.087010 0.388847 0.926777
Si Si4 0.530742 0.156172 0.590995
Si Si5 0.299848 0.642817 0.294573
Si Si6 0.749648 0.447786 0.148165
Si Si7 0.772184 0.829568 0.564185
O O1 0.799725 0.283732 0.477828
O O2 0.532874 0.584099 0.228638
O O3 0.662500 0.477568 0.140355
O O4 0.779474 0.982653 0.126891
O O5 0.855806 0.138713 0.734780
O O6 0.855129 0.487876 0.887931
O O7 0.073942 0.906402 0.781391
O O8 0.951403 0.578205 0.715075
O O9 0.000000 0.500000 0.000000
O O10 0.426580 0.354762 0.414863
O O11 0.500000 0.000000 0.500000
O O12 0.697719 0.916203 0.648834
O O13 0.307097 0.856003 0.421342
O O14 0.303058 0.527129 0.075478
O O15 0.744428 0.682514 0.329138
#
# Coordination Sequence:
#
# PCOD9059881 Si02
#       7
#     2   2   2   2   2   2   2
#     4  11  23  45  72 106 141 188 233 289 347 414
#     4  11  23  42  70 105 146 180 233 289 346 417
#     4  12  23  39  75 109 138 180 237 289 348 409
#     4  11  26  50  74  98 141 192 234 290 351 418
#     4  11  27  45  69 104 147 182 234 291 351 419
#     4  12  22  41  73 105 141 183 235 288 353 407
#     4  12  25  45  74 103 146 186 229 290 355 414
#
# _framework density 23.785962999999999
#
# number of rings (size 3 to 8) (size 9 to 14) (size 15 to 20)
#    0.000    0.571    5.714    2.143    2.000    3.429 
#    0.000    5.714    0.000    0.000    0.000    0.000 
#    0.000    0.000    0.000    0.000    0.000    0.000 
#
# Total GULP energy -78495.935027 kJ/mol
# GULP energy per Si atom -5606.852502 kJ/mol
# Density = 2.373183 g / cm^3
# Si number density = 23.785963 Si / 1000 Ang^3
#
#
#
# Elastic Constant Matrix: (Units=GPa)
#
#
# Indices 1 2 3 4 5 6 
#
# 1 119.2888 26.1911 36.8409 10.1031 -2.4780 22.2085
# 2 26.1911 119.3348 60.3159 17.4821 9.1646 16.0725
# 3 36.8409 60.3159 105.7924 26.6168 -12.1331 10.6498
# 4 10.1031 17.4821 26.6168 56.5494 9.8027 4.5842
# 5 -2.4780 9.1646 -12.1331 9.8027 46.8840 5.5925
# 6 22.2085 16.0725 10.6498 4.5842 5.5925 44.9536
#
#
#
# Elastic Compliance Matrix: (Units=1/GPa)
#
#
# Indices 1 2 3 4 5 6 
#
# 1 0.010141 -0.000177 -0.002939 -0.000085 0.000339 -0.004284
# 2 -0.000177 0.012855 -0.007705 0.000623 -0.004384 -0.002202
# 3 -0.002939 -0.007705 0.017345 -0.006496 0.007214 -0.000137
# 4 -0.000085 0.000623 -0.006496 0.021666 -0.006330 -0.000064
# 5 0.000339 -0.004384 0.007214 -0.006330 0.025736 -0.002865
# 6 -0.004284 -0.002202 -0.000137 -0.000064 -0.002865 0.025544
#
#
# Mechanical properties :
#
#
# Convention : Reuss Voigt Hill
#
# Bulk Modulus (GPa) = 53.48070 65.67911 59.57991
# Shear Modulus (GPa) = 35.41985 44.41527 39.91756
#
# Velocity S-wave (km/s) = 3.86308 4.32590 4.10103
# Velocity P-wave (km/s) = 6.51389 7.25422 6.89400
#
# Compressibility (1/GPa) = 0.01869833
#
# Stress axis : x y z
#
# Youngs Moduli (GPa) = 98.60535 77.79005 57.65436
#
# Poissons Ratio (x) = 0.01374 0.16947
# Poissons Ratio (y) = 0.01742 0.44425
# Poissons Ratio (z) = 0.28984 0.59941
#
# Static dielectric constant tensor:
#      x y z
#    x 1.890730 -0.052050 0.031490 
#    y -0.052050 1.932040 -0.031930 
#    z 0.031490 -0.031930 1.914140 
# 
# From -- ./inp_files/343884.got.cif
#   From: 2010.05.17/outbox.cif.g08.bks.cpg/sg2_172_cif.got.tgz:343884.got - 2010.06.03 11:33:40.
