data_PCOD9059048
_publ_section_title
;
Structure prediction by ZEFSAII (Michael W. Deem and Ramdas Pophale) SiO2 
 PCOD9059048
Probable space group: P -1
;
_chemical_formula_sum "Si O2"
_cell_formula_units_Z 16
_cell_length_a 5.084708
_cell_length_b 11.626705
_cell_length_c 22.441181
_cell_angle_alpha 147.105819
_cell_angle_beta 113.874752
_cell_angle_gamma 69.834773
_cell_volume 658.825142
_symmetry_space_group_name_H-M "P -1"
_symmetry_group_IT_number 2
_symmetry_cell_setting 'triclinic'
loop_
_space_group_symop_operation_xyz
x,y,z
-x,-y,-z
loop_
_atom_site_type_symbol
_atom_site_label
_atom_site_fract_x
_atom_site_fract_y
_atom_site_fract_z
Si Si1 0.578269 0.419634 0.361374
Si Si2 0.780766 0.597188 0.097237
Si Si3 0.173523 0.180193 0.305102
Si Si4 0.619464 0.918739 0.589985
Si Si5 0.084114 0.185114 0.676602
Si Si6 0.599612 0.205156 0.061391
Si Si7 0.854192 0.804964 0.078016
Si Si8 0.217629 0.406026 0.207035
O O1 0.382382 0.344796 0.364941
O O2 0.608271 0.670564 0.467417
O O3 0.416557 0.346765 0.255061
O O4 0.884040 0.307682 0.349762
O O5 0.764506 0.672693 0.195953
O O6 0.844297 0.788570 0.141402
O O7 0.500000 0.500000 0.000000
O O8 0.017316 0.413983 0.030459
O O9 0.322800 0.078326 0.332212
O O10 0.066789 0.998636 0.170635
O O11 0.324451 0.045520 0.605684
O O12 0.868110 0.032774 0.625624
O O13 0.909756 0.356252 0.696261
O O14 0.423529 0.388481 0.160614
O O15 0.935996 0.257094 0.112781
O O16 0.457805 0.174930 0.970762
O O17 0.500000 0.000000 0.000000
#
# Coordination Sequence:
#
# PCOD9059048 Si02
#       8
#     2   2   2   2   2   2   2   2
#     4  12  27  47  72  99 138 186 233 288 344 409
#     4  11  23  40  65 100 138 177 223 277 338 412
#     4  12  25  46  71 105 138 177 234 286 344 421
#     4  12  26  47  73 103 135 182 231 294 357 393
#     4  12  25  45  71 102 144 176 231 293 339 413
#     4  12  25  44  66 100 142 187 230 273 336 414
#     4  11  24  39  68  99 135 182 218 275 347 402
#     4  12  26  46  68 101 141 182 236 283 336 412
#
# _framework density 24.285654000000001
#
# number of rings (size 3 to 8) (size 9 to 14) (size 15 to 20)
#    0.000    0.250    2.500    7.125    3.500    1.000 
#    0.000    0.000    0.000    0.000    0.000    0.000 
#    0.000    0.000    0.000    0.000    0.000    0.000 
#
# Total GULP energy -89689.110012 kJ/mol
# GULP energy per Si atom -5605.569376 kJ/mol
# Density = 2.423038 g / cm^3
# Si number density = 24.285654 Si / 1000 Ang^3
#
#
#
# Elastic Constant Matrix: (Units=GPa)
#
#
# Indices 1 2 3 4 5 6 
#
# 1 177.4257 57.7867 -25.7374 28.5314 -32.2710 30.5454
# 2 57.7867 88.8075 -35.3168 25.8775 -34.8803 26.1115
# 3 -25.7374 -35.3168 81.6888 3.2716 38.6392 -16.6151
# 4 28.5314 25.8775 3.2716 47.2079 -12.7476 11.0015
# 5 -32.2710 -34.8803 38.6392 -12.7476 65.7647 -10.8042
# 6 30.5454 26.1115 -16.6151 11.0015 -10.8042 49.7025
#
#
#
# Elastic Compliance Matrix: (Units=1/GPa)
#
#
# Indices 1 2 3 4 5 6 
#
# 1 0.007626 -0.003204 0.000036 -0.001983 0.001263 -0.002278
# 2 -0.003204 0.020590 0.005412 -0.007610 0.003955 -0.004495
# 3 0.000036 0.005412 0.020377 -0.007933 -0.010044 0.003519
# 4 -0.001983 -0.007610 -0.007933 0.029062 0.004822 -0.002820
# 5 0.001263 0.003955 -0.010044 0.004822 0.024435 -0.001967
# 6 -0.002278 -0.004495 0.003519 -0.002820 -0.001967 0.025254
#
#
# Mechanical properties :
#
#
# Convention : Reuss Voigt Hill
#
# Bulk Modulus (GPa) = 18.83930 37.93188 28.38559
# Shear Modulus (GPa) = 35.57502 55.94765 45.76134
#
# Velocity S-wave (km/s) = 3.83150 4.80493 4.34556
# Velocity P-wave (km/s) = 5.22954 6.81440 6.07388
#
# Compressibility (1/GPa) = 0.05308054
#
# Stress axis : x y z
#
# Youngs Moduli (GPa) = 131.13622 48.56815 49.07522
#
# Poissons Ratio (x) = 0.15562 -0.00178
# Poissons Ratio (y) = 0.42017 -0.26559
# Poissons Ratio (z) = -0.00476 -0.26285
#
# Static dielectric constant tensor:
#      x y z
#    x 1.897570 -0.019120 -0.008710 
#    y -0.019120 1.895790 0.010500 
#    z -0.008710 0.010500 1.961510 
# 
# From -- ./inp_files/68569.got.cif
#   From: 2010.05.17/outbox.cif.g08.bks.cpg/sg2_35_cif.got.tgz:68569.got - 2010.06.03 11:33:40.
