data_PCOD9059965
_publ_section_title
;
Structure prediction by ZEFSAII (Michael W. Deem and Ramdas Pophale) SiO2 
 PCOD9059965
Probable space group: P -1
;
_chemical_formula_sum "Si O2"
_cell_formula_units_Z 16
_cell_length_a 20.335658
_cell_length_b 11.484084
_cell_length_c 11.363564
_cell_angle_alpha 137.095036
_cell_angle_beta 149.792449
_cell_angle_gamma 31.983778
_cell_volume 707.236512
_symmetry_space_group_name_H-M "P -1"
_symmetry_group_IT_number 2
_symmetry_cell_setting 'triclinic'
loop_
_space_group_symop_operation_xyz
x,y,z
-x,-y,-z
loop_
_atom_site_type_symbol
_atom_site_label
_atom_site_fract_x
_atom_site_fract_y
_atom_site_fract_z
Si Si1 0.866386 0.753097 0.524382
Si Si2 0.100589 0.852942 0.862899
Si Si3 0.475498 0.156319 0.938949
Si Si4 0.349502 0.492475 0.788300
Si Si5 0.074617 0.266375 0.121988
Si Si6 0.375640 0.519393 0.227404
Si Si7 0.656663 0.761903 0.609450
Si Si8 0.265551 0.322391 0.078729
O O1 0.678626 0.845409 0.268746
O O2 0.862352 0.766838 0.670343
O O3 0.000000 0.500000 0.500000
O O4 0.947226 0.858587 0.672853
O O5 0.198650 0.697739 0.784835
O O6 0.245393 0.731040 0.100205
O O7 0.037036 0.096589 0.924036
O O8 0.425275 0.280138 0.829195
O O9 0.647046 0.913897 0.014117
O O10 0.480941 0.311260 0.149480
O O11 0.302735 0.436301 0.553883
O O12 0.500000 0.500000 0.000000
O O13 0.199764 0.217826 0.177288
O O14 0.926688 0.525204 0.072954
O O15 0.500000 0.500000 0.500000
O O16 0.268165 0.474409 0.103652
O O17 0.634742 0.722490 0.680340
O O18 0.500000 0.000000 0.500000
#
# Coordination Sequence:
#
# PCOD9059965 Si02
#       8
#     2   2   2   2   2   2   2   2
#     4  12  20  44  74 103 137 183 240 287 352 421
#     4  11  25  44  73 105 142 190 232 297 358 415
#     4  11  24  45  73 104 138 190 233 293 357 418
#     4  11  23  42  72 101 134 183 244 285 344 419
#     4  12  25  45  68 105 142 184 237 290 356 424
#     4  11  26  42  68 108 143 177 233 294 356 418
#     4  12  24  45  73 100 136 192 238 288 348 425
#     4  12  26  44  67 105 143 184 232 287 359 423
#
# _framework density 22.623266000000001
#
# number of rings (size 3 to 8) (size 9 to 14) (size 15 to 20)
#    0.000    0.500    6.250    1.875    7.000    0.000 
#    0.000    1.875    0.000    0.000    0.000    0.000 
#    0.000    0.000    0.000    0.000    0.000    0.000 
#
# Total GULP energy -89443.034884 kJ/mol
# GULP energy per Si atom -5590.189680 kJ/mol
# Density = 2.257177 g / cm^3
# Si number density = 22.623266 Si / 1000 Ang^3
#
#
#
# Elastic Constant Matrix: (Units=GPa)
#
#
# Indices 1 2 3 4 5 6 
#
# 1 80.7243 20.2531 3.9688 6.4374 -5.4044 3.4420
# 2 20.2531 129.6691 22.6994 -2.5514 9.2994 -16.5163
# 3 3.9688 22.6994 64.7774 20.3696 2.3006 4.9977
# 4 6.4374 -2.5514 20.3696 24.3827 -4.7184 7.5261
# 5 -5.4044 9.2994 2.3006 -4.7184 55.4864 3.6787
# 6 3.4420 -16.5163 4.9977 7.5261 3.6787 21.5464
#
#
#
# Elastic Compliance Matrix: (Units=1/GPa)
#
#
# Indices 1 2 3 4 5 6 
#
# 1 0.013679 -0.003136 0.001702 -0.003809 0.001725 -0.003948
# 2 -0.003136 0.010440 -0.004989 0.002873 -0.002203 0.009033
# 3 0.001702 -0.004989 0.023728 -0.020420 -0.001573 -0.002199
# 4 -0.003809 0.002873 -0.020420 0.065787 0.006687 -0.016574
# 5 0.001725 -0.002203 -0.001573 0.006687 0.019677 -0.007295
# 6 -0.003948 0.009033 -0.002199 -0.016574 -0.007295 0.061511
#
#
# Mechanical properties :
#
#
# Convention : Reuss Voigt Hill
#
# Bulk Modulus (GPa) = 28.57037 41.00148 34.78592
# Shear Modulus (GPa) = 22.79622 35.49975 29.14798
#
# Velocity S-wave (km/s) = 3.17779 3.96557 3.59333
# Velocity P-wave (km/s) = 5.11083 6.25545 5.71188
#
# Compressibility (1/GPa) = 0.03500130
#
# Stress axis : x y z
#
# Youngs Moduli (GPa) = 73.10740 95.78426 42.14462
#
# Poissons Ratio (x) = 0.30037 -0.07172
# Poissons Ratio (y) = 0.22926 0.21024
# Poissons Ratio (z) = -0.12442 0.47782
#
# Static dielectric constant tensor:
#      x y z
#    x 1.942590 -0.005410 -0.037820 
#    y -0.005410 1.838220 -0.020290 
#    z -0.037820 -0.020290 1.901500 
# 
# From -- ./inp_files/471239.got.cif
#   From: 2010.05.17/outbox.cif.g08.bks.cpg/sg2_236_cif.got.tgz:471239.got - 2010.06.03 11:33:40.
