data_PCOD9059313
_publ_section_title
;
Structure prediction by ZEFSAII (Michael W. Deem and Ramdas Pophale) SiO2 
 PCOD9059313
Probable space group: P -1
;
_chemical_formula_sum "Si O2"
_cell_formula_units_Z 12
_cell_length_a 8.336988
_cell_length_b 8.199370
_cell_length_c 20.246704
_cell_angle_alpha 133.518173
_cell_angle_beta 135.281683
_cell_angle_gamma 35.643533
_cell_volume 546.249801
_symmetry_space_group_name_H-M "P -1"
_symmetry_group_IT_number 2
_symmetry_cell_setting 'triclinic'
loop_
_space_group_symop_operation_xyz
x,y,z
-x,-y,-z
loop_
_atom_site_type_symbol
_atom_site_label
_atom_site_fract_x
_atom_site_fract_y
_atom_site_fract_z
Si Si1 0.189025 0.220289 0.932437
Si Si2 0.170498 0.272835 0.233359
Si Si3 0.149837 0.487134 0.607088
Si Si4 0.411911 0.312128 0.891936
Si Si5 0.203558 0.940996 0.273237
Si Si6 0.838018 0.329711 0.568894
O O1 0.249825 0.285008 0.896383
O O2 0.974819 0.142482 0.838339
O O3 0.000000 0.500000 0.000000
O O4 0.500000 0.000000 0.000000
O O5 0.192002 0.528134 0.327719
O O6 0.823041 0.472529 0.172905
O O7 0.346647 0.018736 0.157785
O O8 0.274018 0.077621 0.274719
O O9 0.498157 0.283628 0.661882
O O10 0.000000 0.500000 0.500000
O O11 0.015939 0.403109 0.599126
O O12 0.027630 0.809496 0.674621
O O13 0.500000 0.500000 0.000000
O O14 0.500000 0.500000 0.500000
O O15 0.000000 0.000000 0.500000
#
# Coordination Sequence:
#
# PCOD9059313 Si02
#       6
#     2   2   2   2   2   2
#     4  12  25  43  66  96 130 169 213 265 324 388
#     4  11  23  42  64  92 127 167 214 263 320 381
#     4  11  24  42  64  93 128 170 213 261 321 382
#     4  12  24  41  66  96 126 166 212 265 320 383
#     4  11  23  43  64  90 129 171 210 263 321 378
#     4  11  23  41  65  93 127 167 212 267 320 374
#
# _framework density 21.967970999999999
#
# number of rings (size 3 to 8) (size 9 to 14) (size 15 to 20)
#    0.000    0.667    0.000   10.000    0.000    4.000 
#    0.000    0.000    0.000    0.000    0.000    0.000 
#    0.000    0.000    0.000    0.000    0.000    0.000 
#
# Total GULP energy -66881.058743 kJ/mol
# GULP energy per Si atom -5573.421562 kJ/mol
# Density = 2.191797 g / cm^3
# Si number density = 21.967971 Si / 1000 Ang^3
#
#
#
# Elastic Constant Matrix: (Units=GPa)
#
#
# Indices 1 2 3 4 5 6 
#
# 1 192.7904 185.5326 213.5506 -55.3605 -34.6511 -427.5623
# 2 185.5326 376.2285 325.4577 -68.3480 -29.0238 -486.7417
# 3 213.5506 325.4577 505.0957 -73.3566 -35.2283 -601.3217
# 4 -55.3605 -68.3480 -73.3566 97.5369 5.8389 175.4977
# 5 -34.6511 -29.0238 -35.2283 5.8389 43.4990 84.1639
# 6 -427.5623 -486.7417 -601.3217 175.4977 84.1639 1140.1681
#
#
#
# Elastic Compliance Matrix: (Units=1/GPa)
#
#
# Indices 1 2 3 4 5 6 
#
# 1 0.034161 -0.001807 0.003351 -0.005679 0.001259 0.014587
# 2 -0.001807 0.007091 -0.002699 0.000266 -0.000749 0.000940
# 3 0.003351 -0.002699 0.006813 -0.002233 -0.001322 0.004139
# 4 -0.005679 0.000266 -0.002233 0.015914 0.003066 -0.005870
# 5 0.001259 -0.000749 -0.001322 0.003066 0.027972 -0.003082
# 6 0.014587 0.000940 0.004139 -0.005870 -0.003082 0.010063
#
#
# Mechanical properties :
#
#
# Convention : Reuss Voigt Hill
#
# Bulk Modulus (GPa) = 21.85594 280.35518 151.10556
# Shear Modulus (GPa) = 41.81398 279.54572 160.67985
#
# Velocity S-wave (km/s) = 4.36754 11.29282 8.56163
# Velocity P-wave (km/s) = 5.95016 17.26077 12.91004
#
# Compressibility (1/GPa) = 0.04575416
#
# Stress axis : x y z
#
# Youngs Moduli (GPa) = 29.27300 141.01748 146.77520
#
# Poissons Ratio (x) = 0.25483 -0.49180
# Poissons Ratio (y) = 0.05290 0.39620
# Poissons Ratio (z) = -0.09809 0.38066
#
# Static dielectric constant tensor:
#      x y z
#    x 1.809800 0.027160 -0.031790 
#    y 0.027160 1.819480 0.076280 
#    z -0.031790 0.076280 1.794480 
# 
# From -- ./inp_files/202362.got.cif
#   From: 2010.05.17/outbox.cif.g08.bks.cpg/sg2_102_cif.got.tgz:202362.got - 2010.06.03 11:33:40.
