data_PCOD9059825
_publ_section_title
;
Structure prediction by ZEFSAII (Michael W. Deem and Ramdas Pophale) SiO2 
 PCOD9059825
Probable space group: P -1
;
_chemical_formula_sum "Si O2"
_cell_formula_units_Z 16
_cell_length_a 8.234491
_cell_length_b 13.089493
_cell_length_c 15.140474
_cell_angle_alpha 150.553786
_cell_angle_beta 128.782952
_cell_angle_gamma 59.420934
_cell_volume 622.504223
_symmetry_space_group_name_H-M "P -1"
_symmetry_group_IT_number 2
_symmetry_cell_setting 'triclinic'
loop_
_space_group_symop_operation_xyz
x,y,z
-x,-y,-z
loop_
_atom_site_type_symbol
_atom_site_label
_atom_site_fract_x
_atom_site_fract_y
_atom_site_fract_z
Si Si1 0.345736 0.788927 0.576929
Si Si2 0.837057 0.770438 0.165660
Si Si3 0.969988 0.986911 0.873819
Si Si4 0.468535 0.420936 0.807403
Si Si5 0.202844 0.886879 0.269655
Si Si6 0.668394 0.608794 0.449666
Si Si7 0.907065 0.717515 0.347316
Si Si8 0.421998 0.212688 0.166863
O O1 0.477440 0.754883 0.509546
O O2 0.503696 0.750803 0.679938
O O3 0.126402 0.645907 0.401311
O O4 0.269951 0.017349 0.728974
O O5 0.943778 0.780607 0.305803
O O6 0.003585 0.732004 0.118198
O O7 0.646672 0.597556 0.976998
O O8 0.888140 0.735839 0.649068
O O9 0.811830 0.064289 0.802651
O O10 0.000000 0.000000 0.000000
O O11 0.175766 0.135818 0.024145
O O12 0.590385 0.217979 0.713599
O O13 0.317208 0.422870 0.672586
O O14 0.299015 0.444213 0.843642
O O15 0.157625 0.088266 0.467702
O O16 0.557255 0.398013 0.298940
O O17 0.500000 0.000000 0.000000
#
# Coordination Sequence:
#
# PCOD9059825 Si02
#       8
#     2   2   2   2   2   2   2   2
#     4  11  24  46  69  96 145 194 239 299 360 431
#     4  11  24  44  68 108 146 190 241 300 373 435
#     4  12  27  48  75 114 144 196 252 297 358 440
#     4  12  24  42  72 110 144 186 243 307 365 433
#     4  11  23  45  73 101 148 189 241 298 369 436
#     4  12  26  50  74 106 149 195 245 299 371 431
#     4  11  23  42  69 106 142 188 239 295 368 431
#     4  12  27  50  74 106 146 192 247 302 365 435
#
# _framework density 25.702639000000001
#
# number of rings (size 3 to 8) (size 9 to 14) (size 15 to 20)
#    0.000    0.500    2.500    7.500    1.750    1.500 
#    4.500    0.000    0.000    0.000    0.000    0.000 
#    0.000    0.000    0.000    0.000    0.000    0.000 
#
# Total GULP energy -89244.669972 kJ/mol
# GULP energy per Si atom -5577.791873 kJ/mol
# Density = 2.564414 g / cm^3
# Si number density = 25.702639 Si / 1000 Ang^3
#
#
#
# Elastic Constant Matrix: (Units=GPa)
#
#
# Indices 1 2 3 4 5 6 
#
# 1 68.6348 17.5118 22.3481 16.0642 33.0433 15.3219
# 2 17.5118 89.4390 47.2534 7.0679 8.8497 22.6842
# 3 22.3481 47.2534 152.4152 12.5266 41.5466 3.9394
# 4 16.0642 7.0679 12.5266 46.7721 12.0146 2.4232
# 5 33.0433 8.8497 41.5466 12.0146 56.5663 2.4490
# 6 15.3219 22.6842 3.9394 2.4232 2.4490 37.3102
#
#
#
# Elastic Compliance Matrix: (Units=1/GPa)
#
#
# Indices 1 2 3 4 5 6 
#
# 1 0.023714 -0.001670 0.001202 -0.004424 -0.013201 -0.007696
# 2 -0.001670 0.016324 -0.005306 -0.000750 0.002860 -0.008818
# 3 0.001202 -0.005306 0.009975 -0.000552 -0.007175 0.002186
# 4 -0.004424 -0.000750 -0.000552 0.023614 -0.001948 0.000925
# 5 -0.013201 0.002860 -0.007175 -0.001948 0.030515 0.002563
# 6 -0.007696 -0.008818 0.002186 0.000925 0.002563 0.034865
#
#
# Mechanical properties :
#
#
# Convention : Reuss Voigt Hill
#
# Bulk Modulus (GPa) = 25.99906 53.85729 39.92817
# Shear Modulus (GPa) = 30.60433 43.02142 36.81288
#
# Velocity S-wave (km/s) = 3.45441 4.09567 3.78863
# Velocity P-wave (km/s) = 5.10371 6.58524 5.89123
#
# Compressibility (1/GPa) = 0.03846292
#
# Stress axis : x y z
#
# Youngs Moduli (GPa) = 42.16983 61.26006 100.25385
#
# Poissons Ratio (x) = 0.10232 -0.12047
# Poissons Ratio (y) = 0.07043 0.53195
# Poissons Ratio (z) = -0.05068 0.32505
#
# Static dielectric constant tensor:
#      x y z
#    x 2.129310 0.077870 0.070970 
#    y 0.077870 2.049100 0.072650 
#    z 0.070970 0.072650 2.213150 
# 
# From -- ./inp_files/318070.got.cif
#   From: 2010.05.17/outbox.cif.g08.bks.cpg/sg2_160_cif.got.tgz:318070.got - 2010.06.03 11:33:40.
