data_PCOD9059092
_publ_section_title
;
Structure prediction by ZEFSAII (Michael W. Deem and Ramdas Pophale) SiO2 
 PCOD9059092
Probable space group: P -1
;
_chemical_formula_sum "Si O2"
_cell_formula_units_Z 12
_cell_length_a 11.478004
_cell_length_b 8.031691
_cell_length_c 7.992612
_cell_angle_alpha 63.517014
_cell_angle_beta 128.747727
_cell_angle_gamma 125.558987
_cell_volume 463.574694
_symmetry_space_group_name_H-M "P -1"
_symmetry_group_IT_number 2
_symmetry_cell_setting 'triclinic'
loop_
_space_group_symop_operation_xyz
x,y,z
-x,-y,-z
loop_
_atom_site_type_symbol
_atom_site_label
_atom_site_fract_x
_atom_site_fract_y
_atom_site_fract_z
Si Si1 0.380270 0.399610 0.700395
Si Si2 0.051358 0.604727 0.768358
Si Si3 0.211740 0.019748 0.266722
Si Si4 0.300338 0.484676 0.216473
Si Si5 0.730002 0.306447 0.401618
Si Si6 0.899629 0.988744 0.191800
O O1 0.338053 0.469224 0.450836
O O2 0.538760 0.362435 0.809841
O O3 0.396818 0.591349 0.746121
O O4 0.237417 0.200356 0.746063
O O5 0.186792 0.667398 0.714208
O O6 0.883877 0.438283 0.607157
O O7 0.036265 0.807870 0.727952
O O8 0.140436 0.522636 0.022769
O O9 0.270638 0.262430 0.218105
O O10 0.330468 0.928395 0.490351
O O11 0.173131 0.960940 0.065572
O O12 0.045874 0.936750 0.272121
#
# Coordination Sequence:
#
# PCOD9059092 Si02
#       6
#     2   2   2   2   2   2
#     4  11  25  44  66  95 131 169 211 263 321 378
#     4  11  23  41  67  96 128 168 214 263 316 377
#     4  11  23  40  66  97 127 167 215 262 316 377
#     4  11  25  44  66  95 131 169 211 263 321 378
#     4  11  23  40  66  97 127 167 215 262 316 377
#     4  11  23  41  67  96 128 168 214 263 316 377
#
# _framework density 25.885795999999999
#
# number of rings (size 3 to 8) (size 9 to 14) (size 15 to 20)
#    0.000    1.000    0.000    8.000    0.000    8.000 
#    0.000    0.000    0.000    0.000    0.000    0.000 
#    0.000    0.000    0.000    0.000    0.000    0.000 
#
# Total GULP energy -67251.234910 kJ/mol
# GULP energy per Si atom -5604.269576 kJ/mol
# Density = 2.582688 g / cm^3
# Si number density = 25.885796 Si / 1000 Ang^3
#
#
#
# Elastic Constant Matrix: (Units=GPa)
#
#
# Indices 1 2 3 4 5 6 
#
# 1 168.8264 43.5771 41.2742 -11.7293 -14.5982 19.1847
# 2 43.5771 71.9226 7.0218 -23.4687 -7.5906 -4.7134
# 3 41.2742 7.0218 85.7822 -7.0229 -3.0471 3.2110
# 4 -11.7293 -23.4687 -7.0229 34.8547 -11.2643 -8.8740
# 5 -14.5982 -7.5906 -3.0471 -11.2643 45.4679 -3.8872
# 6 19.1847 -4.7134 3.2110 -8.8740 -3.8872 52.0388
#
#
#
# Elastic Compliance Matrix: (Units=1/GPa)
#
#
# Indices 1 2 3 4 5 6 
#
# 1 0.008687 -0.005972 -0.003744 -0.002677 0.000542 -0.003928
# 2 -0.005972 0.025352 0.002442 0.020365 0.008245 0.008436
# 3 -0.003744 0.002442 0.013564 0.003895 0.001210 0.001519
# 4 -0.002677 0.020365 0.003895 0.050780 0.016449 0.012479
# 5 0.000542 0.008245 0.001210 0.016449 0.028160 0.005381
# 6 -0.003928 0.008436 0.001519 0.012479 0.005381 0.023865
#
#
# Mechanical properties :
#
#
# Convention : Reuss Voigt Hill
#
# Bulk Modulus (GPa) = 30.25105 56.69748 43.47427
# Shear Modulus (GPa) = 28.41341 42.11615 35.26478
#
# Velocity S-wave (km/s) = 3.31667 4.03798 3.69497
# Velocity P-wave (km/s) = 5.13603 6.60991 5.91902
#
# Compressibility (1/GPa) = 0.03305670
#
# Stress axis : x y z
#
# Youngs Moduli (GPa) = 115.11101 39.44500 73.72516
#
# Poissons Ratio (x) = 0.23555 0.27602
# Poissons Ratio (y) = 0.68740 -0.18007
# Poissons Ratio (z) = 0.43096 -0.09634
#
# Static dielectric constant tensor:
#      x y z
#    x 2.035000 0.030240 0.009320 
#    y 0.030240 2.054640 0.027810 
#    z 0.009320 0.027810 2.096240 
# 
# From -- ./inp_files/242727.got.cif
#   From: 2010.05.17/outbox.cif.g08.bks.cpg/sg2_122_cif.got.tgz:242727.got - 2010.06.03 11:33:40.
