data_PCOD9059908
_publ_section_title
;
Structure prediction by ZEFSAII (Michael W. Deem and Ramdas Pophale) SiO2 
 PCOD9059908
Probable space group: P -1
;
_chemical_formula_sum "Si O2"
_cell_formula_units_Z 16
_cell_length_a 12.260274
_cell_length_b 11.211436
_cell_length_c 9.032418
_cell_angle_alpha 126.695195
_cell_angle_beta 125.527257
_cell_angle_gamma 52.143151
_cell_volume 739.566107
_symmetry_space_group_name_H-M "P -1"
_symmetry_group_IT_number 2
_symmetry_cell_setting 'triclinic'
loop_
_space_group_symop_operation_xyz
x,y,z
-x,-y,-z
loop_
_atom_site_type_symbol
_atom_site_label
_atom_site_fract_x
_atom_site_fract_y
_atom_site_fract_z
Si Si1 0.196730 0.787115 0.888060
Si Si2 0.131031 0.536580 0.062371
Si Si3 0.141641 0.994661 0.259452
Si Si4 0.856140 0.140644 0.556836
Si Si5 0.657792 0.106835 0.147681
Si Si6 0.349292 0.218947 0.148281
Si Si7 0.843951 0.523808 0.317958
Si Si8 0.650522 0.849718 0.557706
O O1 0.326603 0.826457 0.951308
O O2 0.203720 0.609326 0.743476
O O3 0.186311 0.828033 0.083035
O O4 0.034366 0.913403 0.799240
O O5 0.118534 0.713269 0.236831
O O6 0.266495 0.397715 0.149848
O O7 0.136261 0.508874 0.867851
O O8 0.000000 0.500000 0.000000
O O9 0.204792 0.950053 0.439007
O O10 0.214068 0.094621 0.300402
O O11 0.743545 0.191044 0.372385
O O12 0.000000 0.000000 0.500000
O O13 0.503101 0.155758 0.137988
O O14 0.723454 0.909458 0.044657
O O15 0.364488 0.207205 0.329866
O O16 0.713635 0.697998 0.381800
O O17 0.000000 0.500000 0.500000
O O18 0.500000 0.000000 0.500000
#
# Coordination Sequence:
#
# PCOD9059908 Si02
#       8
#     2   2   2   2   2   2   2   2
#     4  11  23  44  71 101 138 187 238 304 352 428
#     4  12  29  45  71 109 150 190 245 304 368 439
#     4  11  23  42  71 101 141 182 244 294 360 424
#     4  12  25  43  70 107 144 187 241 298 363 435
#     4  11  25  45  75  98 144 193 238 295 374 425
#     4  11  27  49  71 105 150 190 243 301 368 446
#     4  12  27  47  75 109 145 192 248 306 364 432
#     4  12  27  47  76 106 147 194 243 299 369 437
#
# _framework density 21.634307
#
# number of rings (size 3 to 8) (size 9 to 14) (size 15 to 20)
#    0.000    0.500    5.000    2.250   10.500    0.500 
#    2.250    1.250    0.000    0.000    0.000    0.000 
#    0.000    0.000    0.000    0.000    0.000    0.000 
#
# Total GULP energy -89279.637049 kJ/mol
# GULP energy per Si atom -5579.977316 kJ/mol
# Density = 2.158507 g / cm^3
# Si number density = 21.634307 Si / 1000 Ang^3
#
#
#
# Elastic Constant Matrix: (Units=GPa)
#
#
# Indices 1 2 3 4 5 6 
#
# 1 130.5052 44.2150 42.5648 13.2569 -13.6231 12.0161
# 2 44.2150 88.6207 55.4791 15.9299 -22.3062 -1.6193
# 3 42.5648 55.4791 118.8219 20.0875 -19.7568 1.2711
# 4 13.2569 15.9299 20.0875 40.3832 8.8886 -2.4925
# 5 -13.6231 -22.3062 -19.7568 8.8886 34.7727 -0.2182
# 6 12.0161 -1.6193 1.2711 -2.4925 -0.2182 32.9864
#
#
#
# Elastic Compliance Matrix: (Units=1/GPa)
#
#
# Indices 1 2 3 4 5 6 
#
# 1 0.009980 -0.003572 -0.001371 -0.001700 0.001250 -0.003878
# 2 -0.003572 0.020132 -0.005443 -0.006134 0.010004 0.002102
# 3 -0.001371 -0.005443 0.013070 -0.004969 0.004664 -0.000616
# 4 -0.001700 -0.006134 -0.004969 0.033935 -0.016080 0.002967
# 5 0.001250 0.010004 0.004664 -0.016080 0.042419 -0.001078
# 6 -0.003878 0.002102 -0.000616 0.002967 -0.001078 0.032072
#
#
# Mechanical properties :
#
#
# Convention : Reuss Voigt Hill
#
# Bulk Modulus (GPa) = 44.61747 69.16283 56.89015
# Shear Modulus (GPa) = 27.80091 34.67437 31.23764
#
# Velocity S-wave (km/s) = 3.58863 4.00778 3.80398
# Velocity P-wave (km/s) = 6.15136 7.31128 6.75626
#
# Compressibility (1/GPa) = 0.02241275
#
# Stress axis : x y z
#
# Youngs Moduli (GPa) = 100.20094 49.67101 76.50905
#
# Poissons Ratio (x) = 0.17742 0.10486
# Poissons Ratio (y) = 0.35790 0.41641
# Poissons Ratio (z) = 0.13733 0.27034
#
# Static dielectric constant tensor:
#      x y z
#    x 1.734090 0.005120 0.041660 
#    y 0.005120 1.831610 -0.030540 
#    z 0.041660 -0.030540 1.803370 
# 
# From -- ./inp_files/263569.got.cif
#   From: 2010.05.17/outbox.cif.g08.bks.cpg/sg2_132_cif.got.tgz:263569.got - 2010.06.03 11:33:40.
