data_PCOD9059616
_publ_section_title
;
Structure prediction by ZEFSAII (Michael W. Deem and Ramdas Pophale) SiO2 
 PCOD9059616
Probable space group: P -1
;
_chemical_formula_sum "Si O2"
_cell_formula_units_Z 15
_cell_length_a 15.181926
_cell_length_b 11.019842
_cell_length_c 8.894275
_cell_angle_alpha 111.903908
_cell_angle_beta 106.023729
_cell_angle_gamma 133.484112
_cell_volume 612.369933
_symmetry_space_group_name_H-M "P -1"
_symmetry_group_IT_number 2
_symmetry_cell_setting 'triclinic'
loop_
_space_group_symop_operation_xyz
x,y,z
-x,-y,-z
loop_
_atom_site_type_symbol
_atom_site_label
_atom_site_fract_x
_atom_site_fract_y
_atom_site_fract_z
Si Si1 0.995613 0.207429 0.028114
Si Si2 0.121650 0.837649 0.346491
Si Si3 0.180151 0.735237 0.579623
Si Si4 0.198634 0.423902 0.746723
Si Si5 0.500000 0.000000 0.000000
Si Si6 0.255464 0.368939 0.425699
Si Si7 0.692331 0.879444 0.969218
Si Si8 0.563356 0.475985 0.891797
O O1 0.003979 0.305061 0.929264
O O2 0.847162 0.900096 0.772990
O O3 0.884292 0.141278 0.079124
O O4 0.186063 0.377588 0.265229
O O5 0.118931 0.697794 0.368265
O O6 0.015279 0.802676 0.397499
O O7 0.354215 0.162360 0.580733
O O8 0.325865 0.799804 0.699449
O O9 0.000000 0.500000 0.500000
O O10 0.305672 0.016286 0.842950
O O11 0.333971 0.720463 0.906875
O O12 0.185730 0.330142 0.539684
O O13 0.305708 0.469876 0.943812
O O14 0.492075 0.657793 0.682477
O O15 0.681162 0.715330 0.940341
O O16 0.500000 0.500000 0.000000
#
# Coordination Sequence:
#
# PCOD9059616 Si02
#       8
#     2   2   2   2   1   2   2   2
#     4  11  27  39  63  99 143 180 214 265 343 410
#     4  12  24  42  64 103 135 171 221 278 330 397
#     4  12  25  45  74  99 127 171 234 286 329 385
#     4  12  25  40  74  99 134 175 229 283 327 392
#     4  12  22  44  72 102 126 174 224 288 334 382
#     4  11  23  42  60  99 135 180 219 264 332 402
#     4  12  24  45  68  98 139 181 214 280 339 402
#     4  12  22  38  65 104 131 169 225 279 337 384
#
# _framework density 24.494993999999998
#
# number of rings (size 3 to 8) (size 9 to 14) (size 15 to 20)
#    0.000    0.267    8.000    1.200    3.733    1.067 
#    0.000    0.667    0.000    2.400    0.000    0.000 
#    0.000    0.000    0.000    0.000    0.000    0.000 
#
# Total GULP energy -83773.143305 kJ/mol
# GULP energy per Si atom -5584.876220 kJ/mol
# Density = 2.443924 g / cm^3
# Si number density = 24.494994 Si / 1000 Ang^3
#
#
#
# Elastic Constant Matrix: (Units=GPa)
#
#
# Indices 1 2 3 4 5 6 
#
# 1 31.2928 -5.9869 34.7319 -11.0061 11.4083 -0.9582
# 2 -5.9869 113.1127 32.8960 -26.6034 18.3094 -26.3857
# 3 34.7319 32.8960 111.6700 -20.6816 32.2312 -31.1690
# 4 -11.0061 -26.6034 -20.6816 54.3981 -18.6856 12.5774
# 5 11.4083 18.3094 32.2312 -18.6856 56.7250 -16.7473
# 6 -0.9582 -26.3857 -31.1690 12.5774 -16.7473 33.2240
#
#
#
# Elastic Compliance Matrix: (Units=1/GPa)
#
#
# Indices 1 2 3 4 5 6 
#
# 1 0.069238 0.009912 -0.027227 0.012235 -0.004251 -0.022449
# 2 0.009912 0.013011 -0.004641 0.005501 -0.000598 0.003881
# 3 -0.027227 -0.004641 0.023859 -0.003738 -0.002477 0.018079
# 4 0.012235 0.005501 -0.003738 0.025021 0.004338 -0.006071
# 5 -0.004251 -0.000598 -0.002477 0.004338 0.023692 0.007379
# 6 -0.022449 0.003881 0.018079 -0.006071 0.007379 0.055512
#
#
# Mechanical properties :
#
#
# Convention : Reuss Voigt Hill
#
# Bulk Modulus (GPa) = 16.07836 42.15081 29.11458
# Shear Modulus (GPa) = 18.18331 41.83174 30.00752
#
# Velocity S-wave (km/s) = 2.72752 4.13700 3.50386
# Velocity P-wave (km/s) = 4.06170 6.32969 5.31800
#
# Compressibility (1/GPa) = 0.06219540
#
# Stress axis : x y z
#
# Youngs Moduli (GPa) = 14.44296 76.85750 41.91261
#
# Poissons Ratio (x) = -0.76182 1.14117
# Poissons Ratio (y) = -0.14316 0.19451
# Poissons Ratio (z) = 0.39325 0.35669
#
# Static dielectric constant tensor:
#      x y z
#    x 2.015370 -0.073060 -0.048940 
#    y -0.073060 1.990170 0.025060 
#    z -0.048940 0.025060 1.954850 
# 
# From -- ./inp_files/332191.got.cif
#   From: 2010.05.17/outbox.cif.g08.bks.cpg/sg2_167_cif.got.tgz:332191.got - 2010.06.03 11:33:40.
