data_PCOD9059428
_publ_section_title
;
Structure prediction by ZEFSAII (Michael W. Deem and Ramdas Pophale) SiO2 
 PCOD9059428
Probable space group: P -1
;
_chemical_formula_sum "Si O2"
_cell_formula_units_Z 12
_cell_length_a 22.494641
_cell_length_b 9.002679
_cell_length_c 7.160705
_cell_angle_alpha 132.266690
_cell_angle_beta 148.568401
_cell_angle_gamma 39.029980
_cell_volume 475.998033
_symmetry_space_group_name_H-M "P -1"
_symmetry_group_IT_number 2
_symmetry_cell_setting 'triclinic'
loop_
_space_group_symop_operation_xyz
x,y,z
-x,-y,-z
loop_
_atom_site_type_symbol
_atom_site_label
_atom_site_fract_x
_atom_site_fract_y
_atom_site_fract_z
Si Si1 0.381106 0.702093 0.729552
Si Si2 0.739639 0.907853 0.999098
Si Si3 0.375699 0.968026 0.610928
Si Si4 0.000164 0.071589 0.347246
Si Si5 0.837423 0.380728 0.756380
Si Si6 0.135515 0.474442 0.433951
O O1 0.397862 0.739994 0.589596
O O2 0.257373 0.671391 0.418319
O O3 0.500000 0.500000 0.000000
O O4 0.350598 0.946554 0.946877
O O5 0.812313 0.627691 0.968751
O O6 0.651094 0.020014 0.671304
O O7 0.859696 0.952863 0.337706
O O8 0.239221 0.200940 0.514758
O O9 0.500000 0.000000 0.000000
O O10 0.897906 0.352847 0.333376
O O11 0.014826 0.858943 0.075676
O O12 0.000000 0.000000 0.500000
O O13 0.799126 0.449320 0.491983
O O14 0.000000 0.500000 0.000000
#
# Coordination Sequence:
#
# PCOD9059428 Si02
#       6
#     2   2   2   2   2   2
#     4  11  24  42  63  96 133 171 223 270 322 396
#     4  10  21  43  67  89 138 170 212 275 330 374
#     4  11  24  41  69  99 127 177 223 260 334 397
#     4   9  17  32  65  95 121 170 215 257 319 388
#     4   9  19  35  62  93 123 170 212 264 323 377
#     4  10  17  37  69  90 130 177 208 263 330 377
#
# _framework density 25.210189
#
# number of rings (size 3 to 8) (size 9 to 14) (size 15 to 20)
#    0.000    2.000    3.333    2.000    0.000    3.333 
#    0.000   12.500    0.000    0.000    0.000    0.000 
#    0.000    0.000    0.000    0.000    0.000    0.000 
#
# Total GULP energy -66970.973126 kJ/mol
# GULP energy per Si atom -5580.914427 kJ/mol
# Density = 2.515281 g / cm^3
# Si number density = 25.210189 Si / 1000 Ang^3
#
#
#
# Elastic Constant Matrix: (Units=GPa)
#
#
# Indices 1 2 3 4 5 6 
#
# 1 75.4113 37.5705 43.3308 -6.9488 1.1918 34.0768
# 2 37.5705 113.5641 32.5867 -0.7929 -16.2114 6.1400
# 3 43.3308 32.5867 94.1215 -7.4137 -2.5031 7.9652
# 4 -6.9488 -0.7929 -7.4137 40.8082 10.5042 -8.6467
# 5 1.1918 -16.2114 -2.5031 10.5042 37.0003 -0.2905
# 6 34.0768 6.1400 7.9652 -8.6467 -0.2905 64.9382
#
#
#
# Elastic Compliance Matrix: (Units=1/GPa)
#
#
# Indices 1 2 3 4 5 6 
#
# 1 0.027945 -0.006509 -0.009552 0.001470 -0.004915 -0.012704
# 2 -0.006509 0.012089 -0.001387 -0.002225 0.006061 0.002174
# 3 -0.009552 -0.001387 0.015355 0.001814 0.000251 0.003503
# 4 0.001470 -0.002225 0.001814 0.027921 -0.008803 0.002895
# 5 -0.004915 0.006061 0.000251 -0.008803 0.032365 0.000948
# 6 -0.012704 0.002174 0.003503 0.002895 0.000948 0.021820
#
#
# Mechanical properties :
#
#
# Convention : Reuss Voigt Hill
#
# Bulk Modulus (GPa) = 48.79301 56.67477 52.73389
# Shear Modulus (GPa) = 27.89834 39.85659 33.87746
#
# Velocity S-wave (km/s) = 3.33021 3.98046 3.66977
# Velocity P-wave (km/s) = 5.84667 6.60720 6.23854
#
# Compressibility (1/GPa) = 0.02049474
#
# Stress axis : x y z
#
# Youngs Moduli (GPa) = 35.78396 82.71867 65.12473
#
# Poissons Ratio (x) = 0.53842 0.62204
# Poissons Ratio (y) = 0.23292 0.09033
# Poissons Ratio (z) = 0.34179 0.11473
#
# Static dielectric constant tensor:
#      x y z
#    x 1.992990 -0.001220 -0.063780 
#    y -0.001220 2.167700 -0.053970 
#    z -0.063780 -0.053970 2.070160 
# 
# From -- ./inp_files/356554.got.cif
#   From: 2010.05.17/outbox.cif.g08.bks.cpg/sg2_179_cif.got.tgz:356554.got - 2010.06.03 11:33:40.
