data_PCOD9059247
_publ_section_title
;
Structure prediction by ZEFSAII (Michael W. Deem and Ramdas Pophale) SiO2 
 PCOD9059247
Probable space group: P -1
;
_chemical_formula_sum "Si O2"
_cell_formula_units_Z 16
_cell_length_a 29.793224
_cell_length_b 6.044896
_cell_length_c 12.060291
_cell_angle_alpha 102.582811
_cell_angle_beta 159.996468
_cell_angle_gamma 75.704732
_cell_volume 719.336405
_symmetry_space_group_name_H-M "P -1"
_symmetry_group_IT_number 2
_symmetry_cell_setting 'triclinic'
loop_
_space_group_symop_operation_xyz
x,y,z
-x,-y,-z
loop_
_atom_site_type_symbol
_atom_site_label
_atom_site_fract_x
_atom_site_fract_y
_atom_site_fract_z
Si Si1 0.846942 0.091455 0.278894
Si Si2 0.441219 0.877628 0.680736
Si Si3 0.054969 0.123860 0.298331
Si Si4 0.904162 0.731342 0.814530
Si Si5 0.632416 0.695079 0.293908
Si Si6 0.929150 0.680374 0.265678
Si Si7 0.545327 0.221344 0.557850
Si Si8 0.771612 0.371432 0.738391
O O1 0.957656 0.263698 0.550867
O O2 0.865619 0.935524 0.413402
O O3 0.876693 0.916906 0.227782
O O4 0.700596 0.210459 0.942095
O O5 0.473471 0.844547 0.622680
O O6 0.297542 0.798040 0.363586
O O7 0.432648 0.128114 0.744777
O O8 0.546033 0.721355 0.985075
O O9 0.140125 0.211777 0.407921
O O10 0.916655 0.278384 0.020276
O O11 0.002325 0.899893 0.104679
O O12 0.777945 0.750121 0.601903
O O13 0.000000 0.500000 0.000000
O O14 0.670548 0.449631 0.412951
O O15 0.000000 0.500000 0.500000
O O16 0.805254 0.583862 0.912383
O O17 0.500000 0.500000 0.500000
O O18 0.500000 0.000000 0.500000
#
# Coordination Sequence:
#
# PCOD9059247 Si02
#       8
#     2   2   2   2   2   2   2   2
#     4  11  26  45  70 109 139 191 250 301 389 453
#     4  11  27  48  74 104 145 198 263 309 372 465
#     4  11  24  39  66 103 144 178 233 299 373 448
#     4  11  23  42  64 102 143 186 227 300 367 445
#     4  11  24  45  75 102 146 197 252 306 382 440
#     4  11  23  40  76 105 143 183 241 321 372 450
#     4  12  32  55  78 110 157 210 259 322 387 460
#     4  12  22  42  72 109 146 184 246 310 379 448
#
# _framework density 22.242723999999999
#
# number of rings (size 3 to 8) (size 9 to 14) (size 15 to 20)
#    0.000    0.750    3.750    2.625    8.750    1.000 
#    0.000    0.000    0.000    0.000    0.000    0.000 
#    0.000    0.000    0.000    0.000    0.000    0.000 
#
# Total GULP energy -89331.069433 kJ/mol
# GULP energy per Si atom -5583.191840 kJ/mol
# Density = 2.219210 g / cm^3
# Si number density = 22.242724 Si / 1000 Ang^3
#
#
#
# Elastic Constant Matrix: (Units=GPa)
#
#
# Indices 1 2 3 4 5 6 
#
# 1 131.2888 44.7259 25.2462 -9.6185 -16.6202 5.6354
# 2 44.7259 82.5167 24.7706 -11.1230 2.5154 -3.3682
# 3 25.2462 24.7706 80.2610 -20.0667 -9.1324 -3.0363
# 4 -9.6185 -11.1230 -20.0667 47.2866 3.7650 0.5677
# 5 -16.6202 2.5154 -9.1324 3.7650 34.5545 -2.3404
# 6 5.6354 -3.3682 -3.0363 0.5677 -2.3404 32.4291
#
#
#
# Elastic Compliance Matrix: (Units=1/GPa)
#
#
# Indices 1 2 3 4 5 6 
#
# 1 0.010450 -0.005582 -0.001080 -0.000019 0.005005 -0.002135
# 2 -0.005582 0.016631 -0.003433 0.001682 -0.004851 0.001996
# 3 -0.001080 -0.003433 0.015627 0.005318 0.003379 0.001445
# 4 -0.000019 0.001682 0.005318 0.023899 -0.001319 0.000162
# 5 0.005005 -0.004851 0.003379 -0.001319 0.032827 0.001335
# 6 -0.002135 0.001996 0.001445 0.000162 0.001335 0.031644
#
#
# Mechanical properties :
#
#
# Convention : Reuss Voigt Hill
#
# Bulk Modulus (GPa) = 44.40888 53.72797 49.06842
# Shear Modulus (GPa) = 31.49114 36.14231 33.81672
#
# Velocity S-wave (km/s) = 3.76679 4.03538 3.90340
# Velocity P-wave (km/s) = 6.23916 6.77644 6.51335
#
# Compressibility (1/GPa) = 0.02251802
#
# Stress axis : x y z
#
# Youngs Moduli (GPa) = 95.69379 60.12884 63.99042
#
# Poissons Ratio (x) = 0.33564 0.06913
# Poissons Ratio (y) = 0.53417 0.21966
# Poissons Ratio (z) = 0.10338 0.20641
#
# Static dielectric constant tensor:
#      x y z
#    x 1.733870 0.193160 -0.060540 
#    y 0.193160 1.880160 0.033260 
#    z -0.060540 0.033260 1.793040 
# 
# From -- ./inp_files/84539.got.cif
#   From: 2010.05.17/outbox.cif.g08.bks.cpg/sg2_43_cif.got.tgz:84539.got - 2010.06.03 11:33:40.
