data_PCOD9059137
_publ_section_title
;
Structure prediction by ZEFSAII (Michael W. Deem and Ramdas Pophale) SiO2 
 PCOD9059137
Probable space group: P -1
;
_chemical_formula_sum "Si O2"
_cell_formula_units_Z 16
_cell_length_a 9.494548
_cell_length_b 9.282490
_cell_length_c 11.682004
_cell_angle_alpha 94.260522
_cell_angle_beta 98.952789
_cell_angle_gamma 47.101340
_cell_volume 744.319782
_symmetry_space_group_name_H-M "P -1"
_symmetry_group_IT_number 2
_symmetry_cell_setting 'triclinic'
loop_
_space_group_symop_operation_xyz
x,y,z
-x,-y,-z
loop_
_atom_site_type_symbol
_atom_site_label
_atom_site_fract_x
_atom_site_fract_y
_atom_site_fract_z
Si Si1 0.822523 0.469013 0.172772
Si Si2 0.092838 0.262909 0.790858
Si Si3 0.738605 0.128535 0.301238
Si Si4 0.060036 0.137058 0.355033
Si Si5 0.472067 0.558213 0.240637
Si Si6 0.573116 0.246782 0.539253
Si Si7 0.114884 0.780442 0.046253
Si Si8 0.119763 0.548014 0.459794
O O1 0.833959 0.629726 0.159000
O O2 0.637801 0.561234 0.234204
O O3 0.005920 0.289413 0.260156
O O4 0.815041 0.369055 0.057478
O O5 0.011901 0.233393 0.887610
O O6 0.936462 0.394053 0.676511
O O7 0.248637 0.045803 0.743096
O O8 0.577187 0.332009 0.225413
O O9 0.680142 0.185182 0.428746
O O10 0.945688 0.067262 0.305392
O O11 0.958336 0.261315 0.466491
O O12 0.288808 0.960682 0.388306
O O13 0.415941 0.620452 0.369677
O O14 0.296961 0.701174 0.141498
O O15 0.348259 0.366506 0.497194
O O16 0.000000 0.000000 0.000000
O O17 0.000000 0.500000 0.500000
#
# Coordination Sequence:
#
# PCOD9059137 Si02
#       8
#     2   2   2   2   2   2   2   2
#     4  11  24  48  67  98 145 182 233 297 339 415
#     4  12  25  45  69 103 144 181 230 291 353 417
#     4  11  23  40  68 105 141 178 233 291 350 430
#     4  11  23  42  69 100 144 184 234 285 351 420
#     4  11  23  44  69  99 133 183 238 289 352 414
#     4  12  22  38  70 103 142 187 226 284 361 414
#     4  12  26  47  74  98 132 188 243 292 349 405
#     4  12  24  45  65 103 150 184 225 292 351 427
#
# _framework density 21.496136
#
# number of rings (size 3 to 8) (size 9 to 14) (size 15 to 20)
#    0.000    0.500    5.000    5.250    1.750    0.500 
#    2.250    3.750    0.000    0.000    0.000    0.000 
#    0.000    0.000    0.000    0.000    0.000    0.000 
#
# Total GULP energy -89505.989425 kJ/mol
# GULP energy per Si atom -5594.124339 kJ/mol
# Density = 2.144721 g / cm^3
# Si number density = 21.496136 Si / 1000 Ang^3
#
#
#
# Elastic Constant Matrix: (Units=GPa)
#
#
# Indices 1 2 3 4 5 6 
#
# 1 72.5256 62.7389 9.9270 -11.4904 -5.1041 13.2483
# 2 62.7389 135.7490 21.3628 -17.8043 4.0203 -2.5045
# 3 9.9270 21.3628 80.8125 -1.9796 -12.1460 3.4990
# 4 -11.4904 -17.8043 -1.9796 45.0483 -1.6982 4.3757
# 5 -5.1041 4.0203 -12.1460 -1.6982 26.6276 -3.7252
# 6 13.2483 -2.5045 3.4990 4.3757 -3.7252 40.7291
#
#
#
# Elastic Compliance Matrix: (Units=1/GPa)
#
#
# Indices 1 2 3 4 5 6 
#
# 1 0.027462 -0.012898 0.001547 0.003161 0.006779 -0.009578
# 2 -0.012898 0.014272 -0.003151 0.001556 -0.005309 0.004691
# 3 0.001547 -0.003151 0.014137 0.000161 0.007051 -0.001284
# 4 0.003161 0.001556 0.000161 0.024013 0.001502 -0.003389
# 5 0.006779 -0.005309 0.007051 0.001502 0.043058 0.000640
# 6 -0.009578 0.004691 -0.001284 -0.003389 0.000640 0.028489
#
#
# Mechanical properties :
#
#
# Convention : Reuss Voigt Hill
#
# Bulk Modulus (GPa) = 37.22257 53.01605 45.11931
# Shear Modulus (GPa) = 26.40060 35.48490 30.94275
#
# Velocity S-wave (km/s) = 3.50831 4.06736 3.79813
# Velocity P-wave (km/s) = 5.81072 6.83919 6.34582
#
# Compressibility (1/GPa) = 0.02686542
#
# Stress axis : x y z
#
# Youngs Moduli (GPa) = 36.41408 70.06927 70.73826
#
# Poissons Ratio (x) = 0.90379 -0.10945
# Poissons Ratio (y) = 0.46969 0.22291
# Poissons Ratio (z) = -0.05634 0.22080
#
# Static dielectric constant tensor:
#      x y z
#    x 1.771610 0.016640 0.003880 
#    y 0.016640 1.812920 0.019140 
#    z 0.003880 0.019140 1.802300 
# 
# From -- ./inp_files/273412.got.cif
#   From: 2010.05.17/outbox.cif.g08.bks.cpg/sg2_137_cif.got.tgz:273412.got - 2010.06.03 11:33:40.
