data_PCOD9059473
_publ_section_title
;
Structure prediction by ZEFSAII (Michael W. Deem and Ramdas Pophale) SiO2 
 PCOD9059473
Probable space group: P -1
;
_chemical_formula_sum "Si O2"
_cell_formula_units_Z 16
_cell_length_a 18.035626
_cell_length_b 12.771543
_cell_length_c 9.460823
_cell_angle_alpha 131.810460
_cell_angle_beta 73.608870
_cell_angle_gamma 144.905536
_cell_volume 736.815320
_symmetry_space_group_name_H-M "P -1"
_symmetry_group_IT_number 2
_symmetry_cell_setting 'triclinic'
loop_
_space_group_symop_operation_xyz
x,y,z
-x,-y,-z
loop_
_atom_site_type_symbol
_atom_site_label
_atom_site_fract_x
_atom_site_fract_y
_atom_site_fract_z
Si Si1 0.154680 0.068870 0.582403
Si Si2 0.396691 0.719360 0.383474
Si Si3 0.958927 0.428452 0.791923
Si Si4 0.508746 0.368437 0.957400
Si Si5 0.624453 0.254396 0.276606
Si Si6 0.806849 0.269711 0.299717
Si Si7 0.077849 0.383109 0.199502
Si Si8 0.915554 0.924710 0.673814
O O1 0.348346 0.401860 0.794717
O O2 0.084894 0.983657 0.385898
O O3 0.117898 0.848403 0.444868
O O4 0.058898 0.036189 0.693125
O O5 0.451300 0.803465 0.591932
O O6 0.212934 0.484191 0.260647
O O7 0.500000 0.000000 0.500000
O O8 0.426930 0.630793 0.198654
O O9 0.116773 0.686485 0.835970
O O10 0.863208 0.412562 0.770988
O O11 0.000000 0.500000 0.000000
O O12 0.500000 0.500000 0.000000
O O13 0.335329 0.041287 0.820458
O O14 0.722717 0.273764 0.286684
O O15 0.749935 0.571430 0.440600
O O16 0.500000 0.000000 0.000000
O O17 0.938420 0.544621 0.588373
O O18 0.935023 0.060608 0.917978
#
# Coordination Sequence:
#
# PCOD9059473 Si02
#       8
#     2   2   2   2   2   2   2   2
#     4  11  24  42  69 103 143 180 236 290 355 407
#     4  11  24  43  70 101 134 185 231 283 354 419
#     4  12  25  46  69 102 140 187 231 291 356 417
#     4  12  25  47  71 105 146 186 233 292 352 424
#     4  11  24  43  70 100 141 185 235 291 350 422
#     4  11  25  46  69 103 141 188 234 287 358 422
#     4  11  23  43  73  98 141 177 237 289 348 415
#     4  11  23  41  69 106 136 181 234 297 343 415
#
# _framework density 21.715076
#
# number of rings (size 3 to 8) (size 9 to 14) (size 15 to 20)
#    0.000    0.750    6.250    1.875    0.000    5.000 
#    0.000    0.625    0.000    0.000    0.000    0.000 
#    0.000    0.000    0.000    0.000    0.000    0.000 
#
# Total GULP energy -89362.100695 kJ/mol
# GULP energy per Si atom -5585.131293 kJ/mol
# Density = 2.166565 g / cm^3
# Si number density = 21.715076 Si / 1000 Ang^3
#
#
#
# Elastic Constant Matrix: (Units=GPa)
#
#
# Indices 1 2 3 4 5 6 
#
# 1 90.8702 24.4476 47.3852 -5.1272 -23.2184 -15.0798
# 2 24.4476 86.3356 42.1774 -9.5231 -1.7021 4.7106
# 3 47.3852 42.1774 154.2125 -9.0253 1.7387 0.9352
# 4 -5.1272 -9.5231 -9.0253 38.5997 -6.8765 -5.1452
# 5 -23.2184 -1.7021 1.7387 -6.8765 32.7307 -2.1475
# 6 -15.0798 4.7106 0.9352 -5.1452 -2.1475 34.2631
#
#
#
# Elastic Compliance Matrix: (Units=1/GPa)
#
#
# Indices 1 2 3 4 5 6 
#
# 1 0.021535 -0.002999 -0.005745 0.005463 0.017358 0.011955
# 2 -0.002999 0.014151 -0.002811 0.001852 -0.001048 -0.002976
# 3 -0.005745 -0.002811 0.009057 -0.000605 -0.005013 -0.002794
# 4 0.005463 0.001852 -0.000605 0.029840 0.010753 0.007321
# 5 0.017358 -0.001048 -0.005013 0.010753 0.046152 0.012428
# 6 0.011955 -0.002976 -0.002794 0.007321 0.012428 0.036811
#
#
# Mechanical properties :
#
#
# Convention : Reuss Voigt Hill
#
# Bulk Modulus (GPa) = 46.22546 62.15987 54.19267
# Shear Modulus (GPa) = 26.61472 35.61258 31.11365
#
# Velocity S-wave (km/s) = 3.50470 4.05408 3.78936
# Velocity P-wave (km/s) = 6.14091 7.11347 6.64500
#
# Compressibility (1/GPa) = 0.02163310
#
# Stress axis : x y z
#
# Youngs Moduli (GPa) = 46.43657 70.66654 110.41499
#
# Poissons Ratio (x) = 0.21191 0.63437
# Poissons Ratio (y) = 0.13925 0.31034
# Poissons Ratio (z) = 0.26679 0.19862
#
# Static dielectric constant tensor:
#      x y z
#    x 1.818460 -0.022820 0.036270 
#    y -0.022820 1.786280 0.008860 
#    z 0.036270 0.008860 1.790890 
# 
# From -- ./inp_files/333774.got.cif
#   From: 2010.05.17/outbox.cif.g08.bks.cpg/sg2_167_cif.got.tgz:333774.got - 2010.06.03 11:33:40.
