data_PCOD9059314
_publ_section_title
;
Structure prediction by ZEFSAII (Michael W. Deem and Ramdas Pophale) SiO2 
 PCOD9059314
Probable space group: P -1
;
_chemical_formula_sum "Si O2"
_cell_formula_units_Z 16
_cell_length_a 13.922499
_cell_length_b 14.694379
_cell_length_c 13.922602
_cell_angle_alpha 135.443032
_cell_angle_beta 147.076760
_cell_angle_gamma 30.149861
_cell_volume 776.634737
_symmetry_space_group_name_H-M "P -1"
_symmetry_group_IT_number 2
_symmetry_cell_setting 'triclinic'
loop_
_space_group_symop_operation_xyz
x,y,z
-x,-y,-z
loop_
_atom_site_type_symbol
_atom_site_label
_atom_site_fract_x
_atom_site_fract_y
_atom_site_fract_z
Si Si1 0.275172 0.769458 0.955360
Si Si2 0.861600 0.207375 0.931005
Si Si3 0.520714 0.644089 0.449421
Si Si4 0.927923 0.068700 0.599524
Si Si5 0.311585 0.265739 0.808152
Si Si6 0.926112 0.265750 0.422682
Si Si7 0.668233 0.931292 0.996626
Si Si8 0.093475 0.355930 0.164775
O O1 0.196857 0.707590 0.761495
O O2 0.265296 0.718777 0.015932
O O3 0.530901 0.707589 0.095529
O O4 0.067734 0.989359 0.942906
O O5 0.662396 0.272776 0.732095
O O6 0.995071 0.272804 0.064782
O O7 0.712842 0.427918 0.436790
O O8 0.687120 0.688071 0.624841
O O9 0.346068 0.736163 0.465265
O O10 0.954663 0.923470 0.574008
O O11 0.121149 0.072978 0.805870
O O12 0.000000 0.000000 0.500000
O O13 0.497494 0.076512 0.878133
O O14 0.133353 0.270807 0.595856
O O15 0.135308 0.427896 0.859250
O O16 0.798590 0.736149 0.917783
O O17 0.500000 0.000000 0.000000
#
# Coordination Sequence:
#
# PCOD9059314 Si02
#       8
#     2   2   2   2   2   2   2   2
#     4  11  23  41  67  96 129 173 214 259 321 378
#     4  11  23  41  67  96 129 173 214 259 321 378
#     4  11  23  41  65  93 128 167 211 262 315 374
#     4  12  24  42  66  92 127 167 210 264 320 373
#     4  11  23  41  65  93 128 167 211 262 315 374
#     4  11  23  41  65  93 128 167 211 262 315 374
#     4  12  24  42  66  92 127 167 210 264 320 373
#     4  11  23  41  65  93 128 167 211 262 315 374
#
# _framework density 20.601704000000002
#
# number of rings (size 3 to 8) (size 9 to 14) (size 15 to 20)
#    0.000    0.750    5.000    3.000    0.000    4.000 
#    0.000    5.000    0.000    0.000    0.000    0.000 
#    0.000    0.000    0.000    0.000    0.000    0.000 
#
# Total GULP energy -89473.964871 kJ/mol
# GULP energy per Si atom -5592.122804 kJ/mol
# Density = 2.055481 g / cm^3
# Si number density = 20.601704 Si / 1000 Ang^3
#
#
#
# Elastic Constant Matrix: (Units=GPa)
#
#
# Indices 1 2 3 4 5 6 
#
# 1 96.2979 6.3681 42.0824 3.4989 -1.3389 -34.2346
# 2 6.3681 65.6710 22.8284 8.7786 4.7781 -32.6578
# 3 42.0824 22.8284 155.6164 11.3877 18.7408 -19.6037
# 4 3.4989 8.7786 11.3877 29.4478 -10.2421 -1.3295
# 5 -1.3389 4.7781 18.7408 -10.2421 30.2224 0.8102
# 6 -34.2346 -32.6578 -19.6037 -1.3295 0.8102 34.1134
#
#
#
# Elastic Compliance Matrix: (Units=1/GPa)
#
#
# Indices 1 2 3 4 5 6 
#
# 1 0.028411 0.024872 -0.003874 -0.008616 -0.004528 0.049869
# 2 0.024872 0.055414 -0.001815 -0.020749 -0.015616 0.076529
# 3 -0.003874 -0.001815 0.008877 -0.004903 -0.007036 -0.000548
# 4 -0.008616 -0.020749 -0.004903 0.049943 0.023667 -0.029943
# 5 -0.004528 -0.015616 -0.007036 0.023667 0.048377 -0.023764
# 6 0.049869 0.076529 -0.000548 -0.029943 -0.023764 0.151706
#
#
# Mechanical properties :
#
#
# Convention : Reuss Voigt Hill
#
# Bulk Modulus (GPa) = 7.62959 51.12701 29.37830
# Shear Modulus (GPa) = 14.36564 35.17713 24.77139
#
# Velocity S-wave (km/s) = 2.64352 4.13666 3.47132
# Velocity P-wave (km/s) = 3.60957 6.90555 5.50979
#
# Compressibility (1/GPa) = 0.13106856
#
# Stress axis : x y z
#
# Youngs Moduli (GPa) = 35.19709 18.04605 112.64967
#
# Poissons Ratio (x) = -0.44885 0.43638
# Poissons Ratio (y) = -0.87543 0.20450
# Poissons Ratio (z) = 0.13635 0.03276
#
# Static dielectric constant tensor:
#      x y z
#    x 1.722830 -0.038160 -0.003630 
#    y -0.038160 1.751800 0.009950 
#    z -0.003630 0.009950 1.709430 
# 
# From -- ./inp_files/533660.got.cif
#   From: 2010.05.17/outbox.cif.g08.bks.cpg/sg2_267_cif.got.tgz:533660.got - 2010.06.03 11:33:40.
