data_PCOD9059232
_publ_section_title
;
Structure prediction by ZEFSAII (Michael W. Deem and Ramdas Pophale) SiO2 
 PCOD9059232
Probable space group: P -1
;
_chemical_formula_sum "Si O2"
_cell_formula_units_Z 14
_cell_length_a 18.133618
_cell_length_b 22.861864
_cell_length_c 9.638275
_cell_angle_alpha 44.461829
_cell_angle_beta 29.992212
_cell_angle_gamma 20.580494
_cell_volume 585.190976
_symmetry_space_group_name_H-M "P -1"
_symmetry_group_IT_number 2
_symmetry_cell_setting 'triclinic'
loop_
_space_group_symop_operation_xyz
x,y,z
-x,-y,-z
loop_
_atom_site_type_symbol
_atom_site_label
_atom_site_fract_x
_atom_site_fract_y
_atom_site_fract_z
Si Si1 0.903142 0.976459 0.988615
Si Si2 0.076684 0.857329 0.203838
Si Si3 0.902926 0.798313 0.239389
Si Si4 0.903726 0.773085 0.757599
Si Si5 0.289116 0.346126 0.166934
Si Si6 0.747109 0.451955 0.160528
Si Si7 0.873643 0.437227 0.501983
O O1 0.022142 0.010939 0.764857
O O2 0.605205 0.139787 0.081560
O O3 0.076346 0.801332 0.948062
O O4 0.822339 0.990756 0.256723
O O5 0.080764 0.770841 0.432552
O O6 0.471059 0.661465 0.825393
O O7 0.973813 0.724816 0.399180
O O8 0.500000 0.000000 0.500000
O O9 0.103526 0.632425 0.093460
O O10 0.952724 0.719314 0.925868
O O11 0.070789 0.613371 0.662721
O O12 0.500000 0.000000 0.000000
O O13 0.000000 0.500000 0.500000
O O14 0.118631 0.383702 0.254465
O O15 0.404334 0.377707 0.871695
O O16 0.500000 0.500000 0.500000
#
# Coordination Sequence:
#
# PCOD9059232 Si02
#       7
#     2   2   2   2   2   2   2
#     4  11  23  40  73 104 134 174 248 288 328 402
#     4  11  25  44  72 105 138 184 238 293 339 419
#     4  12  22  42  77 103 131 190 244 277 339 428
#     4  12  28  46  68 104 151 179 224 294 371 408
#     4  12  23  45  75 101 138 186 246 283 338 425
#     4  12  28  47  70 105 148 182 226 297 361 406
#     4  12  24  45  77 101 133 189 243 281 341 426
#
# _framework density 23.923815000000001
#
# number of rings (size 3 to 8) (size 9 to 14) (size 15 to 20)
#    0.000    0.286    5.714    3.000    4.000    0.571 
#    2.571    1.429    0.000    0.000    0.000    0.000 
#    0.000    0.000    0.000    0.000    0.000    0.000 
#
# Total GULP energy -78200.705130 kJ/mol
# GULP energy per Si atom -5585.764652 kJ/mol
# Density = 2.386936 g / cm^3
# Si number density = 23.923815 Si / 1000 Ang^3
#
#
#
# Elastic Constant Matrix: (Units=GPa)
#
#
# Indices 1 2 3 4 5 6 
#
# 1 108.0455 25.0668 24.3739 -14.1870 -25.5256 20.7625
# 2 25.0668 90.8144 14.9964 -15.1254 -22.9810 -2.0467
# 3 24.3739 14.9964 50.2820 -7.7602 -23.0714 7.4773
# 4 -14.1870 -15.1254 -7.7602 38.0948 4.5123 -11.3504
# 5 -25.5256 -22.9810 -23.0714 4.5123 26.6388 -12.1616
# 6 20.7625 -2.0467 7.4773 -11.3504 -12.1616 50.0234
#
#
#
# Elastic Compliance Matrix: (Units=1/GPa)
#
#
# Indices 1 2 3 4 5 6 
#
# 1 0.012553 -0.000622 -0.000959 0.002458 0.009195 -0.002299
# 2 -0.000622 0.016666 0.004289 0.006928 0.019321 0.006568
# 3 -0.000959 0.004289 0.035029 0.005908 0.034422 0.005047
# 4 0.002458 0.006928 0.005908 0.032271 0.011907 0.008597
# 5 0.009195 0.019321 0.034422 0.011907 0.099344 0.018683
# 6 -0.002299 0.006568 0.005047 0.008597 0.018683 0.026952
#
#
# Mechanical properties :
#
#
# Convention : Reuss Voigt Hill
#
# Bulk Modulus (GPa) = 14.35466 42.00178 28.17822
# Shear Modulus (GPa) = 20.77956 35.26506 28.02231
#
# Velocity S-wave (km/s) = 2.95035 3.84351 3.42616
# Velocity P-wave (km/s) = 4.19753 6.10666 5.23978
#
# Compressibility (1/GPa) = 0.06966378
#
# Stress axis : x y z
#
# Youngs Moduli (GPa) = 79.66246 60.00193 28.54752
#
# Poissons Ratio (x) = 0.03732 0.02738
# Poissons Ratio (y) = 0.04955 -0.12243
# Poissons Ratio (z) = 0.07640 -0.25733
#
# Static dielectric constant tensor:
#      x y z
#    x 1.860140 0.112930 -0.108590 
#    y 0.112930 1.613560 0.174830 
#    z -0.108590 0.174830 1.923870 
# 
# From -- ./inp_files/190945.got.cif
#   From: 2010.05.17/outbox.cif.g08.bks.cpg/sg2_96_cif.got.tgz:190945.got - 2010.06.03 11:33:40.
