data_PCOD9059581
_publ_section_title
;
Structure prediction by ZEFSAII (Michael W. Deem and Ramdas Pophale) SiO2 
 PCOD9059581
Probable space group: P -1
;
_chemical_formula_sum "Si O2"
_cell_formula_units_Z 14
_cell_length_a 6.579760
_cell_length_b 8.070682
_cell_length_c 15.341030
_cell_angle_alpha 73.303780
_cell_angle_beta 125.037784
_cell_angle_gamma 96.504045
_cell_volume 637.511015
_symmetry_space_group_name_H-M "P -1"
_symmetry_group_IT_number 2
_symmetry_cell_setting 'triclinic'
loop_
_space_group_symop_operation_xyz
x,y,z
-x,-y,-z
loop_
_atom_site_type_symbol
_atom_site_label
_atom_site_fract_x
_atom_site_fract_y
_atom_site_fract_z
Si Si1 0.192076 0.580760 0.671619
Si Si2 0.564001 0.211938 0.435785
Si Si3 0.268754 0.019813 0.103094
Si Si4 0.753970 0.813423 0.277722
Si Si5 0.273815 0.162121 0.524916
Si Si6 0.919863 0.894098 0.766155
Si Si7 0.598221 0.332377 0.102242
O O1 0.339430 0.623211 0.613068
O O2 0.148421 0.379281 0.693911
O O3 0.343334 0.629390 0.787515
O O4 0.947060 0.708003 0.584199
O O5 0.521753 0.218834 0.527568
O O6 0.294772 0.177367 0.335143
O O7 0.733034 0.039788 0.475035
O O8 0.397110 0.187775 0.073162
O O9 0.217062 0.043463 0.189272
O O10 0.477836 0.863169 0.164267
O O11 0.000000 0.000000 0.000000
O O12 0.727563 0.827316 0.373377
O O13 0.935330 0.954470 0.266493
O O14 0.139983 0.746950 0.860008
O O15 0.500000 0.500000 0.000000
#
# Coordination Sequence:
#
# PCOD9059581 Si02
#       7
#     2   2   2   2   2   2   2
#     4  12  25  43  64 102 133 170 216 273 322 383
#     4  11  23  41  73  93 129 176 221 262 322 391
#     4  11  26  46  69  96 130 174 219 265 328 391
#     4  11  27  42  66  99 138 168 215 269 329 384
#     4  11  24  43  67  99 133 175 214 267 326 389
#     4  11  23  47  67  95 131 174 215 267 326 389
#     4  11  26  44  69  98 130 169 223 270 321 384
#
# _framework density 21.960402999999999
#
# number of rings (size 3 to 8) (size 9 to 14) (size 15 to 20)
#    0.000    0.857    4.286    1.714    8.000    4.571 
#    0.000    0.000    0.000    0.000    0.000    0.000 
#    0.000    0.000    0.000    0.000    0.000    0.000 
#
# Total GULP energy -78355.046622 kJ/mol
# GULP energy per Si atom -5596.789044 kJ/mol
# Density = 2.191042 g / cm^3
# Si number density = 21.960403 Si / 1000 Ang^3
#
#
#
# Elastic Constant Matrix: (Units=GPa)
#
#
# Indices 1 2 3 4 5 6 
#
# 1 87.1829 23.8428 27.3483 -18.3762 22.4673 -4.1697
# 2 23.8428 76.5160 36.0020 -36.5067 21.8127 2.6971
# 3 27.3483 36.0020 108.7635 -32.1715 34.1610 5.8652
# 4 -18.3762 -36.5067 -32.1715 40.0949 -1.6628 0.7396
# 5 22.4673 21.8127 34.1610 -1.6628 42.2973 -0.4279
# 6 -4.1697 2.6971 5.8652 0.7396 -0.4279 16.6591
#
#
#
# Elastic Compliance Matrix: (Units=1/GPa)
#
#
# Indices 1 2 3 4 5 6 
#
# 1 0.015069 0.001512 0.001061 0.008703 -0.009273 0.002529
# 2 0.001512 0.032690 0.006365 0.034843 -0.021526 -0.009255
# 3 0.001061 0.006365 0.019567 0.021366 -0.018902 -0.009088
# 4 0.008703 0.034843 0.021366 0.076547 -0.036994 -0.015334
# 5 -0.009273 -0.021526 -0.018902 -0.036994 0.053590 0.010838
# 6 0.002529 -0.009255 -0.009088 -0.015334 0.010838 0.066317
#
#
# Mechanical properties :
#
#
# Convention : Reuss Voigt Hill
#
# Bulk Modulus (GPa) = 11.73669 49.64984 30.69327
# Shear Modulus (GPa) = 18.22798 32.16153 25.19475
#
# Velocity S-wave (km/s) = 2.88416 3.83106 3.39083
# Velocity P-wave (km/s) = 4.05553 6.49825 5.41639
#
# Compressibility (1/GPa) = 0.08520287
#
# Stress axis : x y z
#
# Youngs Moduli (GPa) = 66.36170 30.59086 51.10595
#
# Poissons Ratio (x) = -0.04626 -0.05423
# Poissons Ratio (y) = -0.10034 -0.32531
# Poissons Ratio (z) = -0.07041 -0.19473
#
# Static dielectric constant tensor:
#      x y z
#    x 1.828030 -0.013780 -0.010650 
#    y -0.013780 1.775800 0.022150 
#    z -0.010650 0.022150 1.846930 
# 
# From -- ./inp_files/135671.got.cif
#   From: 2010.05.17/outbox.cif.g08.bks.cpg/sg2_68_cif.got.tgz:135671.got - 2010.06.03 11:33:40.
