data_PCOD9059424
_publ_section_title
;
Structure prediction by ZEFSAII (Michael W. Deem and Ramdas Pophale) SiO2 
 PCOD9059424
Probable space group: P -1
;
_chemical_formula_sum "Si O2"
_cell_formula_units_Z 16
_cell_length_a 12.439646
_cell_length_b 20.669024
_cell_length_c 5.331889
_cell_angle_alpha 80.527932
_cell_angle_beta 74.027244
_cell_angle_gamma 28.384083
_cell_volume 617.461240
_symmetry_space_group_name_H-M "P -1"
_symmetry_group_IT_number 2
_symmetry_cell_setting 'triclinic'
loop_
_space_group_symop_operation_xyz
x,y,z
-x,-y,-z
loop_
_atom_site_type_symbol
_atom_site_label
_atom_site_fract_x
_atom_site_fract_y
_atom_site_fract_z
Si Si1 0.279798 0.750765 0.758019
Si Si2 0.534638 0.025238 0.712841
Si Si3 0.749880 0.478206 0.354418
Si Si4 0.241138 0.630196 0.968247
Si Si5 0.329309 0.861163 0.912753
Si Si6 0.817926 0.559978 0.896294
Si Si7 0.136590 0.029440 0.433966
Si Si8 0.085931 0.314395 0.620882
O O1 0.551187 0.595443 0.615276
O O2 0.160576 0.746774 0.945969
O O3 0.259834 0.822593 0.907802
O O4 0.139175 0.835380 0.535711
O O5 0.775614 0.940719 0.639738
O O6 0.331919 0.183689 0.686515
O O7 0.500000 0.000000 0.500000
O O8 0.500000 0.000000 0.000000
O O9 0.722076 0.420792 0.295114
O O10 0.024419 0.339198 0.351737
O O11 0.706564 0.556918 0.127801
O O12 0.500000 0.500000 0.000000
O O13 0.061951 0.672020 0.186123
O O14 0.612700 0.712356 0.833547
O O15 0.228312 0.953351 0.684103
O O16 0.247629 0.933256 0.184094
O O17 0.965554 0.445883 0.667138
O O18 0.000000 0.500000 0.000000
#
# Coordination Sequence:
#
# PCOD9059424 Si02
#       8
#     2   2   2   2   2   2   2   2
#     4  12  24  46  72 105 146 196 241 298 369 437
#     4  12  29  51  77 109 147 193 245 299 368 443
#     4  11  24  43  69 109 140 183 243 308 361 435
#     4  11  23  41  68 107 142 181 239 302 371 427
#     4  12  26  50  68 111 145 195 251 298 362 437
#     4  11  25  44  75 101 145 189 243 306 366 429
#     4  12  29  48  75 105 151 199 243 301 363 441
#     4  11  25  44  71 104 142 185 241 305 362 430
#
# _framework density 25.912559000000002
#
# number of rings (size 3 to 8) (size 9 to 14) (size 15 to 20)
#    0.000    0.500    2.500    4.875    7.000    2.500 
#    0.000    0.000    0.000    0.000    0.000    0.000 
#    0.000    0.000    0.000    0.000    0.000    0.000 
#
# Total GULP energy -89613.596902 kJ/mol
# GULP energy per Si atom -5600.849806 kJ/mol
# Density = 2.585358 g / cm^3
# Si number density = 25.912559 Si / 1000 Ang^3
#
#
#
# Elastic Constant Matrix: (Units=GPa)
#
#
# Indices 1 2 3 4 5 6 
#
# 1 154.9964 14.1978 30.2186 2.7638 22.8507 2.2584
# 2 14.1978 106.7050 25.0196 -28.0372 8.3134 -19.1456
# 3 30.2186 25.0196 101.0632 -16.4742 12.4627 5.8384
# 4 2.7638 -28.0372 -16.4742 44.4488 -3.8710 11.4904
# 5 22.8507 8.3134 12.4627 -3.8710 46.8037 -11.2816
# 6 2.2584 -19.1456 5.8384 11.4904 -11.2816 49.5717
#
#
#
# Elastic Compliance Matrix: (Units=1/GPa)
#
#
# Indices 1 2 3 4 5 6 
#
# 1 0.007426 -0.000919 -0.001829 -0.001798 -0.003321 -0.000817
# 2 -0.000919 0.012195 -0.001982 0.006096 0.000186 0.003614
# 3 -0.001829 -0.001982 0.012116 0.004072 -0.002518 -0.003626
# 4 -0.001798 0.006096 0.004072 0.029208 -0.000036 -0.004822
# 5 -0.003321 0.000186 -0.002518 -0.000036 0.025127 0.006247
# 6 -0.000817 0.003614 -0.003626 -0.004822 0.006247 0.024572
#
#
# Mechanical properties :
#
#
# Convention : Reuss Voigt Hill
#
# Bulk Modulus (GPa) = 44.89166 55.73741 50.31454
# Shear Modulus (GPa) = 39.20623 47.72008 43.46315
#
# Velocity S-wave (km/s) = 3.89398 4.29602 4.09993
# Velocity P-wave (km/s) = 6.13020 6.79443 6.47084
#
# Compressibility (1/GPa) = 0.02227585
#
# Stress axis : x y z
#
# Youngs Moduli (GPa) = 134.65926 82.00375 82.53365
#
# Poissons Ratio (x) = 0.07540 0.15097
# Poissons Ratio (y) = 0.12381 0.16358
# Poissons Ratio (z) = 0.24631 0.16253
#
# Static dielectric constant tensor:
#      x y z
#    x 2.040260 0.000510 -0.000790 
#    y 0.000510 2.097590 0.001430 
#    z -0.000790 0.001430 2.133300 
# 
# From -- ./inp_files/83188.got.cif
#   From: 2010.05.17/outbox.cif.g08.bks.cpg/sg2_42_cif.got.tgz:83188.got - 2010.06.03 11:33:40.
