data_PCOD9059683
_publ_section_title
;
Structure prediction by ZEFSAII (Michael W. Deem and Ramdas Pophale) SiO2 
 PCOD9059683
Probable space group: P -1
;
_chemical_formula_sum "Si O2"
_cell_formula_units_Z 12
_cell_length_a 17.441041
_cell_length_b 5.683682
_cell_length_c 5.410769
_cell_angle_alpha 103.238753
_cell_angle_beta 69.323128
_cell_angle_gamma 83.289117
_cell_volume 476.829560
_symmetry_space_group_name_H-M "P -1"
_symmetry_group_IT_number 2
_symmetry_cell_setting 'triclinic'
loop_
_space_group_symop_operation_xyz
x,y,z
-x,-y,-z
loop_
_atom_site_type_symbol
_atom_site_label
_atom_site_fract_x
_atom_site_fract_y
_atom_site_fract_z
Si Si1 0.044962 0.123902 0.276905
Si Si2 0.076227 0.505623 0.728211
Si Si3 0.232936 0.915280 0.000338
Si Si4 0.645788 0.059617 0.762763
Si Si5 0.451062 0.782027 0.574057
Si Si6 0.740098 0.645199 0.285616
O O1 0.074426 0.351595 0.440362
O O2 0.961894 0.213612 0.229683
O O3 0.000000 0.000000 0.500000
O O4 0.134632 0.958201 0.067861
O O5 0.166297 0.411619 0.721094
O O6 0.000000 0.500000 0.000000
O O7 0.272180 0.626991 0.830210
O O8 0.260373 0.144651 0.877614
O O9 0.259857 0.922568 0.258875
O O10 0.604795 0.214875 0.611782
O O11 0.665474 0.774818 0.584255
O O12 0.593914 0.127447 0.089956
O O13 0.500000 0.500000 0.500000
O O14 0.500000 0.000000 0.500000
#
# Coordination Sequence:
#
# PCOD9059683 Si02
#       6
#     2   2   2   2   2   2
#     4  11  25  41  67 105 150 212 271 337 385 459
#     4  11  23  42  66  99 152 206 274 325 391 450
#     4  12  28  48  76 115 160 210 273 327 402 457
#     4  12  28  56  86 122 168 205 266 326 400 487
#     4  12  30  55  89 124 161 207 255 322 406 494
#     4  12  28  47  78 114 157 215 266 334 394 464
#
# _framework density 25.166225000000001
#
# number of rings (size 3 to 8) (size 9 to 14) (size 15 to 20)
#    0.000    0.333    5.000    2.000    7.000    5.333 
#    0.000    0.000    0.000    0.000    0.000    0.000 
#    0.000    0.000    0.000    0.000    0.000    0.000 
#
# Total GULP energy -66870.610467 kJ/mol
# GULP energy per Si atom -5572.550872 kJ/mol
# Density = 2.510895 g / cm^3
# Si number density = 25.166225 Si / 1000 Ang^3
#
#
#
# Elastic Constant Matrix: (Units=GPa)
#
#
# Indices 1 2 3 4 5 6 
#
# 1 131.4664 72.1947 40.0581 -11.6826 30.9961 -34.3718
# 2 72.1947 208.3128 77.8085 15.2523 6.0661 -38.8922
# 3 40.0581 77.8085 139.6157 14.6515 -7.3245 -24.9201
# 4 -11.6826 15.2523 14.6515 62.9160 -2.2286 1.4518
# 5 30.9961 6.0661 -7.3245 -2.2286 45.6060 -7.9957
# 6 -34.3718 -38.8922 -24.9201 1.4518 -7.9957 50.3610
#
#
#
# Elastic Compliance Matrix: (Units=1/GPa)
#
#
# Indices 1 2 3 4 5 6 
#
# 1 0.013190 -0.002988 -0.002119 0.003285 -0.007996 0.004282
# 2 -0.002988 0.007375 -0.002548 -0.001774 0.001011 0.002607
# 3 -0.002119 -0.002548 0.009981 -0.002020 0.003663 0.002164
# 4 0.003285 -0.001774 -0.002020 0.017367 -0.001628 -0.000886
# 5 -0.007996 0.001011 0.003663 -0.001628 0.028022 0.001632
# 6 0.004282 0.002607 0.002164 -0.000886 0.001632 0.026148
#
#
# Mechanical properties :
#
#
# Convention : Reuss Voigt Hill
#
# Bulk Modulus (GPa) = 65.63778 95.50194 80.56986
# Shear Modulus (GPa) = 40.82569 51.06551 45.94560
#
# Velocity S-wave (km/s) = 4.03208 4.50947 4.27744
# Velocity P-wave (km/s) = 6.91485 8.07122 7.51531
#
# Compressibility (1/GPa) = 0.01523513
#
# Stress axis : x y z
#
# Youngs Moduli (GPa) = 75.81729 135.59418 100.18754
#
# Poissons Ratio (x) = 0.40513 0.21231
# Poissons Ratio (y) = 0.22653 0.25532
# Poissons Ratio (z) = 0.16067 0.34555
#
# Static dielectric constant tensor:
#      x y z
#    x 2.033310 0.016000 -0.036310 
#    y 0.016000 1.983870 0.068010 
#    z -0.036310 0.068010 1.994570 
# 
# From -- ./inp_files/102523.got.cif
#   From: 2010.05.17/outbox.cif.g08.bks.cpg/sg2_52_cif.got.tgz:102523.got - 2010.06.03 11:33:40.
