data_PCOD9059772
_publ_section_title
;
Structure prediction by ZEFSAII (Michael W. Deem and Ramdas Pophale) SiO2 
 PCOD9059772
Probable space group: P -1
;
_chemical_formula_sum "Si O2"
_cell_formula_units_Z 14
_cell_length_a 15.343683
_cell_length_b 11.675640
_cell_length_c 14.675981
_cell_angle_alpha 61.879912
_cell_angle_beta 160.438983
_cell_angle_gamma 107.938025
_cell_volume 688.943864
_symmetry_space_group_name_H-M "P -1"
_symmetry_group_IT_number 2
_symmetry_cell_setting 'triclinic'
loop_
_space_group_symop_operation_xyz
x,y,z
-x,-y,-z
loop_
_atom_site_type_symbol
_atom_site_label
_atom_site_fract_x
_atom_site_fract_y
_atom_site_fract_z
Si Si1 0.719109 0.787313 0.720017
Si Si2 0.856594 0.169495 0.528956
Si Si3 0.675861 0.329982 0.720406
Si Si4 0.261231 0.922582 0.361521
Si Si5 0.375636 0.169957 0.783802
Si Si6 0.219198 0.329714 0.762012
Si Si7 0.090083 0.846700 0.798631
O O1 0.551723 0.728295 0.511351
O O2 0.554702 0.802541 0.647879
O O3 0.658216 0.951140 0.573437
O O4 0.068697 0.698816 0.090724
O O5 0.844048 0.135982 0.635431
O O6 0.084733 0.231368 0.712168
O O7 0.536649 0.284524 0.135104
O O8 0.945535 0.018345 0.618544
O O9 0.500000 0.500000 0.500000
O O10 0.832014 0.243655 0.997507
O O11 0.000000 0.000000 0.000000
O O12 0.268186 0.277477 0.724333
O O13 0.120014 0.194113 0.452828
O O14 0.627403 0.186833 0.971099
O O15 0.500000 0.000000 0.000000
O O16 0.000000 0.500000 0.500000
#
# Coordination Sequence:
#
# PCOD9059772 Si02
#       7
#     2   2   2   2   2   2   2
#     4  11  23  42  68  94 143 178 227 277 341 392
#     4  12  24  43  77  96 133 185 225 281 350 403
#     4  12  26  46  66  99 149 182 224 286 346 411
#     4  11  24  42  72 106 137 170 237 294 324 411
#     4  12  23  44  72 100 131 171 233 293 330 406
#     4  12  28  48  67 102 142 176 225 292 354 405
#     4  12  23  42  74 103 124 178 239 273 336 407
#
# _framework density 20.320958000000001
#
# number of rings (size 3 to 8) (size 9 to 14) (size 15 to 20)
#    0.000    0.286    5.714    3.000    6.000    0.000 
#    7.714    0.000    0.000    0.000    0.000    0.000 
#    0.000    0.000    0.000    0.000    0.000    0.000 
#
# Total GULP energy -78327.565601 kJ/mol
# GULP energy per Si atom -5594.826114 kJ/mol
# Density = 2.027471 g / cm^3
# Si number density = 20.320958 Si / 1000 Ang^3
#
#
#
# Elastic Constant Matrix: (Units=GPa)
#
#
# Indices 1 2 3 4 5 6 
#
# 1 98.8932 46.5110 -6.4893 -2.0370 39.5718 7.9185
# 2 46.5110 81.8768 45.3824 9.9911 0.0529 -19.5128
# 3 -6.4893 45.3824 48.7321 -1.3265 26.5577 2.6123
# 4 -2.0370 9.9911 -1.3265 55.1381 1.8109 18.0061
# 5 39.5718 0.0529 26.5577 1.8109 37.7384 5.0980
# 6 7.9185 -19.5128 2.6123 18.0061 5.0980 23.1459
#
#
#
# Elastic Compliance Matrix: (Units=1/GPa)
#
#
# Indices 1 2 3 4 5 6 
#
# 1 0.001800 0.009241 -0.012019 -0.006005 0.005218 0.012054
# 2 0.009241 -0.001450 0.012865 0.002819 -0.018338 -0.003989
# 3 -0.012019 0.012865 -0.000054 -0.009730 0.010354 0.020253
# 4 -0.006005 0.002819 -0.009730 0.021332 0.014029 -0.014156
# 5 0.005218 -0.018338 0.010354 0.014029 0.017578 -0.033198
# 6 0.012054 -0.003989 0.020253 -0.014156 -0.033198 0.051756
#
#
# Mechanical properties :
#
#
# Convention : Reuss Voigt Hill
#
# Bulk Modulus (GPa) = 48.85116 44.47894 46.66505
# Shear Modulus (GPa) = 64.42253 32.81101 48.61677
#
# Velocity S-wave (km/s) = 5.63661 4.02262 4.89657
# Velocity P-wave (km/s) = 8.15192 6.59629 7.41501
#
# Compressibility (1/GPa) = 0.02047034
#
# Stress axis : x y z
#
# Youngs Moduli (GPa) = 555.46406 -689.83730 -18544.80717
#
# Poissons Ratio (x) = 6.37499 -222.89589
# Poissons Ratio (y) = -5.13321 238.57540
# Poissons Ratio (z) = 6.67630 8.87463
#
# Static dielectric constant tensor:
#      x y z
#    x 1.723860 -0.023310 0.015150 
#    y -0.023310 1.691200 -0.000830 
#    z 0.015150 -0.000830 1.727350 
# 
# From -- ./inp_files/531772.got.cif
#   From: 2010.05.17/outbox.cif.g08.bks.cpg/sg2_266_cif.got.tgz:531772.got - 2010.06.03 11:33:40.
