data_PCOD9059207
_publ_section_title
;
Structure prediction by ZEFSAII (Michael W. Deem and Ramdas Pophale) SiO2 
 PCOD9059207
Probable space group: P -1
;
_chemical_formula_sum "Si O2"
_cell_formula_units_Z 16
_cell_length_a 16.214262
_cell_length_b 12.502774
_cell_length_c 23.019516
_cell_angle_alpha 152.262517
_cell_angle_beta 161.278822
_cell_angle_gamma 37.085743
_cell_volume 670.965360
_symmetry_space_group_name_H-M "P -1"
_symmetry_group_IT_number 2
_symmetry_cell_setting 'triclinic'
loop_
_space_group_symop_operation_xyz
x,y,z
-x,-y,-z
loop_
_atom_site_type_symbol
_atom_site_label
_atom_site_fract_x
_atom_site_fract_y
_atom_site_fract_z
Si Si1 0.150233 0.894964 0.335441
Si Si2 0.012257 0.462389 0.853514
Si Si3 0.587768 0.408284 0.184220
Si Si4 0.793222 0.533372 0.500336
Si Si5 0.313417 0.985662 0.311247
Si Si6 0.254803 0.949388 0.610093
Si Si7 0.639901 0.899906 0.943690
Si Si8 0.237736 0.301644 0.674834
O O1 0.460584 0.998456 0.578990
O O2 0.106842 0.638485 0.212416
O O3 0.079347 0.067706 0.420046
O O4 0.946140 0.892926 0.146195
O O5 0.844942 0.292697 0.610637
O O6 0.302458 0.416904 0.020764
O O7 0.078529 0.746095 0.031162
O O8 0.794476 0.551620 0.439414
O O9 0.613818 0.522146 0.192106
O O10 0.616040 0.142868 0.074584
O O11 0.792384 0.782535 0.646748
O O12 0.529314 0.332171 0.246557
O O13 0.036550 0.432066 0.632026
O O14 0.500000 0.000000 0.500000
O O15 0.488362 0.912720 0.788995
O O16 0.364247 0.177968 0.750410
O O17 0.000000 0.000000 0.500000
#
# Coordination Sequence:
#
# PCOD9059207 Si02
#       8
#     2   2   2   2   2   2   2   2
#     4  11  23  43  73 102 139 177 229 291 345 401
#     4  11  23  44  70  97 142 185 225 282 347 406
#     4  12  21  38  68 108 136 168 233 291 343 400
#     4  12  23  40  67 108 138 174 227 290 346 407
#     4  12  25  42  68 107 140 177 229 286 346 412
#     4  11  23  43  69 100 139 184 228 285 343 411
#     4  12  23  40  70 102 138 178 230 281 349 399
#     4  11  23  40  71 104 137 177 228 293 345 396
#
# _framework density 23.846238
#
# number of rings (size 3 to 8) (size 9 to 14) (size 15 to 20)
#    0.000    0.500    7.500    1.500    1.750    2.500 
#    0.000    0.625    0.000    6.750    0.000    0.875 
#    0.000    0.000    0.000    0.000    0.000    0.000 
#
# Total GULP energy -89546.989825 kJ/mol
# GULP energy per Si atom -5596.686864 kJ/mol
# Density = 2.379196 g / cm^3
# Si number density = 23.846238 Si / 1000 Ang^3
#
#
#
# Elastic Constant Matrix: (Units=GPa)
#
#
# Indices 1 2 3 4 5 6 
#
# 1 50.7340 50.5475 23.7985 10.1231 -8.9380 9.6271
# 2 50.5475 129.0518 67.0729 26.9329 -20.3833 1.4095
# 3 23.7985 67.0729 85.0082 20.3179 -17.3075 0.8272
# 4 10.1231 26.9329 20.3179 52.2352 9.3738 -13.2260
# 5 -8.9380 -20.3833 -17.3075 9.3738 37.5236 8.8905
# 6 9.6271 1.4095 0.8272 -13.2260 8.8905 44.0754
#
#
#
# Elastic Compliance Matrix: (Units=1/GPa)
#
#
# Indices 1 2 3 4 5 6 
#
# 1 0.035689 -0.013539 0.003234 -0.004889 0.006265 -0.010154
# 2 -0.013539 0.019724 -0.009987 -0.004229 0.003827 0.000473
# 3 0.003234 -0.009987 0.022051 -0.006662 0.008238 -0.004462
# 4 -0.004889 -0.004229 -0.006662 0.031735 -0.017888 0.014459
# 5 0.006265 0.003827 0.008238 -0.017888 0.042166 -0.015519
# 6 -0.010154 0.000473 -0.004462 0.014459 -0.015519 0.032444
#
#
# Mechanical properties :
#
#
# Convention : Reuss Voigt Hill
#
# Bulk Modulus (GPa) = 27.11483 60.84797 43.98140
# Shear Modulus (GPa) = 21.12500 34.99185 28.05842
#
# Velocity S-wave (km/s) = 2.97961 3.83481 3.43394
# Velocity P-wave (km/s) = 4.82004 6.72160 5.84862
#
# Compressibility (1/GPa) = 0.03688019
#
# Stress axis : x y z
#
# Youngs Moduli (GPa) = 28.02017 50.69892 45.34876
#
# Poissons Ratio (x) = 0.68639 -0.14665
# Poissons Ratio (y) = 0.37936 0.45291
# Poissons Ratio (z) = -0.09061 0.50634
#
# Static dielectric constant tensor:
#      x y z
#    x 1.976290 0.041810 0.020280 
#    y 0.041810 1.874750 0.023070 
#    z 0.020280 0.023070 1.957760 
# 
# From -- ./inp_files/613207.got.cif
#   From: 2010.05.17/outbox.cif.g08.bks.cpg/sg2_307_cif.got.tgz:613207.got - 2010.06.03 11:33:40.
