data_PCOD9059695
_publ_section_title
;
Structure prediction by ZEFSAII (Michael W. Deem and Ramdas Pophale) SiO2 
 PCOD9059695
Probable space group: P -1
;
_chemical_formula_sum "Si O2"
_cell_formula_units_Z 14
_cell_length_a 13.477236
_cell_length_b 4.777081
_cell_length_c 12.288019
_cell_angle_alpha 67.822849
_cell_angle_beta 50.679203
_cell_angle_gamma 71.213013
_cell_volume 562.942022
_symmetry_space_group_name_H-M "P -1"
_symmetry_group_IT_number 2
_symmetry_cell_setting 'triclinic'
loop_
_space_group_symop_operation_xyz
x,y,z
-x,-y,-z
loop_
_atom_site_type_symbol
_atom_site_label
_atom_site_fract_x
_atom_site_fract_y
_atom_site_fract_z
Si Si1 0.879690 0.389421 0.233436
Si Si2 0.271719 0.209968 0.891308
Si Si3 0.530974 0.214167 0.602206
Si Si4 0.358774 0.177172 0.075671
Si Si5 0.222019 0.605756 0.265518
Si Si6 0.704169 0.601530 0.530248
Si Si7 0.053524 0.789738 0.161608
O O1 0.797454 0.510015 0.169759
O O2 0.792731 0.485935 0.384456
O O3 0.934109 0.040575 0.236080
O O4 0.995777 0.431982 0.860472
O O5 0.399672 0.093769 0.750705
O O6 0.317163 0.291442 0.967700
O O7 0.170210 0.965620 0.011698
O O8 0.500000 0.500000 0.500000
O O9 0.597565 0.362301 0.636843
O O10 0.627788 0.938808 0.525913
O O11 0.341888 0.440146 0.137673
O O12 0.254855 0.946298 0.213151
O O13 0.500000 0.000000 0.000000
O O14 0.217024 0.434750 0.407422
O O15 0.103346 0.619799 0.262420
#
# Coordination Sequence:
#
# PCOD9059695 Si02
#       7
#     2   2   2   2   2   2   2
#     4  12  26  44  70 101 142 183 235 283 339 408
#     4  11  25  44  74 100 140 179 227 292 346 404
#     4  12  26  46  70 106 142 175 226 282 356 420
#     4  11  23  42  67 102 136 179 229 280 345 410
#     4  11  24  44  67  98 138 181 231 280 339 407
#     4  12  26  46  72 104 140 183 228 284 348 415
#     4  11  26  45  67 103 139 185 236 281 339 404
#
# _framework density 24.869344999999999
#
# number of rings (size 3 to 8) (size 9 to 14) (size 15 to 20)
#    0.000    0.571    1.429    6.857    0.000    8.000 
#    0.000    0.000    0.000    0.000    0.000    0.000 
#    0.000    0.000    0.000    0.000    0.000    0.000 
#
# Total GULP energy -78523.441879 kJ/mol
# GULP energy per Si atom -5608.817277 kJ/mol
# Density = 2.481274 g / cm^3
# Si number density = 24.869345 Si / 1000 Ang^3
#
#
#
# Elastic Constant Matrix: (Units=GPa)
#
#
# Indices 1 2 3 4 5 6 
#
# 1 80.3725 40.7269 47.1606 1.1906 10.1921 -21.3097
# 2 40.7269 116.1535 15.0822 8.8900 12.7316 -18.9728
# 3 47.1606 15.0822 101.5825 -9.3679 18.2137 -28.2950
# 4 1.1906 8.8900 -9.3679 20.4957 -3.7168 2.6268
# 5 10.1921 12.7316 18.2137 -3.7168 48.4627 -12.6931
# 6 -21.3097 -18.9728 -28.2950 2.6268 -12.6931 51.2621
#
#
#
# Elastic Compliance Matrix: (Units=1/GPa)
#
#
# Indices 1 2 3 4 5 6 
#
# 1 0.020951 -0.005733 -0.008672 -0.002839 0.000696 0.002119
# 2 -0.005733 0.011388 0.001604 -0.004566 -0.002102 0.002430
# 3 -0.008672 0.001604 0.016049 0.005999 -0.002907 0.004820
# 4 -0.002839 -0.004566 0.005999 0.054476 0.003320 -0.001529
# 5 0.000696 -0.002102 -0.002907 0.003320 0.023306 0.003508
# 6 0.002119 0.002430 0.004820 -0.001529 0.003508 0.024895
#
#
# Mechanical properties :
#
#
# Convention : Reuss Voigt Hill
#
# Bulk Modulus (GPa) = 43.88777 56.00531 49.94654
# Shear Modulus (GPa) = 27.13494 37.05335 32.09414
#
# Velocity S-wave (km/s) = 3.30676 3.86414 3.59626
# Velocity P-wave (km/s) = 5.68025 6.51747 6.11321
#
# Compressibility (1/GPa) = 0.02278539
#
# Stress axis : x y z
#
# Youngs Moduli (GPa) = 47.72988 87.81060 62.30834
#
# Poissons Ratio (x) = 0.50342 0.54035
# Poissons Ratio (y) = 0.27364 -0.09991
# Poissons Ratio (z) = 0.41392 -0.14081
#
# Static dielectric constant tensor:
#      x y z
#    x 1.988370 -0.008070 -0.050230 
#    y -0.008070 1.917660 -0.026750 
#    z -0.050230 -0.026750 1.973230 
# 
# From -- ./inp_files/441004.got.cif
#   From: 2010.05.17/outbox.cif.g08.bks.cpg/sg2_221_cif.got.tgz:441004.got - 2010.06.03 11:33:40.
