data_PCOD9059386
_publ_section_title
;
Structure prediction by ZEFSAII (Michael W. Deem and Ramdas Pophale) SiO2 
 PCOD9059386
Probable space group: P -1
;
_chemical_formula_sum "Si O2"
_cell_formula_units_Z 14
_cell_length_a 5.397403
_cell_length_b 19.749753
_cell_length_c 17.827501
_cell_angle_alpha 157.588514
_cell_angle_beta 54.772328
_cell_angle_gamma 113.042631
_cell_volume 526.892398
_symmetry_space_group_name_H-M "P -1"
_symmetry_group_IT_number 2
_symmetry_cell_setting 'triclinic'
loop_
_space_group_symop_operation_xyz
x,y,z
-x,-y,-z
loop_
_atom_site_type_symbol
_atom_site_label
_atom_site_fract_x
_atom_site_fract_y
_atom_site_fract_z
Si Si1 0.563401 0.928121 0.758435
Si Si2 0.945173 0.252525 0.121958
Si Si3 0.718285 0.712403 0.667223
Si Si4 0.222076 0.297897 0.839744
Si Si5 0.542549 0.453294 0.834178
Si Si6 0.982222 0.142323 0.848321
Si Si7 0.408750 0.594820 0.390943
O O1 0.599024 0.861264 0.770221
O O2 0.579888 0.739114 0.516666
O O3 0.829250 0.992015 0.739322
O O4 0.194735 0.114513 0.000195
O O5 0.827591 0.485391 0.388552
O O6 0.593334 0.235488 0.169116
O O7 0.148817 0.164010 0.918912
O O8 0.090942 0.683603 0.594175
O O9 0.489572 0.282495 0.712981
O O10 0.202936 0.131350 0.726056
O O11 0.287547 0.443486 0.036782
O O12 0.850902 0.393115 0.961716
O O13 0.714091 0.391359 0.659525
O O14 0.658525 0.365138 0.127019
#
# Coordination Sequence:
#
# PCOD9059386 Si02
#       7
#     2   2   2   2   2   2   2
#     4  12  25  42  65  96 132 184 219 280 347 404
#     4  11  24  43  67  95 131 177 229 282 341 407
#     4  11  24  43  67  95 131 177 229 282 341 407
#     4   9  19  37  67 101 135 178 226 278 342 406
#     4   9  19  37  67 101 135 178 226 278 342 406
#     4  11  23  41  67  95 136 176 226 281 341 408
#     4  11  23  41  67  95 136 176 226 281 341 408
#
# _framework density 26.570891
#
# number of rings (size 3 to 8) (size 9 to 14) (size 15 to 20)
#    0.000    1.429    2.857    2.143    4.000    4.000 
#    0.000    0.714    0.000    3.429    0.000    0.000 
#    0.000    0.000    0.000    0.000    0.000    0.000 
#
# Total GULP energy -78382.765131 kJ/mol
# GULP energy per Si atom -5598.768938 kJ/mol
# Density = 2.651041 g / cm^3
# Si number density = 26.570891 Si / 1000 Ang^3
#
#
#
# Elastic Constant Matrix: (Units=GPa)
#
#
# Indices 1 2 3 4 5 6 
#
# 1 83.9954 20.6838 38.3987 8.2254 -3.7459 8.6326
# 2 20.6838 177.7272 63.1503 9.0187 -8.6570 12.7413
# 3 38.3987 63.1503 83.9662 33.5355 -15.7069 7.2078
# 4 8.2254 9.0187 33.5355 72.6910 7.2736 4.2874
# 5 -3.7459 -8.6570 -15.7069 7.2736 32.3372 7.5640
# 6 8.6326 12.7413 7.2078 4.2874 7.5640 43.3449
#
#
#
# Elastic Compliance Matrix: (Units=1/GPa)
#
#
# Indices 1 2 3 4 5 6 
#
# 1 0.015855 0.001542 -0.010007 0.003023 -0.002884 -0.001743
# 2 0.001542 0.008262 -0.008362 0.002937 -0.002032 -0.001281
# 3 -0.010007 -0.008362 0.031293 -0.013681 0.015366 -0.002080
# 4 0.003023 0.002937 -0.013681 0.020351 -0.010222 0.000581
# 5 -0.002884 -0.002032 0.015366 -0.010222 0.041594 -0.007631
# 6 -0.001743 -0.001281 -0.002080 0.000581 -0.007631 0.025415
#
#
# Mechanical properties :
#
#
# Convention : Reuss Voigt Hill
#
# Bulk Modulus (GPa) = 45.96891 65.57270 55.77081
# Shear Modulus (GPa) = 27.22179 44.57170 35.89674
#
# Velocity S-wave (km/s) = 3.20425 4.10013 3.67956
# Velocity P-wave (km/s) = 5.57025 6.86635 6.25197
#
# Compressibility (1/GPa) = 0.02175383
#
# Stress axis : x y z
#
# Youngs Moduli (GPa) = 63.07093 121.03146 31.95650
#
# Poissons Ratio (x) = -0.18659 0.31980
# Poissons Ratio (y) = -0.09724 0.26723
# Poissons Ratio (z) = 0.63118 1.01211
#
# Static dielectric constant tensor:
#      x y z
#    x 2.097890 0.009870 -0.023720 
#    y 0.009870 2.055430 -0.007080 
#    z -0.023720 -0.007080 2.093930 
# 
# From -- ./inp_files/117474.got.cif
#   From: 2010.05.17/outbox.cif.g08.bks.cpg/sg2_59_cif.got.tgz:117474.got - 2010.06.03 11:33:40.
