data_PCOD9059656
_publ_section_title
;
Structure prediction by ZEFSAII (Michael W. Deem and Ramdas Pophale) SiO2 
 PCOD9059656
Probable space group: P -1
;
_chemical_formula_sum "Si O2"
_cell_formula_units_Z 12
_cell_length_a 5.027377
_cell_length_b 15.776552
_cell_length_c 19.900906
_cell_angle_alpha 21.210266
_cell_angle_beta 98.626866
_cell_angle_gamma 86.836272
_cell_volume 473.299850
_symmetry_space_group_name_H-M "P -1"
_symmetry_group_IT_number 2
_symmetry_cell_setting 'triclinic'
loop_
_space_group_symop_operation_xyz
x,y,z
-x,-y,-z
loop_
_atom_site_type_symbol
_atom_site_label
_atom_site_fract_x
_atom_site_fract_y
_atom_site_fract_z
Si Si1 0.357790 0.214200 0.473063
Si Si2 0.168112 0.073442 0.396163
Si Si3 0.207792 0.989368 0.918274
Si Si4 0.946819 0.658654 0.228726
Si Si5 0.594640 0.688647 0.929143
Si Si6 0.903902 0.261658 0.020754
O O1 0.152903 0.480219 0.218829
O O2 0.193768 0.353533 0.434992
O O3 0.706614 0.111675 0.530146
O O4 0.391074 0.915545 0.696291
O O5 0.500000 0.000000 0.500000
O O6 0.000000 0.000000 0.500000
O O7 0.903432 0.397536 0.131637
O O8 0.088269 0.277890 0.739631
O O9 0.591145 0.792196 0.086845
O O10 0.103093 0.968752 0.854867
O O11 0.074511 0.836391 0.069292
O O12 0.372211 0.646198 0.002177
O O13 0.757767 0.836130 0.862191
#
# Coordination Sequence:
#
# PCOD9059656 Si02
#       6
#     2   2   2   2   2   2
#     4  11  24  43  69  91 133 168 215 266 319 375
#     4  12  24  44  66  92 127 169 213 264 324 375
#     4   9  18  36  62  91 129 164 207 260 310 372
#     4   9  19  35  62  95 120 169 213 249 319 375
#     4  12  25  42  64 100 124 172 213 263 318 385
#     4  11  23  42  65  93 133 167 213 259 321 372
#
# _framework density 25.353905000000001
#
# number of rings (size 3 to 8) (size 9 to 14) (size 15 to 20)
#    0.000    1.333    3.333    2.500    0.000    5.333 
#    0.000    5.000    0.000    0.000    0.000    0.000 
#    0.000    0.000    0.000    0.000    0.000    0.000 
#
# Total GULP energy -66960.980137 kJ/mol
# GULP energy per Si atom -5580.081678 kJ/mol
# Density = 2.529620 g / cm^3
# Si number density = 25.353905 Si / 1000 Ang^3
#
#
#
# Elastic Constant Matrix: (Units=GPa)
#
#
# Indices 1 2 3 4 5 6 
#
# 1 181.7204 52.7901 31.1505 -3.7419 7.5896 -13.5035
# 2 52.7901 159.7132 64.0441 -28.5562 19.2442 -8.4148
# 3 31.1505 64.0441 121.0797 -5.8889 12.6815 -22.6451
# 4 -3.7419 -28.5562 -5.8889 40.9225 -19.4295 4.0837
# 5 7.5896 19.2442 12.6815 -19.4295 26.2875 -5.7534
# 6 -13.5035 -8.4148 -22.6451 4.0837 -5.7534 49.6810
#
#
#
# Elastic Compliance Matrix: (Units=1/GPa)
#
#
# Indices 1 2 3 4 5 6 
#
# 1 0.006244 -0.002038 -0.000263 -0.001496 -0.001019 0.001237
# 2 -0.002038 0.009823 -0.004639 0.006042 -0.000233 -0.001528
# 3 -0.000263 -0.004639 0.011850 -0.004011 -0.004250 0.004382
# 4 -0.001496 0.006042 -0.004011 0.041531 0.028346 -0.001343
# 5 -0.001019 -0.000233 -0.004250 0.028346 0.062078 0.002605
# 6 0.001237 -0.001528 0.004382 -0.001343 0.002605 0.022615
#
#
# Mechanical properties :
#
#
# Convention : Reuss Voigt Hill
#
# Bulk Modulus (GPa) = 71.24140 84.27585 77.75862
# Shear Modulus (GPa) = 28.95203 44.34677 36.64940
#
# Velocity S-wave (km/s) = 3.38289 4.18677 3.80611
# Velocity P-wave (km/s) = 6.58926 7.52888 7.07469
#
# Compressibility (1/GPa) = 0.01403678
#
# Stress axis : x y z
#
# Youngs Moduli (GPa) = 160.16110 101.80263 84.38775
#
# Poissons Ratio (x) = 0.20745 0.02221
# Poissons Ratio (y) = 0.32637 0.39148
# Poissons Ratio (z) = 0.04215 0.47226
#
# Static dielectric constant tensor:
#      x y z
#    x 1.979700 0.080460 -0.027990 
#    y 0.080460 2.180940 -0.004530 
#    z -0.027990 -0.004530 1.996470 
# 
# From -- ./inp_files/7364.got.cif
#   From: 2010.05.17/outbox.cif.g08.bks.cpg/sg2_4_cif.got.tgz:7364.got - 2010.06.03 11:33:40.
