data_PCOD9059101
_publ_section_title
;
Structure prediction by ZEFSAII (Michael W. Deem and Ramdas Pophale) SiO2 
 PCOD9059101
Probable space group: P -1
;
_chemical_formula_sum "Si O2"
_cell_formula_units_Z 15
_cell_length_a 9.526465
_cell_length_b 12.600470
_cell_length_c 12.320100
_cell_angle_alpha 52.899901
_cell_angle_beta 36.642626
_cell_angle_gamma 56.022047
_cell_volume 695.205577
_symmetry_space_group_name_H-M "P -1"
_symmetry_group_IT_number 2
_symmetry_cell_setting 'triclinic'
loop_
_space_group_symop_operation_xyz
x,y,z
-x,-y,-z
loop_
_atom_site_type_symbol
_atom_site_label
_atom_site_fract_x
_atom_site_fract_y
_atom_site_fract_z
Si Si1 0.812560 0.077030 0.155733
Si Si2 0.538026 0.574573 0.044140
Si Si3 0.102407 0.251150 0.189247
Si Si4 0.758953 0.436556 0.412912
Si Si5 0.919611 0.364350 0.594503
Si Si6 0.743592 0.894238 0.519478
Si Si7 0.000000 0.000000 0.500000
Si Si8 0.924046 0.355940 0.004165
O O1 0.533948 0.096510 0.283237
O O2 0.888699 0.220324 0.049052
O O3 0.796304 0.995197 0.328713
O O4 0.000000 0.000000 0.000000
O O5 0.283390 0.658026 0.181685
O O6 0.663855 0.449839 0.119621
O O7 0.500000 0.500000 0.000000
O O8 0.717146 0.681587 0.888428
O O9 0.844913 0.303192 0.371153
O O10 0.068435 0.316070 0.050496
O O11 0.133717 0.092042 0.272381
O O12 0.500000 0.500000 0.500000
O O13 0.785381 0.391825 0.547175
O O14 0.928095 0.548224 0.214784
O O15 0.000000 0.500000 0.500000
O O16 0.144576 0.251367 0.506367
O O17 0.883260 0.927391 0.518018
#
# Coordination Sequence:
#
# PCOD9059101 Si02
#       8
#     2   2   2   2   2   2   1   2
#     4  11  27  48  73 104 142 196 246 301 368 439
#     4  11  25  43  71 103 140 184 238 300 360 435
#     4  11  23  44  66  98 139 183 234 292 360 429
#     4  11  23  40  67 100 136 181 233 291 357 422
#     4  12  24  43  70 103 140 181 235 300 361 419
#     4  11  27  50  72 105 148 192 250 300 367 447
#     4  12  24  48  72 102 148 188 238 306 362 436
#     4  11  23  44  68  99 141 184 236 296 359 436
#
# _framework density 21.576352
#
# number of rings (size 3 to 8) (size 9 to 14) (size 15 to 20)
#    0.000    0.800    2.667    5.600    5.600    1.067 
#    2.400    1.333    0.000    0.000    0.000    0.000 
#    0.000    0.000    0.000    0.000    0.000    0.000 
#
# Total GULP energy -83504.083749 kJ/mol
# GULP energy per Si atom -5566.938917 kJ/mol
# Density = 2.152724 g / cm^3
# Si number density = 21.576352 Si / 1000 Ang^3
#
#
#
# Elastic Constant Matrix: (Units=GPa)
#
#
# Indices 1 2 3 4 5 6 
#
# 1 63.9399 37.5026 24.7847 -6.3385 -0.4563 8.5522
# 2 37.5026 85.3255 36.8850 6.1642 -19.2200 10.5418
# 3 24.7847 36.8850 84.1037 14.8366 -12.9293 3.2091
# 4 -6.3385 6.1642 14.8366 43.3899 -2.4130 -3.5435
# 5 -0.4563 -19.2200 -12.9293 -2.4130 37.0989 -1.9705
# 6 8.5522 10.5418 3.2091 -3.5435 -1.9705 35.6890
#
#
#
# Elastic Compliance Matrix: (Units=1/GPa)
#
#
# Indices 1 2 3 4 5 6 
#
# 1 0.024308 -0.010299 -0.004614 0.006065 -0.006363 -0.002117
# 2 -0.010299 0.020533 -0.004010 -0.002810 0.008770 -0.003031
# 3 -0.004614 -0.004010 0.016468 -0.005517 0.003269 0.000442
# 4 0.006065 -0.002810 -0.005517 0.026334 -0.001463 0.002407
# 5 -0.006363 0.008770 0.003269 -0.001463 0.032480 0.000288
# 6 -0.002117 -0.003031 0.000442 0.002407 0.000288 0.029638
#
#
# Mechanical properties :
#
#
# Convention : Reuss Voigt Hill
#
# Bulk Modulus (GPa) = 42.62274 47.96818 45.29546
# Shear Modulus (GPa) = 25.58498 32.18200 28.88349
#
# Velocity S-wave (km/s) = 3.44726 3.86624 3.66275
# Velocity P-wave (km/s) = 5.97010 6.49696 6.23909
#
# Compressibility (1/GPa) = 0.02346165
#
# Stress axis : x y z
#
# Youngs Moduli (GPa) = 41.13884 48.70159 60.72546
#
# Poissons Ratio (x) = 0.50159 0.28017
# Poissons Ratio (y) = 0.42370 0.24354
# Poissons Ratio (z) = 0.18980 0.19532
#
# Static dielectric constant tensor:
#      x y z
#    x 1.802410 -0.061340 -0.000320 
#    y -0.061340 1.828770 -0.029310 
#    z -0.000320 -0.029310 1.457910 
# 
# From -- ./inp_files/389238.got.cif
#   From: 2010.05.17/outbox.cif.g08.bks.cpg/sg2_195_cif.got.tgz:389238.got - 2010.06.03 11:33:40.
