data_PCOD9059607
_publ_section_title
;
Structure prediction by ZEFSAII (Michael W. Deem and Ramdas Pophale) SiO2 
 PCOD9059607
Probable space group: P -1
;
_chemical_formula_sum "Si O2"
_cell_formula_units_Z 14
_cell_length_a 15.469300
_cell_length_b 8.743332
_cell_length_c 10.151228
_cell_angle_alpha 92.750353
_cell_angle_beta 58.529162
_cell_angle_gamma 140.841378
_cell_volume 553.892042
_symmetry_space_group_name_H-M "P -1"
_symmetry_group_IT_number 2
_symmetry_cell_setting 'triclinic'
loop_
_space_group_symop_operation_xyz
x,y,z
-x,-y,-z
loop_
_atom_site_type_symbol
_atom_site_label
_atom_site_fract_x
_atom_site_fract_y
_atom_site_fract_z
Si Si1 0.647141 0.473320 0.885718
Si Si2 0.523270 0.099517 0.342369
Si Si3 0.909073 0.088806 0.377977
Si Si4 0.647604 0.773493 0.079760
Si Si5 0.752943 0.138418 0.653583
Si Si6 0.765001 0.736012 0.225844
Si Si7 0.108023 0.610952 0.057985
O O1 0.678910 0.666268 0.959464
O O2 0.443041 0.111355 0.096900
O O3 0.870941 0.681906 0.724886
O O4 0.566076 0.422360 0.806064
O O5 0.617910 0.395084 0.299947
O O6 0.681374 0.204883 0.137612
O O7 0.500000 0.000000 0.500000
O O8 0.313548 0.840520 0.412210
O O9 0.755816 0.964097 0.600240
O O10 0.974485 0.319090 0.242112
O O11 0.796096 0.822422 0.356454
O O12 0.679465 0.761132 0.204195
O O13 0.831527 0.144487 0.921128
O O14 0.000000 0.500000 0.500000
O O15 0.000000 0.000000 0.000000
O O16 0.000000 0.500000 0.000000
#
# Coordination Sequence:
#
# PCOD9059607 Si02
#       7
#     2   2   2   2   2   2   2
#     4  11  25  49  69 104 146 191 242 299 362 433
#     4  12  27  46  69 109 152 184 242 310 356 433
#     4  12  25  45  79 104 141 200 239 298 370 430
#     4  11  23  41  75  98 145 190 230 300 358 431
#     4  12  27  47  71 106 147 188 245 301 362 433
#     4  12  21  47  77 103 146 193 241 297 368 435
#     4  12  22  40  73 108 138 188 243 287 371 423
#
# _framework density 25.275683999999998
#
# number of rings (size 3 to 8) (size 9 to 14) (size 15 to 20)
#    0.000    0.286    7.143    1.714    2.000    4.000 
#    0.000    2.857    0.000    0.000    0.000    0.000 
#    0.000    0.000    0.000    0.000    0.000    0.000 
#
# Total GULP energy -78479.462853 kJ/mol
# GULP energy per Si atom -5605.675918 kJ/mol
# Density = 2.521816 g / cm^3
# Si number density = 25.275684 Si / 1000 Ang^3
#
#
#
# Elastic Constant Matrix: (Units=GPa)
#
#
# Indices 1 2 3 4 5 6 
#
# 1 181.1861 27.8646 43.9084 -19.9337 -17.8856 38.8066
# 2 27.8646 97.1435 9.4211 -19.8007 -4.1669 7.9439
# 3 43.9084 9.4211 94.3335 1.8186 -22.4259 8.1640
# 4 -19.9337 -19.8007 1.8186 36.5745 -4.4945 -3.1300
# 5 -17.8856 -4.1669 -22.4259 -4.4945 51.4392 -14.9894
# 6 38.8066 7.9439 8.1640 -3.1300 -14.9894 58.5476
#
#
#
# Elastic Compliance Matrix: (Units=1/GPa)
#
#
# Indices 1 2 3 4 5 6 
#
# 1 0.007763 -0.000817 -0.003153 0.003614 0.000315 -0.004321
# 2 -0.000817 0.011909 -0.000703 0.006093 0.000775 -0.000452
# 3 -0.003153 -0.000703 0.013204 -0.002032 0.004857 0.001479
# 4 0.003614 0.006093 -0.002032 0.033146 0.003696 -0.000221
# 5 0.000315 0.000775 0.004857 0.003696 0.023581 0.005244
# 6 -0.004321 -0.000452 0.001479 -0.000221 0.005244 0.021130
#
#
# Mechanical properties :
#
#
# Convention : Reuss Voigt Hill
#
# Bulk Modulus (GPa) = 42.49897 59.45015 50.97456
# Shear Modulus (GPa) = 39.08599 48.74352 43.91476
#
# Velocity S-wave (km/s) = 3.93668 4.39620 4.17277
# Velocity P-wave (km/s) = 6.12486 7.02428 6.58994
#
# Compressibility (1/GPa) = 0.02352998
#
# Stress axis : x y z
#
# Youngs Moduli (GPa) = 128.81395 83.97109 75.73403
#
# Poissons Ratio (x) = 0.06865 0.23876
# Poissons Ratio (y) = 0.10530 0.05324
# Poissons Ratio (z) = 0.40609 0.05903
#
# Static dielectric constant tensor:
#      x y z
#    x 1.989770 0.000640 0.028530 
#    y 0.000640 2.064030 0.007550 
#    z 0.028530 0.007550 2.004720 
# 
# From -- ./inp_files/444601.got.cif
#   From: 2010.05.17/outbox.cif.g08.bks.cpg/sg2_223_cif.got.tgz:444601.got - 2010.06.03 11:33:40.
