data_PCOD9059927
_publ_section_title
;
Structure prediction by ZEFSAII (Michael W. Deem and Ramdas Pophale) SiO2 
 PCOD9059927
Probable space group: P -1
;
_chemical_formula_sum "Si O2"
_cell_formula_units_Z 12
_cell_length_a 11.124267
_cell_length_b 8.962133
_cell_length_c 13.084927
_cell_angle_alpha 64.639265
_cell_angle_beta 155.554764
_cell_angle_gamma 113.249493
_cell_volume 487.779114
_symmetry_space_group_name_H-M "P -1"
_symmetry_group_IT_number 2
_symmetry_cell_setting 'triclinic'
loop_
_space_group_symop_operation_xyz
x,y,z
-x,-y,-z
loop_
_atom_site_type_symbol
_atom_site_label
_atom_site_fract_x
_atom_site_fract_y
_atom_site_fract_z
Si Si1 0.257817 0.094891 0.536851
Si Si2 0.270401 0.113698 0.142632
Si Si3 0.710479 0.567565 0.812497
Si Si4 0.093656 0.437137 0.316489
Si Si5 0.733196 0.862201 0.247155
Si Si6 0.762824 0.626540 0.149641
O O1 0.095403 0.253470 0.324129
O O2 0.358520 0.181489 0.695792
O O3 0.480476 0.014526 0.656773
O O4 0.048515 0.949225 0.456057
O O5 0.326206 0.239089 0.243471
O O6 0.236495 0.224449 0.979344
O O7 0.000000 0.000000 0.000000
O O8 0.803662 0.502883 0.016020
O O9 0.423916 0.508987 0.546784
O O10 0.000000 0.500000 0.000000
O O11 0.020366 0.502417 0.355101
O O12 0.757589 0.722358 0.223938
O O13 0.500000 0.000000 0.000000
O O14 0.500000 0.500000 0.000000
#
# Coordination Sequence:
#
# PCOD9059927 Si02
#       6
#     2   2   2   2   2   2
#     4  11  25  42  71 110 142 197 244 312 374 441
#     4  11  25  47  72 109 148 194 248 305 378 445
#     4  11  25  48  73 106 147 200 249 305 372 452
#     4  11  26  44  74 110 146 193 252 309 374 441
#     4  11  23  42  71 104 148 186 253 308 371 442
#     4  11  25  46  75 108 147 198 251 309 375 445
#
# _framework density 24.601296999999999
#
# number of rings (size 3 to 8) (size 9 to 14) (size 15 to 20)
#    0.000    1.000    1.667    3.500    9.333    3.333 
#    0.000    5.000    0.000    0.000    0.000    0.000 
#    0.000    0.000    0.000    0.000    0.000    0.000 
#
# Total GULP energy -66819.479823 kJ/mol
# GULP energy per Si atom -5568.289985 kJ/mol
# Density = 2.454530 g / cm^3
# Si number density = 24.601297 Si / 1000 Ang^3
#
#
#
# Elastic Constant Matrix: (Units=GPa)
#
#
# Indices 1 2 3 4 5 6 
#
# 1 127.4476 65.3029 38.7801 -3.4364 27.6655 -29.9603
# 2 65.3029 169.1070 23.3394 -0.9676 12.4012 -40.5528
# 3 38.7801 23.3394 67.8836 3.3212 23.9371 -4.9691
# 4 -3.4364 -0.9676 3.3212 55.2014 -11.4587 12.9237
# 5 27.6655 12.4012 23.9371 -11.4587 45.8574 -17.3691
# 6 -29.9603 -40.5528 -4.9691 12.9237 -17.3691 62.3598
#
#
#
# Elastic Compliance Matrix: (Units=1/GPa)
#
#
# Indices 1 2 3 4 5 6 
#
# 1 0.012161 -0.003230 -0.004499 -0.000294 -0.003223 0.002547
# 2 -0.003230 0.008244 -0.001313 -0.000603 0.001905 0.004361
# 3 -0.004499 -0.001313 0.021168 -0.002830 -0.010026 -0.003534
# 4 -0.000294 -0.000603 -0.002830 0.020210 0.005583 -0.003392
# 5 -0.003223 0.001905 -0.010026 0.005583 0.032428 0.006766
# 6 0.002547 0.004361 -0.003534 -0.003392 0.006766 0.022401
#
#
# Mechanical properties :
#
#
# Convention : Reuss Voigt Hill
#
# Bulk Modulus (GPa) = 42.57130 68.80923 55.69026
# Shear Modulus (GPa) = 35.08164 48.48478 41.78321
#
# Velocity S-wave (km/s) = 3.78035 4.44421 4.12565
# Velocity P-wave (km/s) = 6.03297 7.37327 6.73654
#
# Compressibility (1/GPa) = 0.02349000
#
# Stress axis : x y z
#
# Youngs Moduli (GPa) = 82.23194 121.29636 47.24152
#
# Poissons Ratio (x) = 0.39174 0.21255
# Poissons Ratio (y) = 0.26557 0.06201
# Poissons Ratio (z) = 0.36998 0.15921
#
# Static dielectric constant tensor:
#      x y z
#    x 2.711630 0.229190 -0.100530 
#    y 0.229190 2.074520 -0.022140 
#    z -0.100530 -0.022140 2.125700 
# 
# From -- ./inp_files/44354.got.cif
#   From: 2010.05.17/outbox.cif.g08.bks.cpg/sg2_23_cif.got.tgz:44354.got - 2010.06.03 11:33:40.
