data_PCOD9059078
_publ_section_title
;
Structure prediction by ZEFSAII (Michael W. Deem and Ramdas Pophale) SiO2 
 PCOD9059078
Probable space group: P -1
;
_chemical_formula_sum "Si O2"
_cell_formula_units_Z 16
_cell_length_a 11.590648
_cell_length_b 16.402973
_cell_length_c 10.925510
_cell_angle_alpha 24.461090
_cell_angle_beta 85.775886
_cell_angle_gamma 101.523220
_cell_volume 654.686114
_symmetry_space_group_name_H-M "P -1"
_symmetry_group_IT_number 2
_symmetry_cell_setting 'triclinic'
loop_
_space_group_symop_operation_xyz
x,y,z
-x,-y,-z
loop_
_atom_site_type_symbol
_atom_site_label
_atom_site_fract_x
_atom_site_fract_y
_atom_site_fract_z
Si Si1 0.604245 0.923787 0.691109
Si Si2 0.333899 0.586748 0.863717
Si Si3 0.782108 0.872176 0.335393
Si Si4 0.842370 0.216023 0.069090
Si Si5 0.088787 0.303397 0.076629
Si Si6 0.687921 0.637788 0.210943
Si Si7 0.248672 0.451925 0.411740
Si Si8 0.461953 0.175598 0.717291
O O1 0.628625 0.173004 0.394670
O O2 0.686083 0.991544 0.460591
O O3 0.690246 0.862823 0.855356
O O4 0.425568 0.677822 0.048021
O O5 0.446635 0.690544 0.598928
O O6 0.329281 0.385532 0.219896
O O7 0.169479 0.428507 0.028117
O O8 0.841611 0.767688 0.384171
O O9 0.703346 0.942019 0.154387
O O10 0.873462 0.096105 0.122005
O O11 0.974754 0.343254 0.984226
O O12 0.820773 0.409570 0.755689
O O13 0.215993 0.400104 0.833182
O O14 0.000000 0.000000 0.500000
O O15 0.744773 0.658290 0.312561
O O16 0.518521 0.375291 0.551047
O O17 0.500000 0.000000 0.000000
#
# Coordination Sequence:
#
# PCOD9059078 Si02
#       8
#     2   2   2   2   2   2   2   2
#     4  12  23  42  70 103 140 172 224 282 339 408
#     4  11  24  40  69 102 127 181 229 274 341 394
#     4  12  24  40  68  99 140 175 222 276 339 400
#     4  12  25  45  70  99 134 183 229 281 328 398
#     4  11  23  48  72  90 133 182 236 278 327 397
#     4  11  24  45  67  97 139 182 218 278 341 398
#     4  12  27  43  67 107 142 172 222 280 346 405
#     4  11  23  40  66 100 136 179 218 272 343 413
#
# _framework density 24.439194000000001
#
# number of rings (size 3 to 8) (size 9 to 14) (size 15 to 20)
#    0.000    0.500    5.000    4.125    3.500    1.000 
#    2.250    0.625    0.000    0.000    0.000    0.000 
#    0.000    0.000    0.000    0.000    0.000    0.000 
#
# Total GULP energy -89543.602523 kJ/mol
# GULP energy per Si atom -5596.475158 kJ/mol
# Density = 2.438357 g / cm^3
# Si number density = 24.439194 Si / 1000 Ang^3
#
#
#
# Elastic Constant Matrix: (Units=GPa)
#
#
# Indices 1 2 3 4 5 6 
#
# 1 76.7139 8.5018 36.0383 2.1000 22.2905 17.5621
# 2 8.5018 128.0201 33.3969 -3.1526 15.6510 -1.1411
# 3 36.0383 33.3969 80.2477 9.6725 36.6544 4.2182
# 4 2.1000 -3.1526 9.6725 44.1484 7.7260 10.7724
# 5 22.2905 15.6510 36.6544 7.7260 48.4044 7.4740
# 6 17.5621 -1.1411 4.2182 10.7724 7.4740 34.6216
#
#
#
# Elastic Compliance Matrix: (Units=1/GPa)
#
#
# Indices 1 2 3 4 5 6 
#
# 1 0.019451 0.001104 -0.008078 0.003641 -0.002315 -0.009479
# 2 0.001104 0.008925 -0.004189 0.001622 -0.000456 -0.000162
# 3 -0.008078 -0.004189 0.024162 -0.004136 -0.013363 0.005187
# 4 0.003641 0.001622 -0.004136 0.026014 -0.001834 -0.008988
# 5 -0.002315 -0.000456 -0.013363 -0.001834 0.032862 -0.003736
# 6 -0.009479 -0.000162 0.005187 -0.008988 -0.003736 0.036658
#
#
# Mechanical properties :
#
#
# Convention : Reuss Voigt Hill
#
# Bulk Modulus (GPa) = 33.09910 48.98395 41.04153
# Shear Modulus (GPa) = 27.70580 39.23787 33.47183
#
# Velocity S-wave (km/s) = 3.37064 4.01125 3.70482
# Velocity P-wave (km/s) = 5.35921 6.44517 5.92712
#
# Compressibility (1/GPa) = 0.03021230
#
# Stress axis : x y z
#
# Youngs Moduli (GPa) = 51.41143 112.04566 41.38721
#
# Poissons Ratio (x) = -0.12367 0.33432
# Poissons Ratio (y) = -0.05674 0.17336
# Poissons Ratio (z) = 0.41530 0.46932
#
# Static dielectric constant tensor:
#      x y z
#    x 2.010200 0.001280 -0.082600 
#    y 0.001280 1.930370 0.001790 
#    z -0.082600 0.001790 1.975470 
# 
# From -- ./inp_files/333662.got.cif
#   From: 2010.05.17/outbox.cif.g08.bks.cpg/sg2_167_cif.got.tgz:333662.got - 2010.06.03 11:33:40.
