data_PCOD9059717
_publ_section_title
;
Structure prediction by ZEFSAII (Michael W. Deem and Ramdas Pophale) SiO2 
 PCOD9059717
Probable space group: P -1
;
_chemical_formula_sum "Si O2"
_cell_formula_units_Z 14
_cell_length_a 11.312646
_cell_length_b 10.728713
_cell_length_c 13.452035
_cell_angle_alpha 119.601191
_cell_angle_beta 148.259762
_cell_angle_gamma 82.269247
_cell_volume 583.381463
_symmetry_space_group_name_H-M "P -1"
_symmetry_group_IT_number 2
_symmetry_cell_setting 'triclinic'
loop_
_space_group_symop_operation_xyz
x,y,z
-x,-y,-z
loop_
_atom_site_type_symbol
_atom_site_label
_atom_site_fract_x
_atom_site_fract_y
_atom_site_fract_z
Si Si1 0.021746 0.738960 0.180796
Si Si2 0.898644 0.976977 0.305772
Si Si3 0.704727 0.377912 0.301977
Si Si4 0.866501 0.741089 0.867223
Si Si5 0.037301 0.521632 0.794925
Si Si6 0.400397 0.167452 0.435846
Si Si7 0.623336 0.670365 0.310994
O O1 0.802869 0.660873 0.900954
O O2 0.324118 0.821397 0.378101
O O3 0.014072 0.885451 0.290425
O O4 0.981309 0.595097 0.172647
O O5 0.553178 0.832756 0.992676
O O6 0.000000 0.000000 0.500000
O O7 0.066766 0.177981 0.457344
O O8 0.580903 0.487869 0.235701
O O9 0.000000 0.500000 0.500000
O O10 0.809546 0.397765 0.497674
O O11 0.117891 0.957639 0.146279
O O12 0.981446 0.658760 0.848427
O O13 0.618631 0.727053 0.627013
O O14 0.369300 0.628669 0.041480
O O15 0.397799 0.248102 0.570155
#
# Coordination Sequence:
#
# PCOD9059717 Si02
#       7
#     2   2   2   2   2   2   2
#     4  12  25  43  72 110 152 194 245 304 375 441
#     4  12  29  53  79 109 149 200 257 312 372 449
#     4  12  30  53  76 112 149 198 260 310 374 448
#     4  11  23  42  67 112 150 196 244 299 372 446
#     4  12  26  44  77 109 153 198 245 313 370 445
#     4  11  24  41  73 109 155 195 246 305 367 454
#     4  12  25  51  79 109 155 200 247 310 377 439
#
# _framework density 23.998017000000001
#
# number of rings (size 3 to 8) (size 9 to 14) (size 15 to 20)
#    0.000    0.286    5.714    2.571    4.000    2.286 
#    2.571    0.000    0.000    0.000    0.000    0.000 
#    0.000    0.000    0.000    0.000    0.000    0.000 
#
# Total GULP energy -78460.968519 kJ/mol
# GULP energy per Si atom -5604.354894 kJ/mol
# Density = 2.394340 g / cm^3
# Si number density = 23.998017 Si / 1000 Ang^3
#
#
#
# Elastic Constant Matrix: (Units=GPa)
#
#
# Indices 1 2 3 4 5 6 
#
# 1 78.1081 4.5039 39.3064 -14.6972 -4.2174 19.9885
# 2 4.5039 95.6217 36.0952 -16.2345 -4.2131 17.4798
# 3 39.3064 36.0952 159.5635 -4.9616 -15.5649 19.4035
# 4 -14.6972 -16.2345 -4.9616 48.9830 5.7968 3.7369
# 5 -4.2174 -4.2131 -15.5649 5.7968 45.4596 -8.3150
# 6 19.9885 17.4798 19.4035 3.7369 -8.3150 38.5110
#
#
#
# Elastic Compliance Matrix: (Units=1/GPa)
#
#
# Indices 1 2 3 4 5 6 
#
# 1 0.018659 0.003788 -0.004158 0.007498 -0.002221 -0.010516
# 2 0.003788 0.013820 -0.003097 0.006176 -0.001610 -0.007625
# 3 -0.004158 -0.003097 0.008152 -0.001739 0.002365 0.000136
# 4 0.007498 0.006176 -0.001739 0.025750 -0.004302 -0.009246
# 5 -0.002221 -0.001610 0.002365 -0.004302 0.024158 0.006326
# 6 -0.010516 -0.007625 0.000136 -0.009246 0.006326 0.037081
#
#
# Mechanical properties :
#
#
# Convention : Reuss Voigt Hill
#
# Bulk Modulus (GPa) = 29.67623 54.78937 42.23280
# Shear Modulus (GPa) = 34.29690 43.48326 38.89008
#
# Velocity S-wave (km/s) = 3.78452 4.26132 4.02998
# Velocity P-wave (km/s) = 5.61157 6.86237 6.26825
#
# Compressibility (1/GPa) = 0.03369700
#
# Stress axis : x y z
#
# Youngs Moduli (GPa) = 53.59378 72.35855 122.66770
#
# Poissons Ratio (x) = -0.27411 0.51006
# Poissons Ratio (y) = -0.20303 0.37993
# Poissons Ratio (z) = 0.22284 0.22411
#
# Static dielectric constant tensor:
#      x y z
#    x 1.936370 0.026930 0.063930 
#    y 0.026930 1.902570 0.021930 
#    z 0.063930 0.021930 1.942390 
# 
# From -- ./inp_files/519875.got.cif
#   From: 2010.05.17/outbox.cif.g08.bks.cpg/sg2_260_cif.got.tgz:519875.got - 2010.06.03 11:33:40.
