data_PCOD9059995
_publ_section_title
;
Structure prediction by ZEFSAII (Michael W. Deem and Ramdas Pophale) SiO2 
 PCOD9059995
Probable space group: P -1
;
_chemical_formula_sum "Si O2"
_cell_formula_units_Z 14
_cell_length_a 8.266121
_cell_length_b 8.584154
_cell_length_c 20.911446
_cell_angle_alpha 147.997496
_cell_angle_beta 56.267236
_cell_angle_gamma 126.946003
_cell_volume 624.809900
_symmetry_space_group_name_H-M "P -1"
_symmetry_group_IT_number 2
_symmetry_cell_setting 'triclinic'
loop_
_space_group_symop_operation_xyz
x,y,z
-x,-y,-z
loop_
_atom_site_type_symbol
_atom_site_label
_atom_site_fract_x
_atom_site_fract_y
_atom_site_fract_z
Si Si1 0.556434 0.794800 0.472117
Si Si2 0.861914 0.718155 0.618251
Si Si3 0.967220 0.698453 0.297941
Si Si4 0.135910 0.852142 0.961992
Si Si5 0.636367 0.355873 0.741528
Si Si6 0.812249 0.975085 0.848156
Si Si7 0.535892 0.373619 0.017230
O O1 0.373472 0.480851 0.403739
O O2 0.770590 0.727328 0.389100
O O3 0.500000 0.000000 0.500000
O O4 0.573694 0.021839 0.607352
O O5 0.919757 0.871634 0.728649
O O6 0.000000 0.500000 0.500000
O O7 0.910788 0.973018 0.641990
O O8 0.892053 0.480295 0.177082
O O9 0.132665 0.585079 0.261955
O O10 0.086791 0.882134 0.057450
O O11 0.359883 0.071424 0.974054
O O12 0.000000 0.000000 0.000000
O O13 0.653886 0.644628 0.790455
O O14 0.483141 0.379682 0.839923
O O15 0.725113 0.240758 0.931818
O O16 0.500000 0.500000 0.000000
#
# Coordination Sequence:
#
# PCOD9059995 Si02
#       7
#     2   2   2   2   2   2   2
#     4  12  25  45  73 101 139 192 236 288 357 412
#     4  12  26  46  71 106 139 183 246 293 345 425
#     4  12  25  46  72 101 149 182 238 296 346 424
#     4  11  23  44  69 102 139 182 230 285 361 414
#     4  11  23  45  69 104 141 191 230 287 361 417
#     4  11  23  42  73 100 139 186 232 290 357 420
#     4  11  24  44  70 104 141 177 239 296 349 427
#
# _framework density 22.406815000000002
#
# number of rings (size 3 to 8) (size 9 to 14) (size 15 to 20)
#    0.000    0.571    5.714    3.857    2.000    1.143 
#    2.571    0.000    0.000    0.000    0.000    0.000 
#    0.000    0.000    0.000    0.000    0.000    0.000 
#
# Total GULP energy -78265.788488 kJ/mol
# GULP energy per Si atom -5590.413463 kJ/mol
# Density = 2.235582 g / cm^3
# Si number density = 22.406815 Si / 1000 Ang^3
#
#
#
# Elastic Constant Matrix: (Units=GPa)
#
#
# Indices 1 2 3 4 5 6 
#
# 1 68.5084 29.5111 58.2616 -6.8551 -0.7568 -21.0256
# 2 29.5111 97.6556 42.1976 5.6388 -7.8710 -2.1620
# 3 58.2616 42.1976 202.4042 -22.4569 -1.0153 -8.4771
# 4 -6.8551 5.6388 -22.4569 43.3297 2.6977 6.4238
# 5 -0.7568 -7.8710 -1.0153 2.6977 38.8245 10.6029
# 6 -21.0256 -2.1620 -8.4771 6.4238 10.6029 39.4550
#
#
#
# Elastic Compliance Matrix: (Units=1/GPa)
#
#
# Indices 1 2 3 4 5 6 
#
# 1 0.025935 -0.005399 -0.005789 0.000086 -0.004421 0.013455
# 2 -0.005399 0.012964 -0.001604 -0.003155 0.003503 -0.002939
# 3 -0.005789 -0.001604 0.007222 0.003355 0.000118 -0.002199
# 4 0.000086 -0.003155 0.003355 0.025810 -0.001466 -0.003215
# 5 -0.004421 0.003503 0.000118 -0.001466 0.029144 -0.009732
# 6 0.013455 -0.002939 -0.002199 -0.003215 -0.009732 0.035021
#
#
# Mechanical properties :
#
#
# Convention : Reuss Voigt Hill
#
# Bulk Modulus (GPa) = 48.69393 69.83432 59.26412
# Shear Modulus (GPa) = 29.66920 40.22838 34.94879
#
# Velocity S-wave (km/s) = 3.64279 4.24177 3.95364
# Velocity P-wave (km/s) = 6.28268 7.43131 6.88101
#
# Compressibility (1/GPa) = 0.02053644
#
# Stress axis : x y z
#
# Youngs Moduli (GPa) = 38.55843 77.13422 138.46569
#
# Poissons Ratio (x) = 0.41648 0.80153
# Poissons Ratio (y) = 0.20819 0.22213
# Poissons Ratio (z) = 0.22320 0.12374
#
# Static dielectric constant tensor:
#      x y z
#    x 1.569890 -0.012830 0.127730 
#    y -0.012830 1.810160 -0.003290 
#    z 0.127730 -0.003290 1.796470 
# 
# From -- ./inp_files/188139.got.cif
#   From: 2010.05.17/outbox.cif.g08.bks.cpg/sg2_95_cif.got.tgz:188139.got - 2010.06.03 11:33:40.
