data_PCOD9059199
_publ_section_title
;
Structure prediction by ZEFSAII (Michael W. Deem and Ramdas Pophale) SiO2 
 PCOD9059199
Probable space group: P -1
;
_chemical_formula_sum "Si O2"
_cell_formula_units_Z 16
_cell_length_a 19.849612
_cell_length_b 12.774266
_cell_length_c 17.624155
_cell_angle_alpha 29.681924
_cell_angle_beta 19.651988
_cell_angle_gamma 39.905217
_cell_volume 708.347418
_symmetry_space_group_name_H-M "P -1"
_symmetry_group_IT_number 2
_symmetry_cell_setting 'triclinic'
loop_
_space_group_symop_operation_xyz
x,y,z
-x,-y,-z
loop_
_atom_site_type_symbol
_atom_site_label
_atom_site_fract_x
_atom_site_fract_y
_atom_site_fract_z
Si Si1 0.600494 0.172938 0.350462
Si Si2 0.779846 0.996655 0.910799
Si Si3 0.780285 0.666406 0.819802
Si Si4 0.272892 0.341868 0.686541
Si Si5 0.141474 0.361432 0.470937
Si Si6 0.530355 0.327661 0.978040
Si Si7 0.415351 0.181150 0.932718
Si Si8 0.029986 0.926510 0.928922
O O1 0.437578 0.249750 0.524158
O O2 0.727785 0.056917 0.341540
O O3 0.500000 0.000000 0.500000
O O4 0.759348 0.404848 0.003870
O O5 0.794340 0.805860 0.073576
O O6 0.687982 0.900711 0.987034
O O7 0.008666 0.178068 0.540764
O O8 0.615177 0.121822 0.035617
O O9 0.566329 0.682493 0.996326
O O10 0.756505 0.751622 0.875594
O O11 0.387513 0.595734 0.425576
O O12 0.094017 0.301935 0.836549
O O13 0.333375 0.352425 0.219337
O O14 0.000000 0.500000 0.500000
O O15 0.989955 0.116779 0.800144
O O16 0.264872 0.464874 0.351768
O O17 0.500000 0.000000 0.000000
O O18 0.000000 0.000000 0.000000
#
# Coordination Sequence:
#
# PCOD9059199 Si02
#       8
#     2   2   2   2   2   2   2   2
#     4  11  24  43  67 100 147 182 231 279 349 415
#     4  12  25  46  74 100 141 179 242 292 351 414
#     4  11  25  42  74 104 133 186 234 293 351 415
#     4  11  26  46  69 103 139 185 227 292 354 410
#     4  11  25  42  64 103 143 183 225 281 346 417
#     4  11  23  40  70  97 141 180 228 280 347 409
#     4  11  25  49  74  99 139 182 235 297 360 411
#     4  12  25  39  68  97 137 180 227 275 338 415
#
# _framework density 22.587786999999999
#
# number of rings (size 3 to 8) (size 9 to 14) (size 15 to 20)
#    0.000    0.750    2.500    4.500    7.000    2.000 
#    0.000    1.250    0.000    0.000    0.000    0.000 
#    0.000    0.000    0.000    0.000    0.000    0.000 
#
# Total GULP energy -89443.003365 kJ/mol
# GULP energy per Si atom -5590.187710 kJ/mol
# Density = 2.253638 g / cm^3
# Si number density = 22.587787 Si / 1000 Ang^3
#
#
#
# Elastic Constant Matrix: (Units=GPa)
#
#
# Indices 1 2 3 4 5 6 
#
# 1 118.1051 26.8336 57.9506 -13.5746 -23.1408 5.1428
# 2 26.8336 88.1452 42.3606 -11.1370 -5.4993 -1.8406
# 3 57.9506 42.3606 138.4380 -24.2144 -1.8035 4.6334
# 4 -13.5746 -11.1370 -24.2144 41.2155 -2.4048 -2.6662
# 5 -23.1408 -5.4993 -1.8035 -2.4048 44.0346 -6.2822
# 6 5.1428 -1.8406 4.6334 -2.6662 -6.2822 36.4986
#
#
#
# Elastic Compliance Matrix: (Units=1/GPa)
#
#
# Indices 1 2 3 4 5 6 
#
# 1 0.012295 -0.001006 -0.004495 0.001498 0.006229 -0.000031
# 2 -0.001006 0.013653 -0.003538 0.001463 0.001342 0.001617
# 3 -0.004495 -0.003538 0.010845 0.003733 -0.002305 -0.001046
# 4 0.001498 0.001463 0.003733 0.027638 0.002904 0.001907
# 5 0.006229 0.001342 -0.002305 0.002904 0.026830 0.004313
# 6 -0.000031 0.001617 -0.001046 0.001907 0.004313 0.028499
#
#
# Mechanical properties :
#
#
# Convention : Reuss Voigt Hill
#
# Bulk Modulus (GPa) = 53.42471 66.55309 59.98890
# Shear Modulus (GPa) = 34.70406 38.85267 36.77836
#
# Velocity S-wave (km/s) = 3.92396 4.15188 4.03952
# Velocity P-wave (km/s) = 6.65081 7.24653 6.95505
#
# Compressibility (1/GPa) = 0.01871793
#
# Stress axis : x y z
#
# Youngs Moduli (GPa) = 81.33423 73.24134 92.20460
#
# Poissons Ratio (x) = 0.07365 0.41444
# Poissons Ratio (y) = 0.08178 0.32619
# Poissons Ratio (z) = 0.36558 0.25911
#
# Static dielectric constant tensor:
#      x y z
#    x 1.902550 -0.072360 -0.042630 
#    y -0.072360 2.036710 0.107200 
#    z -0.042630 0.107200 1.934110 
# 
# From -- ./inp_files/577908.got.cif
#   From: 2010.05.17/outbox.cif.g08.bks.cpg/sg2_289_cif.got.tgz:577908.got - 2010.06.03 11:33:40.
