data_PCOD9059521
_publ_section_title
;
Structure prediction by ZEFSAII (Michael W. Deem and Ramdas Pophale) SiO2 
 PCOD9059521
Probable space group: P -1
;
_chemical_formula_sum "Si O2"
_cell_formula_units_Z 13
_cell_length_a 16.132779
_cell_length_b 7.973462
_cell_length_c 5.010643
_cell_angle_alpha 80.309353
_cell_angle_beta 82.312637
_cell_angle_gamma 51.863330
_cell_volume 499.352621
_symmetry_space_group_name_H-M "P -1"
_symmetry_group_IT_number 2
_symmetry_cell_setting 'triclinic'
loop_
_space_group_symop_operation_xyz
x,y,z
-x,-y,-z
loop_
_atom_site_type_symbol
_atom_site_label
_atom_site_fract_x
_atom_site_fract_y
_atom_site_fract_z
Si Si1 0.999878 0.732853 0.169772
Si Si2 0.500000 0.000000 0.000000
Si Si3 0.325222 0.651642 0.649990
Si Si4 0.316350 0.179038 0.211661
Si Si5 0.526270 0.220595 0.407150
Si Si6 0.789916 0.347247 0.778613
Si Si7 0.117794 0.219421 0.286709
O O1 0.087949 0.762957 0.187152
O O2 0.062234 0.474882 0.213427
O O3 0.910647 0.818456 0.405385
O O4 0.939688 0.823355 0.894660
O O5 0.430109 0.975256 0.342894
O O6 0.506390 0.812047 0.854686
O O7 0.427043 0.431690 0.533868
O O8 0.375818 0.772210 0.663269
O O9 0.238068 0.738728 0.431746
O O10 0.269524 0.649367 0.937630
O O11 0.370689 0.176359 0.921060
O O12 0.259098 0.402711 0.323965
O O13 0.238661 0.120106 0.220943
#
# Coordination Sequence:
#
# PCOD9059521 Si02
#       7
#     2   1   2   2   2   2   2
#     4   9  18  36  59  93 126 165 213 270 321 388
#     4  12  24  42  66 102 130 178 216 282 314 400
#     4  11  26  45  66  98 136 182 210 271 328 404
#     4  11  24  38  67  98 133 169 223 276 321 386
#     4  11  27  43  67  95 141 171 227 261 335 393
#     4  11  23  41  70  98 132 172 227 267 332 383
#     4   9  19  34  59  92 129 162 211 272 330 364
#
# _framework density 26.033708000000001
#
# number of rings (size 3 to 8) (size 9 to 14) (size 15 to 20)
#    0.000    1.538    1.538    2.308    6.462    3.692 
#    0.000    0.000    0.000    5.538    0.000    0.000 
#    0.000    0.000    0.000    0.000    0.000    0.000 
#
# Total GULP energy -72637.957802 kJ/mol
# GULP energy per Si atom -5587.535216 kJ/mol
# Density = 2.597445 g / cm^3
# Si number density = 26.033708 Si / 1000 Ang^3
#
#
#
# Elastic Constant Matrix: (Units=GPa)
#
#
# Indices 1 2 3 4 5 6 
#
# 1 238.7293 40.1297 33.0841 11.9061 -4.2613 8.5104
# 2 40.1297 76.0874 5.3622 8.8480 8.4811 5.9850
# 3 33.0841 5.3622 95.5077 4.5973 19.7122 11.3938
# 4 11.9061 8.8480 4.5973 17.8094 0.8714 -1.1358
# 5 -4.2613 8.4811 19.7122 0.8714 39.4485 3.9687
# 6 8.5104 5.9850 11.3938 -1.1358 3.9687 49.9467
#
#
#
# Elastic Compliance Matrix: (Units=1/GPa)
#
#
# Indices 1 2 3 4 5 6 
#
# 1 0.005012 -0.002517 -0.001908 -0.001731 0.002107 -0.000324
# 2 -0.002517 0.015687 0.001311 -0.006354 -0.004000 -0.001576
# 3 -0.001908 0.001311 0.012814 -0.002507 -0.006606 -0.002287
# 4 -0.001731 -0.006354 -0.002507 0.061262 0.000781 0.002959
# 5 0.002107 -0.004000 -0.006606 0.000781 0.029793 -0.000722
# 6 -0.000324 -0.001576 -0.002287 0.002959 -0.000722 0.020912
#
#
# Mechanical properties :
#
#
# Convention : Reuss Voigt Hill
#
# Bulk Modulus (GPa) = 36.64958 63.05296 49.85127
# Shear Modulus (GPa) = 31.09399 43.55746 37.32573
#
# Velocity S-wave (km/s) = 3.45972 4.09481 3.79059
# Velocity P-wave (km/s) = 5.48342 6.82854 6.19261
#
# Compressibility (1/GPa) = 0.02728544
#
# Stress axis : x y z
#
# Youngs Moduli (GPa) = 199.52993 63.74857 78.03682
#
# Poissons Ratio (x) = 0.16044 0.14886
# Poissons Ratio (y) = 0.50218 -0.10228
# Poissons Ratio (z) = 0.38062 -0.08355
#
# Static dielectric constant tensor:
#      x y z
#    x 2.046400 0.019230 -0.186010 
#    y 0.019230 2.243590 -0.072470 
#    z -0.186010 -0.072470 2.374460 
# 
# From -- ./inp_files/87574.got.cif
#   From: 2010.05.17/outbox.cif.g08.bks.cpg/sg2_44_cif.got.tgz:87574.got - 2010.06.03 11:33:40.
