data_PCOD9059229
_publ_section_title
;
Structure prediction by ZEFSAII (Michael W. Deem and Ramdas Pophale) SiO2 
 PCOD9059229
Probable space group: P -1
;
_chemical_formula_sum "Si O2"
_cell_formula_units_Z 14
_cell_length_a 18.058448
_cell_length_b 8.767490
_cell_length_c 5.060680
_cell_angle_alpha 103.921833
_cell_angle_beta 51.363250
_cell_angle_gamma 115.612166
_cell_volume 563.881511
_symmetry_space_group_name_H-M "P -1"
_symmetry_group_IT_number 2
_symmetry_cell_setting 'triclinic'
loop_
_space_group_symop_operation_xyz
x,y,z
-x,-y,-z
loop_
_atom_site_type_symbol
_atom_site_label
_atom_site_fract_x
_atom_site_fract_y
_atom_site_fract_z
Si Si1 0.411043 0.368107 0.973885
Si Si2 0.498690 0.139921 0.354613
Si Si3 0.072506 0.396065 0.352697
Si Si4 0.288553 0.891083 0.611209
Si Si5 0.761403 0.954290 0.685847
Si Si6 0.062066 0.172681 0.775256
Si Si7 0.709772 0.399074 0.797439
O O1 0.459000 0.282659 0.613870
O O2 0.500000 0.500000 0.000000
O O3 0.337280 0.209819 0.236349
O O4 0.338399 0.460008 0.070653
O O5 0.405315 0.016522 0.334175
O O6 0.500000 0.000000 0.500000
O O7 0.615920 0.246131 0.071251
O O8 0.028536 0.252199 0.623567
O O9 0.182548 0.520786 0.265852
O O10 0.000000 0.500000 0.500000
O O11 0.086767 0.310987 0.011308
O O12 0.215395 0.923352 0.566190
O O13 0.276446 0.696446 0.538806
O O14 0.262195 0.949922 0.973940
O O15 0.843545 0.875615 0.549902
O O16 0.000000 0.000000 0.000000
#
# Coordination Sequence:
#
# PCOD9059229 Si02
#       7
#     2   2   2   2   2   2   2
#     4  11  23  40  72 112 155 201 258 318 394 466
#     4  11  24  44  70 114 159 211 259 309 388 486
#     4  12  30  55  83 122 159 207 274 341 412 471
#     4  11  25  45  74 109 158 204 258 303 393 479
#     4  11  25  48  75 111 149 206 257 318 389 483
#     4  12  28  56  84 113 157 205 276 338 409 480
#     4  12  25  46  77 111 162 208 259 334 394 464
#
# _framework density 24.827912999999999
#
# number of rings (size 3 to 8) (size 9 to 14) (size 15 to 20)
#    0.000    0.571    1.429    6.000    6.000    2.286 
#    2.571    0.000    0.000    0.000    0.000    0.000 
#    0.000    0.000    0.000    0.000    0.000    0.000 
#
# Total GULP energy -78320.419165 kJ/mol
# GULP energy per Si atom -5594.315655 kJ/mol
# Density = 2.477140 g / cm^3
# Si number density = 24.827913 Si / 1000 Ang^3
#
#
#
# Elastic Constant Matrix: (Units=GPa)
#
#
# Indices 1 2 3 4 5 6 
#
# 1 161.8514 63.5628 47.7535 16.4204 -19.1726 -35.3018
# 2 63.5628 151.5717 67.0972 26.5573 -8.5704 -6.7711
# 3 47.7535 67.0972 78.8280 21.4884 -13.7268 -16.8715
# 4 16.4204 26.5573 21.4884 51.1594 -8.9429 9.9892
# 5 -19.1726 -8.5704 -13.7268 -8.9429 42.0781 -4.3403
# 6 -35.3018 -6.7711 -16.8715 9.9892 -4.3403 44.5123
#
#
#
# Elastic Compliance Matrix: (Units=1/GPa)
#
#
# Indices 1 2 3 4 5 6 
#
# 1 0.010014 -0.003025 -0.000334 -0.002393 0.004185 0.008300
# 2 -0.003025 0.011822 -0.009351 -0.000879 -0.002641 -0.004205
# 3 -0.000334 -0.009351 0.025983 -0.006912 0.006013 0.010298
# 4 -0.002393 -0.000879 -0.006912 0.025856 0.000902 -0.010366
# 5 0.004185 -0.002641 0.006013 0.000902 0.028085 0.007733
# 6 0.008300 -0.004205 0.010298 -0.010366 0.007733 0.035392
#
#
# Mechanical properties :
#
#
# Convention : Reuss Voigt Hill
#
# Bulk Modulus (GPa) = 44.64402 83.23090 63.93746
# Shear Modulus (GPa) = 29.40516 41.80580 35.60548
#
# Velocity S-wave (km/s) = 3.44518 4.10789 3.79105
# Velocity P-wave (km/s) = 5.81774 7.48970 6.70603
#
# Compressibility (1/GPa) = 0.02239942
#
# Stress axis : x y z
#
# Youngs Moduli (GPa) = 99.86142 84.58633 38.48686
#
# Poissons Ratio (x) = 0.25586 0.01286
# Poissons Ratio (y) = 0.30206 0.35988
# Poissons Ratio (z) = 0.03337 0.79095
#
# Static dielectric constant tensor:
#      x y z
#    x 2.000630 0.000860 -0.043890 
#    y 0.000860 1.957220 -0.035860 
#    z -0.043890 -0.035860 2.164200 
# 
# From -- ./inp_files/107314.got.cif
#   From: 2010.05.17/outbox.cif.g08.bks.cpg/sg2_54_cif.got.tgz:107314.got - 2010.06.03 11:33:40.
