data_PCOD9059063
_publ_section_title
;
Structure prediction by ZEFSAII (Michael W. Deem and Ramdas Pophale) SiO2 
 PCOD9059063
Probable space group: P -1
;
_chemical_formula_sum "Si O2"
_cell_formula_units_Z 14
_cell_length_a 23.382695
_cell_length_b 16.235532
_cell_length_c 12.574254
_cell_angle_alpha 39.796084
_cell_angle_beta 149.376864
_cell_angle_gamma 162.835090
_cell_volume 669.947094
_symmetry_space_group_name_H-M "P -1"
_symmetry_group_IT_number 2
_symmetry_cell_setting 'triclinic'
loop_
_space_group_symop_operation_xyz
x,y,z
-x,-y,-z
loop_
_atom_site_type_symbol
_atom_site_label
_atom_site_fract_x
_atom_site_fract_y
_atom_site_fract_z
Si Si1 0.617713 0.250575 0.327081
Si Si2 0.216272 0.206506 0.286163
Si Si3 0.694781 0.441524 0.492377
Si Si4 0.954686 0.262256 0.053058
Si Si5 0.867673 0.231966 0.715469
Si Si6 0.196507 0.183283 0.796704
Si Si7 0.095429 0.307954 0.828425
O O1 0.717231 0.397699 0.456481
O O2 0.746919 0.248665 0.508036
O O3 0.699593 0.438901 0.183567
O O4 0.305170 0.924137 0.155560
O O5 0.500000 0.500000 0.500000
O O6 0.194348 0.300425 0.074216
O O7 0.996009 0.994937 0.234449
O O8 0.149414 0.007250 0.312772
O O9 0.821300 0.713156 0.412879
O O10 0.831686 0.507985 0.741491
O O11 0.383558 0.123377 0.329335
O O12 0.867263 0.022541 0.146689
O O13 0.032221 0.379233 0.940495
O O14 0.021926 0.353746 0.736906
O O15 0.500000 0.500000 0.000000
#
# Coordination Sequence:
#
# PCOD9059063 Si02
#       7
#     2   2   2   2   2   2   2
#     4  11  24  42  64  92 127 171 217 261 313 379
#     4  11  25  41  67  97 133 165 209 267 333 388
#     4  11  23  40  65  93 128 164 212 264 320 377
#     4  11  23  40  65  93 128 164 212 264 320 377
#     4  11  24  42  64  92 127 171 217 261 313 379
#     4  12  20  43  66  97 130 165 209 268 326 385
#     4  11  23  44  66  92 131 165 212 264 324 387
#
# _framework density 20.897174
#
# number of rings (size 3 to 8) (size 9 to 14) (size 15 to 20)
#    0.000    0.857    5.714    2.571    4.000    3.429 
#    0.000    0.000    0.000    5.143    0.000    0.000 
#    0.000    0.000    0.000    0.000    0.000    0.000 
#
# Total GULP energy -78274.964766 kJ/mol
# GULP energy per Si atom -5591.068912 kJ/mol
# Density = 2.084961 g / cm^3
# Si number density = 20.897174 Si / 1000 Ang^3
#
#
#
# Elastic Constant Matrix: (Units=GPa)
#
#
# Indices 1 2 3 4 5 6 
#
# 1 83.8158 7.4398 35.4639 24.9621 -4.3028 11.8112
# 2 7.4398 45.0049 9.8388 1.8630 -12.2437 13.9981
# 3 35.4639 9.8388 91.2647 14.1734 -23.4748 -3.7656
# 4 24.9621 1.8630 14.1734 32.4717 -9.2960 0.3328
# 5 -4.3028 -12.2437 -23.4748 -9.2960 36.1161 -7.8682
# 6 11.8112 13.9981 -3.7656 0.3328 -7.8682 27.4542
#
#
#
# Elastic Compliance Matrix: (Units=1/GPa)
#
#
# Indices 1 2 3 4 5 6 
#
# 1 0.021891 0.000546 -0.009361 -0.015581 -0.010295 -0.013742
# 2 0.000546 0.028292 -0.002592 0.000718 0.005208 -0.013532
# 3 -0.009361 -0.002592 0.018276 0.003025 0.013190 0.011599
# 4 -0.015581 0.000718 0.003025 0.045394 0.014280 0.010294
# 5 -0.010295 0.005208 0.013190 0.014280 0.043965 0.016010
# 6 -0.013742 -0.013532 0.011599 0.010294 0.016010 0.055290
#
#
# Mechanical properties :
#
#
# Convention : Reuss Voigt Hill
#
# Bulk Modulus (GPa) = 21.90841 36.17447 29.04144
# Shear Modulus (GPa) = 19.90931 30.36460 25.13696
#
# Velocity S-wave (km/s) = 3.08998 3.81602 3.47203
# Velocity P-wave (km/s) = 4.82051 6.06336 5.47730
#
# Compressibility (1/GPa) = 0.04564457
#
# Stress axis : x y z
#
# Youngs Moduli (GPa) = 45.67986 35.34515 54.71735
#
# Poissons Ratio (x) = -0.01929 0.51221
# Poissons Ratio (y) = -0.02494 0.14185
# Poissons Ratio (z) = 0.42761 0.09163
#
# Static dielectric constant tensor:
#      x y z
#    x 1.751660 -0.016640 0.003120 
#    y -0.016640 1.737710 -0.040050 
#    z 0.003120 -0.040050 1.754440 
# 
# From -- ./inp_files/283023.got.cif
#   From: 2010.05.17/outbox.cif.g08.bks.cpg/sg2_142_cif.got.tgz:283023.got - 2010.06.03 11:33:40.
