data_PCOD9059838
_publ_section_title
;
Structure prediction by ZEFSAII (Michael W. Deem and Ramdas Pophale) SiO2 
 PCOD9059838
Probable space group: P -1
;
_chemical_formula_sum "Si O2"
_cell_formula_units_Z 16
_cell_length_a 8.322199
_cell_length_b 11.266565
_cell_length_c 14.066470
_cell_angle_alpha 108.546389
_cell_angle_beta 144.764383
_cell_angle_gamma 82.973969
_cell_volume 698.255514
_symmetry_space_group_name_H-M "P -1"
_symmetry_group_IT_number 2
_symmetry_cell_setting 'triclinic'
loop_
_space_group_symop_operation_xyz
x,y,z
-x,-y,-z
loop_
_atom_site_type_symbol
_atom_site_label
_atom_site_fract_x
_atom_site_fract_y
_atom_site_fract_z
Si Si1 0.561051 0.255548 0.735416
Si Si2 0.160046 0.490096 0.343293
Si Si3 0.721119 0.272583 0.408768
Si Si4 0.647086 0.477967 0.968267
Si Si5 0.933480 0.740699 0.626818
Si Si6 0.803023 0.032888 0.495351
Si Si7 0.183027 0.026002 0.856983
Si Si8 0.772536 0.710812 0.947203
O O1 0.394409 0.298731 0.577992
O O2 0.437661 0.100546 0.638744
O O3 0.899918 0.292148 0.902482
O O4 0.503130 0.337207 0.818917
O O5 0.500000 0.500000 0.500000
O O6 0.119528 0.606301 0.420742
O O7 0.015514 0.360747 0.299016
O O8 0.980896 0.489887 0.160378
O O9 0.880790 0.254013 0.380773
O O10 0.683337 0.147939 0.425569
O O11 0.418214 0.299961 0.241307
O O12 0.628591 0.591781 0.915818
O O13 0.500000 0.500000 0.000000
O O14 0.991508 0.880076 0.740584
O O15 0.000000 0.000000 0.500000
O O16 0.020193 0.068389 0.698064
O O17 0.215245 0.145033 0.973083
O O18 0.500000 0.000000 0.000000
#
# Coordination Sequence:
#
# PCOD9059838 Si02
#       8
#     2   2   2   2   2   2   2   2
#     4  11  25  44  68  97 136 173 214 275 337 382
#     4  12  26  42  65  97 134 169 220 275 325 387
#     4  12  23  44  68  95 132 178 216 267 327 394
#     4  12  26  42  69 100 128 176 224 272 320 400
#     4  11  23  44  68  93 132 177 215 266 330 392
#     4  11  23  42  69  97 132 173 220 270 325 395
#     4  11  23  42  69  99 131 172 222 269 324 396
#     4  12  25  43  68  99 136 172 217 276 331 386
#
# _framework density 22.914248000000001
#
# number of rings (size 3 to 8) (size 9 to 14) (size 15 to 20)
#    0.000    0.500    3.750    5.250    1.750    4.500 
#    0.000    0.000    0.000    0.000    0.000    0.000 
#    0.000    0.000    0.000    0.000    0.000    0.000 
#
# Total GULP energy -89471.091025 kJ/mol
# GULP energy per Si atom -5591.943189 kJ/mol
# Density = 2.286209 g / cm^3
# Si number density = 22.914248 Si / 1000 Ang^3
#
#
#
# Elastic Constant Matrix: (Units=GPa)
#
#
# Indices 1 2 3 4 5 6 
#
# 1 30.3838 21.5996 5.5323 -1.7144 6.5245 -2.0449
# 2 21.5996 130.6911 36.4181 -10.4761 -21.9287 8.4561
# 3 5.5323 36.4181 143.7809 -18.1048 -7.6553 1.5499
# 4 -1.7144 -10.4761 -18.1048 38.8270 -15.6902 -4.7716
# 5 6.5245 -21.9287 -7.6553 -15.6902 37.1145 -1.0702
# 6 -2.0449 8.4561 1.5499 -4.7716 -1.0702 32.3988
#
#
#
# Elastic Compliance Matrix: (Units=1/GPa)
#
#
# Indices 1 2 3 4 5 6 
#
# 1 0.044556 -0.011010 -0.000951 -0.008190 -0.017883 0.003935
# 2 -0.011010 0.012516 -0.001229 0.006813 0.011885 -0.002507
# 3 -0.000951 -0.001229 0.008057 0.004727 0.003121 0.000675
# 4 -0.008190 0.006813 0.004727 0.039294 0.023168 0.004031
# 5 -0.017883 0.011885 0.003121 0.023168 0.047565 0.000603
# 6 0.003935 -0.002507 0.000675 0.004031 0.000603 0.032349
#
#
# Mechanical properties :
#
#
# Convention : Reuss Voigt Hill
#
# Bulk Modulus (GPa) = 25.80817 47.99506 36.90162
# Shear Modulus (GPa) = 22.35794 37.75513 30.05654
#
# Velocity S-wave (km/s) = 3.12704 4.06355 3.62566
# Velocity P-wave (km/s) = 4.93206 6.55802 5.80228
#
# Compressibility (1/GPa) = 0.03874742
#
# Stress axis : x y z
#
# Youngs Moduli (GPa) = 22.44386 79.89612 124.11423
#
# Poissons Ratio (x) = 0.87969 0.11809
# Poissons Ratio (y) = 0.24712 0.15253
# Poissons Ratio (z) = 0.02135 0.09819
#
# Static dielectric constant tensor:
#      x y z
#    x 1.362580 -1.461370 0.606490 
#    y -1.461370 -2.243630 1.459880 
#    z 0.606490 1.459880 1.152900 
# 
# From -- ./inp_files/500644.got.cif
#   From: 2010.05.17/outbox.cif.g08.bks.cpg/sg2_251_cif.got.tgz:500644.got - 2010.06.03 11:33:40.
