data_PCOD9059474
_publ_section_title
;
Structure prediction by ZEFSAII (Michael W. Deem and Ramdas Pophale) SiO2 
 PCOD9059474
Probable space group: P -1
;
_chemical_formula_sum "Si O2"
_cell_formula_units_Z 12
_cell_length_a 9.320761
_cell_length_b 8.346519
_cell_length_c 12.938489
_cell_angle_alpha 97.637456
_cell_angle_beta 149.217742
_cell_angle_gamma 93.289994
_cell_volume 480.471399
_symmetry_space_group_name_H-M "P -1"
_symmetry_group_IT_number 2
_symmetry_cell_setting 'triclinic'
loop_
_space_group_symop_operation_xyz
x,y,z
-x,-y,-z
loop_
_atom_site_type_symbol
_atom_site_label
_atom_site_fract_x
_atom_site_fract_y
_atom_site_fract_z
Si Si1 0.606869 0.149361 0.994451
Si Si2 0.011628 0.686243 0.050224
Si Si3 0.819637 0.210574 0.616361
Si Si4 0.322393 0.150916 0.602318
Si Si5 0.022790 0.443034 0.393093
Si Si6 0.842451 0.859424 0.803666
O O1 0.714943 0.327580 0.138460
O O2 0.905614 0.138986 0.121355
O O3 0.376413 0.143286 0.758836
O O4 0.500000 0.000000 0.000000
O O5 0.978883 0.735862 0.151640
O O6 0.342857 0.797767 0.229308
O O7 0.000000 0.500000 0.000000
O O8 0.765742 0.699321 0.819430
O O9 0.874466 0.381307 0.595967
O O10 0.473364 0.149482 0.434248
O O11 0.844695 0.042942 0.559742
O O12 0.197434 0.302501 0.503018
O O13 0.000000 0.500000 0.500000
O O14 0.000000 0.000000 0.000000
#
# Coordination Sequence:
#
# PCOD9059474 Si02
#       6
#     2   2   2   2   2   2
#     4  11  25  47  73 103 147 190 237 292 358 430
#     4  11  23  41  69 106 143 182 233 296 360 421
#     4  12  24  45  75 104 143 187 238 300 356 421
#     4  11  25  46  70 103 140 186 242 293 357 423
#     4  12  29  47  70 104 145 191 241 295 358 429
#     4  11  23  42  73 108 139 181 240 293 352 419
#
# _framework density 24.975473999999998
#
# number of rings (size 3 to 8) (size 9 to 14) (size 15 to 20)
#    0.000    0.667    3.333    5.500    2.333    5.333 
#    0.000    0.000    0.000    0.000    0.000    0.000 
#    0.000    0.000    0.000    0.000    0.000    0.000 
#
# Total GULP energy -67025.070542 kJ/mol
# GULP energy per Si atom -5585.422545 kJ/mol
# Density = 2.491863 g / cm^3
# Si number density = 24.975474 Si / 1000 Ang^3
#
#
#
# Elastic Constant Matrix: (Units=GPa)
#
#
# Indices 1 2 3 4 5 6 
#
# 1 128.9247 47.4827 68.2508 1.9913 -29.4953 14.3913
# 2 47.4827 203.7181 65.7792 -0.0072 -17.8693 11.0415
# 3 68.2508 65.7792 101.3513 1.4042 -38.8690 6.6378
# 4 1.9913 -0.0072 1.4042 60.5237 -1.6798 -8.0336
# 5 -29.4953 -17.8693 -38.8690 -1.6798 43.2356 -2.8252
# 6 14.3913 11.0415 6.6378 -8.0336 -2.8252 47.4663
#
#
#
# Elastic Compliance Matrix: (Units=1/GPa)
#
#
# Indices 1 2 3 4 5 6 
#
# 1 0.012448 -0.000204 -0.007505 -0.000551 0.001463 -0.002683
# 2 -0.000204 0.006327 -0.004554 -0.000050 -0.001678 -0.000882
# 3 -0.007505 -0.004554 0.023126 0.000222 0.013859 0.000964
# 4 -0.000551 -0.000050 0.000222 0.016960 0.000662 0.003057
# 5 0.001463 -0.001678 0.013859 0.000662 0.035936 0.000259
# 6 -0.002683 -0.000882 0.000964 0.003057 0.000259 0.022484
#
#
# Mechanical properties :
#
#
# Convention : Reuss Voigt Hill
#
# Bulk Modulus (GPa) = 57.55973 88.55769 73.05871
# Shear Modulus (GPa) = 33.87556 47.07720 40.47638
#
# Velocity S-wave (km/s) = 3.68687 4.34630 4.03009
# Velocity P-wave (km/s) = 6.42032 7.79243 7.13941
#
# Compressibility (1/GPa) = 0.01737326
#
# Stress axis : x y z
#
# Youngs Moduli (GPa) = 80.33663 158.04127 43.24225
#
# Poissons Ratio (x) = 0.03226 0.32454
# Poissons Ratio (y) = 0.01640 0.19694
# Poissons Ratio (z) = 0.60295 0.71977
#
# Static dielectric constant tensor:
#      x y z
#    x 1.849220 -0.201480 -0.189890 
#    y -0.201480 1.608180 -0.400840 
#    z -0.189890 -0.400840 1.608350 
# 
# From -- ./inp_files/376792.got.cif
#   From: 2010.05.17/outbox.cif.g08.bks.cpg/sg2_189_cif.got.tgz:376792.got - 2010.06.03 11:33:40.
