data_PCOD9059279
_publ_section_title
;
Structure prediction by ZEFSAII (Michael W. Deem and Ramdas Pophale) SiO2 
 PCOD9059279
Probable space group: P -1
;
_chemical_formula_sum "Si O2"
_cell_formula_units_Z 16
_cell_length_a 5.630593
_cell_length_b 18.573479
_cell_length_c 9.302166
_cell_angle_alpha 51.935953
_cell_angle_beta 103.946176
_cell_angle_gamma 117.276762
_cell_volume 679.552161
_symmetry_space_group_name_H-M "P -1"
_symmetry_group_IT_number 2
_symmetry_cell_setting 'triclinic'
loop_
_space_group_symop_operation_xyz
x,y,z
-x,-y,-z
loop_
_atom_site_type_symbol
_atom_site_label
_atom_site_fract_x
_atom_site_fract_y
_atom_site_fract_z
Si Si1 0.018910 0.430785 0.264193
Si Si2 0.493938 0.364719 0.885639
Si Si3 0.981250 0.698429 0.303799
Si Si4 0.938716 0.888054 0.179600
Si Si5 0.833488 0.864734 0.508900
Si Si6 0.419340 0.797239 0.042383
Si Si7 0.600381 0.633550 0.810035
Si Si8 0.680871 0.034167 0.343580
O O1 0.218938 0.543940 0.189634
O O2 0.975659 0.358953 0.483715
O O3 0.192510 0.396540 0.215803
O O4 0.722875 0.422074 0.189898
O O5 0.319798 0.361082 0.724108
O O6 0.497571 0.254829 0.014281
O O7 0.359631 0.373629 0.005000
O O8 0.052283 0.815287 0.207350
O O9 0.162099 0.709486 0.178327
O O10 0.997461 0.886948 0.357203
O O11 0.628451 0.828998 0.164356
O O12 0.000000 0.000000 0.000000
O O13 0.665273 0.747907 0.638628
O O14 0.022564 0.901267 0.630429
O O15 0.672896 0.934829 0.389925
O O16 0.389850 0.894202 0.859299
O O17 0.500000 0.000000 0.500000
#
# Coordination Sequence:
#
# PCOD9059279 Si02
#       8
#     2   2   2   2   2   2   2   2
#     4  12  28  48  75 107 143 191 243 298 364 424
#     4  11  27  46  72 103 142 186 239 302 355 431
#     4  11  25  45  70 100 143 187 241 292 362 426
#     4  11  23  41  63  99 135 181 229 289 350 423
#     4  11  24  42  67  97 141 179 236 289 353 421
#     4  11  25  42  69 100 139 186 237 290 359 422
#     4  12  27  47  75 108 144 186 242 300 363 424
#     4  11  24  41  67 101 135 190 232 289 358 426
#
# _framework density 23.544916000000001
#
# number of rings (size 3 to 8) (size 9 to 14) (size 15 to 20)
#    0.000    0.750    1.250    4.875    8.750    8.500 
#    0.000    0.000    0.000    0.000    0.000    0.000 
#    0.000    0.000    0.000    0.000    0.000    0.000 
#
# Total GULP energy -89463.326745 kJ/mol
# GULP energy per Si atom -5591.457922 kJ/mol
# Density = 2.349133 g / cm^3
# Si number density = 23.544916 Si / 1000 Ang^3
#
#
#
# Elastic Constant Matrix: (Units=GPa)
#
#
# Indices 1 2 3 4 5 6 
#
# 1 71.0971 13.9533 8.7312 3.7986 -6.5473 -7.2606
# 2 13.9533 93.0887 13.3479 -13.4125 1.0763 -5.5217
# 3 8.7312 13.3479 112.4837 -4.7558 3.1439 -9.7469
# 4 3.7986 -13.4125 -4.7558 39.2343 0.3432 -6.7656
# 5 -6.5473 1.0763 3.1439 0.3432 34.7853 -0.5932
# 6 -7.2606 -5.5217 -9.7469 -6.7656 -0.5932 35.6789
#
#
#
# Elastic Compliance Matrix: (Units=1/GPa)
#
#
# Indices 1 2 3 4 5 6 
#
# 1 0.015251 -0.002361 -0.000889 -0.002046 0.003081 0.002159
# 2 -0.002361 0.012006 -0.000853 0.004581 -0.000750 0.002001
# 3 -0.000889 -0.000853 0.009361 0.001366 -0.000958 0.002487
# 4 -0.002046 0.004581 0.001366 0.028468 -0.000828 0.006050
# 5 0.003081 -0.000750 -0.000958 -0.000828 0.029456 0.000582
# 6 0.002159 0.002001 0.002487 0.006050 0.000582 0.030613
#
#
# Mechanical properties :
#
#
# Convention : Reuss Voigt Hill
#
# Bulk Modulus (GPa) = 35.19809 38.74827 36.97318
# Shear Modulus (GPa) = 35.00604 37.98216 36.49410
#
# Velocity S-wave (km/s) = 3.86006 4.02080 3.94125
# Velocity P-wave (km/s) = 5.90326 6.16836 6.03727
#
# Compressibility (1/GPa) = 0.02841063
#
# Stress axis : x y z
#
# Youngs Moduli (GPa) = 65.56808 83.29095 106.83140
#
# Poissons Ratio (x) = 0.19665 0.09500
# Poissons Ratio (y) = 0.15480 0.09117
# Poissons Ratio (z) = 0.05831 0.07108
#
# Static dielectric constant tensor:
#      x y z
#    x 2.159400 -0.045770 -0.077660 
#    y -0.045770 1.888420 0.006440 
#    z -0.077660 0.006440 1.850000 
# 
# From -- ./inp_files/39213.got.cif
#   From: 2010.05.17/outbox.cif.g08.bks.cpg/sg2_20_cif.got.tgz:39213.got - 2010.06.03 11:33:40.
