data_PCOD9059787
_publ_section_title
;
Structure prediction by ZEFSAII (Michael W. Deem and Ramdas Pophale) SiO2 
 PCOD9059787
Probable space group: P -1
;
_chemical_formula_sum "Si O2"
_cell_formula_units_Z 15
_cell_length_a 11.196304
_cell_length_b 11.656033
_cell_length_c 11.493720
_cell_angle_alpha 143.867851
_cell_angle_beta 55.907757
_cell_angle_gamma 108.569752
_cell_volume 704.228821
_symmetry_space_group_name_H-M "P -1"
_symmetry_group_IT_number 2
_symmetry_cell_setting 'triclinic'
loop_
_space_group_symop_operation_xyz
x,y,z
-x,-y,-z
loop_
_atom_site_type_symbol
_atom_site_label
_atom_site_fract_x
_atom_site_fract_y
_atom_site_fract_z
Si Si1 0.428392 0.130828 0.813195
Si Si2 0.667101 0.485814 0.688331
Si Si3 0.876528 0.519256 0.386986
Si Si4 0.911599 0.211530 0.492517
Si Si5 0.000000 0.000000 0.500000
Si Si6 0.410228 0.280636 0.680189
Si Si7 0.894388 0.903677 0.056626
Si Si8 0.863449 0.411795 0.039879
O O1 0.408937 0.230997 0.777129
O O2 0.273143 0.074146 0.876675
O O3 0.569866 0.934854 0.570640
O O4 0.436288 0.297550 0.038300
O O5 0.757318 0.503123 0.536689
O O6 0.784357 0.393791 0.652364
O O7 0.560275 0.341880 0.618700
O O8 0.934162 0.718586 0.539124
O O9 0.827675 0.482875 0.252442
O O10 0.022263 0.330987 0.171399
O O11 0.902426 0.155645 0.584882
O O12 0.892655 0.022373 0.274074
O O13 0.919787 0.171101 0.788140
O O14 0.273880 0.459286 0.856831
O O15 0.000000 0.000000 0.000000
O O16 0.000000 0.500000 0.000000
#
# Coordination Sequence:
#
# PCOD9059787 Si02
#       8
#     2   2   2   2   1   2   2   2
#     4  11  23  42  68  98 136 178 223 280 335 398
#     4  12  24  43  69 103 136 177 228 279 340 399
#     4  12  24  42  70 100 142 180 219 288 334 403
#     4  12  23  39  68 103 135 173 227 274 334 396
#     4  12  26  40  72 100 132 178 224 278 340 404
#     4  11  26  45  66  97 133 182 225 283 335 405
#     4  12  21  39  68 103 136 177 224 277 337 397
#     4  12  26  47  67  96 136 176 227 280 344 403
#
# _framework density 21.299894999999999
#
# number of rings (size 3 to 8) (size 9 to 14) (size 15 to 20)
#    0.000    0.267    6.667    3.200    0.000    1.600 
#    0.000    0.667    0.000    0.000    0.000    0.000 
#    0.000    0.000    0.000    0.000    0.000    0.000 
#
# Total GULP energy -83539.508405 kJ/mol
# GULP energy per Si atom -5569.300560 kJ/mol
# Density = 2.125142 g / cm^3
# Si number density = 21.299895 Si / 1000 Ang^3
#
#
#
# Elastic Constant Matrix: (Units=GPa)
#
#
# Indices 1 2 3 4 5 6 
#
# 1 37.3984 22.9711 1.8550 7.2491 -6.0200 -8.4288
# 2 22.9711 46.2855 23.4131 4.9249 1.4400 -11.4003
# 3 1.8550 23.4131 122.0391 17.2222 -0.2441 -7.0297
# 4 7.2491 4.9249 17.2222 24.3004 -4.9454 0.1443
# 5 -6.0200 1.4400 -0.2441 -4.9454 21.5557 0.6661
# 6 -8.4288 -11.4003 -7.0297 0.1443 0.6661 28.6672
#
#
#
# Elastic Compliance Matrix: (Units=1/GPa)
#
#
# Indices 1 2 3 4 5 6 
#
# 1 0.046222 -0.023748 0.005679 -0.010597 0.011964 0.005314
# 2 -0.023748 0.038657 -0.007010 0.002352 -0.008967 0.006868
# 3 0.005679 -0.007010 0.010634 -0.007748 0.000350 0.001521
# 4 -0.010597 0.002352 -0.007748 0.051117 0.008663 -0.004539
# 5 0.011964 -0.008967 0.000350 0.008663 0.052361 -0.001223
# 6 0.005314 0.006868 0.001521 -0.004539 -0.001223 0.039601
#
#
# Mechanical properties :
#
#
# Convention : Reuss Voigt Hill
#
# Bulk Modulus (GPa) = 22.04780 33.57793 27.81287
# Shear Modulus (GPa) = 16.45450 25.40356 20.92903
#
# Velocity S-wave (km/s) = 2.78243 3.45724 3.13803
# Velocity P-wave (km/s) = 4.54930 5.63341 5.12013
#
# Compressibility (1/GPa) = 0.04535599
#
# Stress axis : x y z
#
# Youngs Moduli (GPa) = 21.63488 25.86849 94.03576
#
# Poissons Ratio (x) = 0.61432 -0.53402
# Poissons Ratio (y) = 0.51378 0.65915
# Poissons Ratio (z) = -0.12286 0.18133
#
# Static dielectric constant tensor:
#      x y z
#    x 1.754010 -0.015590 -0.044410 
#    y -0.015590 1.765230 -0.096120 
#    z -0.044410 -0.096120 1.518460 
# 
# From -- ./inp_files/424416.got.cif
#   From: 2010.05.17/outbox.cif.g08.bks.cpg/sg2_213_cif.got.tgz:424416.got - 2010.06.03 11:33:40.
