data_PCOD9059432
_publ_section_title
;
Structure prediction by ZEFSAII (Michael W. Deem and Ramdas Pophale) SiO2 
 PCOD9059432
Probable space group: P -1
;
_chemical_formula_sum "Si O2"
_cell_formula_units_Z 16
_cell_length_a 10.624834
_cell_length_b 6.550681
_cell_length_c 21.612452
_cell_angle_alpha 99.289363
_cell_angle_beta 34.553544
_cell_angle_gamma 114.801446
_cell_volume 723.291886
_symmetry_space_group_name_H-M "P -1"
_symmetry_group_IT_number 2
_symmetry_cell_setting 'triclinic'
loop_
_space_group_symop_operation_xyz
x,y,z
-x,-y,-z
loop_
_atom_site_type_symbol
_atom_site_label
_atom_site_fract_x
_atom_site_fract_y
_atom_site_fract_z
Si Si1 0.762821 0.807448 0.747262
Si Si2 0.942406 0.045860 0.115961
Si Si3 0.207072 0.384048 0.139506
Si Si4 0.190328 0.402051 0.921338
Si Si5 0.418284 0.749697 0.344710
Si Si6 0.067422 0.239152 0.449928
Si Si7 0.940832 0.664780 0.310755
Si Si8 0.490392 0.773367 0.459403
O O1 0.794969 0.712101 0.795592
O O2 0.476348 0.623387 0.829131
O O3 0.951245 0.805311 0.618251
O O4 0.834660 0.082248 0.740061
O O5 0.041915 0.169637 0.147529
O O6 0.894251 0.779285 0.112007
O O7 0.642359 0.963943 0.225287
O O8 0.123169 0.226496 0.999254
O O9 0.077818 0.552434 0.207241
O O10 0.500000 0.500000 0.000000
O O11 0.000000 0.500000 0.000000
O O12 0.347968 0.472842 0.358258
O O13 0.476678 0.817554 0.395249
O O14 0.151087 0.719318 0.431368
O O15 0.000000 0.000000 0.500000
O O16 0.734049 0.732578 0.369156
O O17 0.764978 0.464523 0.423157
O O18 0.500000 0.000000 0.500000
#
# Coordination Sequence:
#
# PCOD9059432 Si02
#       8
#     2   2   2   2   2   2   2   2
#     4  12  25  48  70 108 145 187 240 305 357 429
#     4  11  25  48  70 103 140 192 238 300 355 426
#     4  12  27  47  72 106 150 191 244 298 363 426
#     4  11  27  46  72 100 143 194 244 291 360 425
#     4  11  23  41  68  96 139 176 228 294 349 422
#     4  11  25  42  67 105 137 183 230 288 364 426
#     4  11  25  41  76 104 142 191 234 297 366 434
#     4  11  23  46  69 107 142 185 240 296 367 430
#
# _framework density 22.121085000000001
#
# number of rings (size 3 to 8) (size 9 to 14) (size 15 to 20)
#    0.000    0.750    2.500    4.500    3.500    6.500 
#    0.000    0.000    0.000    0.000    0.000    0.000 
#    0.000    0.000    0.000    0.000    0.000    0.000 
#
# Total GULP energy -89231.899013 kJ/mol
# GULP energy per Si atom -5576.993688 kJ/mol
# Density = 2.207074 g / cm^3
# Si number density = 22.121085 Si / 1000 Ang^3
#
#
#
# Elastic Constant Matrix: (Units=GPa)
#
#
# Indices 1 2 3 4 5 6 
#
# 1 34.3608 35.8741 19.3134 4.9732 -2.7565 18.9879
# 2 35.8741 164.0722 57.6273 -4.9397 -16.0853 32.7636
# 3 19.3134 57.6273 125.8790 -13.0664 -16.2235 11.5749
# 4 4.9732 -4.9397 -13.0664 46.3827 4.3741 3.7719
# 5 -2.7565 -16.0853 -16.2235 4.3741 37.3507 3.3962
# 6 18.9879 32.7636 11.5749 3.7719 3.3962 39.9441
#
#
#
# Elastic Compliance Matrix: (Units=1/GPa)
#
#
# Indices 1 2 3 4 5 6 
#
# 1 0.046978 -0.005860 -0.003403 -0.005454 0.001573 -0.016158
# 2 -0.005860 0.009504 -0.002554 0.001027 0.002850 -0.004609
# 3 -0.003403 -0.002554 0.010248 0.002699 0.002761 0.000253
# 4 -0.005454 0.001027 0.002699 0.023237 -0.001409 -0.001106
# 5 0.001573 0.002850 0.002761 -0.001409 0.030055 -0.006308
# 6 -0.016158 -0.004609 0.000253 -0.001106 -0.006308 0.037064
#
#
# Mechanical properties :
#
#
# Convention : Reuss Voigt Hill
#
# Bulk Modulus (GPa) = 23.20369 61.10461 42.15415
# Shear Modulus (GPa) = 25.62996 38.83532 32.23264
#
# Velocity S-wave (km/s) = 3.40755 4.19451 3.82134
# Velocity P-wave (km/s) = 5.09843 7.15131 6.21029
#
# Compressibility (1/GPa) = 0.04309659
#
# Stress axis : x y z
#
# Youngs Moduli (GPa) = 21.28662 105.21977 97.57807
#
# Poissons Ratio (x) = 0.61658 0.33203
# Poissons Ratio (y) = 0.12474 0.24922
# Poissons Ratio (z) = 0.07243 0.26874
#
# Static dielectric constant tensor:
#      x y z
#    x 1.792670 -0.028720 -0.006910 
#    y -0.028720 1.779310 0.098490 
#    z -0.006910 0.098490 1.912790 
# 
# From -- ./inp_files/609216.got.cif
#   From: 2010.05.17/outbox.cif.g08.bks.cpg/sg2_305_cif.got.tgz:609216.got - 2010.06.03 11:33:40.
