data_PCOD9059574
_publ_section_title
;
Structure prediction by ZEFSAII (Michael W. Deem and Ramdas Pophale) SiO2 
 PCOD9059574
Probable space group: P -1
;
_chemical_formula_sum "Si O2"
_cell_formula_units_Z 14
_cell_length_a 17.918753
_cell_length_b 9.782361
_cell_length_c 7.834996
_cell_angle_alpha 119.608788
_cell_angle_beta 28.096770
_cell_angle_gamma 122.160021
_cell_volume 546.529686
_symmetry_space_group_name_H-M "P -1"
_symmetry_group_IT_number 2
_symmetry_cell_setting 'triclinic'
loop_
_space_group_symop_operation_xyz
x,y,z
-x,-y,-z
loop_
_atom_site_type_symbol
_atom_site_label
_atom_site_fract_x
_atom_site_fract_y
_atom_site_fract_z
Si Si1 0.987974 0.174847 0.694944
Si Si2 0.566744 0.690089 0.389399
Si Si3 0.364874 0.961487 0.598577
Si Si4 0.323522 0.812033 0.217663
Si Si5 0.842338 0.914828 0.378110
Si Si6 0.307447 0.432460 0.633085
Si Si7 0.033292 0.505269 0.637075
O O1 0.077427 0.166832 0.685545
O O2 0.062447 0.338019 0.544725
O O3 0.795609 0.163384 0.090759
O O4 0.000000 0.000000 0.500000
O O5 0.465341 0.579691 0.375032
O O6 0.669737 0.584718 0.218353
O O7 0.677330 0.862882 0.223828
O O8 0.438707 0.745903 0.812313
O O9 0.394309 0.900757 0.308644
O O10 0.500000 0.000000 0.500000
O O11 0.178459 0.660749 0.473937
O O12 0.246232 0.937981 0.341130
O O13 0.707510 0.755321 0.495493
O O14 0.000000 0.000000 0.000000
O O15 0.142826 0.474565 0.929253
O O16 0.000000 0.500000 0.500000
#
# Coordination Sequence:
#
# PCOD9059574 Si02
#       7
#     2   2   2   2   2   2   2
#     4  12  29  46  77 110 146 194 249 309 370 436
#     4  11  25  44  72 104 148 199 240 289 375 445
#     4  12  27  45  68 108 153 190 247 301 363 437
#     4  12  25  46  79 109 146 202 242 301 371 441
#     4  12  23  46  76 109 149 189 250 307 366 430
#     4  11  23  41  73 104 145 189 241 297 367 432
#     4  12  25  45  76 107 144 190 250 306 367 428
#
# _framework density 25.616174000000001
#
# number of rings (size 3 to 8) (size 9 to 14) (size 15 to 20)
#    0.000    0.286    5.714    2.143    4.000    3.429 
#    0.000    0.000    0.000    6.857    0.000    0.000 
#    0.000    0.000    0.000    0.000    0.000    0.000 
#
# Total GULP energy -78167.793452 kJ/mol
# GULP energy per Si atom -5583.413818 kJ/mol
# Density = 2.555787 g / cm^3
# Si number density = 25.616174 Si / 1000 Ang^3
#
#
#
# Elastic Constant Matrix: (Units=GPa)
#
#
# Indices 1 2 3 4 5 6 
#
# 1 130.7799 54.9152 20.8862 4.1092 -19.9005 0.4923
# 2 54.9152 232.1915 39.1403 3.9670 -5.7305 -1.9057
# 3 20.8862 39.1403 81.0304 4.3884 -19.8610 -4.6372
# 4 4.1092 3.9670 4.3884 45.4115 0.4470 -12.9548
# 5 -19.9005 -5.7305 -19.8610 0.4470 30.2578 1.2148
# 6 0.4923 -1.9057 -4.6372 -12.9548 1.2148 57.6193
#
#
#
# Elastic Compliance Matrix: (Units=1/GPa)
#
#
# Indices 1 2 3 4 5 6 
#
# 1 0.009437 -0.002081 0.000030 -0.000865 0.005864 -0.000465
# 2 -0.002081 0.005162 -0.002445 0.000003 -0.001997 0.000035
# 3 0.000030 -0.002445 0.016102 -0.001239 0.010115 0.000723
# 4 -0.000865 0.000003 -0.001239 0.023746 -0.001945 0.005288
# 5 0.005864 -0.001997 0.010115 -0.001945 0.043222 -0.000651
# 6 -0.000465 0.000035 0.000723 0.005288 -0.000651 0.018621
#
#
# Mechanical properties :
#
#
# Convention : Reuss Voigt Hill
#
# Bulk Modulus (GPa) = 46.06275 74.87614 60.46944
# Shear Modulus (GPa) = 37.73071 48.59506 43.16289
#
# Velocity S-wave (km/s) = 3.84203 4.36023 4.10931
# Velocity P-wave (km/s) = 6.14024 7.39205 6.79503
#
# Compressibility (1/GPa) = 0.02170952
#
# Stress axis : x y z
#
# Youngs Moduli (GPa) = 105.96861 193.72041 62.10455
#
# Poissons Ratio (x) = 0.40319 -0.00189
# Poissons Ratio (y) = 0.22055 0.15183
# Poissons Ratio (z) = -0.00323 0.47359
#
# Static dielectric constant tensor:
#      x y z
#    x 1.505010 -0.420620 -0.051740 
#    y -0.420620 1.657730 -0.113540 
#    z -0.051740 -0.113540 2.074050 
# 
# From -- ./inp_files/329377.got.cif
#   From: 2010.05.17/outbox.cif.g08.bks.cpg/sg2_165_cif.got.tgz:329377.got - 2010.06.03 11:33:40.
