data_PCOD9059680
_publ_section_title
;
Structure prediction by ZEFSAII (Michael W. Deem and Ramdas Pophale) SiO2 
 PCOD9059680
Probable space group: P -1
;
_chemical_formula_sum "Si O2"
_cell_formula_units_Z 16
_cell_length_a 25.179651
_cell_length_b 16.123096
_cell_length_c 14.024085
_cell_angle_alpha 22.917203
_cell_angle_beta 20.561021
_cell_angle_gamma 21.778227
_cell_volume 681.225371
_symmetry_space_group_name_H-M "P -1"
_symmetry_group_IT_number 2
_symmetry_cell_setting 'triclinic'
loop_
_space_group_symop_operation_xyz
x,y,z
-x,-y,-z
loop_
_atom_site_type_symbol
_atom_site_label
_atom_site_fract_x
_atom_site_fract_y
_atom_site_fract_z
Si Si1 0.705324 0.669547 0.350586
Si Si2 0.251890 0.168625 0.372114
Si Si3 0.426000 0.669458 0.697047
Si Si4 0.451552 0.702204 0.285608
Si Si5 0.250504 0.546698 0.298432
Si Si6 0.991467 0.778969 0.795349
Si Si7 0.941486 0.602178 0.355849
Si Si8 0.937403 0.081599 0.274144
O O1 0.549756 0.762648 0.439266
O O2 0.658163 0.575989 0.626145
O O3 0.864996 0.451542 0.258270
O O4 0.795766 0.826979 0.062768
O O5 0.178543 0.324642 0.427177
O O6 0.095282 0.324927 0.398131
O O7 0.293128 0.896486 0.615773
O O8 0.422085 0.182282 0.041977
O O9 0.520407 0.438689 0.713076
O O10 0.347545 0.598638 0.994169
O O11 0.500000 0.500000 0.500000
O O12 0.250914 0.892668 0.435588
O O13 0.177621 0.379878 0.551267
O O14 0.088409 0.807490 0.320619
O O15 0.051825 0.766583 0.814796
O O16 0.000000 0.000000 0.500000
O O17 0.023130 0.782115 0.022477
#
# Coordination Sequence:
#
# PCOD9059680 Si02
#       8
#     2   2   2   2   2   2   2   2
#     4  11  25  42  67 102 140 174 227 283 337 408
#     4  11  26  45  71  99 138 181 229 283 346 401
#     4  12  27  45  69 103 138 179 229 285 344 401
#     4  12  27  45  67 103 144 175 225 287 344 402
#     4  12  25  45  73  99 135 186 230 276 345 409
#     4  11  23  42  66  99 136 181 222 277 341 404
#     4  11  24  46  70 101 135 180 233 284 333 414
#     4  12  24  44  71 100 136 182 228 278 344 409
#
# _framework density 23.487088
#
# number of rings (size 3 to 8) (size 9 to 14) (size 15 to 20)
#    0.000    0.500    7.500    0.375    3.500    2.000 
#    0.000    1.250    0.000    0.000    0.000    0.000 
#    0.000    0.000    0.000    0.000    0.000    0.000 
#
# Total GULP energy -89506.543538 kJ/mol
# GULP energy per Si atom -5594.158971 kJ/mol
# Density = 2.343363 g / cm^3
# Si number density = 23.487088 Si / 1000 Ang^3
#
#
#
# Elastic Constant Matrix: (Units=GPa)
#
#
# Indices 1 2 3 4 5 6 
#
# 1 73.5039 -4.5566 -2.5929 13.2613 7.5997 6.0419
# 2 -4.5566 37.8184 3.0794 4.1691 4.7234 2.6372
# 3 -2.5929 3.0794 111.6198 21.5513 13.6488 1.0319
# 4 13.2613 4.1691 21.5513 29.1829 -2.8836 4.6336
# 5 7.5997 4.7234 13.6488 -2.8836 30.6459 1.3843
# 6 6.0419 2.6372 1.0319 4.6336 1.3843 29.1579
#
#
#
# Elastic Compliance Matrix: (Units=1/GPa)
#
#
# Indices 1 2 3 4 5 6 
#
# 1 0.016884 0.004026 0.003335 -0.011130 -0.007256 -0.001867
# 2 0.004026 0.028595 0.001579 -0.007431 -0.006719 -0.001977
# 3 0.003335 0.001579 0.012161 -0.011625 -0.007623 0.000945
# 4 -0.011130 -0.007431 -0.011625 0.051230 0.014148 -0.005423
# 5 -0.007256 -0.006719 -0.007623 0.014148 0.040272 -0.001779
# 6 -0.001867 -0.001977 0.000945 -0.005423 -0.001779 0.035775
#
#
# Mechanical properties :
#
#
# Convention : Reuss Voigt Hill
#
# Bulk Modulus (GPa) = 13.24162 23.86687 18.55424
# Shear Modulus (GPa) = 26.01332 32.93148 29.47240
#
# Velocity S-wave (km/s) = 3.33161 3.74854 3.54621
# Velocity P-wave (km/s) = 4.52212 5.37765 4.96834
#
# Compressibility (1/GPa) = 0.07551949
#
# Stress axis : x y z
#
# Youngs Moduli (GPa) = 59.22862 34.97131 82.23175
#
# Poissons Ratio (x) = -0.14080 -0.27421
# Poissons Ratio (y) = -0.23846 -0.12987
# Poissons Ratio (z) = -0.19751 -0.05523
#
# Static dielectric constant tensor:
#      x y z
#    x 1.718420 -0.034090 -0.123910 
#    y -0.034090 1.844710 -0.024860 
#    z -0.123910 -0.024860 1.836100 
# 
# From -- ./inp_files/241995.got.cif
#   From: 2010.05.17/outbox.cif.g08.bks.cpg/sg2_121_cif.got.tgz:241995.got - 2010.06.03 11:33:40.
