data_PCOD9059102
_publ_section_title
;
Structure prediction by ZEFSAII (Michael W. Deem and Ramdas Pophale) SiO2 
 PCOD9059102
Probable space group: P -1
;
_chemical_formula_sum "Si O2"
_cell_formula_units_Z 16
_cell_length_a 11.186251
_cell_length_b 6.492237
_cell_length_c 23.877097
_cell_angle_alpha 69.877097
_cell_angle_beta 29.782707
_cell_angle_gamma 61.015538
_cell_volume 741.661701
_symmetry_space_group_name_H-M "P -1"
_symmetry_group_IT_number 2
_symmetry_cell_setting 'triclinic'
loop_
_space_group_symop_operation_xyz
x,y,z
-x,-y,-z
loop_
_atom_site_type_symbol
_atom_site_label
_atom_site_fract_x
_atom_site_fract_y
_atom_site_fract_z
Si Si1 0.935361 0.061237 0.585118
Si Si2 0.453082 0.417346 0.317570
Si Si3 0.281263 0.925325 0.665717
Si Si4 0.088859 0.403460 0.910518
Si Si5 0.295354 0.888252 0.073473
Si Si6 0.481942 0.883277 0.789348
Si Si7 0.604322 0.399853 0.050209
Si Si8 0.590284 0.220663 0.499578
O O1 0.809368 0.350424 0.611455
O O2 0.712520 0.968425 0.701401
O O3 0.000000 0.000000 0.500000
O O4 0.185251 0.913562 0.534368
O O5 0.491178 0.295877 0.374395
O O6 0.689610 0.506006 0.206662
O O7 0.491526 0.213075 0.275451
O O8 0.296053 0.888035 0.596956
O O9 0.347434 0.157922 0.623913
O O10 0.003160 0.958670 0.801656
O O11 0.217518 0.116160 0.884084
O O12 0.000000 0.500000 0.000000
O O13 0.846120 0.471561 0.960569
O O14 0.380653 0.631441 0.093055
O O15 0.318508 0.819348 0.004712
O O16 0.500000 0.000000 0.000000
O O17 0.484953 0.677525 0.848730
O O18 0.500000 0.500000 0.500000
#
# Coordination Sequence:
#
# PCOD9059102 Si02
#       8
#     2   2   2   2   2   2   2   2
#     4  11  26  45  70 101 134 179 233 292 353 411
#     4  11  24  44  71 102 140 179 231 294 342 418
#     4  11  26  45  70 101 135 183 230 278 354 411
#     4  11  23  40  67 100 139 182 227 285 344 412
#     4  11  27  43  69  98 143 184 227 288 344 416
#     4  11  25  39  70 100 135 178 235 286 348 416
#     4  11  25  41  64 102 136 184 232 277 347 417
#     4  11  27  46  72  98 138 180 230 289 343 414
#
# _framework density 21.573180000000001
#
# number of rings (size 3 to 8) (size 9 to 14) (size 15 to 20)
#    0.000    1.000    1.250    3.375    8.750    7.000 
#    0.000    0.000    0.000    0.000    0.000    0.000 
#    0.000    0.000    0.000    0.000    0.000    0.000 
#
# Total GULP energy -89492.509998 kJ/mol
# GULP energy per Si atom -5593.281875 kJ/mol
# Density = 2.152408 g / cm^3
# Si number density = 21.573180 Si / 1000 Ang^3
#
#
#
# Elastic Constant Matrix: (Units=GPa)
#
#
# Indices 1 2 3 4 5 6 
#
# 1 137.6728 35.2964 26.6186 11.5818 2.9843 -10.1049
# 2 35.2964 105.6561 24.9469 3.2645 -10.2083 -8.8999
# 3 26.6186 24.9469 59.1296 2.6024 -9.8282 -4.9951
# 4 11.5818 3.2645 2.6024 40.8131 3.2026 1.4035
# 5 2.9843 -10.2083 -9.8282 3.2026 38.1302 -4.8374
# 6 -10.1049 -8.8999 -4.9951 1.4035 -4.8374 42.2549
#
#
#
# Elastic Compliance Matrix: (Units=1/GPa)
#
#
# Indices 1 2 3 4 5 6 
#
# 1 0.008715 -0.002191 -0.003109 -0.002000 -0.001760 0.001120
# 2 -0.002191 0.011372 -0.003203 -0.000354 0.002650 0.001808
# 3 -0.003109 -0.003203 0.020652 -0.000624 0.004966 0.001613
# 4 -0.002000 -0.000354 -0.000624 0.025390 -0.002454 -0.001751
# 5 -0.001760 0.002650 0.004966 -0.002454 0.029084 0.004135
# 6 0.001120 0.001808 0.001613 -0.001751 0.004135 0.025037
#
#
# Mechanical properties :
#
#
# Convention : Reuss Voigt Hill
#
# Bulk Modulus (GPa) = 42.13464 52.90915 47.52189
# Shear Modulus (GPa) = 34.44326 38.61276 36.52801
#
# Velocity S-wave (km/s) = 4.00005 4.23525 4.11933
# Velocity P-wave (km/s) = 6.39588 6.96385 6.68590
#
# Compressibility (1/GPa) = 0.02373344
#
# Stress axis : x y z
#
# Youngs Moduli (GPa) = 114.74372 87.93426 48.42201
#
# Poissons Ratio (x) = 0.19269 0.15053
# Poissons Ratio (y) = 0.25144 0.15508
# Poissons Ratio (z) = 0.35670 0.28163
#
# Static dielectric constant tensor:
#      x y z
#    x -95.448420 -27.182330 -62.543560 
#    y -27.182330 -5.812080 -17.471190 
#    z -62.543560 -17.471190 -38.398430 
# 
# From -- ./inp_files/306084.got.cif
#   From: 2010.05.17/outbox.cif.g08.bks.cpg/sg2_154_cif.got.tgz:306084.got - 2010.06.03 11:33:40.
