data_PCOD9059745
_publ_section_title
;
Structure prediction by ZEFSAII (Michael W. Deem and Ramdas Pophale) SiO2 
 PCOD9059745
Probable space group: P -1
;
_chemical_formula_sum "Si O2"
_cell_formula_units_Z 16
_cell_length_a 7.216699
_cell_length_b 10.436970
_cell_length_c 23.805798
_cell_angle_alpha 153.845772
_cell_angle_beta 46.198708
_cell_angle_gamma 125.008685
_cell_volume 564.021754
_symmetry_space_group_name_H-M "P -1"
_symmetry_group_IT_number 2
_symmetry_cell_setting 'triclinic'
loop_
_space_group_symop_operation_xyz
x,y,z
-x,-y,-z
loop_
_atom_site_type_symbol
_atom_site_label
_atom_site_fract_x
_atom_site_fract_y
_atom_site_fract_z
Si Si1 0.467344 0.669206 0.205500
Si Si2 0.315842 0.502159 0.485790
Si Si3 0.741098 0.887959 0.329889
Si Si4 0.751217 0.387661 0.941328
Si Si5 0.776838 0.839790 0.899928
Si Si6 0.785663 0.739764 0.734469
Si Si7 0.058341 0.110732 0.593621
Si Si8 0.296825 0.713587 0.769734
O O1 0.526493 0.722017 0.279197
O O2 0.323014 0.382819 0.122720
O O3 0.231422 0.902954 0.325580
O O4 0.711727 0.616371 0.092339
O O5 0.500000 0.500000 0.500000
O O6 0.483881 0.272950 0.318503
O O7 0.010069 0.514914 0.568009
O O8 0.302849 0.817443 0.581886
O O9 0.761912 0.984705 0.427837
O O10 0.999753 0.664422 0.171391
O O11 0.774651 0.068122 0.840952
O O12 0.500000 0.500000 0.000000
O O13 0.881943 0.717188 0.769026
O O14 0.037259 0.951890 0.912680
O O15 0.500000 0.000000 0.000000
O O16 0.484475 0.694268 0.776317
O O17 0.174230 0.412987 0.674934
O O18 0.000000 0.000000 0.500000
#
# Coordination Sequence:
#
# PCOD9059745 Si02
#       8
#     2   2   2   2   2   2   2   2
#     4  11  23  43  69 102 143 185 237 301 356 444
#     4  11  24  46  70 101 144 190 247 299 361 431
#     4  11  25  44  74 105 137 197 241 298 378 428
#     4  11  23  44  68 104 147 186 240 297 363 435
#     4  11  23  42  68 100 140 182 235 291 362 422
#     4  11  24  45  70 102 144 187 240 298 359 438
#     4  11  25  47  72 104 142 183 245 306 364 439
#     4  11  25  44  70 102 138 191 236 302 364 431
#
# _framework density 28.367699000000002
#
# number of rings (size 3 to 8) (size 9 to 14) (size 15 to 20)
#    0.000    1.000    3.750    2.250    0.000    6.500 
#    6.750    0.000    0.000    0.000    0.000    0.000 
#    0.000    0.000    0.000    0.000    0.000    0.000 
#
# Total GULP energy -89283.164253 kJ/mol
# GULP energy per Si atom -5580.197766 kJ/mol
# Density = 2.830313 g / cm^3
# Si number density = 28.367699 Si / 1000 Ang^3
#
#
#
# Elastic Constant Matrix: (Units=GPa)
#
#
# Indices 1 2 3 4 5 6 
#
# 1 245.1289 40.9532 76.5564 -21.8074 -22.9901 -12.5121
# 2 40.9532 64.5560 31.8703 1.6265 -12.6348 -11.8962
# 3 76.5564 31.8703 96.3137 -27.3998 -23.9680 3.6829
# 4 -21.8074 1.6265 -27.3998 47.2699 6.5224 -8.4354
# 5 -22.9901 -12.6348 -23.9680 6.5224 78.1555 -17.5967
# 6 -12.5121 -11.8962 3.6829 -8.4354 -17.5967 64.4710
#
#
#
# Elastic Compliance Matrix: (Units=1/GPa)
#
#
# Indices 1 2 3 4 5 6 
#
# 1 0.005664 -0.001407 -0.003778 0.000628 0.000515 0.001278
# 2 -0.001407 0.021052 -0.006862 -0.004947 0.002188 0.003953
# 3 -0.003778 -0.006862 0.018856 0.008853 0.002548 -0.001223
# 4 0.000628 -0.004947 0.008853 0.027116 0.000366 0.002351
# 5 0.000515 0.002188 0.002548 0.000366 0.015068 0.004519
# 6 0.001278 0.003953 -0.001223 0.002351 0.004519 0.018099
#
#
# Mechanical properties :
#
#
# Convention : Reuss Voigt Hill
#
# Bulk Modulus (GPa) = 46.56074 78.30649 62.43362
# Shear Modulus (GPa) = 36.46717 55.08718 45.77718
#
# Velocity S-wave (km/s) = 3.58930 4.41148 4.02146
# Velocity P-wave (km/s) = 5.79882 7.32204 6.60449
#
# Compressibility (1/GPa) = 0.02147732
#
# Stress axis : x y z
#
# Youngs Moduli (GPa) = 176.55004 47.50121 53.03374
#
# Poissons Ratio (x) = 0.06685 0.20038
# Poissons Ratio (y) = 0.24846 0.36390
# Poissons Ratio (z) = 0.66708 0.32594
#
# Static dielectric constant tensor:
#      x y z
#    x 2.250370 -0.030230 -0.066830 
#    y -0.030230 2.259180 0.081750 
#    z -0.066830 0.081750 2.602880 
# 
# From -- ./inp_files/604463.got.cif
#   From: 2010.05.17/outbox.cif.g08.bks.cpg/sg2_303_cif.got.tgz:604463.got - 2010.06.03 11:33:40.
