data_PCOD9059060
_publ_section_title
;
Structure prediction by ZEFSAII (Michael W. Deem and Ramdas Pophale) SiO2 
 PCOD9059060
Probable space group: P -1
;
_chemical_formula_sum "Si O2"
_cell_formula_units_Z 16
_cell_length_a 7.617194
_cell_length_b 12.944171
_cell_length_c 11.977954
_cell_angle_alpha 37.953790
_cell_angle_beta 63.696562
_cell_angle_gamma 58.489422
_cell_volume 618.160317
_symmetry_space_group_name_H-M "P -1"
_symmetry_group_IT_number 2
_symmetry_cell_setting 'triclinic'
loop_
_space_group_symop_operation_xyz
x,y,z
-x,-y,-z
loop_
_atom_site_type_symbol
_atom_site_label
_atom_site_fract_x
_atom_site_fract_y
_atom_site_fract_z
Si Si1 0.058073 0.465054 0.661225
Si Si2 0.065732 0.823438 0.326378
Si Si3 0.508471 0.839489 0.221836
Si Si4 0.180718 0.028131 0.504873
Si Si5 0.427582 0.127622 0.170858
Si Si6 0.843516 0.528384 0.122983
Si Si7 0.853417 0.204174 0.015090
Si Si8 0.343553 0.653809 0.838349
O O1 0.013615 0.648591 0.450902
O O2 0.280943 0.321120 0.702699
O O3 0.067706 0.530799 0.731122
O O4 0.895389 0.357076 0.800988
O O5 0.310828 0.773634 0.315634
O O6 0.929814 0.893382 0.416323
O O7 0.008848 0.008659 0.116919
O O8 0.481709 0.934693 0.268477
O O9 0.500000 0.000000 0.000000
O O10 0.360858 0.843777 0.637563
O O11 0.290789 0.144384 0.305512
O O12 0.000000 0.000000 0.500000
O O13 0.631240 0.180718 0.084301
O O14 0.287567 0.267102 0.005443
O O15 0.693517 0.428049 0.198515
O O16 0.000000 0.500000 0.000000
O O17 0.853138 0.273498 0.084029
O O18 0.500000 0.500000 0.000000
#
# Coordination Sequence:
#
# PCOD9059060 Si02
#       8
#     2   2   2   2   2   2   2   2
#     4  12  25  45  74 101 138 190 240 298 345 432
#     4  11  24  46  72 102 138 183 242 294 360 418
#     4  12  24  47  73 100 139 188 246 298 347 418
#     4  11  23  43  73 105 143 184 240 302 353 432
#     4  12  25  44  70 104 144 187 229 293 364 424
#     4  12  22  39  69 102 133 181 238 284 352 423
#     4  11  25  44  67 104 149 183 225 293 367 431
#     4  11  23  40  65 105 147 182 226 292 371 429
#
# _framework density 25.883254000000001
#
# number of rings (size 3 to 8) (size 9 to 14) (size 15 to 20)
#    0.000    0.500    6.250    2.625    0.000    3.500 
#    0.000    0.625    0.000    0.000    0.000    0.000 
#    0.000    0.000    0.000    0.000    0.000    0.000 
#
# Total GULP energy -89520.287298 kJ/mol
# GULP energy per Si atom -5595.017956 kJ/mol
# Density = 2.582434 g / cm^3
# Si number density = 25.883254 Si / 1000 Ang^3
#
#
#
# Elastic Constant Matrix: (Units=GPa)
#
#
# Indices 1 2 3 4 5 6 
#
# 1 88.0768 -3.2279 36.4989 1.7747 -13.8587 -17.0239
# 2 -3.2279 93.8500 34.7171 -11.6043 4.3854 -6.1867
# 3 36.4989 34.7171 133.2916 -23.9384 -11.3350 6.2232
# 4 1.7747 -11.6043 -23.9384 57.4314 -0.4700 11.7113
# 5 -13.8587 4.3854 -11.3350 -0.4700 50.1123 13.5763
# 6 -17.0239 -6.1867 6.2232 11.7113 13.5763 30.9752
#
#
#
# Elastic Compliance Matrix: (Units=1/GPa)
#
#
# Indices 1 2 3 4 5 6 
#
# 1 0.017368 0.003682 -0.007566 -0.005931 -0.001238 0.014586
# 2 0.003682 0.013277 -0.005351 -0.001270 -0.003465 0.007750
# 3 -0.007566 -0.005351 0.013309 0.007360 0.004936 -0.012848
# 4 -0.005931 -0.001270 0.007360 0.023711 0.004697 -0.016016
# 5 -0.001238 -0.003465 0.004936 0.004697 0.025189 -0.015180
# 6 0.014586 0.007750 -0.012848 -0.016016 -0.015180 0.057138
#
#
# Mechanical properties :
#
#
# Convention : Reuss Voigt Hill
#
# Bulk Modulus (GPa) = 39.23966 50.13276 44.68621
# Shear Modulus (GPa) = 28.25521 44.18581 36.22051
#
# Velocity S-wave (km/s) = 3.30758 4.13621 3.74489
# Velocity P-wave (km/s) = 5.45710 6.49783 6.00008
#
# Compressibility (1/GPa) = 0.02548442
#
# Stress axis : x y z
#
# Youngs Moduli (GPa) = 57.57654 75.31709 75.13450
#
# Poissons Ratio (x) = -0.27734 0.56850
# Poissons Ratio (y) = -0.21202 0.40206
# Poissons Ratio (z) = 0.43565 0.40303
#
# Static dielectric constant tensor:
#      x y z
#    x 2.133730 0.042760 -0.005570 
#    y 0.042760 2.023510 -0.019800 
#    z -0.005570 -0.019800 2.083120 
# 
# From -- ./inp_files/504887.got.cif
#   From: 2010.05.17/outbox.cif.g08.bks.cpg/sg2_253_cif.got.tgz:504887.got - 2010.06.03 11:33:40.
